data_PCOD9064273
_publ_section_title
;
Structure prediction by ZEFSAII (Michael W. Deem and Ramdas Pophale) SiO2 
 PCOD9064273
Probable space group: P -1
;
_chemical_formula_sum "Si O2"
_cell_formula_units_Z 14
_cell_length_a 12.045401
_cell_length_b 10.009114
_cell_length_c 9.246982
_cell_angle_alpha 135.191307
_cell_angle_beta 124.330407
_cell_angle_gamma 62.421789
_cell_volume 645.021574
_symmetry_space_group_name_H-M "P -1"
_symmetry_group_IT_number 2
_symmetry_cell_setting 'triclinic'
loop_
_space_group_symop_operation_xyz
x,y,z
-x,-y,-z
loop_
_atom_site_type_symbol
_atom_site_label
_atom_site_fract_x
_atom_site_fract_y
_atom_site_fract_z
Si Si1 0.860980 0.410975 0.365483
Si Si2 0.770370 0.862414 0.355999
Si Si3 0.354952 0.521938 0.988564
Si Si4 0.307079 0.396290 0.350826
Si Si5 0.069715 0.284623 0.903883
Si Si6 0.022615 0.032046 0.210464
Si Si7 0.608070 0.264997 0.522404
O O1 0.765386 0.400185 0.147977
O O2 0.777868 0.540580 0.521461
O O3 0.000000 0.500000 0.500000
O O4 0.905471 0.199155 0.294257
O O5 0.681834 0.686939 0.154870
O O6 0.894853 0.809149 0.296889
O O7 0.836164 0.891426 0.583536
O O8 0.683922 0.056721 0.398077
O O9 0.500000 0.500000 0.000000
O O10 0.360689 0.652105 0.233596
O O11 0.446727 0.272109 0.394313
O O12 0.343585 0.587942 0.445777
O O13 0.211948 0.293708 0.095734
O O14 0.985745 0.156477 0.845223
O O15 0.000000 0.500000 0.000000
O O16 0.000000 0.000000 0.000000
#
# Coordination Sequence:
#
# PCOD9064273 Si02
#       7
#     2   2   2   2   2   2   2
#     4  12  24  45  70 104 149 186 243 309 367 432
#     4  12  26  47  73 104 146 195 247 301 369 448
#     4  12  26  48  73 105 148 196 240 309 378 434
#     4  11  24  45  73 103 144 191 247 305 363 442
#     4  12  26  45  74 107 150 195 242 306 375 441
#     4  12  26  42  73 110 146 191 246 302 370 440
#     4  11  25  48  72 104 144 194 250 299 371 449
#
# _framework density 21.704701
#
# number of rings (size 3 to 8) (size 9 to 14) (size 15 to 20)
#    0.000    0.286    4.286    4.714    2.000    2.286 
#    0.000    0.000    0.000    0.000    0.000    0.000 
#    0.000    0.000    0.000    0.000    0.000    0.000 
#
# Total GULP energy -78430.190843 kJ/mol
# GULP energy per Si atom -5602.156489 kJ/mol
# Density = 2.165530 g / cm^3
# Si number density = 21.704701 Si / 1000 Ang^3
#
#
#
# Elastic Constant Matrix: (Units=GPa)
#
#
# Indices 1 2 3 4 5 6 
#
# 1 114.3431 31.3599 26.6797 -4.9304 -9.5414 -1.7161
# 2 31.3599 119.9910 29.3794 6.2637 -12.5654 -18.3847
# 3 26.6797 29.3794 100.8760 -20.1616 -0.5383 -9.2958
# 4 -4.9304 6.2637 -20.1616 45.4241 -5.5536 3.2525
# 5 -9.5414 -12.5654 -0.5383 -5.5536 37.0098 -2.3890
# 6 -1.7161 -18.3847 -9.2958 3.2525 -2.3890 41.5044
#
#
#
# Elastic Compliance Matrix: (Units=1/GPa)
#
#
# Indices 1 2 3 4 5 6 
#
# 1 0.009954 -0.002114 -0.001929 0.000811 0.001883 -0.000912
# 2 -0.002114 0.010679 -0.002700 -0.002863 0.002898 0.004429
# 3 -0.001929 -0.002700 0.012415 0.005558 -0.000331 0.001051
# 4 0.000811 -0.002863 0.005558 0.025464 0.003022 -0.001811
# 5 0.001883 0.002898 -0.000331 0.003022 0.029114 0.002726
# 6 -0.000912 0.004429 0.001051 -0.001811 0.002726 0.026552
#
#
# Mechanical properties :
#
#
# Convention : Reuss Voigt Hill
#
# Bulk Modulus (GPa) = 51.11599 56.67200 53.89400
# Shear Modulus (GPa) = 37.26217 41.30705 39.28461
#
# Velocity S-wave (km/s) = 4.14790 4.36723 4.25898
# Velocity P-wave (km/s) = 6.82216 7.18313 7.00497
#
# Compressibility (1/GPa) = 0.01956335
#
# Stress axis : x y z
#
# Youngs Moduli (GPa) = 100.46306 93.64102 80.54535
#
# Poissons Ratio (x) = 0.19797 0.15535
# Poissons Ratio (y) = 0.21239 0.21745
# Poissons Ratio (z) = 0.19376 0.25280
#
# Static dielectric constant tensor:
#      x y z
#    x 1.778580 0.018910 -0.005850 
#    y 0.018910 1.788970 -0.012730 
#    z -0.005850 -0.012730 1.815690 
# 
# From -- ./inp_files/246179.got.cif
#   From: 2010.05.17/outbox.cif.g08.bks.cpg/sg2_124_cif.got.tgz:246179.got - 2010.06.03 11:33:40.
