data_PCOD9064574
_publ_section_title
;
Structure prediction by ZEFSAII (Michael W. Deem and Ramdas Pophale) SiO2 
 PCOD9064574
Probable space group: P -1
;
_chemical_formula_sum "Si O2"
_cell_formula_units_Z 16
_cell_length_a 18.555215
_cell_length_b 8.491790
_cell_length_c 5.395803
_cell_angle_alpha 58.852205
_cell_angle_beta 65.452891
_cell_angle_gamma 58.527273
_cell_volume 608.154046
_symmetry_space_group_name_H-M "P -1"
_symmetry_group_IT_number 2
_symmetry_cell_setting 'triclinic'
loop_
_space_group_symop_operation_xyz
x,y,z
-x,-y,-z
loop_
_atom_site_type_symbol
_atom_site_label
_atom_site_fract_x
_atom_site_fract_y
_atom_site_fract_z
Si Si1 0.579984 0.563447 0.305462
Si Si2 0.774368 0.684377 0.347899
Si Si3 0.328341 0.810142 0.228949
Si Si4 0.817256 0.966306 0.409567
Si Si5 0.578841 0.940957 0.247625
Si Si6 0.008044 0.812906 0.323560
Si Si7 0.258953 0.650677 0.053546
Si Si8 0.931425 0.410042 0.084488
O O1 0.500000 0.500000 0.500000
O O2 0.643710 0.417207 0.538165
O O3 0.564989 0.791016 0.190998
O O4 0.640367 0.472300 0.059105
O O5 0.817820 0.816428 0.313816
O O6 0.674635 0.818103 0.320363
O O7 0.833639 0.571569 0.124822
O O8 0.773618 0.509934 0.670437
O O9 0.272800 0.980993 0.360545
O O10 0.264216 0.816254 0.099144
O O11 0.411296 0.856502 0.013273
O O12 0.908491 0.863308 0.492352
O O13 0.803234 0.197469 0.181593
O O14 0.500000 0.000000 0.500000
O O15 0.055887 0.755418 0.571665
O O16 0.046942 0.645782 0.189422
O O17 0.000000 0.000000 0.000000
O O18 0.000000 0.500000 0.000000
#
# Coordination Sequence:
#
# PCOD9064574 Si02
#       8
#     2   2   2   2   2   2   2   2
#     4  11  26  45  71 103 144 189 243 313 375 447
#     4  12  26  47  76 104 152 194 246 315 377 457
#     4  11  25  44  72 101 145 186 244 299 372 452
#     4  11  26  45  75 108 145 197 247 311 373 454
#     4  12  27  45  75 107 142 194 246 305 379 449
#     4  12  28  49  80 116 158 203 265 325 385 467
#     4  11  24  46  69 107 139 196 245 298 380 447
#     4  12  28  50  77 116 157 208 260 317 397 465
#
# _framework density 26.309123
#
# number of rings (size 3 to 8) (size 9 to 14) (size 15 to 20)
#    0.000    0.500    3.750    3.000    8.750    2.500 
#    0.000    0.000    0.000    0.000    0.000    0.000 
#    0.000    0.000    0.000    0.000    0.000    0.000 
#
# Total GULP energy -89434.463755 kJ/mol
# GULP energy per Si atom -5589.653985 kJ/mol
# Density = 2.624924 g / cm^3
# Si number density = 26.309123 Si / 1000 Ang^3
#
#
#
# Elastic Constant Matrix: (Units=GPa)
#
#
# Indices 1 2 3 4 5 6 
#
# 1 72.6443 9.8986 -6.3984 -6.9039 2.0035 -17.0896
# 2 9.8986 103.5771 25.2112 -2.0956 1.3476 -2.5202
# 3 -6.3984 25.2112 100.9634 -10.4427 -9.3014 -0.8790
# 4 -6.9039 -2.0956 -10.4427 48.8611 4.4429 -14.2133
# 5 2.0035 1.3476 -9.3014 4.4429 36.6844 6.5508
# 6 -17.0896 -2.5202 -0.8790 -14.2133 6.5508 47.3616
#
#
#
# Elastic Compliance Matrix: (Units=1/GPa)
#
#
# Indices 1 2 3 4 5 6 
#
# 1 0.016549 -0.001709 0.001856 0.005144 -0.002384 0.007788
# 2 -0.001709 0.010518 -0.002859 -0.000336 -0.000963 -0.000078
# 3 0.001856 -0.002859 0.011237 0.002683 0.002312 0.001212
# 4 0.005144 -0.000336 0.002683 0.025069 -0.004414 0.010022
# 5 -0.002384 -0.000963 0.002312 -0.004414 0.029670 -0.006297
# 6 0.007788 -0.000078 0.001212 0.010022 -0.006297 0.027821
#
#
# Mechanical properties :
#
#
# Convention : Reuss Voigt Hill
#
# Bulk Modulus (GPa) = 30.41371 37.17861 33.79616
# Shear Modulus (GPa) = 36.43058 43.14632 39.78845
#
# Velocity S-wave (km/s) = 3.72521 4.05405 3.89311
# Velocity P-wave (km/s) = 5.48527 6.00632 5.75170
#
# Compressibility (1/GPa) = 0.03287991
#
# Stress axis : x y z
#
# Youngs Moduli (GPa) = 60.42737 95.07860 88.99104
#
# Poissons Ratio (x) = 0.16245 -0.16513
# Poissons Ratio (y) = 0.10324 0.25441
# Poissons Ratio (z) = -0.11213 0.27181
#
# Static dielectric constant tensor:
#      x y z
#    x 2.192320 0.090300 0.036250 
#    y 0.090300 2.157300 -0.065580 
#    z 0.036250 -0.065580 2.229140 
# 
# From -- ./inp_files/48428.got.cif
#   From: 2010.05.17/outbox.cif.g08.bks.cpg/sg2_25_cif.got.tgz:48428.got - 2010.06.03 11:33:40.
