data_PCOD9064213
_publ_section_title
;
Structure prediction by ZEFSAII (Michael W. Deem and Ramdas Pophale) SiO2 
 PCOD9064213
Probable space group: P -1
;
_chemical_formula_sum "Si O2"
_cell_formula_units_Z 15
_cell_length_a 18.699810
_cell_length_b 11.461197
_cell_length_c 8.866804
_cell_angle_alpha 39.212051
_cell_angle_beta 72.054995
_cell_angle_gamma 44.090272
_cell_volume 689.873124
_symmetry_space_group_name_H-M "P -1"
_symmetry_group_IT_number 2
_symmetry_cell_setting 'triclinic'
loop_
_space_group_symop_operation_xyz
x,y,z
-x,-y,-z
loop_
_atom_site_type_symbol
_atom_site_label
_atom_site_fract_x
_atom_site_fract_y
_atom_site_fract_z
Si Si1 0.975624 0.716390 0.589899
Si Si2 0.238626 0.687379 0.056341
Si Si3 0.131650 0.718650 0.379633
Si Si4 0.624177 0.643219 0.239532
Si Si5 0.956493 0.336030 0.057480
Si Si6 0.529111 0.539396 0.780841
Si Si7 0.323168 0.261230 0.188590
Si Si8 0.500000 0.500000 0.500000
O O1 0.994120 0.741470 0.726306
O O2 0.085600 0.599002 0.541895
O O3 0.977760 0.492011 0.809876
O O4 0.846587 0.044275 0.279821
O O5 0.148289 0.767268 0.154630
O O6 0.333133 0.645156 0.111443
O O7 0.318193 0.371163 0.241889
O O8 0.263740 0.490863 0.602221
O O9 0.031332 0.034081 0.222035
O O10 0.596795 0.486060 0.453682
O O11 0.656905 0.621820 0.067255
O O12 0.500000 0.000000 0.000000
O O13 0.811000 0.570547 0.919968
O O14 0.514299 0.449571 0.728668
O O15 0.429678 0.900491 0.466548
O O16 0.500000 0.500000 0.000000
#
# Coordination Sequence:
#
# PCOD9064213 Si02
#       8
#     2   2   2   2   2   2   2   1
#     4  11  24  45  72 104 147 190 243 306 361 444
#     4  12  25  46  72 106 150 196 240 307 377 435
#     4  12  24  46  68 105 149 186 244 298 364 442
#     4  12  25  47  76 106 145 190 250 305 370 446
#     4  11  25  44  72 109 139 199 249 293 373 439
#     4  12  27  49  74 115 149 195 255 315 377 449
#     4  12  24  48  76 103 153 198 247 308 375 449
#     4  12  26  50  78 110 148 194 248 314 374 446
#
# _framework density 21.743127999999999
#
# number of rings (size 3 to 8) (size 9 to 14) (size 15 to 20)
#    0.000    0.267    5.333    3.600    0.000    4.800 
#    2.400    0.000    0.000    0.000    0.000    0.000 
#    0.000    0.000    0.000    0.000    0.000    0.000 
#
# Total GULP energy -83727.660037 kJ/mol
# GULP energy per Si atom -5581.844002 kJ/mol
# Density = 2.169364 g / cm^3
# Si number density = 21.743128 Si / 1000 Ang^3
#
#
#
# Elastic Constant Matrix: (Units=GPa)
#
#
# Indices 1 2 3 4 5 6 
#
# 1 114.9797 36.2594 25.5292 7.9114 10.1512 -29.8779
# 2 36.2594 61.4737 29.1875 24.9629 -3.5346 -26.1103
# 3 25.5292 29.1875 83.2640 10.5238 8.0011 -17.3255
# 4 7.9114 24.9629 10.5238 40.5806 -12.9430 0.9819
# 5 10.1512 -3.5346 8.0011 -12.9430 42.0198 15.1153
# 6 -29.8779 -26.1103 -17.3255 0.9819 15.1153 42.2900
#
#
#
# Elastic Compliance Matrix: (Units=1/GPa)
#
#
# Indices 1 2 3 4 5 6 
#
# 1 0.013433 -0.001248 0.000511 -0.005342 -0.009581 0.012478
# 2 -0.001248 0.044024 -0.002671 -0.032330 -0.016963 0.032019
# 3 0.000511 -0.002671 0.015942 -0.005336 -0.007985 0.008221
# 4 -0.005342 -0.032330 -0.005336 0.057845 0.031227 -0.038425
# 5 -0.009581 -0.016963 -0.007985 0.031227 0.049878 -0.039066
# 6 0.012478 0.032019 0.008221 -0.038425 -0.039066 0.070454
#
#
# Mechanical properties :
#
#
# Convention : Reuss Voigt Hill
#
# Bulk Modulus (GPa) = 15.01872 49.07440 32.04656
# Shear Modulus (GPa) = 17.81987 36.22750 27.02368
#
# Velocity S-wave (km/s) = 2.86591 4.08629 3.52925
# Velocity P-wave (km/s) = 4.22771 6.69946 5.60162
#
# Compressibility (1/GPa) = 0.06658355
#
# Stress axis : x y z
#
# Youngs Moduli (GPa) = 74.44258 22.71485 62.72771
#
# Poissons Ratio (x) = 0.02834 -0.03205
# Poissons Ratio (y) = 0.09289 0.16754
# Poissons Ratio (z) = -0.03804 0.06067
#
# Static dielectric constant tensor:
#      x y z
#    x 1.782820 0.003600 -0.008700 
#    y 0.003600 1.800680 0.018060 
#    z -0.008700 0.018060 1.796290 
# 
# From -- ./inp_files/260446.got.cif
#   From: 2010.05.17/outbox.cif.g08.bks.cpg/sg2_131_cif.got.tgz:260446.got - 2010.06.03 11:33:40.
