data_PCOD9064814
_publ_section_title
;
Structure prediction by ZEFSAII (Michael W. Deem and Ramdas Pophale) SiO2 
 PCOD9064814
Probable space group: P -1
;
_chemical_formula_sum "Si O2"
_cell_formula_units_Z 14
_cell_length_a 6.601333
_cell_length_b 15.512586
_cell_length_c 14.844993
_cell_angle_alpha 148.811109
_cell_angle_beta 101.739661
_cell_angle_gamma 63.845381
_cell_volume 655.494965
_symmetry_space_group_name_H-M "P -1"
_symmetry_group_IT_number 2
_symmetry_cell_setting 'triclinic'
loop_
_space_group_symop_operation_xyz
x,y,z
-x,-y,-z
loop_
_atom_site_type_symbol
_atom_site_label
_atom_site_fract_x
_atom_site_fract_y
_atom_site_fract_z
Si Si1 0.577915 0.847085 0.952983
Si Si2 0.416061 0.132060 0.523874
Si Si3 0.549359 0.426936 0.221476
Si Si4 0.939317 0.521267 0.409870
Si Si5 0.683800 0.446658 0.054093
Si Si6 0.794957 0.929186 0.216659
Si Si7 0.966894 0.209921 0.450983
O O1 0.411345 0.756593 0.879857
O O2 0.838978 0.663880 0.784541
O O3 0.628944 0.910810 0.110526
O O4 0.500000 0.000000 0.000000
O O5 0.334111 0.352969 0.738886
O O6 0.186780 0.124151 0.462744
O O7 0.500000 0.000000 0.500000
O O8 0.627508 0.046135 0.391160
O O9 0.705385 0.513304 0.353852
O O10 0.604545 0.382209 0.080543
O O11 0.269548 0.598756 0.359389
O O12 0.000000 0.500000 0.500000
O O13 0.937078 0.713697 0.551550
O O14 0.500000 0.500000 0.000000
O O15 0.966125 0.274877 0.911870
O O16 0.892619 0.053594 0.287428
#
# Coordination Sequence:
#
# PCOD9064814 Si02
#       7
#     2   2   2   2   2   2   2
#     4  11  28  43  70 109 145 192 241 298 370 428
#     4  12  28  48  73 109 143 193 245 296 367 429
#     4  11  24  50  70 104 150 184 248 300 355 443
#     4  11  25  45  74 103 141 194 240 297 367 424
#     4  12  26  47  74 107 146 194 240 302 367 424
#     4  12  27  48  74 108 147 189 247 301 360 440
#     4  11  24  46  74 100 145 185 239 300 358 428
#
# _framework density 21.357906
#
# number of rings (size 3 to 8) (size 9 to 14) (size 15 to 20)
#    0.000    0.571    4.286    1.714   12.000    3.429 
#    0.000    0.000    0.000    0.000    0.000    0.000 
#    0.000    0.000    0.000    0.000    0.000    0.000 
#
# Total GULP energy -78259.016239 kJ/mol
# GULP energy per Si atom -5589.929731 kJ/mol
# Density = 2.130929 g / cm^3
# Si number density = 21.357906 Si / 1000 Ang^3
#
#
#
# Elastic Constant Matrix: (Units=GPa)
#
#
# Indices 1 2 3 4 5 6 
#
# 1 117.6482 45.9136 34.3058 3.7882 7.7220 2.3935
# 2 45.9136 139.5808 22.0525 2.8288 5.7173 5.3579
# 3 34.3058 22.0525 89.2041 11.5010 -0.8694 4.5235
# 4 3.7882 2.8288 11.5010 41.1542 -2.6735 4.8210
# 5 7.7220 5.7173 -0.8694 -2.6735 31.3927 12.3376
# 6 2.3935 5.3579 4.5235 4.8210 12.3376 34.5633
#
#
#
# Elastic Compliance Matrix: (Units=1/GPa)
#
#
# Indices 1 2 3 4 5 6 
#
# 1 0.010826 -0.002939 -0.003505 -0.000123 -0.002683 0.001139
# 2 -0.002939 0.008323 -0.000893 0.000008 -0.000507 -0.000790
# 3 -0.003505 -0.000893 0.013265 -0.003027 0.001746 -0.001556
# 4 -0.000123 0.000008 -0.003027 0.025957 0.003978 -0.004637
# 5 -0.002683 -0.000507 0.001746 0.003978 0.038615 -0.014303
# 6 0.001139 -0.000790 -0.001556 -0.004637 -0.014303 0.034932
#
#
# Mechanical properties :
#
#
# Convention : Reuss Voigt Hill
#
# Bulk Modulus (GPa) = 56.36912 61.21964 58.79438
# Shear Modulus (GPa) = 32.78580 37.69945 35.24263
#
# Velocity S-wave (km/s) = 3.92224 4.20590 4.06655
# Velocity P-wave (km/s) = 6.85288 7.23271 7.04535
#
# Compressibility (1/GPa) = 0.01774021
#
# Stress axis : x y z
#
# Youngs Moduli (GPa) = 92.37334 120.14933 75.38502
#
# Poissons Ratio (x) = 0.35307 0.26422
# Poissons Ratio (y) = 0.27145 0.06734
# Poissons Ratio (z) = 0.32376 0.10733
#
# Static dielectric constant tensor:
#      x y z
#    x 1.770570 0.014360 0.014030 
#    y 0.014360 1.747840 0.035810 
#    z 0.014030 0.035810 1.774730 
# 
# From -- ./inp_files/48495.got.cif
#   From: 2010.05.17/outbox.cif.g08.bks.cpg/sg2_25_cif.got.tgz:48495.got - 2010.06.03 11:33:40.
