data_PCOD9064256
_publ_section_title
;
Structure prediction by ZEFSAII (Michael W. Deem and Ramdas Pophale) SiO2 
 PCOD9064256
Probable space group: P -1
;
_chemical_formula_sum "Si O2"
_cell_formula_units_Z 11
_cell_length_a 18.483671
_cell_length_b 5.318807
_cell_length_c 5.087629
_cell_angle_alpha 92.219249
_cell_angle_beta 73.988554
_cell_angle_gamma 121.075777
_cell_volume 408.493214
_symmetry_space_group_name_H-M "P -1"
_symmetry_group_IT_number 2
_symmetry_cell_setting 'triclinic'
loop_
_space_group_symop_operation_xyz
x,y,z
-x,-y,-z
loop_
_atom_site_type_symbol
_atom_site_label
_atom_site_fract_x
_atom_site_fract_y
_atom_site_fract_z
Si Si1 0.399780 0.241830 0.552967
Si Si2 0.319456 0.843172 0.135777
Si Si3 0.079193 0.333627 0.937324
Si Si4 0.000000 0.500000 0.500000
Si Si5 0.251050 0.328817 0.834415
Si Si6 0.152990 0.827736 0.537134
O O1 0.500000 0.500000 0.500000
O O2 0.340560 0.393403 0.601514
O O3 0.385394 0.028282 0.314108
O O4 0.362065 0.030900 0.837073
O O5 0.233272 0.849865 0.304886
O O6 0.286910 0.503068 0.082283
O O7 0.181426 0.421417 0.819022
O O8 0.070976 0.495767 0.690575
O O9 0.063316 0.464385 0.216044
O O10 0.000000 0.000000 0.000000
O O11 0.088042 0.891818 0.448957
O O12 0.189788 0.991013 0.783732
#
# Coordination Sequence:
#
# PCOD9064256 Si02
#       6
#     2   2   2   1   2   2
#     4  11  27  49  76 111 143 179 238 298 354 434
#     4  11  25  47  75 106 144 187 232 291 365 424
#     4  12  26  44  65 102 143 195 241 294 353 417
#     4  12  24  42  68  98 144 184 252 294 346 412
#     4  11  24  45  72  99 145 187 234 291 361 418
#     4  11  26  43  67 104 145 188 245 296 348 422
#
# _framework density 26.928232999999999
#
# number of rings (size 3 to 8) (size 9 to 14) (size 15 to 20)
#    0.000    0.727    3.636    3.273    0.000    9.455 
#    0.000    0.000    0.000    0.000    0.000    0.000 
#    0.000    0.000    0.000    0.000    0.000    0.000 
#
# Total GULP energy -61319.988516 kJ/mol
# GULP energy per Si atom -5574.544411 kJ/mol
# Density = 2.686694 g / cm^3
# Si number density = 26.928233 Si / 1000 Ang^3
#
#
#
# Elastic Constant Matrix: (Units=GPa)
#
#
# Indices 1 2 3 4 5 6 
#
# 1 116.7299 72.2573 36.4528 2.0492 -7.5934 38.3863
# 2 72.2573 186.9951 91.2974 30.4217 5.8247 49.2842
# 3 36.4528 91.2974 173.4354 27.4398 31.5066 8.7604
# 4 2.0492 30.4217 27.4398 56.9297 9.2295 2.9642
# 5 -7.5934 5.8247 31.5066 9.2295 47.7430 5.4067
# 6 38.3863 49.2842 8.7604 2.9642 5.4067 66.2360
#
#
#
# Elastic Compliance Matrix: (Units=1/GPa)
#
#
# Indices 1 2 3 4 5 6 
#
# 1 0.013083 -0.003158 -0.001803 0.001729 0.003933 -0.005393
# 2 -0.003158 0.010834 -0.004660 -0.003553 0.002580 -0.005667
# 3 -0.001803 -0.004660 0.009767 -0.001323 -0.006338 0.003797
# 4 0.001729 -0.003553 -0.001323 0.020385 -0.002485 0.001107
# 5 0.003933 0.002580 -0.006338 -0.002485 0.026532 -0.005415
# 6 -0.005393 -0.005667 0.003797 0.001107 -0.005415 0.022329
#
#
# Mechanical properties :
#
#
# Convention : Reuss Voigt Hill
#
# Bulk Modulus (GPa) = 69.23834 97.46392 83.35113
# Shear Modulus (GPa) = 39.37458 52.65861 46.01659
#
# Velocity S-wave (km/s) = 3.82803 4.42692 4.13832
# Velocity P-wave (km/s) = 6.73100 7.89954 7.33856
#
# Compressibility (1/GPa) = 0.01444286
#
# Stress axis : x y z
#
# Youngs Moduli (GPa) = 76.43300 92.30143 102.39055
#
# Poissons Ratio (x) = 0.29146 0.18463
# Poissons Ratio (y) = 0.24135 0.47711
# Poissons Ratio (z) = 0.13782 0.43010
#
# Static dielectric constant tensor:
#      x y z
#    x 2.219870 -0.056340 0.158710 
#    y -0.056340 2.425950 0.041390 
#    z 0.158710 0.041390 2.133120 
# 
# From -- ./inp_files/3457.got.cif
#   From: 2010.05.17/outbox.cif.g08.bks.cpg/sg2_2_cif.got.tgz:3457.got - 2010.06.03 11:33:40.
