data_PCOD9064575
_publ_section_title
;
Structure prediction by ZEFSAII (Michael W. Deem and Ramdas Pophale) SiO2 
 PCOD9064575
Probable space group: P -1
;
_chemical_formula_sum "Si O2"
_cell_formula_units_Z 16
_cell_length_a 12.513813
_cell_length_b 5.166194
_cell_length_c 13.121586
_cell_angle_alpha 119.510339
_cell_angle_beta 74.911212
_cell_angle_gamma 79.498528
_cell_volume 662.343656
_symmetry_space_group_name_H-M "P -1"
_symmetry_group_IT_number 2
_symmetry_cell_setting 'triclinic'
loop_
_space_group_symop_operation_xyz
x,y,z
-x,-y,-z
loop_
_atom_site_type_symbol
_atom_site_label
_atom_site_fract_x
_atom_site_fract_y
_atom_site_fract_z
Si Si1 0.475521 0.564966 0.238989
Si Si2 0.258340 0.490035 0.290309
Si Si3 0.794912 0.468569 0.455320
Si Si4 0.098151 0.198548 0.788239
Si Si5 0.175659 0.485862 0.011054
Si Si6 0.318488 0.938218 0.032451
Si Si7 0.463403 0.243048 0.397011
Si Si8 0.009757 0.311878 0.608966
O O1 0.335000 0.687083 0.264228
O O2 0.559827 0.319261 0.090220
O O3 0.473572 0.367534 0.304158
O O4 0.520434 0.856948 0.304124
O O5 0.234365 0.601541 0.434996
O O6 0.127594 0.507577 0.292188
O O7 0.335506 0.134203 0.163322
O O8 0.664515 0.717886 0.511803
O O9 0.909375 0.563482 0.458174
O O10 0.833483 0.182056 0.309454
O O11 0.167581 0.350864 0.874157
O O12 0.083726 0.279122 0.688255
O O13 0.962044 0.324971 0.885598
O O14 0.237115 0.741551 0.043462
O O15 0.250107 0.195528 0.010972
O O16 0.500000 0.500000 0.500000
O O17 0.000000 0.000000 0.500000
#
# Coordination Sequence:
#
# PCOD9064575 Si02
#       8
#     2   2   2   2   2   2   2   2
#     4  11  26  47  70 107 141 190 244 297 357 420
#     4  11  24  46  69 108 147 186 246 300 354 428
#     4  11  26  42  72 105 142 189 238 302 362 423
#     4  11  26  44  69 104 147 182 241 297 358 428
#     4  11  28  46  71 108 142 193 239 295 356 435
#     4  12  26  47  77 100 146 195 243 289 365 425
#     4  11  26  47  72 104 147 187 242 297 357 429
#     4  12  23  41  71 102 144 188 235 292 370 422
#
# _framework density 24.156642000000002
#
# number of rings (size 3 to 8) (size 9 to 14) (size 15 to 20)
#    0.000    0.750    2.500    3.375    8.750    3.000 
#    0.000    4.375    0.000    0.000    0.000    0.000 
#    0.000    0.000    0.000    0.000    0.000    0.000 
#
# Total GULP energy -89236.027995 kJ/mol
# GULP energy per Si atom -5577.251750 kJ/mol
# Density = 2.410166 g / cm^3
# Si number density = 24.156642 Si / 1000 Ang^3
#
#
#
# Elastic Constant Matrix: (Units=GPa)
#
#
# Indices 1 2 3 4 5 6 
#
# 1 79.8549 19.0073 46.6192 7.3515 6.3487 28.4835
# 2 19.0073 86.3130 36.5924 13.2558 8.9514 16.2998
# 3 46.6192 36.5924 164.9415 30.5465 11.5306 8.4641
# 4 7.3515 13.2558 30.5465 33.1630 0.0459 12.4342
# 5 6.3487 8.9514 11.5306 0.0459 48.6503 5.4590
# 6 28.4835 16.2998 8.4641 12.4342 5.4590 26.9501
#
#
#
# Elastic Compliance Matrix: (Units=1/GPa)
#
#
# Indices 1 2 3 4 5 6 
#
# 1 0.029305 0.002056 -0.009894 0.015571 0.002251 -0.036748
# 2 0.002056 0.014427 -0.003300 0.000530 -0.001031 -0.009898
# 3 -0.009894 -0.003300 0.011321 -0.012619 -0.002481 0.015222
# 4 0.015571 0.000530 -0.012619 0.052354 0.005076 -0.037997
# 5 0.002251 -0.001031 -0.002481 0.005076 0.021904 -0.007756
# 6 -0.036748 -0.009898 0.015222 -0.037997 -0.007756 0.096252
#
#
# Mechanical properties :
#
#
# Convention : Reuss Voigt Hill
#
# Bulk Modulus (GPa) = 30.50966 59.50524 45.00745
# Shear Modulus (GPa) = 19.32271 37.01205 28.16738
#
# Velocity S-wave (km/s) = 2.83131 3.91854 3.41842
# Velocity P-wave (km/s) = 4.83174 6.72011 5.85259
#
# Compressibility (1/GPa) = 0.03277650
#
# Stress axis : x y z
#
# Youngs Moduli (GPa) = 34.12410 69.31635 88.33434
#
# Poissons Ratio (x) = -0.14253 0.87399
# Poissons Ratio (y) = -0.07017 0.29149
# Poissons Ratio (z) = 0.33763 0.22873
#
# Static dielectric constant tensor:
#      x y z
#    x 1.793510 0.040020 0.051140 
#    y 0.040020 1.971120 -0.028740 
#    z 0.051140 -0.028740 1.882500 
# 
# From -- ./inp_files/511302.got.cif
#   From: 2010.05.17/outbox.cif.g08.bks.cpg/sg2_256_cif.got.tgz:511302.got - 2010.06.03 11:33:40.
