data_PCOD9064967
_publ_section_title
;
Structure prediction by ZEFSAII (Michael W. Deem and Ramdas Pophale) SiO2 
 PCOD9064967
Probable space group: P -1
;
_chemical_formula_sum "Si O2"
_cell_formula_units_Z 14
_cell_length_a 12.009653
_cell_length_b 11.525812
_cell_length_c 8.232291
_cell_angle_alpha 61.118750
_cell_angle_beta 123.074888
_cell_angle_gamma 75.432440
_cell_volume 595.425797
_symmetry_space_group_name_H-M "P -1"
_symmetry_group_IT_number 2
_symmetry_cell_setting 'triclinic'
loop_
_space_group_symop_operation_xyz
x,y,z
-x,-y,-z
loop_
_atom_site_type_symbol
_atom_site_label
_atom_site_fract_x
_atom_site_fract_y
_atom_site_fract_z
Si Si1 0.189645 0.734495 0.150473
Si Si2 0.331008 0.682655 0.650274
Si Si3 0.065553 0.080125 0.645374
Si Si4 0.802713 0.567584 0.734201
Si Si5 0.164957 0.312083 0.657614
Si Si6 0.811868 0.975022 0.583078
Si Si7 0.533670 0.954323 0.371216
O O1 0.305072 0.659774 0.458632
O O2 0.213644 0.581907 0.169582
O O3 0.194554 0.874947 0.970959
O O4 0.968154 0.868945 0.919300
O O5 0.351378 0.823990 0.605875
O O6 0.500000 0.500000 0.000000
O O7 0.137876 0.791806 0.520204
O O8 0.107597 0.204594 0.629846
O O9 0.094541 0.044671 0.498304
O O10 0.796965 0.616431 0.509547
O O11 0.609072 0.755512 0.529634
O O12 0.000000 0.500000 0.000000
O O13 0.000000 0.500000 0.500000
O O14 0.359148 0.141688 0.016149
O O15 0.721274 0.901992 0.513531
O O16 0.500000 0.000000 0.500000
#
# Coordination Sequence:
#
# PCOD9064967 Si02
#       7
#     2   2   2   2   2   2   2
#     4  11  24  46  78 105 147 195 240 299 378 435
#     4  11  26  43  72 108 150 190 251 301 362 443
#     4  11  24  48  74 105 151 198 242 304 376 437
#     4  12  24  49  75 109 148 194 246 308 371 449
#     4  12  27  45  76 108 152 198 248 308 377 437
#     4  11  24  48  72 103 147 194 245 303 372 440
#     4  12  28  46  76 108 148 194 258 307 372 446
#
# _framework density 23.512585000000001
#
# number of rings (size 3 to 8) (size 9 to 14) (size 15 to 20)
#    0.000    0.571    2.857    5.571    8.000    0.000 
#    2.571    3.571    0.000    0.000    0.000    0.000 
#    0.000    0.000    0.000    0.000    0.000    0.000 
#
# Total GULP energy -78078.045071 kJ/mol
# GULP energy per Si atom -5577.003219 kJ/mol
# Density = 2.345907 g / cm^3
# Si number density = 23.512585 Si / 1000 Ang^3
#
#
#
# Elastic Constant Matrix: (Units=GPa)
#
#
# Indices 1 2 3 4 5 6 
#
# 1 81.2677 27.1032 9.6962 -3.5326 -6.9227 -6.7602
# 2 27.1032 133.1739 60.8521 -20.6224 -15.0705 5.6879
# 3 9.6962 60.8521 170.4136 -11.8926 -18.3416 -7.7516
# 4 -3.5326 -20.6224 -11.8926 47.3597 4.9024 -6.0411
# 5 -6.9227 -15.0705 -18.3416 4.9024 19.3301 -0.3425
# 6 -6.7602 5.6879 -7.7516 -6.0411 -0.3425 44.4223
#
#
#
# Elastic Compliance Matrix: (Units=1/GPa)
#
#
# Indices 1 2 3 4 5 6 
#
# 1 0.013672 -0.002844 0.000719 -0.000062 0.003423 0.002588
# 2 -0.002844 0.010414 -0.003069 0.002960 0.003404 -0.001873
# 3 0.000719 -0.003069 0.007572 0.000345 0.004996 0.001909
# 4 -0.000062 0.002960 0.000345 0.023176 -0.003215 0.002799
# 5 0.003423 0.003404 0.004996 -0.003215 0.061186 0.000991
# 6 0.002588 -0.001873 0.001909 0.002799 0.000991 0.023866
#
#
# Mechanical properties :
#
#
# Convention : Reuss Voigt Hill
#
# Bulk Modulus (GPa) = 47.01375 64.46202 55.73788
# Shear Modulus (GPa) = 31.77370 41.36932 36.57151
#
# Velocity S-wave (km/s) = 3.68006 4.19914 3.94814
# Velocity P-wave (km/s) = 6.17217 7.14043 6.67388
#
# Compressibility (1/GPa) = 0.02127037
#
# Stress axis : x y z
#
# Youngs Moduli (GPa) = 73.14290 96.02646 132.07210
#
# Poissons Ratio (x) = 0.27310 -0.09502
# Poissons Ratio (y) = 0.20802 0.40532
# Poissons Ratio (z) = -0.05263 0.29470
#
# Static dielectric constant tensor:
#      x y z
#    x 1.891690 0.085220 0.009770 
#    y 0.085220 1.995470 -0.050720 
#    z 0.009770 -0.050720 1.947010 
# 
# From -- ./inp_files/307157.got.cif
#   From: 2010.05.17/outbox.cif.g08.bks.cpg/sg2_154_cif.got.tgz:307157.got - 2010.06.03 11:33:40.
