data_PCOD9064348
_publ_section_title
;
Structure prediction by ZEFSAII (Michael W. Deem and Ramdas Pophale) SiO2 
 PCOD9064348
Probable space group: P -1
;
_chemical_formula_sum "Si O2"
_cell_formula_units_Z 12
_cell_length_a 8.321586
_cell_length_b 7.974530
_cell_length_c 19.708097
_cell_angle_alpha 32.450873
_cell_angle_beta 129.362420
_cell_angle_gamma 126.836790
_cell_volume 535.997649
_symmetry_space_group_name_H-M "P -1"
_symmetry_group_IT_number 2
_symmetry_cell_setting 'triclinic'
loop_
_space_group_symop_operation_xyz
x,y,z
-x,-y,-z
loop_
_atom_site_type_symbol
_atom_site_label
_atom_site_fract_x
_atom_site_fract_y
_atom_site_fract_z
Si Si1 0.535934 0.881598 0.154178
Si Si2 0.142533 0.723574 0.642817
Si Si3 0.821806 0.693362 0.068394
Si Si4 0.962059 0.741432 0.350454
Si Si5 0.777283 0.440810 0.994786
Si Si6 0.613681 0.780244 0.724812
O O1 0.728266 0.826597 0.273477
O O2 0.413099 0.546605 0.213463
O O3 0.386053 0.136257 0.043775
O O4 0.679829 0.087327 0.066057
O O5 0.147737 0.536258 0.780795
O O6 0.061077 0.444341 0.663522
O O7 0.380602 0.872617 0.631538
O O8 0.000000 0.000000 0.500000
O O9 0.807771 0.490984 0.065159
O O10 0.000000 0.000000 0.000000
O O11 0.000000 0.500000 0.500000
O O12 0.172869 0.001050 0.315629
O O13 0.647330 0.689975 0.842701
O O14 0.000000 0.500000 0.000000
#
# Coordination Sequence:
#
# PCOD9064348 Si02
#       6
#     2   2   2   2   2   2
#     4  11  25  44  73 106 142 179 242 296 356 423
#     4  11  28  47  69 105 152 192 241 295 360 433
#     4  12  27  43  72 112 144 188 243 302 356 421
#     4  11  27  46  75 104 143 197 238 292 367 430
#     4  12  23  42  76 104 143 183 235 298 363 418
#     4  11  24  45  74 103 144 188 238 301 360 421
#
# _framework density 22.388157
#
# number of rings (size 3 to 8) (size 9 to 14) (size 15 to 20)
#    0.000    0.667    3.333    3.000    7.000    4.667 
#    0.000    0.000    0.000    0.000    0.000    0.000 
#    0.000    0.000    0.000    0.000    0.000    0.000 
#
# Total GULP energy -66905.321571 kJ/mol
# GULP energy per Si atom -5575.443464 kJ/mol
# Density = 2.233720 g / cm^3
# Si number density = 22.388157 Si / 1000 Ang^3
#
#
#
# Elastic Constant Matrix: (Units=GPa)
#
#
# Indices 1 2 3 4 5 6 
#
# 1 100.0387 66.4782 77.7749 7.6639 16.4800 8.8284
# 2 66.4782 172.2580 70.4393 -7.1968 -11.8698 24.6116
# 3 77.7749 70.4393 184.3695 12.0253 12.3053 6.8102
# 4 7.6639 -7.1968 12.0253 33.0913 4.2520 -4.8947
# 5 16.4800 -11.8698 12.3053 4.2520 50.0306 -1.3697
# 6 8.8284 24.6116 6.8102 -4.8947 -1.3697 51.2249
#
#
#
# Elastic Compliance Matrix: (Units=1/GPa)
#
#
# Indices 1 2 3 4 5 6 
#
# 1 0.019197 -0.005757 -0.005280 -0.003034 -0.006141 -0.000294
# 2 -0.005757 0.009508 -0.001570 0.002993 0.004203 -0.002969
# 3 -0.005280 -0.001570 0.008407 -0.002058 -0.000517 0.000336
# 4 -0.003034 0.002993 -0.002058 0.032751 -0.000500 0.002475
# 5 -0.006141 0.004203 -0.000517 -0.000500 0.023169 -0.000320
# 6 -0.000294 -0.002969 0.000336 0.002475 -0.000320 0.021182
#
#
# Mechanical properties :
#
#
# Convention : Reuss Voigt Hill
#
# Bulk Modulus (GPa) = 84.04817 98.45010 91.24914
# Shear Modulus (GPa) = 34.86907 43.00096 38.93502
#
# Velocity S-wave (km/s) = 3.95077 4.38734 4.17476
# Velocity P-wave (km/s) = 7.64423 8.35072 8.00528
#
# Compressibility (1/GPa) = 0.01189794
#
# Stress axis : x y z
#
# Youngs Moduli (GPa) = 52.09195 105.17597 118.94543
#
# Poissons Ratio (x) = 0.60553 0.62801
# Poissons Ratio (y) = 0.29991 0.18673
# Poissons Ratio (z) = 0.27504 0.16511
#
# Static dielectric constant tensor:
#      x y z
#    x 1.915180 0.060500 0.043320 
#    y 0.060500 1.928040 0.052120 
#    z 0.043320 0.052120 1.947960 
# 
# From -- ./inp_files/585976.got.cif
#   From: 2010.05.17/outbox.cif.g08.bks.cpg/sg2_293_cif.got.tgz:585976.got - 2010.06.03 11:33:40.
