data_PCOD9064300
_publ_section_title
;
Structure prediction by ZEFSAII (Michael W. Deem and Ramdas Pophale) SiO2 
 PCOD9064300
Probable space group: P -1
;
_chemical_formula_sum "Si O2"
_cell_formula_units_Z 16
_cell_length_a 9.040104
_cell_length_b 9.248745
_cell_length_c 16.087053
_cell_angle_alpha 145.329444
_cell_angle_beta 111.460809
_cell_angle_gamma 77.097953
_cell_volume 704.388914
_symmetry_space_group_name_H-M "P -1"
_symmetry_group_IT_number 2
_symmetry_cell_setting 'triclinic'
loop_
_space_group_symop_operation_xyz
x,y,z
-x,-y,-z
loop_
_atom_site_type_symbol
_atom_site_label
_atom_site_fract_x
_atom_site_fract_y
_atom_site_fract_z
Si Si1 0.577469 0.788977 0.136439
Si Si2 0.384511 0.593821 0.273090
Si Si3 0.109983 0.152410 0.369142
Si Si4 0.925496 0.373143 0.296207
Si Si5 0.051824 0.303848 0.129713
Si Si6 0.550198 0.925803 0.606240
Si Si7 0.406601 0.786578 0.936722
Si Si8 0.072657 0.362890 0.872227
O O1 0.558762 0.965858 0.295628
O O2 0.758485 0.743710 0.129739
O O3 0.500000 0.500000 0.000000
O O4 0.463069 0.874298 0.081564
O O5 0.221887 0.393158 0.159882
O O6 0.380200 0.846195 0.335679
O O7 0.514677 0.463565 0.187508
O O8 0.453590 0.698258 0.425190
O O9 0.112824 0.392511 0.544860
O O10 0.984826 0.175532 0.279816
O O11 0.284081 0.155189 0.365195
O O12 0.049419 0.898081 0.288976
O O13 0.773411 0.263091 0.156902
O O14 0.059928 0.445624 0.287810
O O15 0.927551 0.432439 0.106022
O O16 0.000000 0.000000 0.000000
O O17 0.500000 0.000000 0.000000
O O18 0.000000 0.500000 0.000000
#
# Coordination Sequence:
#
# PCOD9064300 Si02
#       8
#     2   2   2   2   2   2   2   2
#     4  12  25  43  73 110 142 189 250 297 357 447
#     4  11  24  45  73 106 146 194 241 305 376 430
#     4  11  24  49  73 103 148 191 246 297 369 441
#     4  11  26  45  72 106 147 191 239 305 369 437
#     4  12  26  45  71 109 146 189 246 307 372 439
#     4  11  24  47  74 107 145 193 248 304 361 439
#     4  12  24  46  70 104 148 190 240 297 368 434
#     4  12  25  45  76 106 146 195 241 302 365 436
#
# _framework density 22.714725000000001
#
# number of rings (size 3 to 8) (size 9 to 14) (size 15 to 20)
#    0.000    0.500    3.750    4.500    1.750    2.500 
#    0.000    1.250    0.000    0.000    0.000    0.000 
#    0.000    0.000    0.000    0.000    0.000    0.000 
#
# Total GULP energy -89337.617075 kJ/mol
# GULP energy per Si atom -5583.601067 kJ/mol
# Density = 2.266303 g / cm^3
# Si number density = 22.714725 Si / 1000 Ang^3
#
#
#
# Elastic Constant Matrix: (Units=GPa)
#
#
# Indices 1 2 3 4 5 6 
#
# 1 128.3132 15.2460 41.4178 -11.1253 -1.2673 -17.5578
# 2 15.2460 102.7642 21.1108 -9.8588 20.3428 4.6087
# 3 41.4178 21.1108 74.5187 -8.8221 -0.7978 -5.9387
# 4 -11.1253 -9.8588 -8.8221 33.6828 0.8258 -2.4113
# 5 -1.2673 20.3428 -0.7978 0.8258 36.6712 -6.2826
# 6 -17.5578 4.6087 -5.9387 -2.4113 -6.2826 34.3240
#
#
#
# Elastic Compliance Matrix: (Units=1/GPa)
#
#
# Indices 1 2 3 4 5 6 
#
# 1 0.010348 -0.000859 -0.004829 0.002223 0.001537 0.005011
# 2 -0.000859 0.012444 -0.003152 0.002443 -0.007724 -0.003898
# 3 -0.004829 -0.003152 0.017387 0.002091 0.002171 0.001506
# 4 0.002223 0.002443 0.002091 0.031946 -0.001412 0.003156
# 5 0.001537 -0.007724 0.002171 -0.001412 0.033084 0.008156
# 6 0.005011 -0.003898 0.001506 0.003156 0.008156 0.034196
#
#
# Mechanical properties :
#
#
# Convention : Reuss Voigt Hill
#
# Bulk Modulus (GPa) = 44.44633 51.23835 47.84234
# Shear Modulus (GPa) = 30.37948 36.12370 33.25159
#
# Velocity S-wave (km/s) = 3.66106 3.99221 3.83022
# Velocity P-wave (km/s) = 6.12216 6.62243 6.37720
#
# Compressibility (1/GPa) = 0.02249904
#
# Stress axis : x y z
#
# Youngs Moduli (GPa) = 96.63906 80.35819 57.51357
#
# Poissons Ratio (x) = 0.06903 0.27774
# Poissons Ratio (y) = 0.08301 0.18129
# Poissons Ratio (z) = 0.46668 0.25329
#
# Static dielectric constant tensor:
#      x y z
#    x 2.804070 -0.225160 -0.221250 
#    y -0.225160 2.058370 0.088860 
#    z -0.221250 0.088860 1.859680 
# 
# From -- ./inp_files/495930.got.cif
#   From: 2010.05.17/outbox.cif.g08.bks.cpg/sg2_248_cif.got.tgz:495930.got - 2010.06.03 11:33:40.
