data_PCOD9064267
_publ_section_title
;
Structure prediction by ZEFSAII (Michael W. Deem and Ramdas Pophale) SiO2 
 PCOD9064267
Probable space group: P -1
;
_chemical_formula_sum "Si O2"
_cell_formula_units_Z 16
_cell_length_a 8.959218
_cell_length_b 10.773468
_cell_length_c 9.552289
_cell_angle_alpha 113.834591
_cell_angle_beta 120.210863
_cell_angle_gamma 77.265556
_cell_volume 728.654426
_symmetry_space_group_name_H-M "P -1"
_symmetry_group_IT_number 2
_symmetry_cell_setting 'triclinic'
loop_
_space_group_symop_operation_xyz
x,y,z
-x,-y,-z
loop_
_atom_site_type_symbol
_atom_site_label
_atom_site_fract_x
_atom_site_fract_y
_atom_site_fract_z
Si Si1 0.907807 0.209392 0.588256
Si Si2 0.179258 0.070777 0.147533
Si Si3 0.127181 0.422605 0.922343
Si Si4 0.794605 0.924096 0.510329
Si Si5 0.512347 0.136222 0.866853
Si Si6 0.659159 0.429205 0.124488
Si Si7 0.619718 0.398457 0.416645
Si Si8 0.656505 0.765507 0.905118
O O1 0.788909 0.337526 0.544519
O O2 0.046344 0.277498 0.785216
O O3 0.027088 0.144212 0.493218
O O4 0.806888 0.085054 0.553414
O O5 0.206189 0.098573 0.335424
O O6 0.190734 0.198757 0.109656
O O7 0.346115 0.981440 0.138395
O O8 0.000000 0.000000 0.000000
O O9 0.176145 0.507860 0.847505
O O10 0.299204 0.378604 0.067121
O O11 0.000000 0.500000 0.000000
O O12 0.626397 0.864939 0.326038
O O13 0.625051 0.271298 0.002840
O O14 0.394235 0.131368 0.948180
O O15 0.664402 0.451418 0.304971
O O16 0.500000 0.500000 0.000000
O O17 0.500000 0.500000 0.500000
O O18 0.510808 0.262749 0.278038
#
# Coordination Sequence:
#
# PCOD9064267 Si02
#       8
#     2   2   2   2   2   2   2   2
#     4  11  25  44  70 106 145 181 237 291 363 413
#     4  12  28  41  71 108 135 180 240 295 347 419
#     4  12  25  45  72 102 143 190 231 291 352 426
#     4  11  25  46  72 103 144 188 231 296 355 425
#     4  11  24  47  71  97 141 190 229 287 359 425
#     4  11  24  45  73 102 139 187 238 283 357 424
#     4  11  25  44  72 105 140 188 239 299 349 424
#     4  11  24  47  67  99 141 187 229 289 357 412
#
# _framework density 21.958283999999999
#
# number of rings (size 3 to 8) (size 9 to 14) (size 15 to 20)
#    0.000    0.750    3.750    3.000    8.750    2.500 
#    0.000    0.000    0.000    0.000    0.000    0.000 
#    0.000    0.000    0.000    0.000    0.000    0.000 
#
# Total GULP energy -89349.993590 kJ/mol
# GULP energy per Si atom -5584.374599 kJ/mol
# Density = 2.190831 g / cm^3
# Si number density = 21.958284 Si / 1000 Ang^3
#
#
#
# Elastic Constant Matrix: (Units=GPa)
#
#
# Indices 1 2 3 4 5 6 
#
# 1 116.5295 36.1936 45.6225 -11.5684 -30.0392 8.3162
# 2 36.1936 78.0973 19.7596 -10.0555 -28.5964 -3.1638
# 3 45.6225 19.7596 115.3059 -6.0721 -24.6488 8.9628
# 4 -11.5684 -10.0555 -6.0721 32.5280 -1.5801 -0.1629
# 5 -30.0392 -28.5964 -24.6488 -1.5801 43.5225 -8.8326
# 6 8.3162 -3.1638 8.9628 -0.1629 -8.8326 37.9311
#
#
#
# Elastic Compliance Matrix: (Units=1/GPa)
#
#
# Indices 1 2 3 4 5 6 
#
# 1 0.012290 -0.002794 -0.003113 0.003153 0.004782 -0.001065
# 2 -0.002794 0.019445 0.000299 0.005694 0.012247 0.005040
# 3 -0.003113 0.000299 0.010854 0.001204 0.004055 -0.000908
# 4 0.003153 0.005694 0.001204 0.034253 0.008156 0.001546
# 5 0.004782 0.012247 0.004055 0.008156 0.038545 0.008026
# 6 -0.001065 0.005040 -0.000908 0.001546 0.008026 0.029107
#
#
# Mechanical properties :
#
#
# Convention : Reuss Voigt Hill
#
# Bulk Modulus (GPa) = 31.87398 57.00937 44.44167
# Shear Modulus (GPa) = 30.09012 36.68680 33.38846
#
# Velocity S-wave (km/s) = 3.70581 4.09192 3.90364
# Velocity P-wave (km/s) = 5.73219 6.95298 6.37189
#
# Compressibility (1/GPa) = 0.03137356
#
# Stress axis : x y z
#
# Youngs Moduli (GPa) = 81.36852 51.42581 92.13525
#
# Poissons Ratio (x) = 0.14370 0.28679
# Poissons Ratio (y) = 0.22737 -0.02758
# Poissons Ratio (z) = 0.25328 -0.01540
#
# Static dielectric constant tensor:
#      x y z
#    x 1.923430 0.125230 0.004140 
#    y 0.125230 1.926950 0.022080 
#    z 0.004140 0.022080 1.772890 
# 
# From -- ./inp_files/190349.got.cif
#   From: 2010.05.17/outbox.cif.g08.bks.cpg/sg2_96_cif.got.tgz:190349.got - 2010.06.03 11:33:40.
