data_PCOD9064304
_publ_section_title
;
Structure prediction by ZEFSAII (Michael W. Deem and Ramdas Pophale) SiO2 
 PCOD9064304
Probable space group: P -1
;
_chemical_formula_sum "Si O2"
_cell_formula_units_Z 16
_cell_length_a 13.088555
_cell_length_b 9.349957
_cell_length_c 11.762168
_cell_angle_alpha 125.438066
_cell_angle_beta 44.023683
_cell_angle_gamma 134.580550
_cell_volume 704.252723
_symmetry_space_group_name_H-M "P -1"
_symmetry_group_IT_number 2
_symmetry_cell_setting 'triclinic'
loop_
_space_group_symop_operation_xyz
x,y,z
-x,-y,-z
loop_
_atom_site_type_symbol
_atom_site_label
_atom_site_fract_x
_atom_site_fract_y
_atom_site_fract_z
Si Si1 0.680034 0.507027 0.364423
Si Si2 0.889204 0.857984 0.180987
Si Si3 0.177186 0.462368 0.090005
Si Si4 0.163859 0.273148 0.249151
Si Si5 0.326025 0.923089 0.534159
Si Si6 0.556024 0.780706 0.888519
Si Si7 0.104000 0.463959 0.585676
Si Si8 0.512826 0.931578 0.769116
O O1 0.500000 0.500000 0.500000
O O2 0.807270 0.682273 0.259763
O O3 0.764820 0.547979 0.438741
O O4 0.636330 0.283027 0.257537
O O5 0.759326 0.941864 0.304799
O O6 0.910439 0.751854 0.003868
O O7 0.059605 0.047105 0.179369
O O8 0.202439 0.423462 0.182723
O O9 0.058581 0.561351 0.228631
O O10 0.360001 0.605341 0.954937
O O11 0.332941 0.307625 0.190643
O O12 0.058187 0.309989 0.447494
O O13 0.197719 0.690756 0.562628
O O14 0.500000 0.000000 0.500000
O O15 0.372661 0.952055 0.376825
O O16 0.609910 0.881922 0.767922
O O17 0.557741 0.941320 0.050902
#
# Coordination Sequence:
#
# PCOD9064304 Si02
#       8
#     2   2   2   2   2   2   2   2
#     4  12  24  46  75 107 150 191 251 294 368 449
#     4  12  28  45  74 109 151 194 243 309 362 440
#     4  12  27  48  74 108 151 190 250 304 372 440
#     4  12  28  48  73 108 152 190 253 299 376 432
#     4  12  25  44  79 106 149 194 247 295 372 438
#     4  11  27  46  77 104 150 197 243 309 371 431
#     4  12  28  46  77 110 147 197 241 310 368 436
#     4  11  24  45  73 107 146 191 254 293 360 447
#
# _framework density 22.719116
#
# number of rings (size 3 to 8) (size 9 to 14) (size 15 to 20)
#    0.000    0.250    5.000    2.625    7.000    3.000 
#    0.000    0.000    0.000    0.000    0.000    0.000 
#    0.000    0.000    0.000    0.000    0.000    0.000 
#
# Total GULP energy -89671.857261 kJ/mol
# GULP energy per Si atom -5604.491079 kJ/mol
# Density = 2.266741 g / cm^3
# Si number density = 22.719116 Si / 1000 Ang^3
#
#
#
# Elastic Constant Matrix: (Units=GPa)
#
#
# Indices 1 2 3 4 5 6 
#
# 1 122.5661 10.4988 52.0872 -7.0720 7.7206 -10.4881
# 2 10.4988 69.0555 4.9500 1.6137 0.6020 7.9721
# 3 52.0872 4.9500 95.3563 12.2191 14.6894 0.4168
# 4 -7.0720 1.6137 12.2191 42.5443 5.6434 6.1890
# 5 7.7206 0.6020 14.6894 5.6434 36.2858 -1.8091
# 6 -10.4881 7.9721 0.4168 6.1890 -1.8091 32.5695
#
#
#
# Elastic Compliance Matrix: (Units=1/GPa)
#
#
# Indices 1 2 3 4 5 6 
#
# 1 0.011688 -0.001793 -0.006734 0.003427 -0.000083 0.003633
# 2 -0.001793 0.015235 0.000270 -0.000315 -0.000144 -0.004258
# 3 -0.006734 0.000270 0.015408 -0.004747 -0.004159 -0.001761
# 4 0.003427 -0.000315 -0.004747 0.026438 -0.003111 -0.003955
# 5 -0.000083 -0.000144 -0.004159 -0.003111 0.029862 0.002312
# 6 0.003633 -0.004258 -0.001761 -0.003955 0.002312 0.033818
#
#
# Mechanical properties :
#
#
# Convention : Reuss Voigt Hill
#
# Bulk Modulus (GPa) = 38.73514 46.89444 42.81479
# Shear Modulus (GPa) = 31.73246 36.90937 34.32092
#
# Velocity S-wave (km/s) = 3.74134 4.03500 3.89094
# Velocity P-wave (km/s) = 5.97914 6.51107 6.25077
#
# Compressibility (1/GPa) = 0.02581635
#
# Stress axis : x y z
#
# Youngs Moduli (GPa) = 85.55864 65.64031 64.90256
#
# Poissons Ratio (x) = 0.11770 0.43702
# Poissons Ratio (y) = 0.15341 -0.01750
# Poissons Ratio (z) = 0.57611 -0.01770
#
# Static dielectric constant tensor:
#      x y z
#    x 1.831360 0.007420 0.011550 
#    y 0.007420 1.832900 0.012150 
#    z 0.011550 0.012150 1.848800 
# 
# From -- ./inp_files/419702.got.cif
#   From: 2010.05.17/outbox.cif.g08.bks.cpg/sg2_210_cif.got.tgz:419702.got - 2010.06.03 11:33:40.
