data_PCOD9064389
_publ_section_title
;
Structure prediction by ZEFSAII (Michael W. Deem and Ramdas Pophale) SiO2 
 PCOD9064389
Probable space group: P -1
;
_chemical_formula_sum "Si O2"
_cell_formula_units_Z 14
_cell_length_a 6.619533
_cell_length_b 13.779319
_cell_length_c 11.493319
_cell_angle_alpha 55.979531
_cell_angle_beta 58.137699
_cell_angle_gamma 96.616495
_cell_volume 599.459563
_symmetry_space_group_name_H-M "P -1"
_symmetry_group_IT_number 2
_symmetry_cell_setting 'triclinic'
loop_
_space_group_symop_operation_xyz
x,y,z
-x,-y,-z
loop_
_atom_site_type_symbol
_atom_site_label
_atom_site_fract_x
_atom_site_fract_y
_atom_site_fract_z
Si Si1 0.609389 0.255096 0.996418
Si Si2 0.258085 0.080571 0.532094
Si Si3 0.817108 0.364312 0.230629
Si Si4 0.073918 0.202040 0.330337
Si Si5 0.229424 0.951624 0.874267
Si Si6 0.726563 0.465508 0.414162
Si Si7 0.571161 0.808636 0.170971
O O1 0.474818 0.196468 0.948629
O O2 0.936060 0.398631 0.786499
O O3 0.386027 0.270753 0.126291
O O4 0.637725 0.136763 0.126315
O O5 0.585641 0.221997 0.324934
O O6 0.074311 0.137235 0.498232
O O7 0.235083 0.037059 0.702740
O O8 0.152352 0.938787 0.585020
O O9 0.654403 0.397534 0.352572
O O10 0.002097 0.317985 0.272829
O O11 0.000000 0.500000 0.000000
O O12 0.396310 0.061629 0.855787
O O13 0.885460 0.838508 0.082033
O O14 0.500000 0.500000 0.500000
O O15 0.680105 0.343967 0.596651
#
# Coordination Sequence:
#
# PCOD9064389 Si02
#       7
#     2   2   2   2   2   2   2
#     4  12  26  45  78 108 153 189 253 308 367 449
#     4  11  25  47  78 106 151 190 249 309 367 446
#     4  12  29  51  77 106 154 197 247 308 374 448
#     4  11  28  47  76 116 139 197 250 310 374 436
#     4  11  24  45  74 110 149 192 245 312 373 430
#     4  12  27  50  73 108 147 204 244 302 376 439
#     4  11  24  47  72 109 146 196 250 303 369 443
#
# _framework density 23.354371
#
# number of rings (size 3 to 8) (size 9 to 14) (size 15 to 20)
#    0.000    0.571    4.286    2.143   10.000    2.286 
#   10.286    0.000    0.000    0.000    0.000    0.000 
#    0.000    0.000    0.000    0.000    0.000    0.000 
#
# Total GULP energy -78374.722262 kJ/mol
# GULP energy per Si atom -5598.194447 kJ/mol
# Density = 2.330122 g / cm^3
# Si number density = 23.354371 Si / 1000 Ang^3
#
#
#
# Elastic Constant Matrix: (Units=GPa)
#
#
# Indices 1 2 3 4 5 6 
#
# 1 72.7853 47.9353 34.9315 -5.3590 1.6583 -0.9941
# 2 47.9353 88.9368 36.1517 11.6232 -5.9083 -16.9923
# 3 34.9315 36.1517 137.8422 -9.5353 -8.1201 -7.8308
# 4 -5.3590 11.6232 -9.5353 41.5125 8.5606 1.3759
# 5 1.6583 -5.9083 -8.1201 8.5606 52.0991 4.1527
# 6 -0.9941 -16.9923 -7.8308 1.3759 4.1527 38.8131
#
#
#
# Elastic Compliance Matrix: (Units=1/GPa)
#
#
# Indices 1 2 3 4 5 6 
#
# 1 0.025611 -0.015308 -0.002508 0.008002 -0.003744 -0.006435
# 2 -0.015308 0.023857 -0.002325 -0.010282 0.003759 0.009546
# 3 -0.002508 -0.002325 0.008724 0.002153 0.000781 0.000518
# 4 0.008002 -0.010282 0.002153 0.029801 -0.005638 -0.004315
# 5 -0.003744 0.003759 0.000781 -0.005638 0.020813 -0.000320
# 6 -0.006435 0.009546 0.000518 -0.004315 -0.000320 0.030070
#
#
# Mechanical properties :
#
#
# Convention : Reuss Voigt Hill
#
# Bulk Modulus (GPa) = 55.83539 59.73345 57.78442
# Shear Modulus (GPa) = 27.00793 38.52134 32.76464
#
# Velocity S-wave (km/s) = 3.40434 4.06572 3.74964
# Velocity P-wave (km/s) = 6.27794 6.90454 6.59868
#
# Compressibility (1/GPa) = 0.01790979
#
# Stress axis : x y z
#
# Youngs Moduli (GPa) = 39.04547 41.91584 114.62090
#
# Poissons Ratio (x) = 0.64167 0.28746
# Poissons Ratio (y) = 0.59773 0.26651
# Poissons Ratio (z) = 0.09792 0.09746
#
# Static dielectric constant tensor:
#      x y z
#    x 1.895050 0.008380 -0.020640 
#    y 0.008380 1.859970 0.012970 
#    z -0.020640 0.012970 1.895330 
# 
# From -- ./inp_files/367446.got.cif
#   From: 2010.05.17/outbox.cif.g08.bks.cpg/sg2_184_cif.got.tgz:367446.got - 2010.06.03 11:33:40.
