data_PCOD9064176
_publ_section_title
;
Structure prediction by ZEFSAII (Michael W. Deem and Ramdas Pophale) SiO2 
 PCOD9064176
Probable space group: P -1
;
_chemical_formula_sum "Si O2"
_cell_formula_units_Z 16
_cell_length_a 11.515403
_cell_length_b 11.002750
_cell_length_c 11.253951
_cell_angle_alpha 125.102738
_cell_angle_beta 37.032492
_cell_angle_gamma 109.685588
_cell_volume 680.627717
_symmetry_space_group_name_H-M "P -1"
_symmetry_group_IT_number 2
_symmetry_cell_setting 'triclinic'
loop_
_space_group_symop_operation_xyz
x,y,z
-x,-y,-z
loop_
_atom_site_type_symbol
_atom_site_label
_atom_site_fract_x
_atom_site_fract_y
_atom_site_fract_z
Si Si1 0.649069 0.559615 0.999183
Si Si2 0.225396 0.386512 0.321831
Si Si3 0.632698 0.852961 0.743648
Si Si4 0.835864 0.288638 0.329615
Si Si5 0.924478 0.250879 0.621569
Si Si6 0.672082 0.103117 0.185573
Si Si7 0.110487 0.973604 0.663752
Si Si8 0.730298 0.832101 0.182230
O O1 0.750320 0.630069 0.846691
O O2 0.767775 0.403828 0.881469
O O3 0.500000 0.500000 0.000000
O O4 0.596137 0.709067 0.211066
O O5 0.378233 0.275894 0.222125
O O6 0.224582 0.551968 0.464966
O O7 0.024887 0.333865 0.483531
O O8 0.521188 0.852581 0.712021
O O9 0.873104 0.828878 0.517358
O O10 0.500000 0.000000 0.000000
O O11 0.694399 0.250119 0.322913
O O12 0.863901 0.152526 0.324515
O O13 0.046691 0.269321 0.080838
O O14 0.837558 0.122169 0.554889
O O15 0.679463 0.963907 0.195473
O O16 0.872371 0.052343 0.910215
O O17 0.242543 0.084575 0.668577
#
# Coordination Sequence:
#
# PCOD9064176 Si02
#       8
#     2   2   2   2   2   2   2   2
#     4  12  22  34  51  74 101 133 172 209 247 296
#     4  10  19  30  52  71 103 127 162 211 253 283
#     4  10  18  27  48  79 104 129 160 205 246 302
#     4   9  15  27  50  76 101 129 158 209 261 285
#     4  10  19  31  54  75 102 128 162 210 255 290
#     4   9  16  27  47  82 108 122 160 203 253 302
#     4   9  15  27  50  73 103 127 157 203 257 292
#     4   9  17  30  49  76 101 130 156 213 254 284
#
# _framework density 23.507709999999999
#
# number of rings (size 3 to 8) (size 9 to 14) (size 15 to 20)
#    0.750    1.500    3.750    4.125    0.000    0.500 
#    0.000    0.625    0.000    3.000    0.000    4.375 
#    0.000    0.000    0.000    0.000    0.000    0.000 
#
# Total GULP energy -89166.622948 kJ/mol
# GULP energy per Si atom -5572.913934 kJ/mol
# Density = 2.345421 g / cm^3
# Si number density = 23.507710 Si / 1000 Ang^3
#
#
#
# Elastic Constant Matrix: (Units=GPa)
#
#
# Indices 1 2 3 4 5 6 
#
# 1 161.6250 37.1155 30.6818 30.3668 -16.2287 34.1479
# 2 37.1155 82.4342 30.9801 31.6655 7.2422 28.3231
# 3 30.6818 30.9801 69.5402 22.0273 -3.9278 8.1254
# 4 30.3668 31.6655 22.0273 37.7399 4.0523 11.5265
# 5 -16.2287 7.2422 -3.9278 4.0523 33.1572 10.4606
# 6 34.1479 28.3231 8.1254 11.5265 10.4606 43.3756
#
#
#
# Elastic Compliance Matrix: (Units=1/GPa)
#
#
# Indices 1 2 3 4 5 6 
#
# 1 0.010004 0.000404 -0.001286 -0.005980 0.007984 -0.008235
# 2 0.000404 0.022422 -0.004818 -0.013083 -0.000361 -0.010493
# 3 -0.001286 -0.004818 0.019294 -0.007022 0.003037 0.001678
# 4 -0.005980 -0.013083 -0.007022 0.045929 -0.007857 0.004256
# 5 0.007984 -0.000361 0.003037 -0.007857 0.039934 -0.014162
# 6 -0.008235 -0.010493 0.001678 0.004256 -0.014162 0.038359
#
#
# Mechanical properties :
#
#
# Convention : Reuss Voigt Hill
#
# Bulk Modulus (GPa) = 24.80151 56.79492 40.79822
# Shear Modulus (GPa) = 24.90286 37.17602 31.03944
#
# Velocity S-wave (km/s) = 3.25829 3.98105 3.63766
# Velocity P-wave (km/s) = 4.97278 6.73381 5.91916
#
# Compressibility (1/GPa) = 0.04032012
#
# Stress axis : x y z
#
# Youngs Moduli (GPa) = 99.96376 44.59937 51.83007
#
# Poissons Ratio (x) = -0.01804 0.06668
# Poissons Ratio (y) = -0.04043 0.24969
# Poissons Ratio (z) = 0.12860 0.21486
#
# Static dielectric constant tensor:
#      x y z
#    x 1.902510 0.073730 -0.038800 
#    y 0.073730 2.026890 -0.068400 
#    z -0.038800 -0.068400 2.023890 
# 
# From -- ./inp_files/474636.got.cif
#   From: 2010.05.17/outbox.cif.g08.bks.cpg/sg2_238_cif.got.tgz:474636.got - 2010.06.03 11:33:40.
