data_PCOD9064422
_publ_section_title
;
Structure prediction by ZEFSAII (Michael W. Deem and Ramdas Pophale) SiO2 
 PCOD9064422
Probable space group: P -1
;
_chemical_formula_sum "Si O2"
_cell_formula_units_Z 11
_cell_length_a 9.726891
_cell_length_b 8.990714
_cell_length_c 8.290785
_cell_angle_alpha 68.696123
_cell_angle_beta 60.960539
_cell_angle_gamma 42.355082
_cell_volume 427.056650
_symmetry_space_group_name_H-M "P -1"
_symmetry_group_IT_number 2
_symmetry_cell_setting 'triclinic'
loop_
_space_group_symop_operation_xyz
x,y,z
-x,-y,-z
loop_
_atom_site_type_symbol
_atom_site_label
_atom_site_fract_x
_atom_site_fract_y
_atom_site_fract_z
Si Si1 0.998592 0.818793 0.513221
Si Si2 0.871559 0.226207 0.891835
Si Si3 0.459389 0.348905 0.911195
Si Si4 0.500000 0.500000 0.500000
Si Si5 0.586241 0.901510 0.749559
Si Si6 0.603368 0.692672 0.499825
O O1 0.999533 0.800149 0.326559
O O2 0.227390 0.573403 0.535027
O O3 0.801864 0.852778 0.677868
O O4 0.000000 0.000000 0.500000
O O5 0.656346 0.300562 0.906485
O O6 0.777972 0.426806 0.983385
O O7 0.000000 0.000000 0.000000
O O8 0.492270 0.368870 0.700397
O O9 0.481862 0.153868 0.037753
O O10 0.400715 0.714095 0.598956
O O11 0.637406 0.737603 0.640754
O O12 0.412410 0.143118 0.670616
#
# Coordination Sequence:
#
# PCOD9064422 Si02
#       6
#     2   2   2   1   2   2
#     4  12  26  47  75 113 149 196 249 309 370 448
#     4  11  26  43  76 106 151 198 246 301 382 447
#     4  11  25  48  71 112 147 197 249 310 367 443
#     4  12  24  48  78 102 152 198 246 308 368 436
#     4  11  26  45  77 108 154 194 247 307 378 443
#     4  11  24  45  75 107 154 195 240 305 378 444
#
# _framework density 25.757705000000001
#
# number of rings (size 3 to 8) (size 9 to 14) (size 15 to 20)
#    0.000    0.727    3.636    2.727   10.182    0.727 
#    0.000    0.909    0.000    0.000    0.000    0.000 
#    0.000    0.000    0.000    0.000    0.000    0.000 
#
# Total GULP energy -61427.148380 kJ/mol
# GULP energy per Si atom -5584.286216 kJ/mol
# Density = 2.569908 g / cm^3
# Si number density = 25.757705 Si / 1000 Ang^3
#
#
#
# Elastic Constant Matrix: (Units=GPa)
#
#
# Indices 1 2 3 4 5 6 
#
# 1 84.5159 33.0606 28.8454 -4.3645 0.6031 22.0582
# 2 33.0606 160.9379 43.3066 -16.1483 15.7086 20.1159
# 3 28.8454 43.3066 202.6088 -29.5906 1.3373 -4.7090
# 4 -4.3645 -16.1483 -29.5906 40.9506 -9.7410 -3.7432
# 5 0.6031 15.7086 1.3373 -9.7410 44.2553 -16.3634
# 6 22.0582 20.1159 -4.7090 -3.7432 -16.3634 55.7167
#
#
#
# Elastic Compliance Matrix: (Units=1/GPa)
#
#
# Indices 1 2 3 4 5 6 
#
# 1 0.014742 -0.001636 -0.002127 -0.001706 -0.002221 -0.006192
# 2 -0.001636 0.007777 -0.001381 0.000690 -0.003780 -0.003341
# 3 -0.002127 -0.001381 0.006254 0.004584 0.002406 0.002884
# 4 -0.001706 0.000690 0.004584 0.030266 0.008250 0.005270
# 5 -0.002221 -0.003780 0.002406 0.008250 0.030089 0.011838
# 6 -0.006192 -0.003341 0.002884 0.005270 0.011838 0.025680
#
#
# Mechanical properties :
#
#
# Convention : Reuss Voigt Hill
#
# Bulk Modulus (GPa) = 54.10234 73.16533 63.63383
# Shear Modulus (GPa) = 38.09236 51.04119 44.56678
#
# Velocity S-wave (km/s) = 3.84978 4.45633 4.16412
# Velocity P-wave (km/s) = 6.38835 7.41252 6.91941
#
# Compressibility (1/GPa) = 0.01848349
#
# Stress axis : x y z
#
# Youngs Moduli (GPa) = 67.83246 128.58276 159.88863
#
# Poissons Ratio (x) = 0.21040 0.34016
# Poissons Ratio (y) = 0.11100 0.22085
# Poissons Ratio (z) = 0.14431 0.17761
#
# Static dielectric constant tensor:
#      x y z
#    x 0.882940 0.461690 0.282990 
#    y 0.461690 2.008720 -0.036650 
#    z 0.282990 -0.036650 1.912890 
# 
# From -- ./inp_files/153214.got.cif
#   From: 2010.05.17/outbox.cif.g08.bks.cpg/sg2_77_cif.got.tgz:153214.got - 2010.06.03 11:33:40.
