data_PCOD9064379
_publ_section_title
;
Structure prediction by ZEFSAII (Michael W. Deem and Ramdas Pophale) SiO2 
 PCOD9064379
Probable space group: P -1
;
_chemical_formula_sum "Si O2"
_cell_formula_units_Z 14
_cell_length_a 8.985197
_cell_length_b 10.802988
_cell_length_c 7.654755
_cell_angle_alpha 117.730761
_cell_angle_beta 69.073958
_cell_angle_gamma 74.488433
_cell_volume 523.029127
_symmetry_space_group_name_H-M "P -1"
_symmetry_group_IT_number 2
_symmetry_cell_setting 'triclinic'
loop_
_space_group_symop_operation_xyz
x,y,z
-x,-y,-z
loop_
_atom_site_type_symbol
_atom_site_label
_atom_site_fract_x
_atom_site_fract_y
_atom_site_fract_z
Si Si1 0.807153 0.268403 0.682286
Si Si2 0.680603 0.331387 0.376467
Si Si3 0.067339 0.118806 0.980059
Si Si4 0.791218 0.556319 0.059021
Si Si5 0.442113 0.192745 0.377937
Si Si6 0.817300 0.672665 0.749889
Si Si7 0.772147 0.969436 0.536433
O O1 0.735956 0.329146 0.555247
O O2 0.235186 0.358987 0.060276
O O3 0.035062 0.157849 0.526541
O O4 0.736001 0.149668 0.693866
O O5 0.500000 0.500000 0.500000
O O6 0.862531 0.288591 0.160377
O O7 0.635512 0.185954 0.278317
O O8 0.160560 0.172510 0.122112
O O9 0.171568 0.073730 0.720649
O O10 0.000000 0.000000 0.000000
O O11 0.653957 0.682554 0.340006
O O12 0.751674 0.415063 0.933384
O O13 0.000000 0.500000 0.000000
O O14 0.333894 0.276032 0.301524
O O15 0.397719 0.051901 0.349183
O O16 0.000000 0.500000 0.500000
#
# Coordination Sequence:
#
# PCOD9064379 Si02
#       7
#     2   2   2   2   2   2   2
#     4  11  24  45  74 107 144 197 249 303 365 445
#     4  12  28  47  71 113 159 188 241 321 384 431
#     4  12  25  48  77 109 144 203 257 296 366 459
#     4  12  22  42  74 110 137 195 254 303 360 449
#     4  12  26  45  70 109 152 192 242 316 375 433
#     4  12  23  42  74 106 148 193 254 303 363 446
#     4  11  24  47  78 107 144 201 259 299 361 458
#
# _framework density 26.767151999999999
#
# number of rings (size 3 to 8) (size 9 to 14) (size 15 to 20)
#    0.000    0.286    5.714    3.429    4.000    1.143 
#    2.571    0.714    0.000    0.000    0.000    0.000 
#    0.000    0.000    0.000    0.000    0.000    0.000 
#
# Total GULP energy -78587.981647 kJ/mol
# GULP energy per Si atom -5613.427261 kJ/mol
# Density = 2.670623 g / cm^3
# Si number density = 26.767152 Si / 1000 Ang^3
#
#
#
# Elastic Constant Matrix: (Units=GPa)
#
#
# Indices 1 2 3 4 5 6 
#
# 1 179.9690 49.7431 62.5431 -8.9373 25.9222 7.1982
# 2 49.7431 110.7860 41.1009 -19.9262 31.2111 -11.2862
# 3 62.5431 41.1009 86.2494 -12.5791 23.0336 3.5174
# 4 -8.9373 -19.9262 -12.5791 47.4216 1.8959 20.6377
# 5 25.9222 31.2111 23.0336 1.8959 62.9353 3.6244
# 6 7.1982 -11.2862 3.5174 20.6377 3.6244 62.3537
#
#
#
# Elastic Compliance Matrix: (Units=1/GPa)
#
#
# Indices 1 2 3 4 5 6 
#
# 1 0.007752 -0.001697 -0.004625 -0.000071 -0.000606 -0.000882
# 2 -0.001697 0.013254 -0.003305 0.003779 -0.004883 0.001815
# 3 -0.004625 -0.003305 0.017921 0.003511 -0.003002 -0.002063
# 4 -0.000071 0.003779 0.003511 0.027372 -0.003473 -0.008364
# 5 -0.000606 -0.004883 -0.003002 -0.003473 0.019801 -0.000646
# 6 -0.000882 0.001815 -0.002063 -0.008364 -0.000646 0.019390
#
#
# Mechanical properties :
#
#
# Convention : Reuss Voigt Hill
#
# Bulk Modulus (GPa) = 50.82830 75.97541 63.40185
# Shear Modulus (GPa) = 38.08032 49.44993 43.76512
#
# Velocity S-wave (km/s) = 3.77590 4.30281 4.04794
# Velocity P-wave (km/s) = 6.16767 7.28911 6.75171
#
# Compressibility (1/GPa) = 0.01967408
#
# Stress axis : x y z
#
# Youngs Moduli (GPa) = 129.00114 75.44641 55.80053
#
# Poissons Ratio (x) = 0.12800 0.25809
# Poissons Ratio (y) = 0.21886 0.18441
# Poissons Ratio (z) = 0.59666 0.24933
#
# Static dielectric constant tensor:
#      x y z
#    x 2.067250 -0.029200 -0.105940 
#    y -0.029200 2.135690 0.091560 
#    z -0.105940 0.091560 2.137820 
# 
# From -- ./inp_files/181205.got.cif
#   From: 2010.05.17/outbox.cif.g08.bks.cpg/sg2_91_cif.got.tgz:181205.got - 2010.06.03 11:33:40.
