data_PCOD9064865
_publ_section_title
;
Structure prediction by ZEFSAII (Michael W. Deem and Ramdas Pophale) SiO2 
 PCOD9064865
Probable space group: P -1
;
_chemical_formula_sum "Si O2"
_cell_formula_units_Z 14
_cell_length_a 15.465869
_cell_length_b 11.176571
_cell_length_c 5.376048
_cell_angle_alpha 59.035301
_cell_angle_beta 102.049432
_cell_angle_gamma 131.175918
_cell_volume 587.487255
_symmetry_space_group_name_H-M "P -1"
_symmetry_group_IT_number 2
_symmetry_cell_setting 'triclinic'
loop_
_space_group_symop_operation_xyz
x,y,z
-x,-y,-z
loop_
_atom_site_type_symbol
_atom_site_label
_atom_site_fract_x
_atom_site_fract_y
_atom_site_fract_z
Si Si1 0.924740 0.949661 0.257601
Si Si2 0.488617 0.578575 0.157887
Si Si3 0.086851 0.512227 0.222205
Si Si4 0.734423 0.522541 0.692149
Si Si5 0.360676 0.027714 0.348699
Si Si6 0.558543 0.161441 0.660021
Si Si7 0.878038 0.191469 0.758320
O O1 0.813651 0.732153 0.425527
O O2 0.000000 0.000000 0.500000
O O3 0.882749 0.065037 0.078234
O O4 0.000000 0.000000 0.000000
O O5 0.500000 0.500000 0.500000
O O6 0.361219 0.519519 0.131132
O O7 0.500000 0.500000 0.000000
O O8 0.584011 0.801540 0.987999
O O9 0.175375 0.503568 0.141506
O O10 0.148806 0.696872 0.220875
O O11 0.004264 0.339984 0.545186
O O12 0.000000 0.500000 0.000000
O O13 0.656078 0.365643 0.604654
O O14 0.448821 0.133500 0.517672
O O15 0.381809 0.887641 0.439257
O O16 0.224089 0.921835 0.388244
O O17 0.500000 0.000000 0.000000
#
# Coordination Sequence:
#
# PCOD9064865 Si02
#       7
#     2   2   2   2   2   2   2
#     4  12  28  52  78 119 164 218 274 327 408 490
#     4  12  28  51  76 116 155 208 267 329 408 484
#     4  11  25  46  75 114 155 211 268 330 410 477
#     4  12  25  51  83 111 169 212 273 339 414 483
#     4  11  25  44  76 110 157 205 267 337 405 479
#     4  11  24  46  74 116 153 209 271 331 411 482
#     4  11  25  46  73 113 161 204 271 337 396 489
#
# _framework density 23.830304000000002
#
# number of rings (size 3 to 8) (size 9 to 14) (size 15 to 20)
#    0.000    0.571    4.286    2.571    2.000    3.429 
#    5.143    0.000    0.000    0.000    0.000    0.000 
#    0.000    0.000    0.000    0.000    0.000    0.000 
#
# Total GULP energy -78381.895768 kJ/mol
# GULP energy per Si atom -5598.706841 kJ/mol
# Density = 2.377607 g / cm^3
# Si number density = 23.830304 Si / 1000 Ang^3
#
#
#
# Elastic Constant Matrix: (Units=GPa)
#
#
# Indices 1 2 3 4 5 6 
#
# 1 167.1248 41.8951 29.4598 -0.6997 12.5791 -4.0036
# 2 41.8951 146.6056 57.9587 -20.3614 10.9002 8.7979
# 3 29.4598 57.9587 99.6486 -1.1605 28.2924 -3.7048
# 4 -0.6997 -20.3614 -1.1605 48.0106 4.0964 5.5423
# 5 12.5791 10.9002 28.2924 4.0964 42.1346 11.3963
# 6 -4.0036 8.7979 -3.7048 5.5423 11.3963 37.1551
#
#
#
# Elastic Compliance Matrix: (Units=1/GPa)
#
#
# Indices 1 2 3 4 5 6 
#
# 1 0.006676 -0.001847 -0.000371 -0.000754 -0.001664 0.001742
# 2 -0.001847 0.010732 -0.006749 0.004675 0.003232 -0.005102
# 3 -0.000371 -0.006749 0.017645 -0.002278 -0.011732 0.007256
# 4 -0.000754 0.004675 -0.002278 0.023332 -0.000435 -0.004762
# 5 -0.001664 0.003232 -0.011732 -0.000435 0.034752 -0.012709
# 6 0.001742 -0.005102 0.007256 -0.004762 -0.012709 0.033642
#
#
# Mechanical properties :
#
#
# Convention : Reuss Voigt Hill
#
# Bulk Modulus (GPa) = 58.41466 74.66733 66.54100
# Shear Modulus (GPa) = 33.24078 44.39776 38.81927
#
# Velocity S-wave (km/s) = 3.73888 4.32102 4.04045
# Velocity P-wave (km/s) = 6.57305 7.50306 7.05340
#
# Compressibility (1/GPa) = 0.01711899
#
# Stress axis : x y z
#
# Youngs Moduli (GPa) = 149.79706 93.18002 56.67418
#
# Poissons Ratio (x) = 0.17206 0.02103
# Poissons Ratio (y) = 0.27661 0.38250
# Poissons Ratio (z) = 0.05559 0.62887
#
# Static dielectric constant tensor:
#      x y z
#    x 1.935780 -0.049790 0.012310 
#    y -0.049790 1.965470 -0.007200 
#    z 0.012310 -0.007200 1.960280 
# 
# From -- ./inp_files/94338.got.cif
#   From: 2010.05.17/outbox.cif.g08.bks.cpg/sg2_48_cif.got.tgz:94338.got - 2010.06.03 11:33:40.
