data_PCOD9064253
_publ_section_title
;
Structure prediction by ZEFSAII (Michael W. Deem and Ramdas Pophale) SiO2 
 PCOD9064253
Probable space group: P -1
;
_chemical_formula_sum "Si O2"
_cell_formula_units_Z 15
_cell_length_a 7.791188
_cell_length_b 11.303973
_cell_length_c 24.413611
_cell_angle_alpha 30.000924
_cell_angle_beta 145.743121
_cell_angle_gamma 139.428404
_cell_volume 597.801943
_symmetry_space_group_name_H-M "P -1"
_symmetry_group_IT_number 2
_symmetry_cell_setting 'triclinic'
loop_
_space_group_symop_operation_xyz
x,y,z
-x,-y,-z
loop_
_atom_site_type_symbol
_atom_site_label
_atom_site_fract_x
_atom_site_fract_y
_atom_site_fract_z
Si Si1 0.500000 0.500000 0.500000
Si Si2 0.945938 0.200447 0.783974
Si Si3 0.748027 0.817882 0.537622
Si Si4 0.832591 0.726054 0.882818
Si Si5 0.308783 0.133581 0.331604
Si Si6 0.368756 0.058510 0.766019
Si Si7 0.272454 0.548878 0.231135
Si Si8 0.319311 0.344609 0.934717
O O1 0.860088 0.424971 0.636906
O O2 0.537616 0.671001 0.495179
O O3 0.602728 0.126036 0.750750
O O4 0.190025 0.270710 0.869274
O O5 0.011253 0.960701 0.866383
O O6 0.862935 0.627060 0.684517
O O7 0.565053 0.967128 0.470483
O O8 0.000000 0.000000 0.500000
O O9 0.721791 0.829362 0.756047
O O10 0.534744 0.601352 0.888178
O O11 0.000000 0.500000 0.000000
O O12 0.359013 0.394835 0.266207
O O13 0.981161 0.999901 0.320362
O O14 0.437863 0.279247 0.737405
O O15 0.465889 0.836820 0.912970
O O16 0.978388 0.683042 0.092326
#
# Coordination Sequence:
#
# PCOD9064253 Si02
#       8
#     1   2   2   2   2   2   2   2
#     4  12  24  46  72 102 132 180 238 280 338 410
#     4  11  25  45  72  98 137 186 231 283 343 412
#     4  12  27  48  72  99 136 183 234 283 344 413
#     4  12  26  42  64 104 138 180 228 281 343 406
#     4  12  27  43  67 104 139 176 227 290 345 406
#     4  11  25  44  70 104 138 179 231 281 346 410
#     4  11  25  45  70 101 136 184 226 283 344 408
#     4  11  24  45  72  99 138 187 229 276 342 416
#
# _framework density 25.091923999999999
#
# number of rings (size 3 to 8) (size 9 to 14) (size 15 to 20)
#    0.000    0.533    5.333    3.600    5.600    4.267 
#    0.000    0.000    0.000    0.000    0.000    0.000 
#    0.000    0.000    0.000    0.000    0.000    0.000 
#
# Total GULP energy -83737.627299 kJ/mol
# GULP energy per Si atom -5582.508487 kJ/mol
# Density = 2.503481 g / cm^3
# Si number density = 25.091924 Si / 1000 Ang^3
#
#
#
# Elastic Constant Matrix: (Units=GPa)
#
#
# Indices 1 2 3 4 5 6 
#
# 1 45.3898 19.9327 5.1992 0.6964 9.8959 -19.2938
# 2 19.9327 100.1116 21.1428 -13.8436 22.7308 -40.6512
# 3 5.1992 21.1428 66.4375 1.4885 25.2875 -3.9568
# 4 0.6964 -13.8436 1.4885 31.5661 -1.8503 6.9251
# 5 9.8959 22.7308 25.2875 -1.8503 38.5830 -13.0617
# 6 -19.2938 -40.6512 -3.9568 6.9251 -13.0617 51.8867
#
#
#
# Elastic Compliance Matrix: (Units=1/GPa)
#
#
# Indices 1 2 3 4 5 6 
#
# 1 0.027111 -0.001788 0.000344 -0.003420 -0.003484 0.008286
# 2 -0.001788 0.016922 -0.003437 0.005054 -0.003355 0.010811
# 3 0.000344 -0.003437 0.020993 -0.002409 -0.013287 -0.003988
# 4 -0.003420 0.005054 -0.002409 0.034549 0.000461 -0.001991
# 5 -0.003484 -0.003355 -0.013287 0.000461 0.039164 0.004860
# 6 0.008286 0.010811 -0.003988 -0.001991 0.004860 0.032009
#
#
# Mechanical properties :
#
#
# Convention : Reuss Voigt Hill
#
# Bulk Modulus (GPa) = 18.09537 33.83204 25.96371
# Shear Modulus (GPa) = 25.13424 35.45144 30.29284
#
# Velocity S-wave (km/s) = 3.16838 3.76288 3.47835
# Velocity P-wave (km/s) = 4.54006 5.69136 5.14799
#
# Compressibility (1/GPa) = 0.05526274
#
# Stress axis : x y z
#
# Youngs Moduli (GPa) = 36.88475 59.09641 47.63580
#
# Poissons Ratio (x) = 0.10565 -0.01637
# Poissons Ratio (y) = 0.06594 0.16374
# Poissons Ratio (z) = -0.01268 0.20313
#
# Static dielectric constant tensor:
#      x y z
#    x 2.047630 0.037920 -0.024960 
#    y 0.037920 1.984880 -0.032290 
#    z -0.024960 -0.032290 2.141990 
# 
# From -- ./inp_files/348242.got.cif
#   From: 2010.05.17/outbox.cif.g08.bks.cpg/sg2_175_cif.got.tgz:348242.got - 2010.06.03 11:33:40.
