data_PCOD9064211
_publ_section_title
;
Structure prediction by ZEFSAII (Michael W. Deem and Ramdas Pophale) SiO2 
 PCOD9064211
Probable space group: P -1
;
_chemical_formula_sum "Si O2"
_cell_formula_units_Z 14
_cell_length_a 8.761055
_cell_length_b 9.155498
_cell_length_c 12.081756
_cell_angle_alpha 122.540731
_cell_angle_beta 59.972662
_cell_angle_gamma 132.771847
_cell_volume 585.226593
_symmetry_space_group_name_H-M "P -1"
_symmetry_group_IT_number 2
_symmetry_cell_setting 'triclinic'
loop_
_space_group_symop_operation_xyz
x,y,z
-x,-y,-z
loop_
_atom_site_type_symbol
_atom_site_label
_atom_site_fract_x
_atom_site_fract_y
_atom_site_fract_z
Si Si1 0.532169 0.147031 0.652068
Si Si2 0.497414 0.487744 0.678996
Si Si3 0.015387 0.537948 0.379353
Si Si4 0.802206 0.762084 0.504817
Si Si5 0.252396 0.607763 0.973351
Si Si6 0.658012 0.931414 0.071066
Si Si7 0.900934 0.704972 0.912083
O O1 0.540137 0.352510 0.692613
O O2 0.771472 0.242124 0.639691
O O3 0.390685 0.055514 0.776120
O O4 0.500000 0.000000 0.500000
O O5 0.694333 0.706050 0.643614
O O6 0.377820 0.318020 0.554928
O O7 0.343113 0.539812 0.814375
O O8 0.028983 0.360075 0.247362
O O9 0.000000 0.500000 0.500000
O O10 0.846651 0.578891 0.410757
O O11 0.000000 0.000000 0.500000
O O12 0.447006 0.840820 0.037019
O O13 0.248691 0.491671 0.038749
O O14 0.000000 0.500000 0.000000
O O15 0.763677 0.798071 0.973113
O O16 0.871826 0.151139 0.048415
#
# Coordination Sequence:
#
# PCOD9064211 Si02
#       7
#     2   2   2   2   2   2   2
#     4  12  23  43  73 108 142 182 243 305 371 442
#     4  11  25  46  70 102 142 191 238 301 369 435
#     4  12  23  42  72 105 141 186 240 305 367 434
#     4  11  26  47  68 102 147 190 240 300 370 440
#     4  12  25  47  70  99 148 195 244 298 365 438
#     4  11  25  44  73 107 142 189 242 305 364 447
#     4  11  24  45  72 104 145 186 245 302 372 434
#
# _framework density 23.922357999999999
#
# number of rings (size 3 to 8) (size 9 to 14) (size 15 to 20)
#    0.000    0.571    4.286    3.857    0.000    1.714 
#    2.571    0.000    0.000    0.000    0.000    0.000 
#    0.000    0.000    0.000    0.000    0.000    0.000 
#
# Total GULP energy -78043.012540 kJ/mol
# GULP energy per Si atom -5574.500896 kJ/mol
# Density = 2.386791 g / cm^3
# Si number density = 23.922358 Si / 1000 Ang^3
#
#
#
# Elastic Constant Matrix: (Units=GPa)
#
#
# Indices 1 2 3 4 5 6 
#
# 1 94.8812 28.3411 24.2456 -3.8339 -3.0894 22.8336
# 2 28.3411 140.8956 42.3674 -27.7783 4.2261 12.4354
# 3 24.2456 42.3674 146.6871 -10.3312 -24.0445 0.4183
# 4 -3.8339 -27.7783 -10.3312 33.8020 7.7376 10.1276
# 5 -3.0894 4.2261 -24.0445 7.7376 33.9517 -4.4174
# 6 22.8336 12.4354 0.4183 10.1276 -4.4174 45.0186
#
#
#
# Elastic Compliance Matrix: (Units=1/GPa)
#
#
# Indices 1 2 3 4 5 6 
#
# 1 0.013070 -0.000807 -0.001988 0.002743 -0.001676 -0.007169
# 2 -0.000807 0.011393 -0.003537 0.011716 -0.007457 -0.006072
# 3 -0.001988 -0.003537 0.009241 -0.003145 0.007962 0.003388
# 4 0.002743 0.011716 -0.003145 0.047377 -0.016428 -0.016868
# 5 -0.001676 -0.007457 0.007962 -0.016428 0.040985 0.010553
# 6 -0.007169 -0.006072 0.003388 -0.016868 0.010553 0.032325
#
#
# Mechanical properties :
#
#
# Convention : Reuss Voigt Hill
#
# Bulk Modulus (GPa) = 47.52994 63.59691 55.56343
# Shear Modulus (GPa) = 28.72414 41.72179 35.22297
#
# Velocity S-wave (km/s) = 3.46891 4.18071 3.84133
# Velocity P-wave (km/s) = 5.99633 7.06731 6.55373
#
# Compressibility (1/GPa) = 0.02103937
#
# Stress axis : x y z
#
# Youngs Moduli (GPa) = 76.50904 87.77405 108.21001
#
# Poissons Ratio (x) = 0.07087 0.21515
# Poissons Ratio (y) = 0.06177 0.38273
# Poissons Ratio (z) = 0.15212 0.31045
#
# Static dielectric constant tensor:
#      x y z
#    x 1.943880 0.035470 -0.020570 
#    y 0.035470 1.925670 0.003850 
#    z -0.020570 0.003850 1.849420 
# 
# From -- ./inp_files/383153.got.cif
#   From: 2010.05.17/outbox.cif.g08.bks.cpg/sg2_192_cif.got.tgz:383153.got - 2010.06.03 11:33:40.
