data_PCOD9064171
_publ_section_title
;
Structure prediction by ZEFSAII (Michael W. Deem and Ramdas Pophale) SiO2 
 PCOD9064171
Probable space group: P -1
;
_chemical_formula_sum "Si O2"
_cell_formula_units_Z 16
_cell_length_a 18.931082
_cell_length_b 18.813341
_cell_length_c 8.057800
_cell_angle_alpha 73.947497
_cell_angle_beta 106.752352
_cell_angle_gamma 164.977406
_cell_volume 712.272577
_symmetry_space_group_name_H-M "P -1"
_symmetry_group_IT_number 2
_symmetry_cell_setting 'triclinic'
loop_
_space_group_symop_operation_xyz
x,y,z
-x,-y,-z
loop_
_atom_site_type_symbol
_atom_site_label
_atom_site_fract_x
_atom_site_fract_y
_atom_site_fract_z
Si Si1 0.593128 0.161055 0.233386
Si Si2 0.923848 0.276961 0.956533
Si Si3 0.608556 0.600240 0.323909
Si Si4 0.348858 0.950259 0.570359
Si Si5 0.919402 0.126726 0.850501
Si Si6 0.172566 0.487706 0.347429
Si Si7 0.408546 0.589340 0.646972
Si Si8 0.938905 0.886481 0.879370
O O1 0.841851 0.452964 0.159045
O O2 0.690781 0.171224 0.313094
O O3 0.344547 0.930953 0.084536
O O4 0.461364 0.054921 0.391231
O O5 0.839246 0.121417 0.901365
O O6 0.039974 0.365732 0.155938
O O7 0.500000 0.500000 0.500000
O O8 0.616299 0.521926 0.327413
O O9 0.382958 0.423617 0.172091
O O10 0.896529 0.918066 0.286574
O O11 0.065402 0.719801 0.549638
O O12 0.582507 0.217529 0.658740
O O13 0.214422 0.422633 0.776780
O O14 0.946605 0.082837 0.017927
O O15 0.710217 0.904000 0.705415
O O16 0.300401 0.532241 0.455194
O O17 0.000000 0.000000 0.000000
#
# Coordination Sequence:
#
# PCOD9064171 Si02
#       8
#     2   2   2   2   2   2   2   2
#     4  11  24  45  72  96 132 172 229 261 325 394
#     4  12  26  43  65 103 133 175 216 278 326 387
#     4  12  26  44  69 101 136 173 215 279 337 389
#     4  11  24  45  71  99 128 179 216 273 321 401
#     4  12  25  43  72  93 133 177 225 273 319 393
#     4  12  26  42  66  99 139 170 219 270 339 385
#     4  12  24  45  67  95 132 182 217 269 331 395
#     4  12  23  46  70 100 128 174 230 269 324 393
#
# _framework density 22.46331
#
# number of rings (size 3 to 8) (size 9 to 14) (size 15 to 20)
#    0.000    0.250    2.500    7.500    1.750    5.000 
#    2.250    0.000    0.000    0.000    0.000    0.000 
#    0.000    0.000    0.000    0.000    0.000    0.000 
#
# Total GULP energy -89676.526770 kJ/mol
# GULP energy per Si atom -5604.782923 kJ/mol
# Density = 2.241218 g / cm^3
# Si number density = 22.463310 Si / 1000 Ang^3
#
#
#
# Elastic Constant Matrix: (Units=GPa)
#
#
# Indices 1 2 3 4 5 6 
#
# 1 83.1074 19.6342 28.4964 3.4570 40.2179 3.1149
# 2 19.6342 84.6444 -1.5577 4.9588 18.2538 -0.0095
# 3 28.4964 -1.5577 82.3236 11.0147 25.2635 -6.4271
# 4 3.4570 4.9588 11.0147 42.5743 8.2281 6.2002
# 5 40.2179 18.2538 25.2635 8.2281 36.2182 -3.4304
# 6 3.1149 -0.0095 -6.4271 6.2002 -3.4304 29.7093
#
#
#
# Elastic Compliance Matrix: (Units=1/GPa)
#
#
# Indices 1 2 3 4 5 6 
#
# 1 0.028299 0.000154 -0.001114 0.005485 -0.032741 -0.008133
# 2 0.000154 0.013854 0.003091 -0.000608 -0.009198 -0.000278
# 3 -0.001114 0.003091 0.016571 -0.002886 -0.010936 0.003042
# 4 0.005485 -0.000608 -0.002886 0.027106 -0.010695 -0.008091
# 5 -0.032741 -0.009198 -0.010936 -0.010695 0.079846 0.012515
# 6 -0.008133 -0.000278 0.003042 -0.008091 0.012515 0.038304
#
#
# Mechanical properties :
#
#
# Convention : Reuss Voigt Hill
#
# Bulk Modulus (GPa) = 15.87645 38.13568 27.00607
# Shear Modulus (GPa) = 22.65366 35.26718 28.96042
#
# Velocity S-wave (km/s) = 3.17909 3.96661 3.59448
# Velocity P-wave (km/s) = 4.53416 6.16380 5.41068
#
# Compressibility (1/GPa) = 0.06298636
#
# Stress axis : x y z
#
# Youngs Moduli (GPa) = 35.33648 72.17893 60.34636
#
# Poissons Ratio (x) = -0.01109 0.06723
# Poissons Ratio (y) = -0.00543 -0.18654
# Poissons Ratio (z) = 0.03937 -0.22312
#
# Static dielectric constant tensor:
#      x y z
#    x 1.808430 0.014330 0.020530 
#    y 0.014330 1.789630 -0.003770 
#    z 0.020530 -0.003770 1.855570 
# 
# From -- ./inp_files/355574.got.cif
#   From: 2010.05.17/outbox.cif.g08.bks.cpg/sg2_178_cif.got.tgz:355574.got - 2010.06.03 11:33:40.
