data_PCOD9064953
_publ_section_title
;
Structure prediction by ZEFSAII (Michael W. Deem and Ramdas Pophale) SiO2 
 PCOD9064953
Probable space group: P -1
;
_chemical_formula_sum "Si O2"
_cell_formula_units_Z 15
_cell_length_a 7.763339
_cell_length_b 7.301552
_cell_length_c 13.942882
_cell_angle_alpha 74.340413
_cell_angle_beta 83.781177
_cell_angle_gamma 123.661483
_cell_volume 599.705182
_symmetry_space_group_name_H-M "P -1"
_symmetry_group_IT_number 2
_symmetry_cell_setting 'triclinic'
loop_
_space_group_symop_operation_xyz
x,y,z
-x,-y,-z
loop_
_atom_site_type_symbol
_atom_site_label
_atom_site_fract_x
_atom_site_fract_y
_atom_site_fract_z
Si Si1 0.943257 0.453118 0.748163
Si Si2 0.500000 0.500000 0.500000
Si Si3 0.362393 0.401711 0.197941
Si Si4 0.731817 0.316061 0.580811
Si Si5 0.780244 0.893879 0.087116
Si Si6 0.773202 0.926604 0.564492
Si Si7 0.654928 0.919445 0.896604
Si Si8 0.319438 0.896751 0.778242
O O1 0.768146 0.491443 0.791610
O O2 0.909234 0.431037 0.639358
O O3 0.170618 0.674121 0.747897
O O4 0.863010 0.192459 0.823687
O O5 0.717227 0.512101 0.508100
O O6 0.586470 0.721955 0.536201
O O7 0.620460 0.615391 0.166297
O O8 0.273008 0.192917 0.310985
O O9 0.319615 0.277918 0.115555
O O10 0.756378 0.141569 0.543867
O O11 0.494632 0.136929 0.674024
O O12 0.817179 0.049951 0.154915
O O13 0.630406 0.898004 0.014814
O O14 0.000000 0.000000 0.000000
O O15 0.000000 0.000000 0.500000
O O16 0.458685 0.867105 0.850102
#
# Coordination Sequence:
#
# PCOD9064953 Si02
#       8
#     2   1   2   2   2   2   2   2
#     4  11  24  46  77 105 154 207 254 312 395 460
#     4  12  26  48  80 112 152 188 266 334 386 474
#     4  12  24  52  72 110 163 197 256 332 373 472
#     4  11  25  51  73 116 153 202 258 331 393 473
#     4  12  26  46  77 117 156 210 259 315 393 459
#     4  12  28  50  80 112 154 204 261 323 403 472
#     4  11  25  47  75 110 156 201 261 317 381 462
#     4  11  24  46  77 107 155 209 253 316 392 455
#
# _framework density 25.012291999999999
#
# number of rings (size 3 to 8) (size 9 to 14) (size 15 to 20)
#    0.000    0.533    6.667    2.000    3.733    2.133 
#    2.400    0.000    0.000    0.000    0.000    0.000 
#    0.000    0.000    0.000    0.000    0.000    0.000 
#
# Total GULP energy -83786.062565 kJ/mol
# GULP energy per Si atom -5585.737504 kJ/mol
# Density = 2.495536 g / cm^3
# Si number density = 25.012292 Si / 1000 Ang^3
#
#
#
# Elastic Constant Matrix: (Units=GPa)
#
#
# Indices 1 2 3 4 5 6 
#
# 1 134.1702 92.5893 51.5584 -23.0699 16.5079 -56.7130
# 2 92.5893 294.5738 73.4050 -4.2809 47.5795 -64.8164
# 3 51.5584 73.4050 84.9196 -21.8343 18.0694 -34.9022
# 4 -23.0699 -4.2809 -21.8343 51.3351 -13.9645 15.5412
# 5 16.5079 47.5795 18.0694 -13.9645 71.9391 -35.4021
# 6 -56.7130 -64.8164 -34.9022 15.5412 -35.4021 99.1624
#
#
#
# Elastic Compliance Matrix: (Units=1/GPa)
#
#
# Indices 1 2 3 4 5 6 
#
# 1 0.012765 -0.002486 -0.003267 0.003358 0.002615 0.004933
# 2 -0.002486 0.005460 -0.003174 -0.002872 -0.002514 0.000582
# 3 -0.003267 -0.003174 0.018674 0.005709 0.000146 0.001787
# 4 0.003358 -0.002872 0.005709 0.024423 0.004322 -0.000233
# 5 0.002615 -0.002514 0.000146 0.004322 0.018664 0.005890
# 6 0.004933 0.000582 0.001787 -0.000233 0.005890 0.016054
#
#
# Mechanical properties :
#
#
# Convention : Reuss Voigt Hill
#
# Bulk Modulus (GPa) = 52.50801 105.41878 78.96339
# Shear Modulus (GPa) = 41.58249 64.22804 52.90526
#
# Velocity S-wave (km/s) = 4.08178 5.07290 4.60409
# Velocity P-wave (km/s) = 6.57670 8.74933 7.73963
#
# Compressibility (1/GPa) = 0.01904471
#
# Stress axis : x y z
#
# Youngs Moduli (GPa) = 78.33829 183.16325 53.55029
#
# Poissons Ratio (x) = 0.45543 0.17493
# Poissons Ratio (y) = 0.19478 0.16997
# Poissons Ratio (z) = 0.25590 0.58136
#
# Static dielectric constant tensor:
#      x y z
#    x 2.028800 0.008790 0.020810 
#    y 0.008790 1.931690 -0.038520 
#    z 0.020810 -0.038520 1.989230 
# 
# From -- ./inp_files/554308.got.cif
#   From: 2010.05.17/outbox.cif.g08.bks.cpg/sg2_278_cif.got.tgz:554308.got - 2010.06.03 11:33:40.
