data_PCOD9064873
_publ_section_title
;
Structure prediction by ZEFSAII (Michael W. Deem and Ramdas Pophale) SiO2 
 PCOD9064873
Probable space group: P -1
;
_chemical_formula_sum "Si O2"
_cell_formula_units_Z 16
_cell_length_a 15.264837
_cell_length_b 18.993387
_cell_length_c 12.569743
_cell_angle_alpha 152.922042
_cell_angle_beta 44.906342
_cell_angle_gamma 152.965864
_cell_volume 687.709117
_symmetry_space_group_name_H-M "P -1"
_symmetry_group_IT_number 2
_symmetry_cell_setting 'triclinic'
loop_
_space_group_symop_operation_xyz
x,y,z
-x,-y,-z
loop_
_atom_site_type_symbol
_atom_site_label
_atom_site_fract_x
_atom_site_fract_y
_atom_site_fract_z
Si Si1 0.229276 0.306310 0.715115
Si Si2 0.013502 0.137537 0.267479
Si Si3 0.161067 0.572693 0.099570
Si Si4 0.147516 0.717593 0.512059
Si Si5 0.725278 0.759664 0.202199
Si Si6 0.288064 0.913317 0.251428
Si Si7 0.492678 0.618488 0.571395
Si Si8 0.693172 0.129039 0.182804
O O1 0.251654 0.353484 0.884900
O O2 0.393930 0.354642 0.587423
O O3 0.231898 0.470968 0.874038
O O4 0.000000 0.000000 0.500000
O O5 0.897381 0.169955 0.362674
O O6 0.253214 0.415111 0.469886
O O7 0.897558 0.951178 0.220059
O O8 0.000000 0.000000 0.000000
O O9 0.241542 0.701381 0.319100
O O10 0.232929 0.762235 0.202288
O O11 0.904200 0.313563 0.969108
O O12 0.282526 0.872750 0.712392
O O13 0.921263 0.418875 0.339521
O O14 0.719293 0.915482 0.480090
O O15 0.500000 0.500000 0.000000
O O16 0.515577 0.079859 0.245591
O O17 0.500000 0.500000 0.500000
O O18 0.617410 0.895924 0.876764
#
# Coordination Sequence:
#
# PCOD9064873 Si02
#       8
#     2   2   2   2   2   2   2   2
#     4  12  25  44  74 109 146 192 241 300 359 432
#     4  12  27  49  75 104 149 193 245 303 372 440
#     4  11  24  46  75 102 144 185 243 296 359 434
#     4  11  26  48  70 107 146 191 239 301 363 432
#     4  12  28  47  71 109 145 189 246 304 369 437
#     4  11  25  46  73 107 137 191 241 296 364 434
#     4  12  26  47  74 109 148 195 245 299 368 435
#     4  11  27  44  73 107 146 187 242 301 359 435
#
# _framework density 23.265650000000001
#
# number of rings (size 3 to 8) (size 9 to 14) (size 15 to 20)
#    0.000    0.500    2.500    4.500    7.000    3.500 
#    0.000    0.000    0.000    0.000    0.000    0.000 
#    0.000    0.000    0.000    0.000    0.000    0.000 
#
# Total GULP energy -89619.489949 kJ/mol
# GULP energy per Si atom -5601.218122 kJ/mol
# Density = 2.321270 g / cm^3
# Si number density = 23.265650 Si / 1000 Ang^3
#
#
#
# Elastic Constant Matrix: (Units=GPa)
#
#
# Indices 1 2 3 4 5 6 
#
# 1 90.3131 19.3992 29.1702 -5.3291 9.6181 -8.4000
# 2 19.3992 97.5885 23.9531 -1.1328 6.5343 -4.0995
# 3 29.1702 23.9531 95.7563 -3.6293 -3.7866 -1.0547
# 4 -5.3291 -1.1328 -3.6293 36.7729 7.9366 5.9434
# 5 9.6181 6.5343 -3.7866 7.9366 44.9654 1.7060
# 6 -8.4000 -4.0995 -1.0547 5.9434 1.7060 43.5364
#
#
#
# Elastic Compliance Matrix: (Units=1/GPa)
#
#
# Indices 1 2 3 4 5 6 
#
# 1 0.013247 -0.001378 -0.003728 0.001878 -0.003363 0.002211
# 2 -0.001378 0.011263 -0.002447 0.000125 -0.001600 0.000781
# 3 -0.003728 -0.002447 0.012278 0.000252 0.002172 -0.000772
# 4 0.001878 0.000125 0.000252 0.029215 -0.005426 -0.003396
# 5 -0.003363 -0.001600 0.002172 -0.005426 0.024368 -0.000961
# 6 0.002211 0.000781 -0.000772 -0.003396 -0.000961 0.023952
#
#
# Mechanical properties :
#
#
# Convention : Reuss Voigt Hill
#
# Bulk Modulus (GPa) = 46.12446 47.63363 46.87905
# Shear Modulus (GPa) = 36.58752 39.13062 37.85907
#
# Velocity S-wave (km/s) = 3.96990 4.10555 4.03830
# Velocity P-wave (km/s) = 6.39388 6.55685 6.47588
#
# Compressibility (1/GPa) = 0.02168047
#
# Stress axis : x y z
#
# Youngs Moduli (GPa) = 75.48631 88.78450 81.44606
#
# Poissons Ratio (x) = 0.12239 0.30365
# Poissons Ratio (y) = 0.10406 0.19934
# Poissons Ratio (z) = 0.28143 0.21730
#
# Static dielectric constant tensor:
#      x y z
#    x 1.804800 -0.005220 -0.027630 
#    y -0.005220 1.867180 -0.013910 
#    z -0.027630 -0.013910 1.830550 
# 
# From -- ./inp_files/457013.got.cif
#   From: 2010.05.17/outbox.cif.g08.bks.cpg/sg2_229_cif.got.tgz:457013.got - 2010.06.03 11:33:40.
