data_PCOD9064527
_publ_section_title
;
Structure prediction by ZEFSAII (Michael W. Deem and Ramdas Pophale) SiO2 
 PCOD9064527
Probable space group: P -1
;
_chemical_formula_sum "Si O2"
_cell_formula_units_Z 14
_cell_length_a 14.626236
_cell_length_b 15.380749
_cell_length_c 8.340566
_cell_angle_alpha 45.679592
_cell_angle_beta 107.040777
_cell_angle_gamma 142.776332
_cell_volume 644.508028
_symmetry_space_group_name_H-M "P -1"
_symmetry_group_IT_number 2
_symmetry_cell_setting 'triclinic'
loop_
_space_group_symop_operation_xyz
x,y,z
-x,-y,-z
loop_
_atom_site_type_symbol
_atom_site_label
_atom_site_fract_x
_atom_site_fract_y
_atom_site_fract_z
Si Si1 0.782355 0.301472 0.100158
Si Si2 0.307981 0.355001 0.626236
Si Si3 0.988366 0.020677 0.650684
Si Si4 0.797700 0.990928 0.789534
Si Si5 0.469629 0.773767 0.768774
Si Si6 0.099686 0.509251 0.429098
Si Si7 0.727078 0.518563 0.270817
O O1 0.700156 0.336483 0.091312
O O2 0.632955 0.041505 0.432965
O O3 0.781490 0.309487 0.895342
O O4 0.000000 0.500000 0.000000
O O5 0.500000 0.500000 0.500000
O O6 0.185737 0.263017 0.530996
O O7 0.359262 0.517059 0.568182
O O8 0.191871 0.118726 0.957495
O O9 0.862291 0.003253 0.637635
O O10 0.000000 0.000000 0.500000
O O11 0.899575 0.800010 0.962845
O O12 0.942443 0.248975 0.600119
O O13 0.588996 0.818823 0.890702
O O14 0.390698 0.614149 0.781679
O O15 0.216355 0.553929 0.554512
O O16 0.000000 0.500000 0.500000
#
# Coordination Sequence:
#
# PCOD9064527 Si02
#       7
#     2   2   2   2   2   2   2
#     4  11  25  48  70 100 145 187 238 293 351 418
#     4  11  25  44  68 102 140 182 230 290 357 425
#     4  11  25  44  72 100 137 187 230 288 365 415
#     4  11  24  46  68 101 143 179 237 292 348 430
#     4  11  27  44  72 107 136 187 244 291 351 425
#     4  12  25  44  74 100 142 193 232 292 362 416
#     4  11  25  45  66 101 141 173 236 290 349 424
#
# _framework density 21.721996000000001
#
# number of rings (size 3 to 8) (size 9 to 14) (size 15 to 20)
#    0.000    0.857    4.286    1.714   10.000    4.000 
#    0.000    0.000    0.000    0.000    0.000    0.000 
#    0.000    0.000    0.000    0.000    0.000    0.000 
#
# Total GULP energy -78184.943580 kJ/mol
# GULP energy per Si atom -5584.638827 kJ/mol
# Density = 2.167256 g / cm^3
# Si number density = 21.721996 Si / 1000 Ang^3
#
#
#
# Elastic Constant Matrix: (Units=GPa)
#
#
# Indices 1 2 3 4 5 6 
#
# 1 139.4406 24.4024 21.8895 6.2583 -17.8762 -11.9444
# 2 24.4024 83.4319 -0.6097 4.4855 -11.4059 -4.6051
# 3 21.8895 -0.6097 61.9470 7.2813 -5.6775 -1.6363
# 4 6.2583 4.4855 7.2813 31.5289 0.6132 -2.7653
# 5 -17.8762 -11.4059 -5.6775 0.6132 37.9425 4.6282
# 6 -11.9444 -4.6051 -1.6363 -2.7653 4.6282 46.9920
#
#
#
# Elastic Compliance Matrix: (Units=1/GPa)
#
#
# Indices 1 2 3 4 5 6 
#
# 1 0.008456 -0.001984 -0.002625 -0.000709 0.002818 0.001544
# 2 -0.001984 0.013133 0.001347 -0.001812 0.003194 0.000408
# 3 -0.002625 0.001347 0.017700 -0.003825 0.001919 -0.000333
# 4 -0.000709 -0.001812 -0.003825 0.033189 -0.002192 0.001678
# 5 0.002818 0.003194 0.001919 -0.002192 0.029199 -0.001909
# 6 0.001544 0.000408 -0.000333 0.001678 -0.001909 0.021988
#
#
# Mechanical properties :
#
#
# Convention : Reuss Voigt Hill
#
# Bulk Modulus (GPa) = 30.52075 41.79821 36.15948
# Shear Modulus (GPa) = 35.43321 39.23515 37.33418
#
# Velocity S-wave (km/s) = 4.04321 4.25460 4.15025
# Velocity P-wave (km/s) = 5.98981 6.58936 6.29672
#
# Compressibility (1/GPa) = 0.03276459
#
# Stress axis : x y z
#
# Youngs Moduli (GPa) = 118.25680 76.14681 56.49601
#
# Poissons Ratio (x) = 0.15106 0.14831
# Poissons Ratio (y) = 0.23460 -0.07609
# Poissons Ratio (z) = 0.31044 -0.10255
#
# Static dielectric constant tensor:
#      x y z
#    x 1.770060 0.003860 -0.024080 
#    y 0.003860 1.758660 0.046550 
#    z -0.024080 0.046550 1.917210 
# 
# From -- ./inp_files/314680.got.cif
#   From: 2010.05.17/outbox.cif.g08.bks.cpg/sg2_158_cif.got.tgz:314680.got - 2010.06.03 11:33:40.
