data_PCOD9064492
_publ_section_title
;
Structure prediction by ZEFSAII (Michael W. Deem and Ramdas Pophale) SiO2 
 PCOD9064492
Probable space group: P -1
;
_chemical_formula_sum "Si O2"
_cell_formula_units_Z 16
_cell_length_a 15.994348
_cell_length_b 5.065705
_cell_length_c 9.767042
_cell_angle_alpha 105.530387
_cell_angle_beta 59.997952
_cell_angle_gamma 99.285214
_cell_volume 659.936747
_symmetry_space_group_name_H-M "P -1"
_symmetry_group_IT_number 2
_symmetry_cell_setting 'triclinic'
loop_
_space_group_symop_operation_xyz
x,y,z
-x,-y,-z
loop_
_atom_site_type_symbol
_atom_site_label
_atom_site_fract_x
_atom_site_fract_y
_atom_site_fract_z
Si Si1 0.076295 0.435662 0.767712
Si Si2 0.663270 0.809313 0.172477
Si Si3 0.192032 0.221377 0.395843
Si Si4 0.867349 0.954154 0.106154
Si Si5 0.460738 0.682629 0.677321
Si Si6 0.409528 0.986178 0.178798
Si Si7 0.279690 0.517053 0.146856
Si Si8 0.120587 0.822655 0.178428
O O1 0.151256 0.285359 0.585723
O O2 0.111774 0.749794 0.801008
O O3 0.971651 0.384225 0.777657
O O4 0.074009 0.272327 0.891790
O O5 0.611863 0.090016 0.279275
O O6 0.595297 0.541844 0.214812
O O7 0.758374 0.832979 0.188992
O O8 0.692140 0.769443 0.984360
O O9 0.301756 0.113895 0.283807
O O10 0.204667 0.491610 0.329149
O O11 0.122742 0.022673 0.334692
O O12 0.882016 0.011020 0.939720
O O13 0.500000 0.500000 0.500000
O O14 0.543305 0.865091 0.708761
O O15 0.374427 0.669409 0.150079
O O16 0.500000 0.000000 0.000000
O O17 0.220312 0.662065 0.094119
#
# Coordination Sequence:
#
# PCOD9064492 Si02
#       8
#     2   2   2   2   2   2   2   2
#     4  12  29  47  76 113 153 196 251 322 380 448
#     4  12  25  48  73 106 148 200 250 310 373 453
#     4  11  27  45  74 108 153 198 248 321 379 447
#     4  12  27  47  77 108 151 200 253 308 382 455
#     4  12  28  45  73 108 151 195 248 310 386 448
#     4  11  25  45  73 108 147 196 258 310 371 454
#     4  11  24  45  79 109 149 203 258 312 371 454
#     4  11  25  49  75 110 148 204 258 305 378 459
#
# _framework density 24.244745000000002
#
# number of rings (size 3 to 8) (size 9 to 14) (size 15 to 20)
#    0.000    0.500    2.500    4.500   10.500    1.500 
#    0.000    0.000    0.000    0.000    0.000    0.000 
#    0.000    0.000    0.000    0.000    0.000    0.000 
#
# Total GULP energy -89422.685317 kJ/mol
# GULP energy per Si atom -5588.917832 kJ/mol
# Density = 2.418956 g / cm^3
# Si number density = 24.244745 Si / 1000 Ang^3
#
#
#
# Elastic Constant Matrix: (Units=GPa)
#
#
# Indices 1 2 3 4 5 6 
#
# 1 209.3429 20.2735 -30.9718 25.1845 6.2309 55.7232
# 2 20.2735 107.5280 24.2888 23.3824 6.5848 17.0330
# 3 -30.9718 24.2888 151.7529 18.6403 0.8451 -8.3175
# 4 25.1845 23.3824 18.6403 39.1155 4.1289 10.7968
# 5 6.2309 6.5848 0.8451 4.1289 25.9783 5.9950
# 6 55.7232 17.0330 -8.3175 10.7968 5.9950 60.2138
#
#
#
# Elastic Compliance Matrix: (Units=1/GPa)
#
#
# Indices 1 2 3 4 5 6 
#
# 1 0.006923 0.000015 0.001559 -0.003694 0.000152 -0.005548
# 2 0.000015 0.011182 -0.001248 -0.005327 -0.001431 -0.002252
# 3 0.001559 -0.001248 0.007649 -0.004112 0.000189 0.000685
# 4 -0.003694 -0.005327 -0.004112 0.033764 -0.002666 -0.001431
# 5 0.000152 -0.001431 0.000189 -0.002666 0.039979 -0.003213
# 6 -0.005548 -0.002252 0.000685 -0.001431 -0.003213 0.023050
#
#
# Mechanical properties :
#
#
# Convention : Reuss Voigt Hill
#
# Bulk Modulus (GPa) = 37.86813 55.08941 46.47877
# Shear Modulus (GPa) = 38.25698 55.39708 46.82703
#
# Velocity S-wave (km/s) = 3.97665 4.78526 4.39957
# Velocity P-wave (km/s) = 6.06119 7.30090 6.70974
#
# Compressibility (1/GPa) = 0.02640743
#
# Stress axis : x y z
#
# Youngs Moduli (GPa) = 144.45102 89.43339 130.73228
#
# Poissons Ratio (x) = -0.00138 -0.20384
# Poissons Ratio (y) = -0.00222 0.16311
# Poissons Ratio (z) = -0.22523 0.11158
#
# Static dielectric constant tensor:
#      x y z
#    x 1.939320 -0.030280 -0.032300 
#    y -0.030280 2.041190 -0.042490 
#    z -0.032300 -0.042490 1.931310 
# 
# From -- ./inp_files/289002.got.cif
#   From: 2010.05.17/outbox.cif.g08.bks.cpg/sg2_145_cif.got.tgz:289002.got - 2010.06.03 11:33:40.
