data_PCOD9064862
_publ_section_title
;
Structure prediction by ZEFSAII (Michael W. Deem and Ramdas Pophale) SiO2 
 PCOD9064862
Probable space group: P -1
;
_chemical_formula_sum "Si O2"
_cell_formula_units_Z 16
_cell_length_a 13.875512
_cell_length_b 5.534345
_cell_length_c 14.104222
_cell_angle_alpha 88.656075
_cell_angle_beta 141.589207
_cell_angle_gamma 78.685022
_cell_volume 631.312963
_symmetry_space_group_name_H-M "P -1"
_symmetry_group_IT_number 2
_symmetry_cell_setting 'triclinic'
loop_
_space_group_symop_operation_xyz
x,y,z
-x,-y,-z
loop_
_atom_site_type_symbol
_atom_site_label
_atom_site_fract_x
_atom_site_fract_y
_atom_site_fract_z
Si Si1 0.176339 0.012569 0.504404
Si Si2 0.579891 0.488711 0.724480
Si Si3 0.693866 0.244448 0.002389
Si Si4 0.924080 0.297233 0.898469
Si Si5 0.405683 0.089096 0.826459
Si Si6 0.417987 0.074801 0.543613
Si Si7 0.001044 0.253698 0.742874
Si Si8 0.166523 0.557515 0.736458
O O1 0.311948 0.939780 0.693305
O O2 0.002839 0.205829 0.413043
O O3 0.235720 0.136660 0.455419
O O4 0.135332 0.771359 0.434377
O O5 0.731849 0.391393 0.771083
O O6 0.492688 0.789561 0.646318
O O7 0.474100 0.307986 0.619910
O O8 0.661727 0.442429 0.891607
O O9 0.694115 0.356236 0.105797
O O10 0.874256 0.035716 0.138261
O O11 0.554238 0.120566 0.881046
O O12 0.937767 0.335930 0.797180
O O13 0.000000 0.500000 0.000000
O O14 0.000000 0.000000 0.000000
O O15 0.259114 0.362129 0.728315
O O16 0.500000 0.000000 0.000000
O O17 0.500000 0.000000 0.500000
O O18 0.109690 0.394965 0.773537
#
# Coordination Sequence:
#
# PCOD9064862 Si02
#       8
#     2   2   2   2   2   2   2   2
#     4  11  28  48  73 111 153 202 261 324 394 469
#     4  12  26  45  77 109 154 200 262 320 383 455
#     4  11  24  46  74 112 145 199 259 327 389 470
#     4  12  25  42  74 114 157 204 257 316 387 465
#     4  12  25  49  78 108 149 204 266 329 396 465
#     4  12  28  49  75 109 156 208 255 316 391 469
#     4  11  25  46  72 109 154 202 253 320 394 470
#     4  11  26  47  75 104 154 197 258 321 401 464
#
# _framework density 25.344006
#
# number of rings (size 3 to 8) (size 9 to 14) (size 15 to 20)
#    0.000    0.500    3.750    3.375    8.750    0.500 
#    2.250    0.000    0.000    0.000    0.000    0.000 
#    0.000    0.000    0.000    0.000    0.000    0.000 
#
# Total GULP energy -89422.996587 kJ/mol
# GULP energy per Si atom -5588.937287 kJ/mol
# Density = 2.528632 g / cm^3
# Si number density = 25.344006 Si / 1000 Ang^3
#
#
#
# Elastic Constant Matrix: (Units=GPa)
#
#
# Indices 1 2 3 4 5 6 
#
# 1 61.6769 8.5043 34.6225 4.5459 7.0136 -6.2200
# 2 8.5043 121.1400 58.6656 5.6893 3.9338 5.4467
# 3 34.6225 58.6656 128.6150 30.0191 -12.9434 0.3912
# 4 4.5459 5.6893 30.0191 34.5896 5.9392 1.3107
# 5 7.0136 3.9338 -12.9434 5.9392 49.6997 0.3143
# 6 -6.2200 5.4467 0.3912 1.3107 0.3143 45.5631
#
#
#
# Elastic Compliance Matrix: (Units=1/GPa)
#
#
# Indices 1 2 3 4 5 6 
#
# 1 0.021378 0.002609 -0.008834 0.005392 -0.006185 0.002570
# 2 0.002609 0.011687 -0.007593 0.005029 -0.003865 -0.001094
# 3 -0.008834 -0.007593 0.017819 -0.014462 0.008217 -0.000092
# 4 0.005392 0.005029 -0.014462 0.041658 -0.009898 -0.000871
# 5 -0.006185 -0.003865 0.008217 -0.009898 0.024625 -0.000338
# 6 0.002570 -0.001094 -0.000092 -0.000871 -0.000338 0.022457
#
#
# Mechanical properties :
#
#
# Convention : Reuss Voigt Hill
#
# Bulk Modulus (GPa) = 43.01157 57.22406 50.11781
# Shear Modulus (GPa) = 28.57000 39.94644 34.25822
#
# Velocity S-wave (km/s) = 3.36115 3.97441 3.68057
# Velocity P-wave (km/s) = 5.66313 6.60978 6.15468
#
# Compressibility (1/GPa) = 0.02324956
#
# Stress axis : x y z
#
# Youngs Moduli (GPa) = 46.77799 85.56321 56.11910
#
# Poissons Ratio (x) = -0.22326 0.49574
# Poissons Ratio (y) = -0.12206 0.42610
# Poissons Ratio (z) = 0.41322 0.64967
#
# Static dielectric constant tensor:
#      x y z
#    x 2.079530 -0.059570 -0.034470 
#    y -0.059570 2.097190 -0.045260 
#    z -0.034470 -0.045260 2.011080 
# 
# From -- ./inp_files/525348.got.cif
#   From: 2010.05.17/outbox.cif.g08.bks.cpg/sg2_263_cif.got.tgz:525348.got - 2010.06.03 11:33:40.
