data_PCOD9064254
_publ_section_title
;
Structure prediction by ZEFSAII (Michael W. Deem and Ramdas Pophale) SiO2 
 PCOD9064254
Probable space group: P -1
;
_chemical_formula_sum "Si O2"
_cell_formula_units_Z 14
_cell_length_a 15.541154
_cell_length_b 9.228104
_cell_length_c 12.711020
_cell_angle_alpha 46.003157
_cell_angle_beta 152.943438
_cell_angle_gamma 125.215704
_cell_volume 591.593506
_symmetry_space_group_name_H-M "P -1"
_symmetry_group_IT_number 2
_symmetry_cell_setting 'triclinic'
loop_
_space_group_symop_operation_xyz
x,y,z
-x,-y,-z
loop_
_atom_site_type_symbol
_atom_site_label
_atom_site_fract_x
_atom_site_fract_y
_atom_site_fract_z
Si Si1 0.807778 0.153137 0.226054
Si Si2 0.618542 0.827993 0.785676
Si Si3 0.979198 0.567890 0.216638
Si Si4 0.585479 0.133119 0.782100
Si Si5 0.655837 0.400734 0.300852
Si Si6 0.214777 0.989837 0.494982
Si Si7 0.104926 0.678568 0.072030
O O1 0.866808 0.378394 0.166180
O O2 0.736376 0.107647 0.288393
O O3 0.667939 0.116125 0.997860
O O4 0.000000 0.000000 0.500000
O O5 0.480726 0.652853 0.727192
O O6 0.500000 0.000000 0.500000
O O7 0.633755 0.930208 0.865355
O O8 0.825134 0.737616 0.015224
O O9 0.164921 0.487919 0.529383
O O10 0.068655 0.663092 0.164042
O O11 0.358358 0.149734 0.538505
O O12 0.679016 0.309368 0.734557
O O13 0.755944 0.190341 0.466234
O O14 0.500000 0.500000 0.000000
O O15 0.006397 0.112472 0.200512
O O16 0.000000 0.500000 0.000000
#
# Coordination Sequence:
#
# PCOD9064254 Si02
#       7
#     2   2   2   2   2   2   2
#     4  12  25  46  69 105 142 189 232 285 356 414
#     4  11  25  48  73 106 139 185 240 286 351 420
#     4  12  26  45  76 102 145 185 232 297 352 415
#     4  11  24  45  72  99 143 178 234 291 342 416
#     4  11  26  45  71 106 138 183 239 291 349 418
#     4  11  25  45  72  99 141 186 234 284 354 412
#     4  12  24  47  67 105 140 182 232 282 353 419
#
# _framework density 23.664897
#
# number of rings (size 3 to 8) (size 9 to 14) (size 15 to 20)
#    0.000    0.571    2.857    4.714    4.000    3.429 
#   10.286    0.000    0.000    0.000    0.000    0.000 
#    0.000    0.000    0.000    0.000    0.000    0.000 
#
# Total GULP energy -78330.920664 kJ/mol
# GULP energy per Si atom -5595.065762 kJ/mol
# Density = 2.361103 g / cm^3
# Si number density = 23.664897 Si / 1000 Ang^3
#
#
#
# Elastic Constant Matrix: (Units=GPa)
#
#
# Indices 1 2 3 4 5 6 
#
# 1 112.4281 6.0064 9.2454 12.8613 0.5734 22.0318
# 2 6.0064 68.2833 13.6731 19.8199 3.4502 8.6423
# 3 9.2454 13.6731 98.9137 11.2512 -2.1736 -2.1312
# 4 12.8613 19.8199 11.2512 36.9238 8.9272 -6.5273
# 5 0.5734 3.4502 -2.1736 8.9272 33.3218 5.6611
# 6 22.0318 8.6423 -2.1312 -6.5273 5.6611 33.5926
#
#
#
# Elastic Compliance Matrix: (Units=1/GPa)
#
#
# Indices 1 2 3 4 5 6 
#
# 1 0.011776 0.002580 -0.000704 -0.007962 0.003411 -0.010554
# 2 0.002580 0.019788 -0.001579 -0.013578 0.003149 -0.010052
# 3 -0.000704 -0.001579 0.010709 -0.002345 0.001356 0.000863
# 4 -0.007962 -0.013578 -0.002345 0.044686 -0.013911 0.019594
# 5 0.003411 0.003149 0.001356 -0.013911 0.035417 -0.011632
# 6 -0.010554 -0.010052 0.000863 0.019594 -0.011632 0.045099
#
#
# Mechanical properties :
#
#
# Convention : Reuss Voigt Hill
#
# Bulk Modulus (GPa) = 23.32849 37.49722 30.41285
# Shear Modulus (GPa) = 27.59809 37.48097 32.53953
#
# Velocity S-wave (km/s) = 3.41868 3.98404 3.71214
# Velocity P-wave (km/s) = 5.04603 6.08629 5.59041
#
# Compressibility (1/GPa) = 0.04286605
#
# Stress axis : x y z
#
# Youngs Moduli (GPa) = 84.91647 50.53467 93.37815
#
# Poissons Ratio (x) = -0.13036 0.06575
# Poissons Ratio (y) = -0.21906 0.14749
# Poissons Ratio (z) = 0.05979 0.07982
#
# Static dielectric constant tensor:
#      x y z
#    x 1.805060 -0.061360 0.082910 
#    y -0.061360 1.876090 0.091380 
#    z 0.082910 0.091380 1.701560 
# 
# From -- ./inp_files/446865.got.cif
#   From: 2010.05.17/outbox.cif.g08.bks.cpg/sg2_224_cif.got.tgz:446865.got - 2010.06.03 11:33:40.
