data_PCOD9064877
_publ_section_title
;
Structure prediction by ZEFSAII (Michael W. Deem and Ramdas Pophale) SiO2 
 PCOD9064877
Probable space group: P -1
;
_chemical_formula_sum "Si O2"
_cell_formula_units_Z 14
_cell_length_a 5.003475
_cell_length_b 10.729113
_cell_length_c 15.827875
_cell_angle_alpha 124.180794
_cell_angle_beta 122.470142
_cell_angle_gamma 67.397357
_cell_volume 588.851522
_symmetry_space_group_name_H-M "P -1"
_symmetry_group_IT_number 2
_symmetry_cell_setting 'triclinic'
loop_
_space_group_symop_operation_xyz
x,y,z
-x,-y,-z
loop_
_atom_site_type_symbol
_atom_site_label
_atom_site_fract_x
_atom_site_fract_y
_atom_site_fract_z
Si Si1 0.667065 0.447346 0.595411
Si Si2 0.398557 0.647347 0.268949
Si Si3 0.234268 0.497501 0.883569
Si Si4 0.199532 0.263548 0.177627
Si Si5 0.106104 0.882377 0.547592
Si Si6 0.232544 0.932825 0.873668
Si Si7 0.272603 0.982639 0.310802
O O1 0.500000 0.500000 0.500000
O O2 0.494995 0.403567 0.637203
O O3 0.813118 0.597704 0.706404
O O4 0.871095 0.287875 0.547398
O O5 0.582881 0.544694 0.189236
O O6 0.411684 0.821597 0.312620
O O7 0.023855 0.620602 0.192393
O O8 0.013966 0.659001 0.905134
O O9 0.500000 0.500000 0.000000
O O10 0.559998 0.205031 0.192539
O O11 0.021797 0.130426 0.132899
O O12 0.452992 0.929654 0.650549
O O13 0.000000 0.000000 0.500000
O O14 0.871257 0.912737 0.597265
O O15 0.016888 0.035451 0.809401
O O16 0.500000 0.000000 0.000000
#
# Coordination Sequence:
#
# PCOD9064877 Si02
#       7
#     2   2   2   2   2   2   2
#     4  11  24  46  75 103 149 192 240 305 372 427
#     4  11  25  43  70 108 141 192 243 305 357 450
#     4  11  25  43  74  99 146 187 246 306 372 425
#     4  11  26  47  67 109 140 184 256 298 357 451
#     4  12  26  46  73 110 146 198 242 301 372 438
#     4  12  27  47  73 103 145 194 240 303 372 437
#     4  12  26  45  73 103 151 184 254 295 362 442
#
# _framework density 23.775092999999998
#
# number of rings (size 3 to 8) (size 9 to 14) (size 15 to 20)
#    0.000    0.571    1.429    6.429    6.000    1.143 
#    0.000    8.571    0.000    0.000    0.000    0.000 
#    0.000    0.000    0.000    0.000    0.000    0.000 
#
# Total GULP energy -78351.682537 kJ/mol
# GULP energy per Si atom -5596.548753 kJ/mol
# Density = 2.372098 g / cm^3
# Si number density = 23.775093 Si / 1000 Ang^3
#
#
#
# Elastic Constant Matrix: (Units=GPa)
#
#
# Indices 1 2 3 4 5 6 
#
# 1 101.6146 10.2551 13.2915 -2.2628 -2.3636 -2.1917
# 2 10.2551 112.7684 41.0039 -10.7188 -6.2121 -8.4727
# 3 13.2915 41.0039 108.0368 -17.6375 4.4924 -6.4227
# 4 -2.2628 -10.7188 -17.6375 34.8240 -9.5478 11.0087
# 5 -2.3636 -6.2121 4.4924 -9.5478 36.7681 3.6648
# 6 -2.1917 -8.4727 -6.4227 11.0087 3.6648 34.2743
#
#
#
# Elastic Compliance Matrix: (Units=1/GPa)
#
#
# Indices 1 2 3 4 5 6 
#
# 1 0.010050 -0.000464 -0.001061 0.000094 0.000699 0.000224
# 2 -0.000464 0.010659 -0.003751 0.001714 0.002567 0.001077
# 3 -0.001061 -0.003751 0.011563 0.004417 -0.000953 -0.000145
# 4 0.000094 0.001714 0.004417 0.038350 0.010934 -0.012229
# 5 0.000699 0.002567 -0.000953 0.010934 0.031265 -0.006354
# 6 0.000224 0.001077 -0.000145 -0.012229 -0.006354 0.034037
#
#
# Mechanical properties :
#
#
# Convention : Reuss Voigt Hill
#
# Bulk Modulus (GPa) = 46.04161 50.16898 48.10529
# Shear Modulus (GPa) = 32.52743 38.36456 35.44600
#
# Velocity S-wave (km/s) = 3.70284 4.02138 3.86539
# Velocity P-wave (km/s) = 6.13913 6.53523 6.34027
#
# Compressibility (1/GPa) = 0.02171948
#
# Stress axis : x y z
#
# Youngs Moduli (GPa) = 99.50380 93.81526 86.48644
#
# Poissons Ratio (x) = 0.04352 0.09174
# Poissons Ratio (y) = 0.04616 0.32444
# Poissons Ratio (z) = 0.10555 0.35194
#
# Static dielectric constant tensor:
#      x y z
#    x 1.912070 -0.007370 0.026190 
#    y -0.007370 1.965210 -0.069870 
#    z 0.026190 -0.069870 1.951560 
# 
# From -- ./inp_files/482370.got.cif
#   From: 2010.05.17/outbox.cif.g08.bks.cpg/sg2_242_cif.got.tgz:482370.got - 2010.06.03 11:33:40.
