data_PCOD9064892
_publ_section_title
;
Structure prediction by ZEFSAII (Michael W. Deem and Ramdas Pophale) SiO2 
 PCOD9064892
Probable space group: P -1
;
_chemical_formula_sum "Si O2"
_cell_formula_units_Z 14
_cell_length_a 16.517251
_cell_length_b 5.054245
_cell_length_c 7.095197
_cell_angle_alpha 75.280445
_cell_angle_beta 90.138350
_cell_angle_gamma 80.493898
_cell_volume 564.404892
_symmetry_space_group_name_H-M "P -1"
_symmetry_group_IT_number 2
_symmetry_cell_setting 'triclinic'
loop_
_space_group_symop_operation_xyz
x,y,z
-x,-y,-z
loop_
_atom_site_type_symbol
_atom_site_label
_atom_site_fract_x
_atom_site_fract_y
_atom_site_fract_z
Si Si1 0.064724 0.665360 0.372327
Si Si2 0.936710 0.755576 0.865058
Si Si3 0.767994 0.483408 0.476432
Si Si4 0.780252 0.908167 0.081461
Si Si5 0.504016 0.796469 0.859949
Si Si6 0.312911 0.239618 0.258882
Si Si7 0.666349 0.182922 0.326240
O O1 0.100306 0.424818 0.262962
O O2 0.145125 0.725806 0.474783
O O3 0.000000 0.500000 0.500000
O O4 0.975195 0.022507 0.748430
O O5 0.866952 0.900893 0.981983
O O6 0.000000 0.500000 0.000000
O O7 0.798862 0.706942 0.298404
O O8 0.734557 0.487213 0.689697
O O9 0.682886 0.464610 0.367919
O O10 0.722388 0.158266 0.143628
O O11 0.724787 0.817249 0.930139
O O12 0.590260 0.779906 0.759486
O O13 0.424116 0.859763 0.716679
O O14 0.500000 0.500000 0.000000
O O15 0.500000 0.000000 0.000000
O O16 0.299544 0.026345 0.465849
#
# Coordination Sequence:
#
# PCOD9064892 Si02
#       7
#     2   2   2   2   2   2   2
#     4  12  27  50  77 111 158 201 259 327 392 464
#     4  12  27  49  78 112 153 206 257 324 393 465
#     4  11  26  44  77 110 149 204 255 317 387 461
#     4  11  24  46  75 107 153 198 258 310 387 463
#     4  12  27  46  76 110 153 200 254 312 376 455
#     4  11  24  47  73 107 153 201 252 312 384 457
#     4  11  26  45  76 110 149 204 250 316 383 459
#
# _framework density 24.80489
#
# number of rings (size 3 to 8) (size 9 to 14) (size 15 to 20)
#    0.000    0.571    2.857    3.857    8.000    2.857 
#    2.571    0.000    0.000    0.000    0.000    0.000 
#    0.000    0.000    0.000    0.000    0.000    0.000 
#
# Total GULP energy -78045.042185 kJ/mol
# GULP energy per Si atom -5574.645870 kJ/mol
# Density = 2.474843 g / cm^3
# Si number density = 24.804890 Si / 1000 Ang^3
#
#
#
# Elastic Constant Matrix: (Units=GPa)
#
#
# Indices 1 2 3 4 5 6 
#
# 1 166.0395 33.7810 48.0267 8.8057 -3.8465 -6.7292
# 2 33.7810 104.1143 40.0955 -5.2011 -7.5591 11.9163
# 3 48.0267 40.0955 121.9285 6.4660 -11.5790 -3.3467
# 4 8.8057 -5.2011 6.4660 42.5860 -1.1532 -0.9787
# 5 -3.8465 -7.5591 -11.5790 -1.1532 45.3814 2.0081
# 6 -6.7292 11.9163 -3.3467 -0.9787 2.0081 28.7016
#
#
#
# Elastic Compliance Matrix: (Units=1/GPa)
#
#
# Indices 1 2 3 4 5 6 
#
# 1 0.007163 -0.001853 -0.002116 -0.001346 -0.000372 0.002182
# 2 -0.001853 0.012473 -0.003534 0.002341 0.001346 -0.006039
# 3 -0.002116 -0.003534 0.010501 -0.001494 0.001784 0.002020
# 4 -0.001346 0.002341 -0.001494 0.024272 0.000541 -0.000672
# 5 -0.000372 0.001346 0.001784 0.000541 0.022786 -0.002014
# 6 0.002182 -0.006039 0.002020 -0.000672 -0.002014 0.038214
#
#
# Mechanical properties :
#
#
# Convention : Reuss Voigt Hill
#
# Bulk Modulus (GPa) = 66.09008 70.65429 68.37218
# Shear Modulus (GPa) = 36.91159 41.34575 39.12867
#
# Velocity S-wave (km/s) = 3.86175 4.08712 3.97603
# Velocity P-wave (km/s) = 6.82539 7.12872 6.97870
#
# Compressibility (1/GPa) = 0.01513086
#
# Stress axis : x y z
#
# Youngs Moduli (GPa) = 139.60662 80.17399 95.22733
#
# Poissons Ratio (x) = 0.14858 0.20151
# Poissons Ratio (y) = 0.25872 0.33651
# Poissons Ratio (z) = 0.29542 0.28332
#
# Static dielectric constant tensor:
#      x y z
#    x 1.710760 -0.197050 -0.143530 
#    y -0.197050 2.310800 -0.136570 
#    z -0.143530 -0.136570 1.889040 
# 
# From -- ./inp_files/48480.got.cif
#   From: 2010.05.17/outbox.cif.g08.bks.cpg/sg2_25_cif.got.tgz:48480.got - 2010.06.03 11:33:40.
