data_PCOD9064355
_publ_section_title
;
Structure prediction by ZEFSAII (Michael W. Deem and Ramdas Pophale) SiO2 
 PCOD9064355
Probable space group: P -1
;
_chemical_formula_sum "Si O2"
_cell_formula_units_Z 16
_cell_length_a 6.278418
_cell_length_b 17.438744
_cell_length_c 8.712592
_cell_angle_alpha 84.131864
_cell_angle_beta 106.784006
_cell_angle_gamma 135.948518
_cell_volume 627.016131
_symmetry_space_group_name_H-M "P -1"
_symmetry_group_IT_number 2
_symmetry_cell_setting 'triclinic'
loop_
_space_group_symop_operation_xyz
x,y,z
-x,-y,-z
loop_
_atom_site_type_symbol
_atom_site_label
_atom_site_fract_x
_atom_site_fract_y
_atom_site_fract_z
Si Si1 0.417687 0.159954 0.478747
Si Si2 0.105993 0.600425 0.606151
Si Si3 0.475224 0.584449 0.889519
Si Si4 0.638284 0.078486 0.755570
Si Si5 0.758715 0.240103 0.972844
Si Si6 0.693617 0.763041 0.295099
Si Si7 0.684021 0.919193 0.844765
Si Si8 0.442711 0.540263 0.234606
O O1 0.739105 0.289702 0.476434
O O2 0.500737 0.100044 0.590850
O O3 0.228033 0.168316 0.552397
O O4 0.228377 0.093189 0.299190
O O5 0.383292 0.636073 0.767186
O O6 0.000000 0.500000 0.500000
O O7 0.820993 0.549663 0.676545
O O8 0.362145 0.484583 0.779764
O O9 0.338807 0.546954 0.042118
O O10 0.859297 0.669755 0.962709
O O11 0.624227 0.127638 0.892697
O O12 0.014830 0.159580 0.777823
O O13 0.522822 0.962794 0.775950
O O14 0.621396 0.274752 0.833708
O O15 0.588629 0.200841 0.108443
O O16 0.627150 0.656891 0.327650
O O17 0.000000 0.000000 0.000000
#
# Coordination Sequence:
#
# PCOD9064355 Si02
#       8
#     2   2   2   2   2   2   2   2
#     4  11  28  47  74 109 149 195 243 297 377 436
#     4  12  27  47  71 107 151 197 245 296 360 445
#     4  11  27  41  74 109 145 196 245 306 366 422
#     4  11  25  50  75 105 149 194 238 306 374 434
#     4  11  25  46  75 110 144 188 247 306 367 435
#     4  11  24  45  74 103 152 192 240 301 367 441
#     4  12  26  50  79 111 144 190 249 312 365 432
#     4  11  25  43  72 103 147 190 245 296 363 428
#
# _framework density 25.517683999999999
#
# number of rings (size 3 to 8) (size 9 to 14) (size 15 to 20)
#    0.000    0.750    3.750    1.875   10.500    3.000 
#    2.250    0.000    0.000    0.000    0.000    0.000 
#    0.000    0.000    0.000    0.000    0.000    0.000 
#
# Total GULP energy -89628.380474 kJ/mol
# GULP energy per Si atom -5601.773780 kJ/mol
# Density = 2.545960 g / cm^3
# Si number density = 25.517684 Si / 1000 Ang^3
#
#
#
# Elastic Constant Matrix: (Units=GPa)
#
#
# Indices 1 2 3 4 5 6 
#
# 1 100.2845 23.2322 55.6819 5.4882 -15.3486 -17.2620
# 2 23.2322 98.3642 39.8425 -6.5035 1.4019 -15.4259
# 3 55.6819 39.8425 112.5104 -0.2120 -4.1736 -21.5769
# 4 5.4882 -6.5035 -0.2120 37.7999 0.4128 -13.1035
# 5 -15.3486 1.4019 -4.1736 0.4128 38.2404 5.3756
# 6 -17.2620 -15.4259 -21.5769 -13.1035 5.3756 51.4282
#
#
#
# Elastic Compliance Matrix: (Units=1/GPa)
#
#
# Indices 1 2 3 4 5 6 
#
# 1 0.014986 -0.000888 -0.006751 -0.002131 0.005215 0.000843
# 2 -0.000888 0.012495 -0.003462 0.003323 -0.001652 0.003017
# 3 -0.006751 -0.003462 0.014001 0.001563 -0.001511 0.003126
# 4 -0.002131 0.003323 0.001563 0.030474 -0.002394 0.008952
# 5 0.005215 -0.001652 -0.001511 -0.002394 0.028583 -0.002977
# 6 0.000843 0.003017 0.003126 0.008952 -0.002977 0.024536
#
#
# Mechanical properties :
#
#
# Convention : Reuss Voigt Hill
#
# Bulk Modulus (GPa) = 51.86550 60.96359 56.41454
# Shear Modulus (GPa) = 32.53019 38.32054 35.42536
#
# Velocity S-wave (km/s) = 3.57432 3.87941 3.72999
# Velocity P-wave (km/s) = 6.11586 6.63393 6.38016
#
# Compressibility (1/GPa) = 0.01928064
#
# Stress axis : x y z
#
# Youngs Moduli (GPa) = 66.73073 80.03520 71.42142
#
# Poissons Ratio (x) = 0.07107 0.48216
# Poissons Ratio (y) = 0.05925 0.24724
# Poissons Ratio (z) = 0.45049 0.27705
#
# Static dielectric constant tensor:
#      x y z
#    x 1.946480 -0.016750 0.009710 
#    y -0.016750 2.038170 0.034640 
#    z 0.009710 0.034640 2.021930 
# 
# From -- ./inp_files/139086.got.cif
#   From: 2010.05.17/outbox.cif.g08.bks.cpg/sg2_70_cif.got.tgz:139086.got - 2010.06.03 11:33:40.
