data_PCOD9064356
_publ_section_title
;
Structure prediction by ZEFSAII (Michael W. Deem and Ramdas Pophale) SiO2 
 PCOD9064356
Probable space group: P -1
;
_chemical_formula_sum "Si O2"
_cell_formula_units_Z 16
_cell_length_a 7.604581
_cell_length_b 11.411229
_cell_length_c 12.205642
_cell_angle_alpha 79.966894
_cell_angle_beta 121.745030
_cell_angle_gamma 128.199886
_cell_volume 689.496669
_symmetry_space_group_name_H-M "P -1"
_symmetry_group_IT_number 2
_symmetry_cell_setting 'triclinic'
loop_
_space_group_symop_operation_xyz
x,y,z
-x,-y,-z
loop_
_atom_site_type_symbol
_atom_site_label
_atom_site_fract_x
_atom_site_fract_y
_atom_site_fract_z
Si Si1 0.157612 0.365587 0.962397
Si Si2 0.180341 0.356986 0.539172
Si Si3 0.498576 0.309604 0.502664
Si Si4 0.413430 0.343989 0.845118
Si Si5 0.183310 0.139841 0.121238
Si Si6 0.548099 0.130856 0.377733
Si Si7 0.309119 0.024997 0.867711
Si Si8 0.406660 0.849885 0.272016
O O1 0.246932 0.370766 0.866872
O O2 0.843097 0.239433 0.876307
O O3 0.284444 0.522856 0.038874
O O4 0.273555 0.295610 0.076200
O O5 0.261732 0.305712 0.470019
O O6 0.295320 0.529336 0.518826
O O7 0.328354 0.355291 0.694367
O O8 0.864749 0.241382 0.472668
O O9 0.432050 0.175483 0.424735
O O10 0.604343 0.280159 0.650171
O O11 0.359104 0.185334 0.875540
O O12 0.440997 0.156430 0.229537
O O13 0.987065 0.100030 0.163617
O O14 0.000000 0.000000 0.000000
O O15 0.411018 0.952904 0.349787
O O16 0.349953 0.031744 0.748628
O O17 0.500000 0.000000 0.000000
#
# Coordination Sequence:
#
# PCOD9064356 Si02
#       8
#     2   2   2   2   2   2   2   2
#     4  11  24  45  74 104 143 190 241 297 376 423
#     4  11  26  51  72 109 145 193 247 295 362 429
#     4  11  26  49  74 106 148 191 247 297 357 436
#     4  11  24  46  74 103 146 189 241 302 356 441
#     4  12  23  46  69 106 147 186 238 298 363 433
#     4  12  26  45  79 104 148 193 238 303 363 434
#     4  12  24  45  70 105 152 184 239 299 360 437
#     4  12  25  46  70 109 145 189 241 301 363 430
#
# _framework density 23.205333
#
# number of rings (size 3 to 8) (size 9 to 14) (size 15 to 20)
#    0.000    0.500    5.000    2.250    1.750    4.000 
#    0.000    0.000    0.000    0.000    0.000    0.000 
#    0.000    0.000    0.000    0.000    0.000    0.000 
#
# Total GULP energy -89385.212913 kJ/mol
# GULP energy per Si atom -5586.575807 kJ/mol
# Density = 2.315252 g / cm^3
# Si number density = 23.205333 Si / 1000 Ang^3
#
#
#
# Elastic Constant Matrix: (Units=GPa)
#
#
# Indices 1 2 3 4 5 6 
#
# 1 74.8569 10.8809 34.3970 6.8663 -3.8981 5.3157
# 2 10.8809 82.0892 47.6368 -29.7241 -3.6184 -6.6821
# 3 34.3970 47.6368 100.4509 -3.6210 4.5930 -3.2027
# 4 6.8663 -29.7241 -3.6210 40.3613 -7.7605 1.6358
# 5 -3.8981 -3.6184 4.5930 -7.7605 31.9053 -5.5758
# 6 5.3157 -6.6821 -3.2027 1.6358 -5.5758 34.0682
#
#
#
# Elastic Compliance Matrix: (Units=1/GPa)
#
#
# Indices 1 2 3 4 5 6 
#
# 1 0.016657 0.000117 -0.006029 -0.002841 0.001750 -0.002720
# 2 0.000117 0.028690 -0.013212 0.021906 0.011404 0.005181
# 3 -0.006029 -0.013212 0.018282 -0.008388 -0.007026 -0.000679
# 4 -0.002841 0.021906 -0.008388 0.043277 0.014617 0.004266
# 5 0.001750 0.011404 -0.007026 0.014617 0.038627 0.006923
# 6 -0.002720 0.005181 -0.000679 0.004266 0.006923 0.031658
#
#
# Mechanical properties :
#
#
# Convention : Reuss Voigt Hill
#
# Bulk Modulus (GPa) = 39.39785 49.24738 44.32261
# Shear Modulus (GPa) = 22.33148 32.23245 27.28197
#
# Velocity S-wave (km/s) = 3.10553 3.73099 3.43253
# Velocity P-wave (km/s) = 5.46570 6.31101 5.90350
#
# Compressibility (1/GPa) = 0.02538210
#
# Stress axis : x y z
#
# Youngs Moduli (GPa) = 60.03568 34.85520 54.69735
#
# Poissons Ratio (x) = -0.00409 0.32975
# Poissons Ratio (y) = -0.00705 0.72269
# Poissons Ratio (z) = 0.36193 0.46052
#
# Static dielectric constant tensor:
#      x y z
#    x 1.924580 0.009750 -0.056620 
#    y 0.009750 1.913210 -0.004640 
#    z -0.056620 -0.004640 1.954820 
# 
# From -- ./inp_files/392520.got.cif
#   From: 2010.05.17/outbox.cif.g08.bks.cpg/sg2_197_cif.got.tgz:392520.got - 2010.06.03 11:33:40.
