data_PCOD9064132
_publ_section_title
;
Structure prediction by ZEFSAII (Michael W. Deem and Ramdas Pophale) SiO2 
 PCOD9064132
Probable space group: P -1
;
_chemical_formula_sum "Si O2"
_cell_formula_units_Z 16
_cell_length_a 19.806912
_cell_length_b 12.326243
_cell_length_c 17.684884
_cell_angle_alpha 21.919610
_cell_angle_beta 29.887980
_cell_angle_gamma 42.664074
_cell_volume 745.903633
_symmetry_space_group_name_H-M "P -1"
_symmetry_group_IT_number 2
_symmetry_cell_setting 'triclinic'
loop_
_space_group_symop_operation_xyz
x,y,z
-x,-y,-z
loop_
_atom_site_type_symbol
_atom_site_label
_atom_site_fract_x
_atom_site_fract_y
_atom_site_fract_z
Si Si1 0.152689 0.137725 0.220924
Si Si2 0.667586 0.194191 0.138909
Si Si3 0.233662 0.124382 0.860576
Si Si4 0.533963 0.867247 0.247988
Si Si5 0.645073 0.215296 0.761763
Si Si6 0.302683 0.137739 0.358955
Si Si7 0.661920 0.192361 0.318855
Si Si8 0.026563 0.188175 0.151444
O O1 0.119372 0.140961 0.162174
O O2 0.230807 0.899180 0.313639
O O3 0.256680 0.473934 0.935104
O O4 0.000000 0.000000 0.500000
O O5 0.713165 0.201966 0.176750
O O6 0.795675 0.162836 0.982936
O O7 0.512566 0.910762 0.456169
O O8 0.628991 0.496374 0.961304
O O9 0.353553 0.075741 0.830222
O O10 0.304658 0.429554 0.541969
O O11 0.113164 0.176157 0.998323
O O12 0.500000 0.500000 0.500000
O O13 0.391221 0.941845 0.360629
O O14 0.610991 0.108376 0.950447
O O15 0.500000 0.000000 0.000000
O O16 0.304398 0.051325 0.501310
O O17 0.139136 0.047171 0.545499
O O18 0.000000 0.500000 0.000000
#
# Coordination Sequence:
#
# PCOD9064132 Si02
#       8
#     2   2   2   2   2   2   2   2
#     4  12  25  45  73 111 146 185 240 298 377 437
#     4  11  27  45  72 105 143 197 251 288 347 430
#     4  12  26  46  67 106 148 187 241 301 350 437
#     4  12  24  43  71 108 143 180 247 308 363 420
#     4  12  26  39  70 106 140 189 234 303 370 415
#     4  12  26  45  78 104 142 198 237 296 367 429
#     4  11  24  45  71 104 145 187 241 299 344 431
#     4  12  25  47  74 107 149 186 231 304 378 432
#
# _framework density 21.450492000000001
#
# number of rings (size 3 to 8) (size 9 to 14) (size 15 to 20)
#    0.000    0.250    5.000    4.125    7.000    0.500 
#    0.000    0.625    0.000    0.000    0.000    0.000 
#    0.000    0.000    0.000    0.000    0.000    0.000 
#
# Total GULP energy -89381.901237 kJ/mol
# GULP energy per Si atom -5586.368827 kJ/mol
# Density = 2.140167 g / cm^3
# Si number density = 21.450492 Si / 1000 Ang^3
#
#
#
# Elastic Constant Matrix: (Units=GPa)
#
#
# Indices 1 2 3 4 5 6 
#
# 1 113.2118 45.8786 37.1042 8.4933 3.1921 8.9235
# 2 45.8786 161.4241 45.7726 2.6716 8.1748 5.2619
# 3 37.1042 45.7726 90.9152 2.4666 5.9998 5.1795
# 4 8.4933 2.6716 2.4666 -2.4448 13.4372 2.1586
# 5 3.1921 8.1748 5.9998 13.4372 29.4373 11.4168
# 6 8.9235 5.2619 5.1795 2.1586 11.4168 34.2483
#
#
#
# Elastic Compliance Matrix: (Units=1/GPa)
#
#
# Indices 1 2 3 4 5 6 
#
# 1 0.010151 -0.001931 -0.003109 0.009109 -0.003604 -0.001251
# 2 -0.001931 0.007638 -0.002979 -0.002433 -0.000194 -0.000002
# 3 -0.003109 -0.002979 0.013888 -0.002421 -0.000342 -0.000566
# 4 0.009109 -0.002433 -0.002421 -0.104233 0.052653 -0.012616
# 5 -0.003604 -0.000194 -0.000342 0.052653 0.013026 -0.006640
# 6 -0.001251 -0.000002 -0.000566 -0.012616 -0.006640 0.032619
#
#
# Mechanical properties :
#
#
# Convention : Reuss Voigt Hill
#
# Bulk Modulus (GPa) = 63.93515 69.22908 66.58212
# Shear Modulus (GPa) = -883.40960 28.03455 -427.68752
#
# Velocity S-wave (km/s) = -20.31577 3.61909 -14.13564
# Velocity P-wave (km/s) = 22.81308 7.05746 15.33997
#
# Compressibility (1/GPa) = 0.01564085
#
# Stress axis : x y z
#
# Youngs Moduli (GPa) = 98.50964 130.91660 72.00389
#
# Poissons Ratio (x) = 0.25281 0.22384
# Poissons Ratio (y) = 0.19023 0.21448
# Poissons Ratio (z) = 0.30624 0.38996
#
# Static dielectric constant tensor:
#      x y z
#    x 1.850530 0.074710 0.004790 
#    y 0.074710 1.852220 0.027750 
#    z 0.004790 0.027750 1.788930 
# 
# From -- ./inp_files/577880.got.cif
#   From: 2010.05.17/outbox.cif.g08.bks.cpg/sg2_289_cif.got.tgz:577880.got - 2010.06.03 11:33:40.
