data_PCOD9064830
_publ_section_title
;
Structure prediction by ZEFSAII (Michael W. Deem and Ramdas Pophale) SiO2 
 PCOD9064830
Probable space group: P -1
;
_chemical_formula_sum "Si O2"
_cell_formula_units_Z 14
_cell_length_a 8.496658
_cell_length_b 12.240094
_cell_length_c 17.156452
_cell_angle_alpha 32.487697
_cell_angle_beta 43.930160
_cell_angle_gamma 54.704560
_cell_volume 662.781134
_symmetry_space_group_name_H-M "P -1"
_symmetry_group_IT_number 2
_symmetry_cell_setting 'triclinic'
loop_
_space_group_symop_operation_xyz
x,y,z
-x,-y,-z
loop_
_atom_site_type_symbol
_atom_site_label
_atom_site_fract_x
_atom_site_fract_y
_atom_site_fract_z
Si Si1 0.414263 0.914715 0.456391
Si Si2 0.504358 0.711970 0.917055
Si Si3 0.121990 0.554824 0.504888
Si Si4 0.863029 0.942652 0.384131
Si Si5 0.003412 0.761791 0.126711
Si Si6 0.175797 0.329303 0.025730
Si Si7 0.631171 0.547651 0.277602
O O1 0.446393 0.095881 0.273537
O O2 0.236303 0.974579 0.549725
O O3 0.650878 0.893930 0.431045
O O4 0.345018 0.694625 0.576164
O O5 0.690840 0.710051 0.919347
O O6 0.500000 0.500000 0.000000
O O7 0.258523 0.721400 0.037500
O O8 0.078643 0.365307 0.691766
O O9 0.389782 0.598171 0.367853
O O10 0.000000 0.500000 0.500000
O O11 0.002817 0.747501 0.465017
O O12 0.029158 0.122162 0.180117
O O13 0.833243 0.679317 0.169068
O O14 0.000000 0.000000 0.000000
O O15 0.347022 0.404255 0.850956
O O16 0.000000 0.500000 0.000000
#
# Coordination Sequence:
#
# PCOD9064830 Si02
#       7
#     2   2   2   2   2   2   2
#     4  11  24  46  74 105 138 190 234 298 352 420
#     4  12  27  46  74 105 144 186 241 293 357 420
#     4  12  26  46  71 105 140 191 238 290 356 424
#     4  11  25  43  75 101 146 181 242 290 356 419
#     4  12  29  49  70 104 149 188 236 295 358 427
#     4  12  26  47  73 108 140 186 238 297 356 422
#     4  12  26  47  74 100 146 186 242 289 359 425
#
# _framework density 21.123114000000001
#
# number of rings (size 3 to 8) (size 9 to 14) (size 15 to 20)
#    0.000    0.286    2.857    5.571    8.000    1.143 
#    0.000    0.000    0.000    0.000    0.000    0.000 
#    0.000    0.000    0.000    0.000    0.000    0.000 
#
# Total GULP energy -78462.460402 kJ/mol
# GULP energy per Si atom -5604.461457 kJ/mol
# Density = 2.107504 g / cm^3
# Si number density = 21.123114 Si / 1000 Ang^3
#
#
#
# Elastic Constant Matrix: (Units=GPa)
#
#
# Indices 1 2 3 4 5 6 
#
# 1 95.8075 44.5111 35.6962 -1.4000 0.4031 -7.5554
# 2 44.5111 131.8983 41.6417 -3.7050 -14.5015 -23.8761
# 3 35.6962 41.6417 132.8140 1.3866 6.0486 -9.8661
# 4 -1.4000 -3.7050 1.3866 44.9114 11.7507 -8.4652
# 5 0.4031 -14.5015 6.0486 11.7507 41.1842 1.6635
# 6 -7.5554 -23.8761 -9.8661 -8.4652 1.6635 32.3380
#
#
#
# Elastic Compliance Matrix: (Units=1/GPa)
#
#
# Indices 1 2 3 4 5 6 
#
# 1 0.013072 -0.003882 -0.002267 0.000428 -0.001271 -0.000327
# 2 -0.003882 0.011257 -0.002156 0.001202 0.003698 0.006870
# 3 -0.002267 -0.002156 0.008967 0.000179 -0.002136 0.000771
# 4 0.000428 0.001202 0.000179 0.025826 -0.007306 0.008178
# 5 -0.001271 0.003698 -0.002136 -0.007306 0.028058 -0.001574
# 6 -0.000327 0.006870 0.000771 0.008178 -0.001574 0.038377
#
#
# Mechanical properties :
#
#
# Convention : Reuss Voigt Hill
#
# Bulk Modulus (GPa) = 59.93656 67.13530 63.53593
# Shear Modulus (GPa) = 33.84571 39.59810 36.72191
#
# Velocity S-wave (km/s) = 4.00723 4.33440 4.17402
# Velocity P-wave (km/s) = 7.06024 7.54329 7.30576
#
# Compressibility (1/GPa) = 0.01668431
#
# Stress axis : x y z
#
# Youngs Moduli (GPa) = 76.50072 88.83685 111.51524
#
# Poissons Ratio (x) = 0.34490 0.25279
# Poissons Ratio (y) = 0.29701 0.24048
# Poissons Ratio (z) = 0.17342 0.19157
#
# Static dielectric constant tensor:
#      x y z
#    x 1.751730 0.020470 -0.009310 
#    y 0.020470 1.733510 0.001760 
#    z -0.009310 0.001760 1.735480 
# 
# From -- ./inp_files/157856.got.cif
#   From: 2010.05.17/outbox.cif.g08.bks.cpg/sg2_79_cif.got.tgz:157856.got - 2010.06.03 11:33:40.
