data_PCOD9064586
_publ_section_title
;
Structure prediction by ZEFSAII (Michael W. Deem and Ramdas Pophale) SiO2 
 PCOD9064586
Probable space group: P -1
;
_chemical_formula_sum "Si O2"
_cell_formula_units_Z 16
_cell_length_a 22.740504
_cell_length_b 8.555096
_cell_length_c 6.834373
_cell_angle_alpha 91.761571
_cell_angle_beta 127.898228
_cell_angle_gamma 54.368156
_cell_volume 733.512841
_symmetry_space_group_name_H-M "P -1"
_symmetry_group_IT_number 2
_symmetry_cell_setting 'triclinic'
loop_
_space_group_symop_operation_xyz
x,y,z
-x,-y,-z
loop_
_atom_site_type_symbol
_atom_site_label
_atom_site_fract_x
_atom_site_fract_y
_atom_site_fract_z
Si Si1 0.578485 0.003774 0.054614
Si Si2 0.037618 0.771184 0.502643
Si Si3 0.518629 0.540051 0.250872
Si Si4 0.707849 0.632891 0.968615
Si Si5 0.334395 0.665212 0.134555
Si Si6 0.854441 0.826555 0.270195
Si Si7 0.916112 0.506983 0.736491
Si Si8 0.258601 0.205681 0.300848
O O1 0.656361 0.800781 0.052411
O O2 0.651027 0.981043 0.367011
O O3 0.500000 0.000000 0.000000
O O4 0.510376 0.233973 0.809163
O O5 0.163646 0.570238 0.785206
O O6 0.029035 0.727523 0.257021
O O7 0.967727 0.741727 0.465475
O O8 0.000000 0.000000 0.500000
O O9 0.430917 0.586989 0.204456
O O10 0.633916 0.345128 0.576550
O O11 0.500000 0.500000 0.000000
O O12 0.670268 0.512423 0.899573
O O13 0.682411 0.762658 0.722455
O O14 0.228735 0.908905 0.854759
O O15 0.863178 0.690232 0.459760
O O16 0.804818 0.816102 0.975724
O O17 0.831748 0.587806 0.733311
O O18 0.000000 0.500000 0.000000
#
# Coordination Sequence:
#
# PCOD9064586 Si02
#       8
#     2   2   2   2   2   2   2   2
#     4  12  26  45  73 106 142 188 239 300 359 434
#     4  12  24  47  70 105 150 184 234 303 361 426
#     4  11  24  46  69  99 138 180 239 293 356 425
#     4  12  25  45  69 105 145 182 239 294 365 426
#     4  11  25  43  69 101 138 184 231 296 358 425
#     4  12  24  44  74 101 143 189 241 292 364 432
#     4  12  24  45  74 107 139 191 246 293 355 440
#     4  12  23  42  73 101 140 186 241 293 354 431
#
# _framework density 21.812843000000001
#
# number of rings (size 3 to 8) (size 9 to 14) (size 15 to 20)
#    0.000    0.250    5.000    4.875    0.000    4.000 
#    0.000    5.000    0.000    0.000    0.000    0.000 
#    0.000    0.000    0.000    0.000    0.000    0.000 
#
# Total GULP energy -89402.399559 kJ/mol
# GULP energy per Si atom -5587.649972 kJ/mol
# Density = 2.176320 g / cm^3
# Si number density = 21.812843 Si / 1000 Ang^3
#
#
#
# Elastic Constant Matrix: (Units=GPa)
#
#
# Indices 1 2 3 4 5 6 
#
# 1 144.3420 39.1535 26.4454 -0.2750 -10.6382 7.8151
# 2 39.1535 120.8707 44.6389 9.3460 -14.8245 7.8208
# 3 26.4454 44.6389 113.4654 4.2645 -4.2696 -4.7204
# 4 -0.2750 9.3460 4.2645 32.8411 -6.6090 3.6146
# 5 -10.6382 -14.8245 -4.2696 -6.6090 26.7471 2.4544
# 6 7.8151 7.8208 -4.7204 3.6146 2.4544 35.5404
#
#
#
# Elastic Compliance Matrix: (Units=1/GPa)
#
#
# Indices 1 2 3 4 5 6 
#
# 1 0.007920 -0.001826 -0.001164 0.001434 0.002472 -0.001811
# 2 -0.001826 0.011155 -0.003845 -0.001434 0.004740 -0.002745
# 3 -0.001164 -0.003845 0.010692 -0.000873 -0.001351 0.002704
# 4 0.001434 -0.001434 -0.000873 0.033074 0.008179 -0.004044
# 5 0.002472 0.004740 -0.001351 0.008179 0.043316 -0.005589
# 6 -0.001811 -0.002745 0.002704 -0.004044 -0.005589 0.030296
#
#
# Mechanical properties :
#
#
# Convention : Reuss Voigt Hill
#
# Bulk Modulus (GPa) = 62.12400 66.57262 64.34831
# Shear Modulus (GPa) = 32.15720 36.92174 34.53947
#
# Velocity S-wave (km/s) = 3.84374 4.11866 3.98357
# Velocity P-wave (km/s) = 6.94560 7.29411 7.12199
#
# Compressibility (1/GPa) = 0.01609684
#
# Stress axis : x y z
#
# Youngs Moduli (GPa) = 126.27049 89.64918 93.53223
#
# Poissons Ratio (x) = 0.16371 0.10883
# Poissons Ratio (y) = 0.23058 0.35960
# Poissons Ratio (z) = 0.14692 0.34467
#
# Static dielectric constant tensor:
#      x y z
#    x 1.759820 -0.005160 0.021040 
#    y -0.005160 1.804060 0.019220 
#    z 0.021040 0.019220 1.841100 
# 
# From -- ./inp_files/122917.got.cif
#   From: 2010.05.17/outbox.cif.g08.bks.cpg/sg2_62_cif.got.tgz:122917.got - 2010.06.03 11:33:40.
