data_PCOD9064078
_publ_section_title
;
Structure prediction by ZEFSAII (Michael W. Deem and Ramdas Pophale) SiO2 
 PCOD9064078
Probable space group: P -1
;
_chemical_formula_sum "Si O2"
_cell_formula_units_Z 16
_cell_length_a 16.907795
_cell_length_b 10.998312
_cell_length_c 8.411840
_cell_angle_alpha 124.510951
_cell_angle_beta 84.574713
_cell_angle_gamma 137.350138
_cell_volume 713.220576
_symmetry_space_group_name_H-M "P -1"
_symmetry_group_IT_number 2
_symmetry_cell_setting 'triclinic'
loop_
_space_group_symop_operation_xyz
x,y,z
-x,-y,-z
loop_
_atom_site_type_symbol
_atom_site_label
_atom_site_fract_x
_atom_site_fract_y
_atom_site_fract_z
Si Si1 0.611046 0.885665 0.333295
Si Si2 0.683847 0.285388 0.428146
Si Si3 0.659476 0.796286 0.737289
Si Si4 0.899472 0.016668 0.647408
Si Si5 0.888829 0.769601 0.979412
Si Si6 0.379671 0.958563 0.206770
Si Si7 0.845888 0.588019 0.305628
Si Si8 0.300482 0.260169 0.954342
O O1 0.449650 0.575550 0.131980
O O2 0.635142 0.050868 0.323079
O O3 0.638803 0.998308 0.583939
O O4 0.704137 0.887764 0.268823
O O5 0.760663 0.486646 0.708307
O O6 0.796515 0.459934 0.393378
O O7 0.543102 0.158245 0.308920
O O8 0.500000 0.500000 0.500000
O O9 0.698218 0.792264 0.900460
O O10 0.769676 0.906461 0.665442
O O11 0.656899 0.969137 0.857742
O O12 0.997997 0.226033 0.640307
O O13 0.849034 0.771001 0.441197
O O14 0.019472 0.186729 0.887844
O O15 0.822278 0.811177 0.102723
O O16 0.000000 0.000000 0.000000
O O17 0.274160 0.660624 0.974113
#
# Coordination Sequence:
#
# PCOD9064078 Si02
#       8
#     2   2   2   2   2   2   2   2
#     4  11  25  43  70 106 140 178 238 288 348 406
#     4  12  24  47  71 109 137 186 238 290 350 413
#     4  12  23  46  72 101 145 178 233 289 355 420
#     4  11  26  45  71 104 139 190 229 287 352 425
#     4  12  22  46  75  98 142 182 237 286 347 424
#     4  12  25  45  71 105 144 185 230 299 347 413
#     4  11  25  44  67 103 141 183 233 281 354 416
#     4  11  24  45  70 108 136 184 230 290 353 411
#
# _framework density 22.433451000000002
#
# number of rings (size 3 to 8) (size 9 to 14) (size 15 to 20)
#    0.000    0.500    5.000    3.000    1.750    3.500 
#    2.250    1.875    0.000    0.000    0.000    0.000 
#    0.000    0.000    0.000    0.000    0.000    0.000 
#
# Total GULP energy -89614.033338 kJ/mol
# GULP energy per Si atom -5600.877084 kJ/mol
# Density = 2.238239 g / cm^3
# Si number density = 22.433451 Si / 1000 Ang^3
#
#
#
# Elastic Constant Matrix: (Units=GPa)
#
#
# Indices 1 2 3 4 5 6 
#
# 1 98.6875 55.7119 15.2700 17.6157 8.4044 19.6757
# 2 55.7119 162.6558 27.4182 2.3192 -3.8457 7.3563
# 3 15.2700 27.4182 94.7530 10.3952 2.7802 5.7422
# 4 17.6157 2.3192 10.3952 32.2732 -3.9611 1.5395
# 5 8.4044 -3.8457 2.7802 -3.9611 30.4957 3.8965
# 6 19.6757 7.3563 5.7422 1.5395 3.8965 41.7843
#
#
#
# Elastic Compliance Matrix: (Units=1/GPa)
#
#
# Indices 1 2 3 4 5 6 
#
# 1 0.016443 -0.005443 0.000457 -0.009144 -0.005683 -0.005981
# 2 -0.005443 0.008339 -0.002053 0.003361 0.003051 0.000969
# 3 0.000457 -0.002053 0.011637 -0.004020 -0.001823 -0.001135
# 4 -0.009144 0.003361 -0.004020 0.037905 0.007962 0.002127
# 5 -0.005683 0.003051 -0.001823 0.007962 0.036105 -0.001271
# 6 -0.005981 0.000969 -0.001135 0.002127 -0.001271 0.026774
#
#
# Mechanical properties :
#
#
# Convention : Reuss Voigt Hill
#
# Bulk Modulus (GPa) = 44.75661 61.43294 53.09477
# Shear Modulus (GPa) = 31.50040 38.09039 34.79539
#
# Velocity S-wave (km/s) = 3.75129 4.12506 3.94261
# Velocity P-wave (km/s) = 6.22552 7.08041 6.66668
#
# Compressibility (1/GPa) = 0.02234307
#
# Stress axis : x y z
#
# Youngs Moduli (GPa) = 60.81501 119.92439 85.93007
#
# Poissons Ratio (x) = 0.65271 -0.03930
# Poissons Ratio (y) = 0.33100 0.17639
# Poissons Ratio (z) = -0.02781 0.24617
#
# Static dielectric constant tensor:
#      x y z
#    x 1.806460 -0.016050 0.005130 
#    y -0.016050 1.858750 -0.055620 
#    z 0.005130 -0.055620 1.840080 
# 
# From -- ./inp_files/333768.got.cif
#   From: 2010.05.17/outbox.cif.g08.bks.cpg/sg2_167_cif.got.tgz:333768.got - 2010.06.03 11:33:40.
