data_PCOD9064568
_publ_section_title
;
Structure prediction by ZEFSAII (Michael W. Deem and Ramdas Pophale) SiO2 
 PCOD9064568
Probable space group: P -1
;
_chemical_formula_sum "Si O2"
_cell_formula_units_Z 16
_cell_length_a 15.737146
_cell_length_b 8.909858
_cell_length_c 10.614677
_cell_angle_alpha 70.723762
_cell_angle_beta 118.169581
_cell_angle_gamma 55.528852
_cell_volume 616.175563
_symmetry_space_group_name_H-M "P -1"
_symmetry_group_IT_number 2
_symmetry_cell_setting 'triclinic'
loop_
_space_group_symop_operation_xyz
x,y,z
-x,-y,-z
loop_
_atom_site_type_symbol
_atom_site_label
_atom_site_fract_x
_atom_site_fract_y
_atom_site_fract_z
Si Si1 0.564227 0.570066 0.842998
Si Si2 0.226224 0.847836 0.639120
Si Si3 0.887972 0.559991 0.300656
Si Si4 0.040048 0.663901 0.994833
Si Si5 0.233340 0.136675 0.119260
Si Si6 0.241841 0.495162 0.599423
Si Si7 0.096340 0.918173 0.953633
Si Si8 0.572053 0.872290 0.416200
O O1 0.360589 0.773842 0.670141
O O2 0.525214 0.815872 0.752728
O O3 0.688029 0.325590 0.115507
O O4 0.682354 0.363025 0.853611
O O5 0.233554 0.671919 0.617823
O O6 0.032075 0.222766 0.433522
O O7 0.000000 0.500000 0.500000
O O8 0.792650 0.809578 0.061587
O O9 0.733026 0.680337 0.235437
O O10 0.226586 0.395173 0.293365
O O11 0.839059 0.927198 0.858152
O O12 0.065695 0.490713 0.958746
O O13 0.060083 0.798063 0.897296
O O14 0.426867 0.948604 0.352763
O O15 0.387399 0.264959 0.651295
O O16 0.039300 0.768843 0.304192
O O17 0.000000 0.000000 0.000000
#
# Coordination Sequence:
#
# PCOD9064568 Si02
#       8
#     2   2   2   2   2   2   2   2
#     4  11  25  45  73 103 145 190 248 297 373 432
#     4  11  25  45  73 106 145 189 240 311 363 435
#     4  12  25  46  76 106 147 191 242 308 373 439
#     4  11  24  46  69 105 147 188 242 299 363 433
#     4  11  25  42  74 105 139 189 246 296 363 437
#     4  12  26  45  71 108 147 184 246 298 373 431
#     4  12  25  45  71  98 144 196 234 296 366 441
#     4  12  25  47  72 110 144 196 244 306 359 441
#
# _framework density 25.966625000000001
#
# number of rings (size 3 to 8) (size 9 to 14) (size 15 to 20)
#    0.000    0.500    3.750    4.500    0.000    6.000 
#    0.000    1.250    0.000    0.000    0.000    0.000 
#    0.000    0.000    0.000    0.000    0.000    0.000 
#
# Total GULP energy -89403.826612 kJ/mol
# GULP energy per Si atom -5587.739163 kJ/mol
# Density = 2.590752 g / cm^3
# Si number density = 25.966625 Si / 1000 Ang^3
#
#
#
# Elastic Constant Matrix: (Units=GPa)
#
#
# Indices 1 2 3 4 5 6 
#
# 1 154.5329 15.6848 40.5294 1.0278 21.8898 -12.1753
# 2 15.6848 116.8079 3.2928 6.2378 6.7514 -25.6342
# 3 40.5294 3.2928 66.6300 6.6846 -5.6319 -3.6911
# 4 1.0278 6.2378 6.6846 34.1617 -2.7098 3.3577
# 5 21.8898 6.7514 -5.6319 -2.7098 42.4819 -3.5800
# 6 -12.1753 -25.6342 -3.6911 3.3577 -3.5800 48.0911
#
#
#
# Elastic Compliance Matrix: (Units=1/GPa)
#
#
# Indices 1 2 3 4 5 6 
#
# 1 0.008847 -0.000508 -0.005771 0.000440 -0.005121 0.001114
# 2 -0.000508 0.009975 0.000273 -0.002460 -0.000997 0.005307
# 3 -0.005771 0.000273 0.019334 -0.003313 0.005349 0.000798
# 4 0.000440 -0.002460 -0.003313 0.030812 0.001395 -0.003502
# 5 -0.005121 -0.000997 0.005349 0.001395 0.027178 0.000508
# 6 0.001114 0.005307 0.000798 -0.003502 0.000508 0.024248
#
#
# Mechanical properties :
#
#
# Convention : Reuss Voigt Hill
#
# Bulk Modulus (GPa) = 38.25230 50.77609 44.51419
# Shear Modulus (GPa) = 35.43052 43.51119 39.47085
#
# Velocity S-wave (km/s) = 3.69787 4.09792 3.90303
# Velocity P-wave (km/s) = 5.74418 6.47977 6.12303
#
# Compressibility (1/GPa) = 0.02614222
#
# Stress axis : x y z
#
# Youngs Moduli (GPa) = 113.03835 100.24780 51.72201
#
# Poissons Ratio (x) = 0.05096 0.29850
# Poissons Ratio (y) = 0.05746 -0.01411
# Poissons Ratio (z) = 0.65238 -0.02734
#
# Static dielectric constant tensor:
#      x y z
#    x 2.076830 0.009670 0.013810 
#    y 0.009670 2.129460 0.005850 
#    z 0.013810 0.005850 2.084840 
# 
# From -- ./inp_files/447190.got.cif
#   From: 2010.05.17/outbox.cif.g08.bks.cpg/sg2_224_cif.got.tgz:447190.got - 2010.06.03 11:33:40.
