data_PCOD9064418
_publ_section_title
;
Structure prediction by ZEFSAII (Michael W. Deem and Ramdas Pophale) SiO2 
 PCOD9064418
Probable space group: P -1
;
_chemical_formula_sum "Si O2"
_cell_formula_units_Z 12
_cell_length_a 5.273568
_cell_length_b 16.943682
_cell_length_c 8.593082
_cell_angle_alpha 60.265128
_cell_angle_beta 94.845578
_cell_angle_gamma 131.751341
_cell_volume 460.205619
_symmetry_space_group_name_H-M "P -1"
_symmetry_group_IT_number 2
_symmetry_cell_setting 'triclinic'
loop_
_space_group_symop_operation_xyz
x,y,z
-x,-y,-z
loop_
_atom_site_type_symbol
_atom_site_label
_atom_site_fract_x
_atom_site_fract_y
_atom_site_fract_z
Si Si1 0.346891 0.660088 0.674347
Si Si2 0.449211 0.597178 0.044843
Si Si3 0.639553 0.811702 0.072986
Si Si4 0.190194 0.823183 0.279036
Si Si5 0.494426 0.546297 0.617226
Si Si6 0.163494 0.039939 0.641668
O O1 0.271105 0.580347 0.595715
O O2 0.609067 0.808013 0.495052
O O3 0.947451 0.555585 0.834702
O O4 0.565224 0.659692 0.819980
O O5 0.470289 0.688656 0.073397
O O6 0.664990 0.569237 0.159689
O O7 0.378366 0.804314 0.179218
O O8 0.948392 0.836996 0.165671
O O9 0.840812 0.933863 0.848065
O O10 0.508987 0.941855 0.295187
O O11 0.910088 0.692699 0.498673
O O12 0.500000 0.500000 0.500000
O O13 0.000000 0.000000 0.500000
#
# Coordination Sequence:
#
# PCOD9064418 Si02
#       6
#     2   2   2   2   2   2
#     4  11  25  47  72 108 153 196 254 317 379 447
#     4  11  24  45  75 106 151 194 254 312 387 442
#     4  12  27  51  78 115 152 205 249 320 381 461
#     4  12  27  49  78 111 156 199 256 310 384 451
#     4  12  24  43  76 110 145 197 251 314 378 453
#     4  12  26  51  75 113 151 205 256 312 380 456
#
# _framework density 26.075298
#
# number of rings (size 3 to 8) (size 9 to 14) (size 15 to 20)
#    0.000    0.333    5.000    3.500    0.000    2.667 
#    3.000    4.167    0.000    0.000    0.000    0.000 
#    0.000    0.000    0.000    0.000    0.000    0.000 
#
# Total GULP energy -67005.534458 kJ/mol
# GULP energy per Si atom -5583.794538 kJ/mol
# Density = 2.601595 g / cm^3
# Si number density = 26.075298 Si / 1000 Ang^3
#
#
#
# Elastic Constant Matrix: (Units=GPa)
#
#
# Indices 1 2 3 4 5 6 
#
# 1 116.6932 34.8525 57.2290 5.1347 4.0183 -8.8477
# 2 34.8525 125.0707 44.5367 6.5691 2.0673 -5.5917
# 3 57.2290 44.5367 214.4007 -14.1196 19.7363 2.1173
# 4 5.1347 6.5691 -14.1196 52.0837 -5.4092 6.6767
# 5 4.0183 2.0673 19.7363 -5.4092 38.6704 -6.2286
# 6 -8.8477 -5.5917 2.1173 6.6767 -6.2286 31.7538
#
#
#
# Elastic Compliance Matrix: (Units=1/GPa)
#
#
# Indices 1 2 3 4 5 6 
#
# 1 0.010758 -0.001786 -0.002721 -0.001942 0.000642 0.003399
# 2 -0.001786 0.009215 -0.001610 -0.001579 0.000564 0.001675
# 3 -0.002721 -0.001610 0.006156 0.002159 -0.002868 -0.002469
# 4 -0.001942 -0.001579 0.002159 0.020966 0.001293 -0.005118
# 5 0.000642 0.000564 -0.002868 0.001293 0.028335 0.005756
# 6 0.003399 0.001675 -0.002469 -0.005118 0.005756 0.035104
#
#
# Mechanical properties :
#
#
# Convention : Reuss Voigt Hill
#
# Bulk Modulus (GPa) = 71.96781 81.04456 76.50618
# Shear Modulus (GPa) = 39.24676 45.80468 42.52572
#
# Velocity S-wave (km/s) = 3.88381 4.19577 4.04280
# Velocity P-wave (km/s) = 6.91172 7.39060 7.15517
#
# Compressibility (1/GPa) = 0.01389510
#
# Stress axis : x y z
#
# Youngs Moduli (GPa) = 92.95008 108.52067 162.45373
#
# Poissons Ratio (x) = 0.19377 0.44210
# Poissons Ratio (y) = 0.16597 0.26154
# Poissons Ratio (z) = 0.25295 0.17471
#
# Static dielectric constant tensor:
#      x y z
#    x 2.438540 0.119330 0.099490 
#    y 0.119330 2.185170 0.109830 
#    z 0.099490 0.109830 2.092310 
# 
# From -- ./inp_files/100850.got.cif
#   From: 2010.05.17/outbox.cif.g08.bks.cpg/sg2_51_cif.got.tgz:100850.got - 2010.06.03 11:33:40.
