data_PCOD9064210
_publ_section_title
;
Structure prediction by ZEFSAII (Michael W. Deem and Ramdas Pophale) SiO2 
 PCOD9064210
Probable space group: P -1
;
_chemical_formula_sum "Si O2"
_cell_formula_units_Z 15
_cell_length_a 12.546582
_cell_length_b 12.672749
_cell_length_c 12.944540
_cell_angle_alpha 57.482486
_cell_angle_beta 34.983953
_cell_angle_gamma 34.298127
_cell_volume 599.983203
_symmetry_space_group_name_H-M "P -1"
_symmetry_group_IT_number 2
_symmetry_cell_setting 'triclinic'
loop_
_space_group_symop_operation_xyz
x,y,z
-x,-y,-z
loop_
_atom_site_type_symbol
_atom_site_label
_atom_site_fract_x
_atom_site_fract_y
_atom_site_fract_z
Si Si1 0.284410 0.799783 0.448168
Si Si2 0.671715 0.813583 0.881821
Si Si3 0.440779 0.539896 0.146217
Si Si4 0.500000 0.000000 0.500000
Si Si5 0.762620 0.924547 0.551007
Si Si6 0.964474 0.853003 0.850882
Si Si7 0.162177 0.523224 0.980748
Si Si8 0.286344 0.834910 0.781865
O O1 0.153812 0.756791 0.644181
O O2 0.556087 0.624573 0.246370
O O3 0.374251 0.868927 0.412363
O O4 0.000000 0.000000 0.500000
O O5 0.805775 0.817263 0.677007
O O6 0.880696 0.597312 0.886188
O O7 0.500000 0.000000 0.000000
O O8 0.368297 0.906987 0.028607
O O9 0.720121 0.464732 0.018388
O O10 0.455095 0.391063 0.254960
O O11 0.105456 0.770608 0.317640
O O12 0.500000 0.500000 0.000000
O O13 0.419348 0.047816 0.410188
O O14 0.590017 0.097059 0.378779
O O15 0.919298 0.740845 0.998426
O O16 0.161486 0.827069 0.787182
O O17 0.000000 0.000000 0.000000
#
# Coordination Sequence:
#
# PCOD9064210 Si02
#       8
#     2   2   2   1   2   2   2   2
#     4  12  20  44  78 101 139 189 241 302 370 432
#     4  12  25  46  73 109 153 194 240 313 378 444
#     4  11  26  46  75 103 138 193 250 306 367 453
#     4  12  26  44  72 104 148 198 242 306 372 440
#     4  12  25  46  72 108 147 188 247 305 374 449
#     4  11  24  45  72 104 144 195 245 302 370 452
#     4  11  25  45  73 108 141 194 246 301 376 445
#     4  11  25  47  72 103 142 194 247 303 380 438
#
# _framework density 25.000699999999998
#
# number of rings (size 3 to 8) (size 9 to 14) (size 15 to 20)
#    0.000    0.533    5.333    2.000    3.733    2.133 
#    7.200    0.000    0.000    0.000    0.000    0.000 
#    0.000    0.000    0.000    0.000    0.000    0.000 
#
# Total GULP energy -83790.809940 kJ/mol
# GULP energy per Si atom -5586.053996 kJ/mol
# Density = 2.494380 g / cm^3
# Si number density = 25.000700 Si / 1000 Ang^3
#
#
#
# Elastic Constant Matrix: (Units=GPa)
#
#
# Indices 1 2 3 4 5 6 
#
# 1 126.2853 16.1493 20.1851 -11.2113 23.2931 0.6557
# 2 16.1493 114.4841 27.6231 -38.4803 1.2744 -4.3013
# 3 20.1851 27.6231 90.9364 -34.1233 23.4518 2.5840
# 4 -11.2113 -38.4803 -34.1233 52.8451 0.5941 -2.3701
# 5 23.2931 1.2744 23.4518 0.5941 42.4688 -7.5788
# 6 0.6557 -4.3013 2.5840 -2.3701 -7.5788 30.8886
#
#
#
# Elastic Compliance Matrix: (Units=1/GPa)
#
#
# Indices 1 2 3 4 5 6 
#
# 1 0.009124 -0.000850 0.000208 0.001442 -0.005389 -0.001541
# 2 -0.000850 0.011825 -0.000632 0.008127 0.000800 0.002537
# 3 0.000208 -0.000632 0.018361 0.011409 -0.011010 -0.003455
# 4 0.001442 0.008127 0.011409 0.032635 -0.007654 0.000773
# 5 -0.005389 0.000800 -0.011010 -0.007654 0.034266 0.008967
# 6 -0.001541 0.002537 -0.003455 0.000773 0.008967 0.035309
#
#
# Mechanical properties :
#
#
# Convention : Reuss Voigt Hill
#
# Bulk Modulus (GPa) = 27.20241 51.06898 39.13569
# Shear Modulus (GPa) = 31.98488 43.09037 37.53763
#
# Velocity S-wave (km/s) = 3.58069 4.15609 3.87908
# Velocity P-wave (km/s) = 5.29145 6.59562 5.97920
#
# Compressibility (1/GPa) = 0.03676146
#
# Stress axis : x y z
#
# Youngs Moduli (GPa) = 109.60000 84.56345 54.46199
#
# Poissons Ratio (x) = 0.07191 -0.01131
# Poissons Ratio (y) = 0.09320 0.03442
# Poissons Ratio (z) = -0.02276 0.05345
#
# Static dielectric constant tensor:
#      x y z
#    x 2.030340 -0.013770 -0.012070 
#    y -0.013770 2.044150 0.042650 
#    z -0.012070 0.042650 2.021400 
# 
# From -- ./inp_files/397718.got.cif
#   From: 2010.05.17/outbox.cif.g08.bks.cpg/sg2_199_cif.got.tgz:397718.got - 2010.06.03 11:33:40.
