data_PCOD9064008
_publ_section_title
;
Structure prediction by ZEFSAII (Michael W. Deem and Ramdas Pophale) SiO2 
 PCOD9064008
Probable space group: P -1
;
_chemical_formula_sum "Si O2"
_cell_formula_units_Z 16
_cell_length_a 11.400479
_cell_length_b 15.552233
_cell_length_c 8.077152
_cell_angle_alpha 49.439800
_cell_angle_beta 108.300917
_cell_angle_gamma 140.836494
_cell_volume 630.840923
_symmetry_space_group_name_H-M "P -1"
_symmetry_group_IT_number 2
_symmetry_cell_setting 'triclinic'
loop_
_space_group_symop_operation_xyz
x,y,z
-x,-y,-z
loop_
_atom_site_type_symbol
_atom_site_label
_atom_site_fract_x
_atom_site_fract_y
_atom_site_fract_z
Si Si1 0.899054 0.751652 0.771738
Si Si2 0.692147 0.687194 0.249368
Si Si3 0.493574 0.245384 0.084751
Si Si4 0.230629 0.140609 0.616268
Si Si5 0.892055 0.627286 0.238442
Si Si6 0.733860 0.124118 0.729868
Si Si7 0.573415 0.236743 0.514168
Si Si8 0.956249 0.587743 0.780640
O O1 0.755193 0.729364 0.634711
O O2 0.007022 0.737439 0.722028
O O3 0.799524 0.606139 0.052048
O O4 0.053171 0.942973 0.698492
O O5 0.500000 0.500000 0.500000
O O6 0.807992 0.853008 0.221155
O O7 0.819098 0.669402 0.280879
O O8 0.620086 0.716591 0.031887
O O9 0.528756 0.231065 0.307611
O O10 0.362943 0.056544 0.167712
O O11 0.711990 0.415251 0.878604
O O12 0.426003 0.206777 0.594673
O O13 0.792203 0.432388 0.438422
O O14 0.133435 0.800361 0.141988
O O15 0.563725 0.095755 0.709134
O O16 0.905006 0.299363 0.460627
O O17 0.000000 0.500000 0.000000
#
# Coordination Sequence:
#
# PCOD9064008 Si02
#       8
#     2   2   2   2   2   2   2   2
#     4  11  24  45  69 105 139 179 242 293 357 420
#     4  12  25  45  73 105 141 182 244 293 357 420
#     4  12  26  46  75 107 139 194 235 290 360 421
#     4  11  25  43  71 102 138 187 233 300 352 417
#     4  12  25  45  73  99 144 184 230 299 357 413
#     4  12  27  48  70 107 149 187 237 290 352 430
#     4  12  25  45  72 102 143 187 237 287 354 423
#     4  12  25  45  74 104 144 188 237 290 355 425
#
# _framework density 25.362970000000001
#
# number of rings (size 3 to 8) (size 9 to 14) (size 15 to 20)
#    0.000    0.250    3.750    5.250    1.750    5.000 
#    0.000    1.250    0.000    0.000    0.000    0.000 
#    0.000    0.000    0.000    0.000    0.000    0.000 
#
# Total GULP energy -89624.796011 kJ/mol
# GULP energy per Si atom -5601.549751 kJ/mol
# Density = 2.530524 g / cm^3
# Si number density = 25.362970 Si / 1000 Ang^3
#
#
#
# Elastic Constant Matrix: (Units=GPa)
#
#
# Indices 1 2 3 4 5 6 
#
# 1 120.6258 11.5928 20.9900 11.5187 21.9238 -12.3494
# 2 11.5928 111.7122 11.9790 -8.7165 13.7644 -2.5954
# 3 20.9900 11.9790 69.6372 7.4468 19.3138 2.7270
# 4 11.5187 -8.7165 7.4468 38.4206 1.2034 7.2776
# 5 21.9238 13.7644 19.3138 1.2034 46.7151 -0.5484
# 6 -12.3494 -2.5954 2.7270 7.2776 -0.5484 37.8311
#
#
#
# Elastic Compliance Matrix: (Units=1/GPa)
#
#
# Indices 1 2 3 4 5 6 
#
# 1 0.010051 -0.000582 -0.001686 -0.003455 -0.003713 0.003973
# 2 -0.000582 0.009608 -0.001166 0.002645 -0.002144 0.000013
# 3 -0.001686 -0.001166 0.017028 -0.002603 -0.005855 -0.001442
# 4 -0.003455 0.002645 -0.002603 0.029344 0.001087 -0.006388
# 5 -0.003713 -0.002144 -0.005855 0.001087 0.026164 -0.000767
# 6 0.003973 0.000013 -0.001442 -0.006388 -0.000767 0.029053
#
#
# Mechanical properties :
#
#
# Convention : Reuss Voigt Hill
#
# Bulk Modulus (GPa) = 33.53643 43.45544 38.49594
# Shear Modulus (GPa) = 36.21752 41.75423 38.98588
#
# Velocity S-wave (km/s) = 3.78295 4.06182 3.92486
# Velocity P-wave (km/s) = 5.68614 6.25847 5.97916
#
# Compressibility (1/GPa) = 0.02981832
#
# Stress axis : x y z
#
# Youngs Moduli (GPa) = 99.49356 104.08195 58.72839
#
# Poissons Ratio (x) = 0.06058 0.09900
# Poissons Ratio (y) = 0.05791 0.06849
# Poissons Ratio (z) = 0.16773 0.12137
#
# Static dielectric constant tensor:
#      x y z
#    x 1.955950 -0.006780 0.004890 
#    y -0.006780 2.039060 -0.002150 
#    z 0.004890 -0.002150 2.111500 
# 
# From -- ./inp_files/271877.got.cif
#   From: 2010.05.17/outbox.cif.g08.bks.cpg/sg2_136_cif.got.tgz:271877.got - 2010.06.03 11:33:40.
