data_PCOD9064358
_publ_section_title
;
Structure prediction by ZEFSAII (Michael W. Deem and Ramdas Pophale) SiO2 
 PCOD9064358
Probable space group: P -1
;
_chemical_formula_sum "Si O2"
_cell_formula_units_Z 16
_cell_length_a 8.592352
_cell_length_b 8.724094
_cell_length_c 14.473957
_cell_angle_alpha 112.570665
_cell_angle_beta 41.898893
_cell_angle_gamma 111.251823
_cell_volume 663.862980
_symmetry_space_group_name_H-M "P -1"
_symmetry_group_IT_number 2
_symmetry_cell_setting 'triclinic'
loop_
_space_group_symop_operation_xyz
x,y,z
-x,-y,-z
loop_
_atom_site_type_symbol
_atom_site_label
_atom_site_fract_x
_atom_site_fract_y
_atom_site_fract_z
Si Si1 0.822561 0.634906 0.738024
Si Si2 0.147716 0.816017 0.790829
Si Si3 0.053187 0.195670 0.917817
Si Si4 0.458200 0.620358 0.308014
Si Si5 0.931056 0.180010 0.662141
Si Si6 0.378870 0.809904 0.027285
Si Si7 0.415019 0.364239 0.430875
Si Si8 0.146515 0.870865 0.522147
O O1 0.737625 0.446754 0.697850
O O2 0.010697 0.687587 0.748007
O O3 0.934023 0.739519 0.624787
O O4 0.582975 0.698461 0.891544
O O5 0.417288 0.781412 0.671164
O O6 0.115003 0.007550 0.826573
O O7 0.029863 0.789897 0.937121
O O8 0.284927 0.323711 0.829557
O O9 0.838696 0.227752 0.954629
O O10 0.454884 0.464442 0.341291
O O11 0.369549 0.782289 0.433549
O O12 0.146236 0.309267 0.562405
O O13 0.728875 0.219273 0.829640
O O14 0.823215 0.105178 0.596321
O O15 0.068516 0.046287 0.627147
O O16 0.500000 0.000000 0.000000
O O17 0.500000 0.500000 0.500000
#
# Coordination Sequence:
#
# PCOD9064358 Si02
#       8
#     2   2   2   2   2   2   2   2
#     4  12  25  46  74 109 145 193 236 304 360 425
#     4  11  26  46  76 103 146 192 249 292 355 432
#     4  11  26  48  74 107 143 194 240 300 362 427
#     4  12  27  46  73 106 153 190 235 303 365 430
#     4  11  25  43  75 109 136 192 242 296 353 427
#     4  12  24  46  76 106 145 184 247 298 358 426
#     4  12  26  44  70 105 149 190 237 298 361 430
#     4  11  24  45  74 104 144 188 244 292 355 425
#
# _framework density 24.10136
#
# number of rings (size 3 to 8) (size 9 to 14) (size 15 to 20)
#    0.000    0.500    3.750    3.375    3.500    3.500 
#    0.000    3.750    0.000    0.000    0.000    0.000 
#    0.000    0.000    0.000    0.000    0.000    0.000 
#
# Total GULP energy -89542.048878 kJ/mol
# GULP energy per Si atom -5596.378055 kJ/mol
# Density = 2.404650 g / cm^3
# Si number density = 24.101360 Si / 1000 Ang^3
#
#
#
# Elastic Constant Matrix: (Units=GPa)
#
#
# Indices 1 2 3 4 5 6 
#
# 1 109.5409 25.5573 46.7884 -15.6918 -2.5500 4.1618
# 2 25.5573 51.6625 32.6362 -14.9351 -8.1614 10.6853
# 3 46.7884 32.6362 173.9865 -23.7633 -10.6379 -7.0198
# 4 -15.6918 -14.9351 -23.7633 52.2530 -4.5457 -13.0450
# 5 -2.5500 -8.1614 -10.6379 -4.5457 45.2421 0.6110
# 6 4.1618 10.6853 -7.0198 -13.0450 0.6110 36.6523
#
#
#
# Elastic Compliance Matrix: (Units=1/GPa)
#
#
# Indices 1 2 3 4 5 6 
#
# 1 0.011103 -0.003846 -0.002133 0.001198 -0.000448 -0.000114
# 2 -0.003846 0.026542 -0.003481 0.003520 0.004198 -0.006785
# 3 -0.002133 -0.003481 0.007591 0.002852 0.001273 0.003705
# 4 0.001198 0.003520 0.002852 0.024093 0.003687 0.007898
# 5 -0.000448 0.004198 0.001273 0.003687 0.023505 -0.000009
# 6 -0.000114 -0.006785 0.003705 0.007898 -0.000009 0.032795
#
#
# Mechanical properties :
#
#
# Convention : Reuss Voigt Hill
#
# Bulk Modulus (GPa) = 37.99905 60.57262 49.28583
# Shear Modulus (GPa) = 32.61143 42.17669 37.39406
#
# Velocity S-wave (km/s) = 3.68243 4.18780 3.94322
# Velocity P-wave (km/s) = 5.82074 6.96926 6.42073
#
# Compressibility (1/GPa) = 0.02631645
#
# Stress axis : x y z
#
# Youngs Moduli (GPa) = 90.06753 37.67618 131.73577
#
# Poissons Ratio (x) = 0.14491 0.28096
# Poissons Ratio (y) = 0.34641 0.45854
# Poissons Ratio (z) = 0.19209 0.13114
#
# Static dielectric constant tensor:
#      x y z
#    x 2.069080 -0.066590 0.027080 
#    y -0.066590 1.986030 0.031880 
#    z 0.027080 0.031880 1.865400 
# 
# From -- ./inp_files/298052.got.cif
#   From: 2010.05.17/outbox.cif.g08.bks.cpg/sg2_150_cif.got.tgz:298052.got - 2010.06.03 11:33:40.
