data_PCOD9064691
_publ_section_title
;
Structure prediction by ZEFSAII (Michael W. Deem and Ramdas Pophale) SiO2 
 PCOD9064691
Probable space group: P -1
;
_chemical_formula_sum "Si O2"
_cell_formula_units_Z 14
_cell_length_a 9.055797
_cell_length_b 7.942771
_cell_length_c 13.934272
_cell_angle_alpha 128.448657
_cell_angle_beta 132.304481
_cell_angle_gamma 79.017215
_cell_volume 533.652360
_symmetry_space_group_name_H-M "P -1"
_symmetry_group_IT_number 2
_symmetry_cell_setting 'triclinic'
loop_
_space_group_symop_operation_xyz
x,y,z
-x,-y,-z
loop_
_atom_site_type_symbol
_atom_site_label
_atom_site_fract_x
_atom_site_fract_y
_atom_site_fract_z
Si Si1 0.590618 0.767118 0.358544
Si Si2 0.461300 0.150122 0.337696
Si Si3 0.045386 0.085301 0.740076
Si Si4 0.227659 0.489500 0.806931
Si Si5 0.144931 0.377860 0.069449
Si Si6 0.446023 0.014895 0.870535
Si Si7 0.863911 0.632777 0.721663
O O1 0.699948 0.645169 0.290199
O O2 0.392225 0.565841 0.252154
O O3 0.488081 0.928054 0.316660
O O4 0.790474 0.937929 0.569008
O O5 0.670494 0.377810 0.538730
O O6 0.250946 0.193244 0.292449
O O7 0.467037 0.122425 0.214995
O O8 0.108067 0.306715 0.773809
O O9 0.189672 0.944481 0.718908
O O10 0.131111 0.182081 0.917060
O O11 0.062561 0.608891 0.744256
O O12 0.439144 0.710898 0.010125
O O13 0.060461 0.304880 0.113295
O O14 0.000000 0.500000 0.000000
O O15 0.500000 0.000000 0.000000
#
# Coordination Sequence:
#
# PCOD9064691 Si02
#       7
#     2   2   2   2   2   2   2
#     4  12  25  47  80 109 144 198 251 295 367 436
#     4  11  24  46  71  99 152 189 241 296 373 432
#     4  12  23  46  77 109 146 192 249 301 361 438
#     4  12  23  48  74 105 142 192 249 297 358 444
#     4  12  25  45  72 109 151 190 248 305 356 439
#     4  12  26  46  74 111 146 192 249 310 370 429
#     4  11  26  47  69 105 149 192 241 298 372 435
#
# _framework density 26.234307999999999
#
# number of rings (size 3 to 8) (size 9 to 14) (size 15 to 20)
#    0.000    0.286    5.714    3.429    0.000    2.857 
#    7.714    1.429    0.000    0.000    0.000    0.000 
#    0.000    0.000    0.000    0.000    0.000    0.000 
#
# Total GULP energy -78590.830146 kJ/mol
# GULP energy per Si atom -5613.630725 kJ/mol
# Density = 2.617460 g / cm^3
# Si number density = 26.234308 Si / 1000 Ang^3
#
#
#
# Elastic Constant Matrix: (Units=GPa)
#
#
# Indices 1 2 3 4 5 6 
#
# 1 115.9542 71.8978 35.6175 5.8611 -3.7489 -17.7443
# 2 71.8978 124.0251 32.1118 -4.8692 -6.1221 -34.6376
# 3 35.6175 32.1118 119.7414 3.9722 4.2518 16.9791
# 4 5.8611 -4.8692 3.9722 34.7200 -8.5274 -0.3943
# 5 -3.7489 -6.1221 4.2518 -8.5274 57.3800 -0.7569
# 6 -17.7443 -34.6376 16.9791 -0.3943 -0.7569 56.3488
#
#
#
# Elastic Compliance Matrix: (Units=1/GPa)
#
#
# Indices 1 2 3 4 5 6 
#
# 1 0.014320 -0.007818 -0.002088 -0.003329 -0.000234 0.000307
# 2 -0.007818 0.016190 -0.003470 0.004644 0.002277 0.008599
# 3 -0.002088 -0.003470 0.010890 -0.001860 -0.001671 -0.006108
# 4 -0.003329 0.004644 -0.001860 0.031519 0.005135 0.002656
# 5 -0.000234 0.002277 -0.001671 0.005135 0.018570 0.002115
# 6 0.000307 0.008599 -0.006108 0.002656 0.002115 0.025016
#
#
# Mechanical properties :
#
#
# Convention : Reuss Voigt Hill
#
# Bulk Modulus (GPa) = 68.26817 70.99720 69.63268
# Shear Modulus (GPa) = 33.75182 44.36268 39.05725
#
# Velocity S-wave (km/s) = 3.59075 4.11666 3.86266
# Velocity P-wave (km/s) = 6.57801 7.05105 6.81864
#
# Compressibility (1/GPa) = 0.01464812
#
# Stress axis : x y z
#
# Youngs Moduli (GPa) = 69.83050 61.76838 91.82614
#
# Poissons Ratio (x) = 0.48288 0.19172
# Poissons Ratio (y) = 0.54591 0.31868
# Poissons Ratio (z) = 0.14580 0.21437
#
# Static dielectric constant tensor:
#      x y z
#    x 2.048970 -0.029070 0.011250 
#    y -0.029070 2.087620 -0.007500 
#    z 0.011250 -0.007500 2.004250 
# 
# From -- ./inp_files/494155.got.cif
#   From: 2010.05.17/outbox.cif.g08.bks.cpg/sg2_248_cif.got.tgz:494155.got - 2010.06.03 11:33:40.
