data_PCOD9064984
_publ_section_title
;
Structure prediction by ZEFSAII (Michael W. Deem and Ramdas Pophale) SiO2 
 PCOD9064984
Probable space group: P -1
;
_chemical_formula_sum "Si O2"
_cell_formula_units_Z 15
_cell_length_a 8.647566
_cell_length_b 11.472693
_cell_length_c 8.035258
_cell_angle_alpha 66.595424
_cell_angle_beta 106.350869
_cell_angle_gamma 75.598837
_cell_volume 640.473525
_symmetry_space_group_name_H-M "P -1"
_symmetry_group_IT_number 2
_symmetry_cell_setting 'triclinic'
loop_
_space_group_symop_operation_xyz
x,y,z
-x,-y,-z
loop_
_atom_site_type_symbol
_atom_site_label
_atom_site_fract_x
_atom_site_fract_y
_atom_site_fract_z
Si Si1 0.484754 0.681714 0.536797
Si Si2 0.666149 0.011846 0.632621
Si Si3 0.000000 0.000000 0.500000
Si Si4 0.109938 0.384578 0.730023
Si Si5 0.419310 0.383793 0.031314
Si Si6 0.702427 0.922802 0.050579
Si Si7 0.258871 0.823723 0.929611
Si Si8 0.754083 0.392233 0.678414
O O1 0.421512 0.840253 0.380598
O O2 0.626385 0.555877 0.547434
O O3 0.303457 0.657857 0.482280
O O4 0.578293 0.660289 0.753786
O O5 0.816171 0.012490 0.549205
O O6 0.500000 0.000000 0.500000
O O7 0.732037 0.908254 0.868450
O O8 0.882078 0.141689 0.280474
O O9 0.235611 0.429585 0.855489
O O10 0.216464 0.233343 0.766084
O O11 0.000000 0.500000 0.500000
O O12 0.950825 0.369474 0.786753
O O13 0.500000 0.500000 0.000000
O O14 0.549765 0.244993 0.056454
O O15 0.789888 0.023087 0.093828
O O16 0.500000 0.000000 0.000000
O O17 0.276218 0.705962 0.135960
#
# Coordination Sequence:
#
# PCOD9064984 Si02
#       8
#     2   2   1   2   2   2   2   2
#     4  11  24  46  79 104 149 210 251 324 402 459
#     4  12  26  49  76 116 157 203 267 327 401 475
#     4  12  28  46  76 114 154 206 266 324 396 478
#     4  12  29  47  75 116 151 202 268 324 393 480
#     4  12  24  48  74 108 155 199 252 323 395 462
#     4  12  26  48  81 111 158 204 258 329 399 470
#     4  12  25  47  76 113 149 203 258 319 400 469
#     4  11  26  48  77 110 152 199 271 323 390 482
#
# _framework density 23.420169999999999
#
# number of rings (size 3 to 8) (size 9 to 14) (size 15 to 20)
#    0.000    0.267    5.333    3.200    5.600    2.667 
#    2.400    0.000    0.000    0.000    0.000    0.000 
#    0.000    0.000    0.000    0.000    0.000    0.000 
#
# Total GULP energy -83501.199953 kJ/mol
# GULP energy per Si atom -5566.746664 kJ/mol
# Density = 2.336686 g / cm^3
# Si number density = 23.420170 Si / 1000 Ang^3
#
#
#
# Elastic Constant Matrix: (Units=GPa)
#
#
# Indices 1 2 3 4 5 6 
#
# 1 98.9415 42.4346 27.4618 -0.1834 24.7583 -2.7585
# 2 42.4346 98.9801 38.2713 -10.2869 8.4096 18.4244
# 3 27.4618 38.2713 130.6820 -19.3777 21.0506 -1.9406
# 4 -0.1834 -10.2869 -19.3777 43.1075 -0.2453 1.1705
# 5 24.7583 8.4096 21.0506 -0.2453 40.9970 4.3738
# 6 -2.7585 18.4244 -1.9406 1.1705 4.3738 23.1316
#
#
#
# Elastic Compliance Matrix: (Units=1/GPa)
#
#
# Indices 1 2 3 4 5 6 
#
# 1 0.016337 -0.008592 0.000458 -0.002121 -0.009496 0.010733
# 2 -0.008592 0.018524 -0.004322 0.002943 0.005474 -0.017325
# 3 0.000458 -0.004322 0.010237 0.003403 -0.005177 0.005162
# 4 -0.002121 0.002943 0.003403 0.025512 -0.000544 -0.003499
# 5 -0.009496 0.005474 -0.005177 -0.000544 0.032953 -0.012130
# 6 0.010733 -0.017325 0.005162 -0.003499 -0.012130 0.061214
#
#
# Mechanical properties :
#
#
# Convention : Reuss Voigt Hill
#
# Bulk Modulus (GPa) = 49.54390 60.54879 55.04635
# Shear Modulus (GPa) = 25.45603 36.14293 30.79948
#
# Velocity S-wave (km/s) = 3.30044 3.93267 3.63034
# Velocity P-wave (km/s) = 5.97697 6.82133 6.41306
#
# Compressibility (1/GPa) = 0.02018412
#
# Stress axis : x y z
#
# Youngs Moduli (GPa) = 61.21243 53.98545 97.68764
#
# Poissons Ratio (x) = 0.46386 -0.04474
# Poissons Ratio (y) = 0.52596 0.42220
# Poissons Ratio (z) = -0.02803 0.23332
#
# Static dielectric constant tensor:
#      x y z
#    x 2.038500 0.053800 -0.053680 
#    y 0.053800 1.932570 -0.033430 
#    z -0.053680 -0.033430 1.978240 
# 
# From -- ./inp_files/186073.got.cif
#   From: 2010.05.17/outbox.cif.g08.bks.cpg/sg2_94_cif.got.tgz:186073.got - 2010.06.03 11:33:40.
