data_PCOD9064160
_publ_section_title
;
Structure prediction by ZEFSAII (Michael W. Deem and Ramdas Pophale) SiO2 
 PCOD9064160
Probable space group: P -1
;
_chemical_formula_sum "Si O2"
_cell_formula_units_Z 16
_cell_length_a 9.022882
_cell_length_b 13.119083
_cell_length_c 9.487595
_cell_angle_alpha 79.125114
_cell_angle_beta 132.618235
_cell_angle_gamma 71.851774
_cell_volume 644.495887
_symmetry_space_group_name_H-M "P -1"
_symmetry_group_IT_number 2
_symmetry_cell_setting 'triclinic'
loop_
_space_group_symop_operation_xyz
x,y,z
-x,-y,-z
loop_
_atom_site_type_symbol
_atom_site_label
_atom_site_fract_x
_atom_site_fract_y
_atom_site_fract_z
Si Si1 0.059053 0.550839 0.888768
Si Si2 0.583691 0.975209 0.722083
Si Si3 0.260394 0.326475 0.626294
Si Si4 0.808087 0.416673 0.509228
Si Si5 0.439079 0.630343 0.857525
Si Si6 0.971383 0.908901 0.602125
Si Si7 0.788796 0.115053 0.953669
Si Si8 0.916250 0.296745 0.901945
O O1 0.851856 0.645015 0.612449
O O2 0.275639 0.420942 0.974064
O O3 0.000000 0.500000 0.000000
O O4 0.125061 0.637682 0.989696
O O5 0.751718 0.024097 0.859650
O O6 0.312800 0.049366 0.608257
O O7 0.500000 0.000000 0.500000
O O8 0.786175 0.818429 0.907091
O O9 0.298134 0.437917 0.640706
O O10 0.527723 0.191230 0.851897
O O11 0.070579 0.337253 0.613423
O O12 0.658668 0.366888 0.362373
O O13 0.817332 0.399376 0.685928
O O14 0.210413 0.760678 0.752663
O O15 0.500000 0.500000 0.000000
O O16 0.004065 0.936393 0.777509
O O17 0.000000 0.000000 0.500000
O O18 0.784884 0.224830 0.837656
#
# Coordination Sequence:
#
# PCOD9064160 Si02
#       8
#     2   2   2   2   2   2   2   2
#     4  12  26  45  75 114 156 204 259 331 395 470
#     4  12  28  53  81 110 161 206 265 329 398 475
#     4  11  24  45  71 110 156 201 258 316 400 461
#     4  11  25  42  74 109 149 207 254 327 389 469
#     4  12  26  49  74 106 158 203 263 321 392 476
#     4  12  31  51  80 119 158 215 267 328 404 481
#     4  12  28  49  77 111 159 210 264 325 392 474
#     4  12  27  47  78 115 155 207 265 324 401 469
#
# _framework density 24.825606000000001
#
# number of rings (size 3 to 8) (size 9 to 14) (size 15 to 20)
#    0.000    0.250    3.750    4.125    8.750    1.500 
#    0.000    0.000    0.000    0.000    0.000    0.000 
#    0.000    0.000    0.000    0.000    0.000    0.000 
#
# Total GULP energy -89452.735387 kJ/mol
# GULP energy per Si atom -5590.795962 kJ/mol
# Density = 2.476910 g / cm^3
# Si number density = 24.825606 Si / 1000 Ang^3
#
#
#
# Elastic Constant Matrix: (Units=GPa)
#
#
# Indices 1 2 3 4 5 6 
#
# 1 107.4818 26.6621 30.6347 -7.6160 0.0355 0.2480
# 2 26.6621 112.7816 31.2660 6.0914 10.5131 -10.5117
# 3 30.6347 31.2660 82.3562 26.2999 6.4734 -3.6993
# 4 -7.6160 6.0914 26.2999 55.0456 -9.3317 9.5438
# 5 0.0355 10.5131 6.4734 -9.3317 42.6762 -3.2180
# 6 0.2480 -10.5117 -3.6993 9.5438 -3.2180 45.6444
#
#
#
# Elastic Compliance Matrix: (Units=1/GPa)
#
#
# Indices 1 2 3 4 5 6 
#
# 1 0.011738 -0.001901 -0.005575 0.005215 0.002303 -0.001881
# 2 -0.001901 0.010537 -0.002737 -0.000884 -0.002203 0.002245
# 3 -0.005575 -0.002737 0.019214 -0.010902 -0.004399 0.002926
# 4 0.005215 -0.000884 -0.010902 0.026480 0.007194 -0.006145
# 5 0.002303 -0.002203 -0.004399 0.007194 0.026173 -0.000535
# 6 -0.001881 0.002245 0.002926 -0.006145 -0.000535 0.023920
#
#
# Mechanical properties :
#
#
# Convention : Reuss Voigt Hill
#
# Bulk Modulus (GPa) = 47.47773 53.30503 50.39138
# Shear Modulus (GPa) = 34.36234 42.94370 38.65302
#
# Velocity S-wave (km/s) = 3.72445 4.16362 3.95014
# Velocity P-wave (km/s) = 6.13689 6.68077 6.41460
#
# Compressibility (1/GPa) = 0.02106250
#
# Stress axis : x y z
#
# Youngs Moduli (GPa) = 85.19649 94.90230 52.04566
#
# Poissons Ratio (x) = 0.18040 0.29017
# Poissons Ratio (y) = 0.16195 0.14245
# Poissons Ratio (z) = 0.47499 0.25975
#
# Static dielectric constant tensor:
#      x y z
#    x 2.064980 -0.040760 0.116000 
#    y -0.040760 2.068420 0.043300 
#    z 0.116000 0.043300 2.024850 
# 
# From -- ./inp_files/207182.got.cif
#   From: 2010.05.17/outbox.cif.g08.bks.cpg/sg2_104_cif.got.tgz:207182.got - 2010.06.03 11:33:40.
