data_PCOD9064143
_publ_section_title
;
Structure prediction by ZEFSAII (Michael W. Deem and Ramdas Pophale) SiO2 
 PCOD9064143
Probable space group: P -1
;
_chemical_formula_sum "Si O2"
_cell_formula_units_Z 16
_cell_length_a 8.569072
_cell_length_b 21.834116
_cell_length_c 9.451116
_cell_angle_alpha 152.470836
_cell_angle_beta 63.398997
_cell_angle_gamma 115.645897
_cell_volume 728.050863
_symmetry_space_group_name_H-M "P -1"
_symmetry_group_IT_number 2
_symmetry_cell_setting 'triclinic'
loop_
_space_group_symop_operation_xyz
x,y,z
-x,-y,-z
loop_
_atom_site_type_symbol
_atom_site_label
_atom_site_fract_x
_atom_site_fract_y
_atom_site_fract_z
Si Si1 0.124310 0.673197 0.444357
Si Si2 0.238538 0.736871 0.232914
Si Si3 0.865768 0.803071 0.430479
Si Si4 0.151315 0.469225 0.265937
Si Si5 0.448613 0.997494 0.678264
Si Si6 0.422667 0.601504 0.633535
Si Si7 0.675433 0.057618 0.963817
Si Si8 0.248996 0.230651 0.287625
O O1 0.196104 0.645627 0.200838
O O2 0.124709 0.548573 0.293567
O O3 0.928660 0.718819 0.597443
O O4 0.241713 0.800871 0.722776
O O5 0.396641 0.845432 0.430376
O O6 0.063185 0.808360 0.419454
O O7 0.287904 0.671038 0.931313
O O8 0.749073 0.753104 0.510827
O O9 0.810095 0.944724 0.694135
O O10 0.847453 0.687045 0.084245
O O11 0.327926 0.528393 0.390274
O O12 0.000000 0.500000 0.500000
O O13 0.500000 0.000000 0.500000
O O14 0.607077 0.063447 0.843162
O O15 0.277714 0.076466 0.935134
O O16 0.500000 0.500000 0.500000
O O17 0.583394 0.697296 0.708568
O O18 0.500000 0.000000 0.000000
#
# Coordination Sequence:
#
# PCOD9064143 Si02
#       8
#     2   2   2   2   2   2   2   2
#     4  11  26  46  77 103 144 189 238 297 351 432
#     4  11  24  46  71 101 143 189 234 286 364 420
#     4  11  26  45  75 104 143 190 239 297 351 428
#     4  12  27  48  72 107 147 184 243 297 356 421
#     4  12  24  42  70 103 142 181 233 296 355 418
#     4  12  27  44  69 100 148 185 238 292 355 424
#     4  12  24  45  73 108 142 180 246 294 351 421
#     4  11  24  45  71 106 140 189 237 287 364 420
#
# _framework density 21.976486999999999
#
# number of rings (size 3 to 8) (size 9 to 14) (size 15 to 20)
#    0.000    0.500    5.000    2.250    3.500    4.500 
#    0.000    1.875    0.000    0.000    0.000    0.000 
#    0.000    0.000    0.000    0.000    0.000    0.000 
#
# Total GULP energy -89535.501853 kJ/mol
# GULP energy per Si atom -5595.968866 kJ/mol
# Density = 2.192647 g / cm^3
# Si number density = 21.976487 Si / 1000 Ang^3
#
#
#
# Elastic Constant Matrix: (Units=GPa)
#
#
# Indices 1 2 3 4 5 6 
#
# 1 73.4147 12.7093 -3.3616 -6.3422 8.6420 -8.1286
# 2 12.7093 88.7328 7.7802 -18.2777 -0.2009 1.8606
# 3 -3.3616 7.7802 70.1375 -12.7337 7.1421 7.1196
# 4 -6.3422 -18.2777 -12.7337 40.0736 -1.9927 0.3193
# 5 8.6420 -0.2009 7.1421 -1.9927 40.6325 1.2616
# 6 -8.1286 1.8606 7.1196 0.3193 1.2616 29.2407
#
#
#
# Elastic Compliance Matrix: (Units=1/GPa)
#
#
# Indices 1 2 3 4 5 6 
#
# 1 0.015032 -0.002016 0.001170 0.001626 -0.003462 0.004154
# 2 -0.002016 0.012742 -0.000484 0.005394 0.000883 -0.001350
# 3 0.001170 -0.000484 0.015882 0.004905 -0.002695 -0.003448
# 4 0.001626 0.005394 0.004905 0.029256 0.000297 -0.001418
# 5 -0.003462 0.000883 -0.002695 0.000297 0.025886 -0.001482
# 6 0.004154 -0.001350 -0.003448 -0.001418 -0.001482 0.036359
#
#
# Mechanical properties :
#
#
# Convention : Reuss Voigt Hill
#
# Bulk Modulus (GPa) = 24.39125 29.61561 27.00343
# Shear Modulus (GPa) = 33.00741 36.33318 34.67029
#
# Velocity S-wave (km/s) = 3.87969 4.07046 3.97622
# Velocity P-wave (km/s) = 5.58500 5.96631 5.77880
#
# Compressibility (1/GPa) = 0.04099831
#
# Stress axis : x y z
#
# Youngs Moduli (GPa) = 66.52622 78.47911 62.96257
#
# Poissons Ratio (x) = 0.15818 -0.07368
# Poissons Ratio (y) = 0.13409 0.03045
# Poissons Ratio (z) = -0.07785 0.03796
#
# Static dielectric constant tensor:
#      x y z
#    x 5.132500 3.029650 -3.026460 
#    y 3.029650 4.598310 -2.738410 
#    z -3.026460 -2.738410 4.587300 
# 
# From -- ./inp_files/224342.got.cif
#   From: 2010.05.17/outbox.cif.g08.bks.cpg/sg2_113_cif.got.tgz:224342.got - 2010.06.03 11:33:40.
