data_PCOD9064633
_publ_section_title
;
Structure prediction by ZEFSAII (Michael W. Deem and Ramdas Pophale) SiO2 
 PCOD9064633
Probable space group: P -1
;
_chemical_formula_sum "Si O2"
_cell_formula_units_Z 16
_cell_length_a 5.040950
_cell_length_b 9.443811
_cell_length_c 15.698483
_cell_angle_alpha 89.072512
_cell_angle_beta 56.843962
_cell_angle_gamma 75.067595
_cell_volume 597.300329
_symmetry_space_group_name_H-M "P -1"
_symmetry_group_IT_number 2
_symmetry_cell_setting 'triclinic'
loop_
_space_group_symop_operation_xyz
x,y,z
-x,-y,-z
loop_
_atom_site_type_symbol
_atom_site_label
_atom_site_fract_x
_atom_site_fract_y
_atom_site_fract_z
Si Si1 0.324901 0.824552 0.222560
Si Si2 0.512707 0.413381 0.087745
Si Si3 0.608721 0.892829 0.400636
Si Si4 0.428306 0.941105 0.774290
Si Si5 0.764611 0.535138 0.204677
Si Si6 0.534319 0.669752 0.652750
Si Si7 0.711127 0.116101 0.959113
Si Si8 0.266372 0.667099 0.526288
O O1 0.302837 0.998264 0.226159
O O2 0.646619 0.711044 0.209654
O O3 0.355178 0.790249 0.118045
O O4 0.000409 0.810112 0.326063
O O5 0.737346 0.461358 0.118173
O O6 0.125483 0.468373 0.182311
O O7 0.500000 0.500000 0.000000
O O8 0.629042 0.238895 0.046178
O O9 0.546284 0.989958 0.324915
O O10 0.410359 0.772742 0.442398
O O11 0.500000 0.000000 0.500000
O O12 0.093544 0.021576 0.882650
O O13 0.456544 0.774686 0.748168
O O14 0.504764 0.486099 0.309620
O O15 0.280459 0.728375 0.619583
O O16 0.903801 0.665689 0.562505
O O17 0.500000 0.000000 0.000000
O O18 0.500000 0.500000 0.500000
#
# Coordination Sequence:
#
# PCOD9064633 Si02
#       8
#     2   2   2   2   2   2   2   2
#     4  11  26  43  71 103 137 187 236 290 353 422
#     4  12  25  47  73 102 141 187 236 291 350 425
#     4  11  24  46  70  99 141 185 234 291 349 419
#     4  11  26  44  71 101 141 186 235 289 357 418
#     4  12  27  46  73 103 146 185 236 291 353 419
#     4  12  27  47  71 104 143 187 232 291 357 413
#     4  11  26  45  69 103 143 182 237 291 353 419
#     4  12  27  46  73 104 141 183 241 290 350 417
#
# _framework density 26.787192000000001
#
# number of rings (size 3 to 8) (size 9 to 14) (size 15 to 20)
#    0.000    0.500    2.500    4.500   10.500    1.500 
#    0.000    0.000    0.000    0.000    0.000    0.000 
#    0.000    0.000    0.000    0.000    0.000    0.000 
#
# Total GULP energy -89749.773747 kJ/mol
# GULP energy per Si atom -5609.360859 kJ/mol
# Density = 2.672622 g / cm^3
# Si number density = 26.787192 Si / 1000 Ang^3
#
#
#
# Elastic Constant Matrix: (Units=GPa)
#
#
# Indices 1 2 3 4 5 6 
#
# 1 75.0234 8.3779 24.0729 -5.6108 -1.2478 8.6513
# 2 8.3779 140.1611 38.4607 4.1464 -11.4663 11.0205
# 3 24.0729 38.4607 124.9511 -2.6480 -5.0926 9.9475
# 4 -5.6108 4.1464 -2.6480 57.0536 13.4185 -0.5152
# 5 -1.2478 -11.4663 -5.0926 13.4185 54.2963 -2.2864
# 6 8.6513 11.0205 9.9475 -0.5152 -2.2864 45.3633
#
#
#
# Elastic Compliance Matrix: (Units=1/GPa)
#
#
# Indices 1 2 3 4 5 6 
#
# 1 0.014516 -0.000054 -0.002591 0.001374 -0.000353 -0.002189
# 2 -0.000054 0.008052 -0.002314 -0.001110 0.001699 -0.001365
# 3 -0.002591 -0.002314 0.009306 0.000286 0.000213 -0.000971
# 4 0.001374 -0.001110 0.000286 0.018896 -0.004849 -0.000085
# 5 -0.000353 0.001699 0.000213 -0.004849 0.020010 0.000561
# 6 -0.002189 -0.001365 -0.000971 -0.000085 0.000561 0.023034
#
#
# Mechanical properties :
#
#
# Convention : Reuss Voigt Hill
#
# Bulk Modulus (GPa) = 45.54330 53.55095 49.54712
# Shear Modulus (GPa) = 45.02450 49.29091 47.15770
#
# Velocity S-wave (km/s) = 4.10423 4.29428 4.20033
# Velocity P-wave (km/s) = 6.28478 6.68001 6.48540
#
# Compressibility (1/GPa) = 0.02195713
#
# Stress axis : x y z
#
# Youngs Moduli (GPa) = 68.88980 124.19408 107.45236
#
# Poissons Ratio (x) = 0.00672 0.27840
# Poissons Ratio (y) = 0.00373 0.24860
# Poissons Ratio (z) = 0.17849 0.28733
#
# Static dielectric constant tensor:
#      x y z
#    x 2.098940 0.031100 0.065930 
#    y 0.031100 2.082130 0.028250 
#    z 0.065930 0.028250 2.137570 
# 
# From -- ./inp_files/97641.got.cif
#   From: 2010.05.17/outbox.cif.g08.bks.cpg/sg2_49_cif.got.tgz:97641.got - 2010.06.03 11:33:40.
