data_PCOD9064765
_publ_section_title
;
Structure prediction by ZEFSAII (Michael W. Deem and Ramdas Pophale) SiO2 
 PCOD9064765
Probable space group: P -1
;
_chemical_formula_sum "Si O2"
_cell_formula_units_Z 16
_cell_length_a 11.760130
_cell_length_b 8.823524
_cell_length_c 18.933113
_cell_angle_alpha 83.429897
_cell_angle_beta 142.478032
_cell_angle_gamma 124.356571
_cell_volume 739.835150
_symmetry_space_group_name_H-M "P -1"
_symmetry_group_IT_number 2
_symmetry_cell_setting 'triclinic'
loop_
_space_group_symop_operation_xyz
x,y,z
-x,-y,-z
loop_
_atom_site_type_symbol
_atom_site_label
_atom_site_fract_x
_atom_site_fract_y
_atom_site_fract_z
Si Si1 0.694826 0.776667 0.092419
Si Si2 0.873911 0.155655 0.623033
Si Si3 0.751670 0.749503 0.435005
Si Si4 0.402791 0.077864 0.095084
Si Si5 0.185515 0.620837 0.306114
Si Si6 0.215665 0.506763 0.636398
Si Si7 0.103995 0.487834 0.123760
Si Si8 0.113338 0.843288 0.736387
O O1 0.003056 0.903134 0.265662
O O2 0.666374 0.898788 0.127617
O O3 0.500000 0.500000 0.000000
O O4 0.655511 0.832341 0.996346
O O5 0.914162 0.329431 0.683400
O O6 0.052353 0.309618 0.630744
O O7 0.532573 0.891250 0.454090
O O8 0.698566 0.557568 0.377940
O O9 0.449174 0.655103 0.290048
O O10 0.895938 0.796460 0.578778
O O11 0.000000 0.000000 0.500000
O O12 0.500986 0.223755 0.206727
O O13 0.672746 0.136103 0.202465
O O14 0.100909 0.791061 0.962270
O O15 0.046422 0.548354 0.163415
O O16 0.088918 0.390202 0.297927
O O17 0.000000 0.500000 0.500000
O O18 0.000000 0.500000 0.000000
#
# Coordination Sequence:
#
# PCOD9064765 Si02
#       8
#     2   2   2   2   2   2   2   2
#     4  12  24  40  69 105 146 176 240 296 364 416
#     4  11  25  43  71 109 137 192 236 308 352 429
#     4  12  27  48  76 101 142 199 238 288 358 441
#     4  12  26  45  74 105 141 189 235 305 365 423
#     4  11  24  46  73 101 146 186 245 289 367 430
#     4  12  24  48  73 103 145 190 250 288 359 434
#     4  12  29  47  71 109 147 188 237 305 367 428
#     4  12  24  47  74 103 142 193 243 290 364 439
#
# _framework density 21.626438
#
# number of rings (size 3 to 8) (size 9 to 14) (size 15 to 20)
#    0.000    0.250    5.000    3.375    5.250    2.500 
#    0.000    0.000    0.000    0.000    0.000    0.000 
#    0.000    0.000    0.000    0.000    0.000    0.000 
#
# Total GULP energy -89385.473889 kJ/mol
# GULP energy per Si atom -5586.592118 kJ/mol
# Density = 2.157722 g / cm^3
# Si number density = 21.626438 Si / 1000 Ang^3
#
#
#
# Elastic Constant Matrix: (Units=GPa)
#
#
# Indices 1 2 3 4 5 6 
#
# 1 66.9440 21.4909 29.8753 10.8406 -41.1448 -13.7431
# 2 21.4909 111.1068 55.1039 -4.0183 -9.5063 -6.4690
# 3 29.8753 55.1039 106.8414 -5.4949 -28.2458 9.3956
# 4 10.8406 -4.0183 -5.4949 55.6223 -0.7074 -6.8030
# 5 -41.1448 -9.5063 -28.2458 -0.7074 51.1605 8.4649
# 6 -13.7431 -6.4690 9.3956 -6.8030 8.4649 32.5194
#
#
#
# Elastic Compliance Matrix: (Units=1/GPa)
#
#
# Indices 1 2 3 4 5 6 
#
# 1 0.034634 -0.003182 -0.002452 -0.006049 0.024662 0.007027
# 2 -0.003182 0.013379 -0.007774 0.001390 -0.005208 0.005209
# 3 -0.002452 -0.007774 0.016865 0.000542 0.007437 -0.009278
# 4 -0.006049 0.001390 0.000542 0.019601 -0.004506 0.002837
# 5 0.024662 -0.005208 0.007437 -0.004506 0.043278 -0.004971
# 6 0.007027 0.005209 -0.009278 0.002837 -0.004971 0.039325
#
#
# Mechanical properties :
#
#
# Convention : Reuss Voigt Hill
#
# Bulk Modulus (GPa) = 26.27407 55.31470 40.79439
# Shear Modulus (GPa) = 24.20298 39.75524 31.97911
#
# Velocity S-wave (km/s) = 3.34898 4.29216 3.84956
# Velocity P-wave (km/s) = 5.20861 7.08494 6.21796
#
# Compressibility (1/GPa) = 0.03806033
#
# Stress axis : x y z
#
# Youngs Moduli (GPa) = 28.87376 74.74134 59.29507
#
# Poissons Ratio (x) = 0.23786 0.14540
# Poissons Ratio (y) = 0.09189 0.46097
# Poissons Ratio (z) = 0.07080 0.58105
#
# Static dielectric constant tensor:
#      x y z
#    x 1.826930 -0.018520 0.013210 
#    y -0.018520 1.725390 0.021890 
#    z 0.013210 0.021890 1.775340 
# 
# From -- ./inp_files/566746.got.cif
#   From: 2010.05.17/outbox.cif.g08.bks.cpg/sg2_284_cif.got.tgz:566746.got - 2010.06.03 11:33:40.
