data_PCOD9064776
_publ_section_title
;
Structure prediction by ZEFSAII (Michael W. Deem and Ramdas Pophale) SiO2 
 PCOD9064776
Probable space group: P -1
;
_chemical_formula_sum "Si O2"
_cell_formula_units_Z 12
_cell_length_a 9.118606
_cell_length_b 7.637112
_cell_length_c 17.484172
_cell_angle_alpha 129.541566
_cell_angle_beta 148.388637
_cell_angle_gamma 64.942856
_cell_volume 470.480277
_symmetry_space_group_name_H-M "P -1"
_symmetry_group_IT_number 2
_symmetry_cell_setting 'triclinic'
loop_
_space_group_symop_operation_xyz
x,y,z
-x,-y,-z
loop_
_atom_site_type_symbol
_atom_site_label
_atom_site_fract_x
_atom_site_fract_y
_atom_site_fract_z
Si Si1 0.670302 0.961391 0.641777
Si Si2 0.932014 0.775710 0.966476
Si Si3 0.318240 0.035552 0.619956
Si Si4 0.689443 0.346908 0.001092
Si Si5 0.308430 0.489006 0.665873
Si Si6 0.206951 0.789894 0.829688
O O1 0.421483 0.841625 0.563233
O O2 0.500000 0.000000 0.500000
O O3 0.903432 0.828291 0.678886
O O4 0.892799 0.148087 0.853798
O O5 0.588565 0.667972 0.800721
O O6 0.040626 0.566646 0.914421
O O7 0.000000 0.000000 0.000000
O O8 0.496210 0.138983 0.803661
O O9 0.357237 0.235627 0.627176
O O10 0.000000 0.000000 0.500000
O O11 0.500000 0.500000 0.000000
O O12 0.815270 0.245625 0.100746
O O13 0.280281 0.568784 0.762529
O O14 0.000000 0.500000 0.500000
O O15 0.500000 0.000000 0.000000
#
# Coordination Sequence:
#
# PCOD9064776 Si02
#       6
#     2   2   2   2   2   2
#     4  11  25  45  77 111 147 196 249 308 373 444
#     4  11  24  48  78 108 149 198 246 309 374 443
#     4  11  28  46  70 107 153 195 245 310 370 440
#     4  11  24  46  73 103 142 196 251 304 372 439
#     4  12  27  46  74 111 150 195 250 306 373 446
#     4  12  24  46  74 107 147 195 247 308 371 445
#
# _framework density 25.505852000000001
#
# number of rings (size 3 to 8) (size 9 to 14) (size 15 to 20)
#    0.000    0.667    5.000    1.000    9.333    4.000 
#    3.000    1.667    0.000    0.000    0.000    0.000 
#    0.000    0.000    0.000    0.000    0.000    0.000 
#
# Total GULP energy -66887.465442 kJ/mol
# GULP energy per Si atom -5573.955453 kJ/mol
# Density = 2.544780 g / cm^3
# Si number density = 25.505852 Si / 1000 Ang^3
#
#
#
# Elastic Constant Matrix: (Units=GPa)
#
#
# Indices 1 2 3 4 5 6 
#
# 1 208.0302 33.3522 66.0369 -6.5277 5.6545 -31.7596
# 2 33.3522 79.8745 42.1513 -27.9532 3.0283 2.2168
# 3 66.0369 42.1513 146.5614 -47.3208 16.8871 13.3635
# 4 -6.5277 -27.9532 -47.3208 40.5739 -5.5086 3.5906
# 5 5.6545 3.0283 16.8871 -5.5086 64.0661 -5.3809
# 6 -31.7596 2.2168 13.3635 3.5906 -5.3809 52.9083
#
#
#
# Elastic Compliance Matrix: (Units=1/GPa)
#
#
# Indices 1 2 3 4 5 6 
#
# 1 0.008228 -0.003465 -0.006437 -0.009095 0.000976 0.007426
# 2 -0.003465 0.018289 0.001082 0.013662 -0.000009 -0.004048
# 3 -0.006437 0.001082 0.017215 0.020245 -0.003115 -0.009948
# 4 -0.009095 0.013662 0.020245 0.057344 -0.001525 -0.015192
# 5 0.000976 -0.000009 -0.003115 -0.001525 0.016478 0.003152
# 6 0.007426 -0.004048 -0.009948 -0.015192 0.003152 0.027392
#
#
# Mechanical properties :
#
#
# Convention : Reuss Voigt Hill
#
# Bulk Modulus (GPa) = 38.32467 79.72744 59.02606
# Shear Modulus (GPa) = 29.19152 51.03802 40.11477
#
# Velocity S-wave (km/s) = 3.38672 4.47814 3.97012
# Velocity P-wave (km/s) = 5.50923 7.62002 6.64892
#
# Compressibility (1/GPa) = 0.02609285
#
# Stress axis : x y z
#
# Youngs Moduli (GPa) = 121.54096 54.67730 58.08998
#
# Poissons Ratio (x) = 0.18945 0.37392
# Poissons Ratio (y) = 0.42111 -0.06288
# Poissons Ratio (z) = 0.78236 -0.05919
#
# Static dielectric constant tensor:
#      x y z
#    x 2.029970 -0.066210 0.074280 
#    y -0.066210 2.075280 -0.016550 
#    z 0.074280 -0.016550 2.128900 
# 
# From -- ./inp_files/554653.got.cif
#   From: 2010.05.17/outbox.cif.g08.bks.cpg/sg2_278_cif.got.tgz:554653.got - 2010.06.03 11:33:40.
