data_PCOD9064077
_publ_section_title
;
Structure prediction by ZEFSAII (Michael W. Deem and Ramdas Pophale) SiO2 
 PCOD9064077
Probable space group: P -1
;
_chemical_formula_sum "Si O2"
_cell_formula_units_Z 16
_cell_length_a 5.576587
_cell_length_b 13.978512
_cell_length_c 23.496337
_cell_angle_alpha 158.122460
_cell_angle_beta 84.639258
_cell_angle_gamma 92.849349
_cell_volume 676.125878
_symmetry_space_group_name_H-M "P -1"
_symmetry_group_IT_number 2
_symmetry_cell_setting 'triclinic'
loop_
_space_group_symop_operation_xyz
x,y,z
-x,-y,-z
loop_
_atom_site_type_symbol
_atom_site_label
_atom_site_fract_x
_atom_site_fract_y
_atom_site_fract_z
Si Si1 0.763080 0.954071 0.939078
Si Si2 0.824154 0.294292 0.369918
Si Si3 0.296639 0.562967 0.200918
Si Si4 0.421414 0.195583 0.387683
Si Si5 0.315810 0.593998 0.347259
Si Si6 0.600043 0.333282 0.960097
Si Si7 0.783018 0.866271 0.523665
Si Si8 0.940255 0.218023 0.975566
O O1 0.772118 0.654008 0.756760
O O2 0.763769 0.110035 0.966471
O O3 0.500000 0.000000 0.000000
O O4 0.000000 0.000000 0.000000
O O5 0.711072 0.189375 0.372834
O O6 0.648620 0.498431 0.449890
O O7 0.000000 0.500000 0.500000
O O8 0.905497 0.046632 0.193533
O O9 0.373518 0.520338 0.240106
O O10 0.281804 0.865817 0.358541
O O11 0.441493 0.426716 0.069769
O O12 0.048375 0.437183 0.130742
O O13 0.272022 0.097798 0.388619
O O14 0.387018 0.976757 0.220049
O O15 0.568374 0.685710 0.413967
O O16 0.066090 0.784022 0.459919
O O17 0.862337 0.358627 0.995197
O O18 0.500000 0.500000 0.000000
#
# Coordination Sequence:
#
# PCOD9064077 Si02
#       8
#     2   2   2   2   2   2   2   2
#     4  12  26  49  80 114 154 195 260 327 388 466
#     4  11  24  45  70 107 149 193 254 321 393 463
#     4  12  27  49  75 111 154 201 262 312 392 462
#     4  11  25  46  73 109 150 198 260 319 393 466
#     4  12  28  51  77 114 154 206 261 318 391 458
#     4  12  26  48  73 111 151 201 257 323 385 466
#     4  12  29  48  78 108 158 208 258 318 380 467
#     4  12  27  45  81 110 154 205 252 330 396 465
#
# _framework density 23.664234
#
# number of rings (size 3 to 8) (size 9 to 14) (size 15 to 20)
#    0.000    0.250    5.000    3.000    7.000    0.500 
#    0.000    0.000    0.000    0.000    0.000    0.000 
#    0.000    0.000    0.000    0.000    0.000    0.000 
#
# Total GULP energy -89110.040617 kJ/mol
# GULP energy per Si atom -5569.377539 kJ/mol
# Density = 2.361037 g / cm^3
# Si number density = 23.664234 Si / 1000 Ang^3
#
#
#
# Elastic Constant Matrix: (Units=GPa)
#
#
# Indices 1 2 3 4 5 6 
#
# 1 3.3735 -81.7612 -36.6114 -11.4886 -68.6916 31.3771
# 2 -81.7612 -64.3102 -87.8989 7.9817 -107.4169 52.9519
# 3 -36.6114 -87.8989 -0.3376 5.2366 -41.2321 23.8767
# 4 -11.4886 7.9817 5.2366 41.2661 8.2589 -6.4701
# 5 -68.6916 -107.4169 -41.2321 8.2589 -38.0060 21.8739
# 6 31.3771 52.9519 23.8767 -6.4701 21.8739 22.7336
#
#
#
# Elastic Compliance Matrix: (Units=1/GPa)
#
#
# Indices 1 2 3 4 5 6 
#
# 1 0.019443 -0.007113 -0.011310 0.008538 0.000909 0.003166
# 2 -0.007113 0.007268 0.001247 -0.001659 -0.009342 0.000097
# 3 -0.011310 0.001247 0.031060 -0.003912 -0.019135 -0.002617
# 4 0.008538 -0.001659 -0.003912 0.027647 0.001187 0.002915
# 5 0.000909 -0.009342 -0.019135 0.001187 0.027694 0.014294
# 6 0.003166 0.000097 -0.002617 0.002915 0.014294 0.029218
#
#
# Mechanical properties :
#
#
# Convention : Reuss Voigt Hill
#
# Bulk Modulus (GPa) = 42.70102 -52.64638 -4.97268
# Shear Modulus (GPa) = 27.10206 14.86521 20.98363
#
# Velocity S-wave (km/s) = 3.38786 2.50905 2.98102
# Velocity P-wave (km/s) = 5.77817 3.72850 3.12134
#
# Compressibility (1/GPa) = 0.02341864
#
# Stress axis : x y z
#
# Youngs Moduli (GPa) = 51.43237 137.59692 32.19586
#
# Poissons Ratio (x) = 0.97869 0.36413
# Poissons Ratio (y) = 0.36582 -0.04014
# Poissons Ratio (z) = 0.58169 -0.17153
#
# Static dielectric constant tensor:
#      x y z
#    x 2.258360 -0.055070 -0.183180 
#    y -0.055070 1.923480 0.074730 
#    z -0.183180 0.074730 1.905710 
# 
# From -- ./inp_files/604780.got.cif
#   From: 2010.05.17/outbox.cif.g08.bks.cpg/sg2_303_cif.got.tgz:604780.got - 2010.06.03 11:33:40.
