data_PCOD9064530
_publ_section_title
;
Structure prediction by ZEFSAII (Michael W. Deem and Ramdas Pophale) SiO2 
 PCOD9064530
Probable space group: P -1
;
_chemical_formula_sum "Si O2"
_cell_formula_units_Z 14
_cell_length_a 18.007256
_cell_length_b 15.605036
_cell_length_c 5.214028
_cell_angle_alpha 112.020660
_cell_angle_beta 55.303497
_cell_angle_gamma 149.424889
_cell_volume 589.071731
_symmetry_space_group_name_H-M "P -1"
_symmetry_group_IT_number 2
_symmetry_cell_setting 'triclinic'
loop_
_space_group_symop_operation_xyz
x,y,z
-x,-y,-z
loop_
_atom_site_type_symbol
_atom_site_label
_atom_site_fract_x
_atom_site_fract_y
_atom_site_fract_z
Si Si1 0.402410 0.602468 0.967080
Si Si2 0.386536 0.899243 0.858791
Si Si3 0.531431 0.622018 0.234398
Si Si4 0.901701 0.004082 0.795655
Si Si5 0.958804 0.713185 0.904253
Si Si6 0.075695 0.516187 0.113735
Si Si7 0.271147 0.998043 0.252909
O O1 0.454977 0.570752 0.612159
O O2 0.533844 0.799485 0.861074
O O3 0.443840 0.616161 0.196751
O O4 0.200038 0.440411 0.147297
O O5 0.500000 0.000000 0.500000
O O6 0.274097 0.711040 0.909738
O O7 0.275236 0.895590 0.043567
O O8 0.500000 0.000000 0.000000
O O9 0.500000 0.500000 0.000000
O O10 0.734891 0.821902 0.073469
O O11 0.818124 0.002172 0.750870
O O12 0.000000 0.000000 0.500000
O O13 0.050646 0.195169 0.845809
O O14 0.955856 0.619717 0.976020
O O15 0.149131 0.886383 0.611472
O O16 0.000000 0.500000 0.500000
O O17 0.000000 0.500000 0.000000
#
# Coordination Sequence:
#
# PCOD9064530 Si02
#       7
#     2   2   2   2   2   2   2
#     4  11  26  44  71 104 141 195 244 302 374 439
#     4  12  27  48  79 112 152 198 252 312 389 460
#     4  11  24  46  68 102 147 186 251 314 361 433
#     4  11  26  46  75 108 152 204 253 311 375 445
#     4  12  26  46  78 104 153 199 254 310 382 451
#     4  12  26  46  74 109 148 193 248 312 383 451
#     4  11  26  49  73 109 156 197 250 319 373 454
#
# _framework density 23.766206
#
# number of rings (size 3 to 8) (size 9 to 14) (size 15 to 20)
#    0.000    0.571    2.857    3.857    6.000    4.000 
#    0.000    0.000    0.000    0.000    0.000    0.000 
#    0.000    0.000    0.000    0.000    0.000    0.000 
#
# Total GULP energy -78258.809468 kJ/mol
# GULP energy per Si atom -5589.914962 kJ/mol
# Density = 2.371211 g / cm^3
# Si number density = 23.766206 Si / 1000 Ang^3
#
#
#
# Elastic Constant Matrix: (Units=GPa)
#
#
# Indices 1 2 3 4 5 6 
#
# 1 76.4964 8.9448 13.1677 -4.4432 -3.2138 10.1232
# 2 8.9448 149.2255 -7.7602 -14.0327 0.6275 -2.1676
# 3 13.1677 -7.7602 76.8597 8.7538 11.1097 -15.5554
# 4 -4.4432 -14.0327 8.7538 20.8408 -7.5022 -2.0771
# 5 -3.2138 0.6275 11.1097 -7.5022 37.6742 8.6922
# 6 10.1232 -2.1676 -15.5554 -2.0771 8.6922 49.3686
#
#
#
# Elastic Compliance Matrix: (Units=1/GPa)
#
#
# Indices 1 2 3 4 5 6 
#
# 1 0.015427 -0.000697 -0.005378 0.006501 0.005496 -0.005583
# 2 -0.000697 0.007223 0.000366 0.004814 0.000512 0.000688
# 3 -0.005378 0.000366 0.018383 -0.011423 -0.010052 0.008200
# 4 0.006501 0.004814 -0.011423 0.063239 0.017627 -0.005164
# 5 0.005496 0.000512 -0.010052 0.017627 0.035745 -0.009824
# 6 -0.005583 0.000688 0.008200 -0.005164 -0.009824 0.025527
#
#
# Mechanical properties :
#
#
# Convention : Reuss Voigt Hill
#
# Bulk Modulus (GPa) = 33.76938 36.80958 35.28948
# Shear Modulus (GPa) = 26.76175 40.79201 33.77688
#
# Velocity S-wave (km/s) = 3.35930 4.14742 3.77399
# Velocity P-wave (km/s) = 5.41168 6.20134 5.81992
#
# Compressibility (1/GPa) = 0.02961262
#
# Stress axis : x y z
#
# Youngs Moduli (GPa) = 64.82108 138.45435 54.39901
#
# Poissons Ratio (x) = 0.09655 0.29256
# Poissons Ratio (y) = 0.04520 -0.01988
# Poissons Ratio (z) = 0.34861 -0.05061
#
# Static dielectric constant tensor:
#      x y z
#    x 1.889690 -0.006830 -0.015820 
#    y -0.006830 1.936110 0.054970 
#    z -0.015820 0.054970 1.911460 
# 
# From -- ./inp_files/37100.got.cif
#   From: 2010.05.17/outbox.cif.g08.bks.cpg/sg2_19_cif.got.tgz:37100.got - 2010.06.03 11:33:40.
