data_PCOD9064126
_publ_section_title
;
Structure prediction by ZEFSAII (Michael W. Deem and Ramdas Pophale) SiO2 
 PCOD9064126
Probable space group: P -1
;
_chemical_formula_sum "Si O2"
_cell_formula_units_Z 13
_cell_length_a 12.328286
_cell_length_b 7.788500
_cell_length_c 11.145098
_cell_angle_alpha 58.544705
_cell_angle_beta 46.331443
_cell_angle_gamma 35.829570
_cell_volume 451.301714
_symmetry_space_group_name_H-M "P -1"
_symmetry_group_IT_number 2
_symmetry_cell_setting 'triclinic'
loop_
_space_group_symop_operation_xyz
x,y,z
-x,-y,-z
loop_
_atom_site_type_symbol
_atom_site_label
_atom_site_fract_x
_atom_site_fract_y
_atom_site_fract_z
Si Si1 0.458538 0.196713 0.329857
Si Si2 0.267023 0.746645 0.514814
Si Si3 0.290892 0.903751 0.173810
Si Si4 0.500000 0.500000 0.000000
Si Si5 0.757949 0.563373 0.960549
Si Si6 0.820245 0.865810 0.363641
Si Si7 0.809569 0.548633 0.184430
O O1 0.424991 0.412647 0.192345
O O2 0.232081 0.311459 0.494307
O O3 0.596140 0.131352 0.364260
O O4 0.611609 0.880272 0.262445
O O5 0.500000 0.500000 0.500000
O O6 0.261312 0.819211 0.353838
O O7 0.142496 0.657181 0.671150
O O8 0.153980 0.030987 0.575197
O O9 0.240414 0.878552 0.087694
O O10 0.272884 0.162689 0.117996
O O11 0.561145 0.628817 0.027731
O O12 0.982704 0.304962 0.816624
O O13 0.738656 0.508600 0.131633
O O14 0.000000 0.500000 0.000000
#
# Coordination Sequence:
#
# PCOD9064126 Si02
#       7
#     2   2   2   1   2   2   2
#     4  11  24  45  71 103 144 183 235 296 353 416
#     4  12  24  46  73 103 141 188 236 289 354 422
#     4  11  26  47  71 100 144 186 234 298 351 417
#     4  12  26  44  72 102 136 190 232 294 360 412
#     4  11  24  46  70 104 143 186 236 290 353 419
#     4  11  25  45  75 105 139 189 237 290 352 428
#     4  12  24  46  72 103 144 186 236 293 350 420
#
# _framework density 28.805561000000001
#
# number of rings (size 3 to 8) (size 9 to 14) (size 15 to 20)
#    0.000    0.615    6.154    0.923    4.308    2.462 
#    2.769    1.538    0.000    0.000    0.000    0.000 
#    0.000    0.000    0.000    0.000    0.000    0.000 
#
# Total GULP energy -72722.644703 kJ/mol
# GULP energy per Si atom -5594.049593 kJ/mol
# Density = 2.874000 g / cm^3
# Si number density = 28.805561 Si / 1000 Ang^3
#
#
#
# Elastic Constant Matrix: (Units=GPa)
#
#
# Indices 1 2 3 4 5 6 
#
# 1 121.4281 11.5864 48.0680 2.5499 32.7299 25.7920
# 2 11.5864 57.8348 22.8327 -22.8401 29.8163 14.4713
# 3 48.0680 22.8327 194.2377 -35.5643 41.2208 11.1966
# 4 2.5499 -22.8401 -35.5643 77.5055 11.8543 7.5085
# 5 32.7299 29.8163 41.2208 11.8543 66.6278 14.6782
# 6 25.7920 14.4713 11.1966 7.5085 14.6782 42.2089
#
#
#
# Elastic Compliance Matrix: (Units=1/GPa)
#
#
# Indices 1 2 3 4 5 6 
#
# 1 0.011033 0.002507 -0.001586 0.000889 -0.004443 -0.005794
# 2 0.002507 0.033480 0.002585 0.014726 -0.018236 -0.009974
# 3 -0.001586 0.002585 0.007450 0.005189 -0.005729 -0.000825
# 4 0.000889 0.014726 0.005189 0.022172 -0.012754 -0.006477
# 5 -0.004443 -0.018236 -0.005729 -0.012754 0.030708 0.002077
# 6 -0.005794 -0.009974 -0.000825 -0.006477 0.002077 0.031301
#
#
# Mechanical properties :
#
#
# Convention : Reuss Voigt Hill
#
# Bulk Modulus (GPa) = 16.95585 59.83055 38.39320
# Shear Modulus (GPa) = 33.60444 56.66934 45.13689
#
# Velocity S-wave (km/s) = 3.41925 4.44024 3.96277
# Velocity P-wave (km/s) = 4.63546 6.86318 5.85622
#
# Compressibility (1/GPa) = 0.05897670
#
# Stress axis : x y z
#
# Youngs Moduli (GPa) = 90.63518 29.86816 134.22633
#
# Poissons Ratio (x) = -0.07487 0.21282
# Poissons Ratio (y) = -0.22720 -0.34700
# Poissons Ratio (z) = 0.14370 -0.07722
#
# Static dielectric constant tensor:
#      x y z
#    x 2.501580 -0.188780 -0.127850 
#    y -0.188780 2.834530 0.240000 
#    z -0.127850 0.240000 2.181430 
# 
# From -- ./inp_files/173992.got.cif
#   From: 2010.05.17/outbox.cif.g08.bks.cpg/sg2_87_cif.got.tgz:173992.got - 2010.06.03 11:33:40.
