data_PCOD9064032
_publ_section_title
;
Structure prediction by ZEFSAII (Michael W. Deem and Ramdas Pophale) SiO2 
 PCOD9064032
Probable space group: P -1
;
_chemical_formula_sum "Si O2"
_cell_formula_units_Z 14
_cell_length_a 21.105243
_cell_length_b 9.697329
_cell_length_c 8.686528
_cell_angle_alpha 62.342191
_cell_angle_beta 29.894853
_cell_angle_gamma 51.572234
_cell_volume 681.351362
_symmetry_space_group_name_H-M "P -1"
_symmetry_group_IT_number 2
_symmetry_cell_setting 'triclinic'
loop_
_space_group_symop_operation_xyz
x,y,z
-x,-y,-z
loop_
_atom_site_type_symbol
_atom_site_label
_atom_site_fract_x
_atom_site_fract_y
_atom_site_fract_z
Si Si1 0.655175 0.855687 0.311646
Si Si2 0.794958 0.448782 0.122958
Si Si3 0.803534 0.064845 0.755679
Si Si4 0.393879 0.188913 0.203437
Si Si5 0.104862 0.734433 0.311808
Si Si6 0.942201 0.553257 0.270009
Si Si7 0.396470 0.677744 0.220201
O O1 0.712394 0.663501 0.209873
O O2 0.636274 0.831152 0.543731
O O3 0.500000 0.000000 0.500000
O O4 0.752337 0.946721 0.021645
O O5 0.712328 0.363152 0.432180
O O6 0.808153 0.387843 0.951422
O O7 0.954703 0.386255 0.891699
O O8 0.804792 0.215074 0.785165
O O9 0.699260 0.159691 0.780659
O O10 0.971748 0.923303 0.432677
O O11 0.229165 0.300922 0.428434
O O12 0.489827 0.287202 0.941964
O O13 0.500000 0.000000 0.000000
O O14 0.042615 0.623998 0.591375
O O15 0.000000 0.500000 0.000000
O O16 0.500000 0.500000 0.000000
#
# Coordination Sequence:
#
# PCOD9064032 Si02
#       7
#     2   2   2   2   2   2   2
#     4  12  24  46  71 101 140 186 228 291 354 418
#     4  12  26  44  75 103 138 186 240 287 353 416
#     4  11  24  45  69  99 140 176 235 287 354 414
#     4  12  28  43  72 105 144 183 236 288 357 419
#     4  11  26  42  72 104 134 179 236 297 345 410
#     4  12  23  48  73 100 142 188 236 285 353 424
#     4  12  24  49  67 101 141 187 224 290 357 422
#
# _framework density 20.5474
#
# number of rings (size 3 to 8) (size 9 to 14) (size 15 to 20)
#    0.000    0.286    5.714    2.143    6.000    1.714 
#    0.000    2.143    0.000    0.000    0.000    0.000 
#    0.000    0.000    0.000    0.000    0.000    0.000 
#
# Total GULP energy -78277.557135 kJ/mol
# GULP energy per Si atom -5591.254081 kJ/mol
# Density = 2.050063 g / cm^3
# Si number density = 20.547400 Si / 1000 Ang^3
#
#
#
# Elastic Constant Matrix: (Units=GPa)
#
#
# Indices 1 2 3 4 5 6 
#
# 1 41.0349 29.2320 56.8781 8.7344 0.7404 5.6023
# 2 29.2320 95.3916 69.6466 3.8639 3.3984 11.3728
# 3 56.8781 69.6466 134.8744 -13.3548 -11.9171 11.7839
# 4 8.7344 3.8639 -13.3548 58.0637 -3.3618 -5.4022
# 5 0.7404 3.3984 -11.9171 -3.3618 49.9176 7.9604
# 6 5.6023 11.3728 11.7839 -5.4022 7.9604 47.1202
#
#
#
# Elastic Compliance Matrix: (Units=1/GPa)
#
#
# Indices 1 2 3 4 5 6 
#
# 1 0.082866 0.006649 -0.041709 -0.023393 -0.012973 -0.001517
# 2 0.006649 0.018800 -0.013330 -0.005760 -0.004651 -0.001869
# 3 -0.041709 -0.013330 0.034441 0.015668 0.010880 -0.000479
# 4 -0.023393 -0.005760 0.015668 0.025268 0.005836 0.002164
# 5 -0.012973 -0.004651 0.010880 0.005836 0.024084 -0.003456
# 6 -0.001517 -0.001869 -0.000479 0.002164 -0.003456 0.022805
#
#
# Mechanical properties :
#
#
# Convention : Reuss Voigt Hill
#
# Bulk Modulus (GPa) = 25.42745 64.75713 45.09229
# Shear Modulus (GPa) = 15.71576 38.72324 27.21950
#
# Velocity S-wave (km/s) = 2.76860 4.34589 3.64362
# Velocity P-wave (km/s) = 4.75627 7.53437 6.30035
#
# Compressibility (1/GPa) = 0.03932757
#
# Stress axis : x y z
#
# Youngs Moduli (GPa) = 12.06771 53.19259 29.03485
#
# Poissons Ratio (x) = -0.35370 1.21102
# Poissons Ratio (y) = -0.08024 0.38703
# Poissons Ratio (z) = 0.50333 0.70905
#
# Static dielectric constant tensor:
#      x y z
#    x 1.591160 -0.067710 -0.084020 
#    y -0.067710 1.646430 0.006540 
#    z -0.084020 0.006540 1.725600 
# 
# From -- ./inp_files/186311.got.cif
#   From: 2010.05.17/outbox.cif.g08.bks.cpg/sg2_94_cif.got.tgz:186311.got - 2010.06.03 11:33:40.
