data_PCOD9064255
_publ_section_title
;
Structure prediction by ZEFSAII (Michael W. Deem and Ramdas Pophale) SiO2 
 PCOD9064255
Probable space group: P -1
;
_chemical_formula_sum "Si O2"
_cell_formula_units_Z 16
_cell_length_a 9.475797
_cell_length_b 8.200758
_cell_length_c 21.163049
_cell_angle_alpha 117.196450
_cell_angle_beta 134.422793
_cell_angle_gamma 97.331629
_cell_volume 741.423163
_symmetry_space_group_name_H-M "P -1"
_symmetry_group_IT_number 2
_symmetry_cell_setting 'triclinic'
loop_
_space_group_symop_operation_xyz
x,y,z
-x,-y,-z
loop_
_atom_site_type_symbol
_atom_site_label
_atom_site_fract_x
_atom_site_fract_y
_atom_site_fract_z
Si Si1 0.748411 0.487655 0.202902
Si Si2 0.359441 0.552490 0.512662
Si Si3 0.722756 0.152450 0.236520
Si Si4 0.785612 0.409961 0.056634
Si Si5 0.698960 0.456560 0.790001
Si Si6 0.609879 0.790745 0.769605
Si Si7 0.650355 0.062294 0.490945
Si Si8 0.812214 0.649456 0.985868
O O1 0.731266 0.285894 0.200255
O O2 0.799584 0.491679 0.145749
O O3 0.455881 0.397458 0.100867
O O4 0.023125 0.767010 0.365693
O O5 0.500000 0.500000 0.500000
O O6 0.507365 0.661862 0.645752
O O7 0.369647 0.760164 0.521500
O O8 0.034235 0.294703 0.374480
O O9 0.589359 0.189517 0.256691
O O10 0.521399 0.852560 0.105479
O O11 0.992198 0.372394 0.110287
O O12 0.883766 0.616942 0.071123
O O13 0.611713 0.608900 0.779990
O O14 0.722196 0.436384 0.868725
O O15 0.500867 0.192372 0.642257
O O16 0.918938 0.073956 0.909044
O O17 0.500000 0.000000 0.500000
#
# Coordination Sequence:
#
# PCOD9064255 Si02
#       8
#     2   2   2   2   2   2   2   2
#     4  11  25  46  68 104 139 183 232 284 353 410
#     4  11  27  45  72 106 137 184 233 284 351 411
#     4  11  25  47  69 103 140 184 229 284 348 419
#     4  12  25  42  74 101 143 178 234 296 340 412
#     4  12  24  45  72 101 138 189 228 282 351 410
#     4  12  25  46  72  98 146 183 233 285 343 424
#     4  11  24  45  72  99 144 178 229 288 344 413
#     4  12  26  44  71 107 137 184 235 286 353 405
#
# _framework density 21.580117000000001
#
# number of rings (size 3 to 8) (size 9 to 14) (size 15 to 20)
#    0.000    0.500    3.750    4.125    5.250    2.500 
#    0.000    0.000    0.000    0.000    0.000    0.000 
#    0.000    0.000    0.000    0.000    0.000    0.000 
#
# Total GULP energy -89573.253877 kJ/mol
# GULP energy per Si atom -5598.328367 kJ/mol
# Density = 2.153100 g / cm^3
# Si number density = 21.580117 Si / 1000 Ang^3
#
#
#
# Elastic Constant Matrix: (Units=GPa)
#
#
# Indices 1 2 3 4 5 6 
#
# 1 116.3602 15.7785 47.6900 -21.2143 -3.9005 12.2991
# 2 15.7785 39.2966 3.5043 -1.7465 -10.3734 11.3314
# 3 47.6900 3.5043 108.7488 -3.1896 -2.7249 -1.6035
# 4 -21.2143 -1.7465 -3.1896 33.9118 5.0409 -2.6636
# 5 -3.9005 -10.3734 -2.7249 5.0409 49.1059 -12.3942
# 6 12.2991 11.3314 -1.6035 -2.6636 -12.3942 29.9238
#
#
#
# Elastic Compliance Matrix: (Units=1/GPa)
#
#
# Indices 1 2 3 4 5 6 
#
# 1 0.013118 -0.003673 -0.005530 0.007435 -0.001923 -0.004432
# 2 -0.003673 0.030314 0.000559 -0.001970 0.004235 -0.008361
# 3 -0.005530 0.000559 0.011613 -0.002297 0.001323 0.003027
# 4 0.007435 -0.001970 -0.002297 0.034301 -0.003705 -0.000914
# 5 -0.001923 0.004235 0.001323 -0.003705 0.023775 0.008775
# 6 -0.004432 -0.008361 0.003027 -0.000914 0.008775 0.042121
#
#
# Mechanical properties :
#
#
# Convention : Reuss Voigt Hill
#
# Bulk Modulus (GPa) = 26.48540 44.26124 35.37332
# Shear Modulus (GPa) = 27.01041 35.75046 31.38044
#
# Velocity S-wave (km/s) = 3.54168 4.07460 3.81745
# Velocity P-wave (km/s) = 5.38743 6.53385 5.98814
#
# Compressibility (1/GPa) = 0.03775665
#
# Stress axis : x y z
#
# Youngs Moduli (GPa) = 76.23198 32.98839 86.11136
#
# Poissons Ratio (x) = 0.12117 0.47617
# Poissons Ratio (y) = 0.28002 -0.04814
# Poissons Ratio (z) = 0.42154 -0.01844
#
# Static dielectric constant tensor:
#      x y z
#    x 1.770130 0.002450 0.008200 
#    y 0.002450 1.801350 -0.007680 
#    z 0.008200 -0.007680 1.769170 
# 
# From -- ./inp_files/223811.got.cif
#   From: 2010.05.17/outbox.cif.g08.bks.cpg/sg2_112_cif.got.tgz:223811.got - 2010.06.03 11:33:40.
