data_PCOD9064003
_publ_section_title
;
Structure prediction by ZEFSAII (Michael W. Deem and Ramdas Pophale) SiO2 
 PCOD9064003
Probable space group: P -1
;
_chemical_formula_sum "Si O2"
_cell_formula_units_Z 16
_cell_length_a 6.999944
_cell_length_b 10.209548
_cell_length_c 12.104469
_cell_angle_alpha 93.939895
_cell_angle_beta 50.740378
_cell_angle_gamma 93.116133
_cell_volume 668.155864
_symmetry_space_group_name_H-M "P -1"
_symmetry_group_IT_number 2
_symmetry_cell_setting 'triclinic'
loop_
_space_group_symop_operation_xyz
x,y,z
-x,-y,-z
loop_
_atom_site_type_symbol
_atom_site_label
_atom_site_fract_x
_atom_site_fract_y
_atom_site_fract_z
Si Si1 0.892361 0.082939 0.710809
Si Si2 0.058672 0.992973 0.848967
Si Si3 0.277148 0.371658 0.839890
Si Si4 0.600289 0.818621 0.019473
Si Si5 0.460939 0.807295 0.701300
Si Si6 0.288993 0.644323 0.949129
Si Si7 0.423723 0.642709 0.489858
Si Si8 0.015638 0.810483 0.552301
O O1 0.602206 0.080199 0.851865
O O2 0.909100 0.178906 0.604469
O O3 0.016243 0.111930 0.786855
O O4 0.045922 0.955900 0.604000
O O5 0.336403 0.945691 0.734754
O O6 0.842988 0.888763 0.883856
O O7 0.000000 0.000000 0.000000
O O8 0.306350 0.262490 0.915336
O O9 0.387449 0.505284 0.862182
O O10 0.425510 0.338729 0.675266
O O11 0.990397 0.388561 0.914369
O O12 0.454565 0.722048 0.982451
O O13 0.277531 0.732218 0.847625
O O14 0.489713 0.739399 0.570160
O O15 0.722256 0.799029 0.662332
O O16 0.500000 0.500000 0.500000
O O17 0.149806 0.691447 0.557692
#
# Coordination Sequence:
#
# PCOD9064003 Si02
#       8
#     2   2   2   2   2   2   2   2
#     4  11  24  45  69 103 147 189 237 297 360 433
#     4  12  25  44  73 107 147 195 242 297 360 431
#     4  11  25  47  72 105 140 189 244 299 360 430
#     4  12  24  44  73 103 147 188 242 297 361 429
#     4  12  25  45  72 105 143 190 240 297 360 430
#     4  11  25  46  73 105 141 186 246 301 359 426
#     4  12  26  49  74 102 143 186 243 300 364 437
#     4  11  26  47  70 104 145 188 239 296 364 436
#
# _framework density 23.946507
#
# number of rings (size 3 to 8) (size 9 to 14) (size 15 to 20)
#    0.000    0.500    5.000    3.000    1.750    1.000 
#    2.250    0.000    0.000    0.000    0.000    0.000 
#    0.000    0.000    0.000    0.000    0.000    0.000 
#
# Total GULP energy -89403.031492 kJ/mol
# GULP energy per Si atom -5587.689468 kJ/mol
# Density = 2.389200 g / cm^3
# Si number density = 23.946507 Si / 1000 Ang^3
#
#
#
# Elastic Constant Matrix: (Units=GPa)
#
#
# Indices 1 2 3 4 5 6 
#
# 1 139.4839 49.3018 37.8726 14.2516 2.9842 -12.0332
# 2 49.3018 64.9384 3.3536 2.7926 8.5484 -14.7158
# 3 37.8726 3.3536 90.2360 9.7017 14.0932 11.2036
# 4 14.2516 2.7926 9.7017 28.3181 -4.2627 6.5693
# 5 2.9842 8.5484 14.0932 -4.2627 51.8589 0.3676
# 6 -12.0332 -14.7158 11.2036 6.5693 0.3676 48.6689
#
#
#
# Elastic Compliance Matrix: (Units=1/GPa)
#
#
# Indices 1 2 3 4 5 6 
#
# 1 0.011992 -0.008460 -0.004829 -0.003759 0.001694 0.002013
# 2 -0.008460 0.023255 0.002871 -0.000674 -0.004213 0.004402
# 3 -0.004829 0.002871 0.014362 -0.002668 -0.004295 -0.003240
# 4 -0.003759 -0.000674 -0.002668 0.040236 0.004402 -0.005983
# 5 0.001694 -0.004213 -0.004295 0.004402 0.021414 -0.000623
# 6 0.002013 0.004402 -0.003240 -0.005983 -0.000623 0.023934
#
#
# Mechanical properties :
#
#
# Convention : Reuss Voigt Hill
#
# Bulk Modulus (GPa) = 34.75634 52.85715 43.80675
# Shear Modulus (GPa) = 30.18925 39.37787 34.78356
#
# Velocity S-wave (km/s) = 3.55448 4.05953 3.81537
# Velocity P-wave (km/s) = 5.60281 6.64033 6.14351
#
# Compressibility (1/GPa) = 0.02877173
#
# Stress axis : x y z
#
# Youngs Moduli (GPa) = 83.38596 43.00083 69.62792
#
# Poissons Ratio (x) = 0.36381 0.33625
# Poissons Ratio (y) = 0.70549 -0.19988
# Poissons Ratio (z) = 0.40269 -0.12344
#
# Static dielectric constant tensor:
#      x y z
#    x 1.952520 0.029480 0.009920 
#    y 0.029480 1.994130 0.013880 
#    z 0.009920 0.013880 1.888200 
# 
# From -- ./inp_files/68648.got.cif
#   From: 2010.05.17/outbox.cif.g08.bks.cpg/sg2_35_cif.got.tgz:68648.got - 2010.06.03 11:33:40.
