data_PCOD9064985
_publ_section_title
;
Structure prediction by ZEFSAII (Michael W. Deem and Ramdas Pophale) SiO2 
 PCOD9064985
Probable space group: P -1
;
_chemical_formula_sum "Si O2"
_cell_formula_units_Z 14
_cell_length_a 11.824833
_cell_length_b 8.677794
_cell_length_c 11.712798
_cell_angle_alpha 36.910041
_cell_angle_beta 131.238957
_cell_angle_gamma 122.022536
_cell_volume 542.762311
_symmetry_space_group_name_H-M "P -1"
_symmetry_group_IT_number 2
_symmetry_cell_setting 'triclinic'
loop_
_space_group_symop_operation_xyz
x,y,z
-x,-y,-z
loop_
_atom_site_type_symbol
_atom_site_label
_atom_site_fract_x
_atom_site_fract_y
_atom_site_fract_z
Si Si1 0.150459 0.045505 0.434647
Si Si2 0.890436 0.353032 0.161670
Si Si3 0.587142 0.758182 0.366639
Si Si4 0.660315 0.473530 0.375175
Si Si5 0.655064 0.748455 0.745166
Si Si6 0.350983 0.154035 0.046583
Si Si7 0.894692 0.219089 0.850078
O O1 0.253440 0.233981 0.468791
O O2 0.242743 0.046037 0.377858
O O3 0.983378 0.162473 0.255086
O O4 0.140886 0.790649 0.654582
O O5 0.000076 0.588076 0.125986
O O6 0.739944 0.478591 0.939201
O O7 0.500000 0.500000 0.500000
O O8 0.613821 0.721183 0.273032
O O9 0.505607 0.017763 0.195675
O O10 0.516265 0.281602 0.392736
O O11 0.801493 0.358729 0.604285
O O12 0.680863 0.586969 0.196349
O O13 0.655557 0.790421 0.855932
O O14 0.228436 0.934842 0.067771
O O15 0.000000 0.000000 0.000000
#
# Coordination Sequence:
#
# PCOD9064985 Si02
#       7
#     2   2   2   2   2   2   2
#     4  11  24  46  79 104 153 197 246 307 371 442
#     4  11  25  48  72 112 147 196 252 302 373 445
#     4  12  22  49  76 110 147 199 258 303 369 440
#     4  12  27  48  83 104 151 199 251 311 374 443
#     4  12  26  48  74 114 150 193 246 309 376 442
#     4  12  27  46  75 112 153 194 253 305 376 444
#     4  12  26  52  74 109 147 195 254 310 374 449
#
# _framework density 25.793980000000001
#
# number of rings (size 3 to 8) (size 9 to 14) (size 15 to 20)
#    0.000    0.286    5.714    2.143    0.000    5.143 
#    0.000    0.000    0.000    0.000    0.000    0.000 
#    0.000    0.000    0.000    0.000    0.000    0.000 
#
# Total GULP energy -78515.333741 kJ/mol
# GULP energy per Si atom -5608.238124 kJ/mol
# Density = 2.573527 g / cm^3
# Si number density = 25.793980 Si / 1000 Ang^3
#
#
#
# Elastic Constant Matrix: (Units=GPa)
#
#
# Indices 1 2 3 4 5 6 
#
# 1 124.4042 8.9944 62.1964 4.6403 -11.4542 -13.0215
# 2 8.9944 52.6785 -1.4277 11.5297 -8.8530 3.0912
# 3 62.1964 -1.4277 156.9312 -1.5374 -3.9147 8.1990
# 4 4.6403 11.5297 -1.5374 36.7967 0.4845 -5.4354
# 5 -11.4542 -8.8530 -3.9147 0.4845 58.1327 0.3264
# 6 -13.0215 3.0912 8.1990 -5.4354 0.3264 34.2841
#
#
#
# Elastic Compliance Matrix: (Units=1/GPa)
#
#
# Indices 1 2 3 4 5 6 
#
# 1 0.011297 -0.002086 -0.004750 -0.000167 0.001558 0.005574
# 2 -0.002086 0.021699 0.001251 -0.007146 0.003061 -0.004210
# 3 -0.004750 0.001251 0.008468 -0.000020 -0.000153 -0.003944
# 4 -0.000167 -0.007146 -0.000020 0.030251 -0.001405 0.005395
# 5 0.001558 0.003061 -0.000153 -0.001405 0.017977 -0.000041
# 6 0.005574 -0.004210 -0.003944 0.005395 -0.000041 0.033464
#
#
# Mechanical properties :
#
#
# Convention : Reuss Voigt Hill
#
# Bulk Modulus (GPa) = 33.01208 52.61555 42.81382
# Shear Modulus (GPa) = 34.62000 43.45941 39.03971
#
# Velocity S-wave (km/s) = 3.66754 4.10917 3.89462
# Velocity P-wave (km/s) = 5.54623 6.55411 6.07112
#
# Compressibility (1/GPa) = 0.03029194
#
# Stress axis : x y z
#
# Youngs Moduli (GPa) = 88.51721 46.08588 118.08681
#
# Poissons Ratio (x) = 0.09615 0.56096
# Poissons Ratio (y) = 0.18468 -0.14768
# Poissons Ratio (z) = 0.42049 -0.05763
#
# Static dielectric constant tensor:
#      x y z
#    x 2.197190 -0.022950 0.086390 
#    y -0.022950 1.987360 -0.016160 
#    z 0.086390 -0.016160 2.054500 
# 
# From -- ./inp_files/418791.got.cif
#   From: 2010.05.17/outbox.cif.g08.bks.cpg/sg2_210_cif.got.tgz:418791.got - 2010.06.03 11:33:40.
