data_PCOD9064098
_publ_section_title
;
Structure prediction by ZEFSAII (Michael W. Deem and Ramdas Pophale) SiO2 
 PCOD9064098
Probable space group: P -1
;
_chemical_formula_sum "Si O2"
_cell_formula_units_Z 14
_cell_length_a 12.964937
_cell_length_b 18.020823
_cell_length_c 9.577439
_cell_angle_alpha 43.818237
_cell_angle_beta 34.004940
_cell_angle_gamma 29.371570
_cell_volume 613.794501
_symmetry_space_group_name_H-M "P -1"
_symmetry_group_IT_number 2
_symmetry_cell_setting 'triclinic'
loop_
_space_group_symop_operation_xyz
x,y,z
-x,-y,-z
loop_
_atom_site_type_symbol
_atom_site_label
_atom_site_fract_x
_atom_site_fract_y
_atom_site_fract_z
Si Si1 0.791834 0.610295 0.458823
Si Si2 0.467637 0.088136 0.225411
Si Si3 0.673165 0.336276 0.094077
Si Si4 0.124251 0.422116 0.112894
Si Si5 0.288082 0.587216 0.741608
Si Si6 0.257135 0.140225 0.988630
Si Si7 0.851708 0.948220 0.219204
O O1 0.498188 0.698163 0.700875
O O2 0.759530 0.739489 0.242141
O O3 0.000000 0.500000 0.500000
O O4 0.896759 0.487602 0.386738
O O5 0.324263 0.246555 0.105891
O O6 0.262632 0.074643 0.492570
O O7 0.715751 0.955547 0.035529
O O8 0.585708 0.074511 0.259098
O O9 0.682299 0.360949 0.216015
O O10 0.500000 0.500000 0.000000
O O11 0.946993 0.210000 0.878605
O O12 0.255610 0.473692 0.962128
O O13 0.000000 0.500000 0.000000
O O14 0.500000 0.500000 0.500000
O O15 0.011598 0.745911 0.780371
O O16 0.500000 0.000000 0.000000
O O17 0.000000 0.000000 0.000000
#
# Coordination Sequence:
#
# PCOD9064098 Si02
#       7
#     2   2   2   2   2   2   2
#     4  11  25  43  73 101 139 190 240 297 368 437
#     4  11  24  45  71 102 148 181 238 301 363 430
#     4  12  24  43  70 107 141 182 246 303 357 438
#     4  11  24  45  70  99 139 194 235 285 370 437
#     4  11  25  46  70 103 144 193 246 300 359 439
#     4  11  24  47  72 102 143 194 241 298 374 439
#     4  11  26  43  71 109 143 184 235 300 370 423
#
# _framework density 22.808937
#
# number of rings (size 3 to 8) (size 9 to 14) (size 15 to 20)
#    0.000    0.857    1.429    6.000    8.000    1.143 
#    2.571    1.429    0.000    0.000    0.000    0.000 
#    0.000    0.000    0.000    0.000    0.000    0.000 
#
# Total GULP energy -78047.519767 kJ/mol
# GULP energy per Si atom -5574.822841 kJ/mol
# Density = 2.275702 g / cm^3
# Si number density = 22.808937 Si / 1000 Ang^3
#
#
#
# Elastic Constant Matrix: (Units=GPa)
#
#
# Indices 1 2 3 4 5 6 
#
# 1 87.7216 34.2964 18.2500 -7.0463 7.6020 -11.7570
# 2 34.2964 180.2993 51.0550 6.6326 9.5763 -7.4595
# 3 18.2500 51.0550 83.2571 18.7633 1.8103 -6.2701
# 4 -7.0463 6.6326 18.7633 46.6190 6.7173 9.4640
# 5 7.6020 9.5763 1.8103 6.7173 39.2371 -1.8095
# 6 -11.7570 -7.4595 -6.2701 9.4640 -1.8095 43.8832
#
#
#
# Elastic Compliance Matrix: (Units=1/GPa)
#
#
# Indices 1 2 3 4 5 6 
#
# 1 0.013331 -0.001772 -0.002322 0.003119 -0.002477 0.002164
# 2 -0.001772 0.007077 -0.004048 0.000545 -0.001291 -0.000021
# 3 -0.002322 -0.004048 0.016837 -0.007412 0.002058 0.002779
# 4 0.003119 0.000545 -0.007412 0.026833 -0.005272 -0.006135
# 5 -0.002477 -0.001291 0.002058 -0.005272 0.027166 0.001668
# 6 0.002164 -0.000021 0.002779 -0.006135 0.001668 0.025153
#
#
# Mechanical properties :
#
#
# Convention : Reuss Voigt Hill
#
# Bulk Modulus (GPa) = 47.70450 62.05343 54.87896
# Shear Modulus (GPa) = 35.79951 42.45965 39.12958
#
# Velocity S-wave (km/s) = 3.96604 4.31923 4.14640
# Velocity P-wave (km/s) = 6.47556 7.22075 6.85828
#
# Compressibility (1/GPa) = 0.02096238
#
# Stress axis : x y z
#
# Youngs Moduli (GPa) = 75.01474 141.29698 59.39274
#
# Poissons Ratio (x) = 0.25038 0.13789
# Poissons Ratio (y) = 0.13293 0.24041
# Poissons Ratio (z) = 0.17415 0.57194
#
# Static dielectric constant tensor:
#      x y z
#    x 1.967980 0.000650 -0.021970 
#    y 0.000650 1.844750 0.016360 
#    z -0.021970 0.016360 2.021570 
# 
# From -- ./inp_files/278931.got.cif
#   From: 2010.05.17/outbox.cif.g08.bks.cpg/sg2_140_cif.got.tgz:278931.got - 2010.06.03 11:33:40.
