data_PCOD9064783
_publ_section_title
;
Structure prediction by ZEFSAII (Michael W. Deem and Ramdas Pophale) SiO2 
 PCOD9064783
Probable space group: P -1
;
_chemical_formula_sum "Si O2"
_cell_formula_units_Z 14
_cell_length_a 6.241253
_cell_length_b 19.993749
_cell_length_c 6.214491
_cell_angle_alpha 66.690083
_cell_angle_beta 78.701233
_cell_angle_gamma 57.003357
_cell_volume 597.118730
_symmetry_space_group_name_H-M "P -1"
_symmetry_group_IT_number 2
_symmetry_cell_setting 'triclinic'
loop_
_space_group_symop_operation_xyz
x,y,z
-x,-y,-z
loop_
_atom_site_type_symbol
_atom_site_label
_atom_site_fract_x
_atom_site_fract_y
_atom_site_fract_z
Si Si1 0.275183 0.963160 0.382698
Si Si2 0.607360 0.170582 0.827668
Si Si3 0.764730 0.234893 0.076696
Si Si4 0.175280 0.629994 0.379301
Si Si5 0.364613 0.478872 0.246774
Si Si6 0.291596 0.127514 0.238245
Si Si7 0.674256 0.679365 0.626615
O O1 0.276918 0.910876 0.243610
O O2 0.512518 0.897988 0.571150
O O3 0.324112 0.040602 0.247660
O O4 0.000000 0.000000 0.500000
O O5 0.793586 0.166473 0.982258
O O6 0.509376 0.257468 0.605257
O O7 0.369889 0.172680 0.987842
O O8 0.790943 0.305902 0.857314
O O9 0.486289 0.277480 0.182687
O O10 0.991176 0.188868 0.264362
O O11 0.157718 0.564848 0.299500
O O12 0.421447 0.575903 0.547669
O O13 0.938036 0.673861 0.532733
O O14 0.271744 0.416186 0.267415
O O15 0.500000 0.500000 0.000000
#
# Coordination Sequence:
#
# PCOD9064783 Si02
#       7
#     2   2   2   2   2   2   2
#     4  11  26  49  72 107 145 193 244 296 366 436
#     4  12  25  45  72 108 143 192 239 298 370 428
#     4  12  26  46  73 109 148 190 244 302 362 432
#     4  11  25  47  70 104 146 191 245 296 365 428
#     4  11  24  46  73 104 144 194 244 301 356 431
#     4  11  25  46  74 103 144 194 241 301 361 433
#     4  12  25  44  73 106 144 194 240 300 361 432
#
# _framework density 23.445921999999999
#
# number of rings (size 3 to 8) (size 9 to 14) (size 15 to 20)
#    0.000    0.571    4.286    3.429    0.000    9.714 
#    2.571    0.000    0.000    0.000    0.000    0.000 
#    0.000    0.000    0.000    0.000    0.000    0.000 
#
# Total GULP energy -78357.023833 kJ/mol
# GULP energy per Si atom -5596.930274 kJ/mol
# Density = 2.339256 g / cm^3
# Si number density = 23.445922 Si / 1000 Ang^3
#
#
#
# Elastic Constant Matrix: (Units=GPa)
#
#
# Indices 1 2 3 4 5 6 
#
# 1 76.5139 50.7620 34.8996 10.7184 -4.1374 -3.4244
# 2 50.7620 101.9537 45.1369 16.6901 -5.2620 11.7868
# 3 34.8996 45.1369 86.5466 -9.6402 -19.5414 6.5952
# 4 10.7184 16.6901 -9.6402 44.3050 5.4040 -8.1105
# 5 -4.1374 -5.2620 -19.5414 5.4040 41.8649 -1.8118
# 6 -3.4244 11.7868 6.5952 -8.1105 -1.8118 48.6607
#
#
#
# Elastic Compliance Matrix: (Units=1/GPa)
#
#
# Indices 1 2 3 4 5 6 
#
# 1 0.021474 -0.008678 -0.004848 -0.002175 -0.000783 0.003879
# 2 -0.008678 0.019102 -0.007114 -0.007536 -0.001046 -0.005569
# 3 -0.004848 -0.007114 0.019559 0.007314 0.006821 0.000204
# 4 -0.002175 -0.007536 0.007314 0.028667 -0.001214 0.005414
# 5 -0.000783 -0.001046 0.006821 -0.001214 0.027022 0.000077
# 6 0.003879 -0.005569 0.000204 0.005414 0.000077 0.023050
#
#
# Mechanical properties :
#
#
# Convention : Reuss Voigt Hill
#
# Bulk Modulus (GPa) = 53.03762 58.51238 55.77500
# Shear Modulus (GPa) = 26.81833 35.91384 31.36608
#
# Velocity S-wave (km/s) = 3.38574 3.91803 3.66157
# Velocity P-wave (km/s) = 6.16073 6.74377 6.45884
#
# Compressibility (1/GPa) = 0.01885454
#
# Stress axis : x y z
#
# Youngs Moduli (GPa) = 46.56734 52.34952 51.12744
#
# Poissons Ratio (x) = 0.45430 0.24787
# Poissons Ratio (y) = 0.40412 0.36373
# Poissons Ratio (z) = 0.22576 0.37243
#
# Static dielectric constant tensor:
#      x y z
#    x 1.878450 0.013270 0.012480 
#    y 0.013270 1.887890 0.000510 
#    z 0.012480 0.000510 1.862650 
# 
# From -- ./inp_files/6835.got.cif
#   From: 2010.05.17/outbox.cif.g08.bks.cpg/sg2_4_cif.got.tgz:6835.got - 2010.06.03 11:33:40.
