data_PCOD9064209
_publ_section_title
;
Structure prediction by ZEFSAII (Michael W. Deem and Ramdas Pophale) SiO2 
 PCOD9064209
Probable space group: P -1
;
_chemical_formula_sum "Si O2"
_cell_formula_units_Z 14
_cell_length_a 9.612650
_cell_length_b 17.999526
_cell_length_c 8.682026
_cell_angle_alpha 138.989884
_cell_angle_beta 127.314820
_cell_angle_gamma 36.557194
_cell_volume 587.123203
_symmetry_space_group_name_H-M "P -1"
_symmetry_group_IT_number 2
_symmetry_cell_setting 'triclinic'
loop_
_space_group_symop_operation_xyz
x,y,z
-x,-y,-z
loop_
_atom_site_type_symbol
_atom_site_label
_atom_site_fract_x
_atom_site_fract_y
_atom_site_fract_z
Si Si1 0.983699 0.133570 0.442225
Si Si2 0.603913 0.561391 0.760625
Si Si3 0.934364 0.683387 0.418745
Si Si4 0.649651 0.065610 0.081950
Si Si5 0.174800 0.247892 0.192190
Si Si6 0.249371 0.599968 0.070131
Si Si7 0.552984 0.140522 0.799790
O O1 0.834297 0.086947 0.233849
O O2 0.873296 0.235627 0.681389
O O3 0.978157 0.232858 0.460710
O O4 0.253771 0.979545 0.381092
O O5 0.500000 0.500000 0.500000
O O6 0.689558 0.495195 0.885132
O O7 0.843877 0.493454 0.732242
O O8 0.423847 0.739934 0.942186
O O9 0.873348 0.704984 0.589548
O O10 0.704996 0.758226 0.282228
O O11 0.406189 0.207411 0.217621
O O12 0.587572 0.056458 0.850233
O O13 0.757657 0.914790 0.012275
O O14 0.945269 0.365974 0.121225
O O15 0.500000 0.500000 0.000000
#
# Coordination Sequence:
#
# PCOD9064209 Si02
#       7
#     2   2   2   2   2   2   2
#     4  11  25  44  74 104 137 190 244 290 346 424
#     4  11  25  46  73 104 141 189 242 293 352 425
#     4  11  24  45  72 104 144 191 236 294 352 424
#     4  11  25  43  70 108 143 180 239 299 356 412
#     4  11  26  45  69 104 149 186 230 297 361 418
#     4  11  26  47  69 102 148 189 232 296 361 423
#     4  12  24  44  76 105 139 186 250 291 348 422
#
# _framework density 23.845081
#
# number of rings (size 3 to 8) (size 9 to 14) (size 15 to 20)
#    0.000    0.857    1.429    5.571    8.000    1.714 
#    0.000    2.143    0.000    0.000    0.000    0.000 
#    0.000    0.000    0.000    0.000    0.000    0.000 
#
# Total GULP energy -78323.307907 kJ/mol
# GULP energy per Si atom -5594.521993 kJ/mol
# Density = 2.379081 g / cm^3
# Si number density = 23.845081 Si / 1000 Ang^3
#
#
#
# Elastic Constant Matrix: (Units=GPa)
#
#
# Indices 1 2 3 4 5 6 
#
# 1 114.9037 37.6246 43.0618 -6.0304 -22.3112 -32.7740
# 2 37.6246 119.8373 30.2341 -6.5152 -2.7309 -14.1105
# 3 43.0618 30.2341 66.5693 3.4908 -2.6699 -12.5713
# 4 -6.0304 -6.5152 3.4908 51.7788 -8.9119 -11.5336
# 5 -22.3112 -2.7309 -2.6699 -8.9119 46.5151 9.8780
# 6 -32.7740 -14.1105 -12.5713 -11.5336 9.8780 44.5617
#
#
#
# Elastic Compliance Matrix: (Units=1/GPa)
#
#
# Indices 1 2 3 4 5 6 
#
# 1 0.016478 -0.001562 -0.008223 0.005451 0.006411 0.009294
# 2 -0.001562 0.009928 -0.003303 0.001570 -0.000385 0.001555
# 3 -0.008223 -0.003303 0.021675 -0.003675 -0.003346 -0.001189
# 4 0.005451 0.001570 -0.003675 0.023133 0.005163 0.008312
# 5 0.006411 -0.000385 -0.003346 0.005163 0.025489 -0.000665
# 6 0.009294 0.001555 -0.001189 0.008312 -0.000665 0.031732
#
#
# Mechanical properties :
#
#
# Convention : Reuss Voigt Hill
#
# Bulk Modulus (GPa) = 45.65085 58.12792 51.88939
# Shear Modulus (GPa) = 30.88061 41.26378 36.07219
#
# Velocity S-wave (km/s) = 3.60259 4.16443 3.89366
# Velocity P-wave (km/s) = 6.04079 6.89591 6.48247
#
# Compressibility (1/GPa) = 0.02190540
#
# Stress axis : x y z
#
# Youngs Moduli (GPa) = 60.68663 100.72531 46.13518
#
# Poissons Ratio (x) = 0.15734 0.37938
# Poissons Ratio (y) = 0.09480 0.15237
# Poissons Ratio (z) = 0.49904 0.33267
#
# Static dielectric constant tensor:
#      x y z
#    x 1.950040 -0.001840 -0.009080 
#    y -0.001840 1.939890 0.086990 
#    z -0.009080 0.086990 1.981700 
# 
# From -- ./inp_files/216208.got.cif
#   From: 2010.05.17/outbox.cif.g08.bks.cpg/sg2_109_cif.got.tgz:216208.got - 2010.06.03 11:33:40.
