data_PCOD9064909
_publ_section_title
;
Structure prediction by ZEFSAII (Michael W. Deem and Ramdas Pophale) SiO2 
 PCOD9064909
Probable space group: P -1
;
_chemical_formula_sum "Si O2"
_cell_formula_units_Z 16
_cell_length_a 11.934814
_cell_length_b 12.493026
_cell_length_c 13.012658
_cell_angle_alpha 76.765707
_cell_angle_beta 40.775616
_cell_angle_gamma 110.909815
_cell_volume 680.468063
_symmetry_space_group_name_H-M "P -1"
_symmetry_group_IT_number 2
_symmetry_cell_setting 'triclinic'
loop_
_space_group_symop_operation_xyz
x,y,z
-x,-y,-z
loop_
_atom_site_type_symbol
_atom_site_label
_atom_site_fract_x
_atom_site_fract_y
_atom_site_fract_z
Si Si1 0.376299 0.432887 0.716086
Si Si2 0.251662 0.770220 0.596284
Si Si3 0.528171 0.824264 0.789640
Si Si4 0.252121 0.779733 0.817043
Si Si5 0.273046 0.483773 0.144156
Si Si6 0.208992 0.864815 0.306324
Si Si7 0.146353 0.162382 0.586969
Si Si8 0.268760 0.130511 0.872037
O O1 0.500000 0.500000 0.500000
O O2 0.563098 0.622196 0.609428
O O3 0.401322 0.322080 0.762463
O O4 0.020789 0.278561 0.990823
O O5 0.246572 0.714615 0.726463
O O6 0.926944 0.625390 0.799054
O O7 0.433040 0.981780 0.441891
O O8 0.463803 0.806414 0.369604
O O9 0.230462 0.699499 0.954948
O O10 0.751684 0.890446 0.534606
O O11 0.662734 0.001393 0.713795
O O12 0.463078 0.697646 0.949173
O O13 0.016193 0.348820 0.443168
O O14 0.500000 0.500000 0.000000
O O15 0.987624 0.826155 0.405249
O O16 0.500000 0.000000 0.000000
O O17 0.896275 0.005135 0.883023
O O18 0.000000 0.000000 0.000000
#
# Coordination Sequence:
#
# PCOD9064909 Si02
#       8
#     2   2   2   2   2   2   2   2
#     4  12  27  44  72 110 156 191 251 313 378 465
#     4  11  24  46  75 111 154 199 253 314 377 464
#     4  12  28  49  81 107 153 201 257 315 384 455
#     4  11  25  44  74 112 149 196 249 312 389 449
#     4  12  27  49  78 112 151 202 265 311 377 457
#     4  12  29  52  79 109 154 199 260 320 382 452
#     4  12  27  46  74 112 147 205 251 309 379 456
#     4  12  24  46  75 110 156 205 245 311 397 453
#
# _framework density 23.513227000000001
#
# number of rings (size 3 to 8) (size 9 to 14) (size 15 to 20)
#    0.000    0.250    5.000    2.625    5.250    3.500 
#    0.000    0.000    0.000    0.000    0.000    0.000 
#    0.000    0.000    0.000    0.000    0.000    0.000 
#
# Total GULP energy -89606.103474 kJ/mol
# GULP energy per Si atom -5600.381467 kJ/mol
# Density = 2.345971 g / cm^3
# Si number density = 23.513227 Si / 1000 Ang^3
#
#
#
# Elastic Constant Matrix: (Units=GPa)
#
#
# Indices 1 2 3 4 5 6 
#
# 1 125.9346 15.3977 20.3624 5.7558 8.0874 2.7229
# 2 15.3977 37.9755 18.4972 16.2378 5.6776 -2.5819
# 3 20.3624 18.4972 101.3135 16.6081 19.6218 -2.4270
# 4 5.7558 16.2378 16.6081 35.7947 -2.5234 5.5634
# 5 8.0874 5.6776 19.6218 -2.5234 51.2634 -3.0216
# 6 2.7229 -2.5819 -2.4270 5.5634 -3.0216 39.0769
#
#
#
# Elastic Compliance Matrix: (Units=1/GPa)
#
#
# Indices 1 2 3 4 5 6 
#
# 1 0.008546 -0.003195 -0.001169 0.000737 -0.000571 -0.001028
# 2 -0.003195 0.036399 -0.002760 -0.015619 -0.002977 0.004450
# 3 -0.001169 -0.002760 0.012251 -0.004707 -0.004373 0.000992
# 4 0.000737 -0.015619 -0.004707 0.038440 0.004926 -0.006468
# 5 -0.000571 -0.002977 -0.004373 0.004926 0.021876 0.000562
# 6 -0.001028 0.004450 0.000992 -0.006468 0.000562 0.026982
#
#
# Mechanical properties :
#
#
# Convention : Reuss Voigt Hill
#
# Bulk Modulus (GPa) = 23.28414 41.52646 32.40530
# Shear Modulus (GPa) = 28.89208 39.29145 34.09176
#
# Velocity S-wave (km/s) = 3.50917 4.09227 3.81188
# Velocity P-wave (km/s) = 5.13255 6.32677 5.76069
#
# Compressibility (1/GPa) = 0.04294769
#
# Stress axis : x y z
#
# Youngs Moduli (GPa) = 117.02013 27.47357 81.62358
#
# Poissons Ratio (x) = 0.08779 0.09542
# Poissons Ratio (y) = 0.37391 0.22525
# Poissons Ratio (z) = 0.13680 0.07582
#
# Static dielectric constant tensor:
#      x y z
#    x 1.923780 -0.031350 0.012700 
#    y -0.031350 1.930140 -0.018610 
#    z 0.012700 -0.018610 2.033540 
# 
# From -- ./inp_files/428080.got.cif
#   From: 2010.05.17/outbox.cif.g08.bks.cpg/sg2_215_cif.got.tgz:428080.got - 2010.06.03 11:33:40.
