data_PCOD9064703
_publ_section_title
;
Structure prediction by ZEFSAII (Michael W. Deem and Ramdas Pophale) SiO2 
 PCOD9064703
Probable space group: P -1
;
_chemical_formula_sum "Si O2"
_cell_formula_units_Z 15
_cell_length_a 6.008710
_cell_length_b 12.930803
_cell_length_c 15.326503
_cell_angle_alpha 50.200097
_cell_angle_beta 135.660461
_cell_angle_gamma 120.268581
_cell_volume 637.053884
_symmetry_space_group_name_H-M "P -1"
_symmetry_group_IT_number 2
_symmetry_cell_setting 'triclinic'
loop_
_space_group_symop_operation_xyz
x,y,z
-x,-y,-z
loop_
_atom_site_type_symbol
_atom_site_label
_atom_site_fract_x
_atom_site_fract_y
_atom_site_fract_z
Si Si1 0.081247 0.719973 0.573277
Si Si2 0.000000 0.000000 0.500000
Si Si3 0.026471 0.470335 0.203001
Si Si4 0.500564 0.872925 0.133165
Si Si5 0.270563 0.394126 0.622984
Si Si6 0.174969 0.252623 0.048334
Si Si7 0.624753 0.041978 0.248885
Si Si8 0.785287 0.778321 0.716915
O O1 0.415204 0.761990 0.596778
O O2 0.143822 0.602378 0.722534
O O3 0.796055 0.661214 0.463303
O O4 0.000938 0.848793 0.534434
O O5 0.597339 0.995130 0.365050
O O6 0.383550 0.530085 0.300380
O O7 0.070884 0.354968 0.207152
O O8 0.827368 0.588378 0.048608
O O9 0.729211 0.750971 0.246772
O O10 0.556564 0.939578 0.207823
O O11 0.146301 0.804364 0.059302
O O12 0.500000 0.000000 0.000000
O O13 0.000000 0.500000 0.500000
O O14 0.448439 0.176736 0.118315
O O15 0.166450 0.216341 0.168179
O O16 0.011428 0.089278 0.339083
#
# Coordination Sequence:
#
# PCOD9064703 Si02
#       8
#     2   1   2   2   2   2   2   2
#     4  12  25  46  69 103 135 184 228 288 346 412
#     4  12  24  46  70 100 138 178 234 284 348 404
#     4  11  25  44  69 102 138 179 229 284 351 414
#     4  11  24  46  72 102 138 183 235 286 349 416
#     4  11  24  46  72 102 138 183 235 286 349 416
#     4  11  25  44  69 102 138 179 229 284 351 414
#     4  12  25  46  69 103 135 184 228 288 346 412
#     4  12  23  43  72  98 138 177 231 278 352 412
#
# _framework density 23.545891000000001
#
# number of rings (size 3 to 8) (size 9 to 14) (size 15 to 20)
#    0.000    0.533    6.667    1.200    0.000    4.800 
#    7.200    0.000    0.000    0.000    0.000    0.000 
#    0.000    0.000    0.000    0.000    0.000    0.000 
#
# Total GULP energy -83625.707998 kJ/mol
# GULP energy per Si atom -5575.047200 kJ/mol
# Density = 2.349230 g / cm^3
# Si number density = 23.545891 Si / 1000 Ang^3
#
#
#
# Elastic Constant Matrix: (Units=GPa)
#
#
# Indices 1 2 3 4 5 6 
#
# 1 44.2873 39.6762 26.9701 -6.6797 -6.9773 4.4054
# 2 39.6762 157.6405 55.7543 7.4300 -3.9553 -18.4640
# 3 26.9701 55.7543 145.3884 -26.4830 0.4487 -4.1186
# 4 -6.6797 7.4300 -26.4830 62.0602 -3.8154 -8.5868
# 5 -6.9773 -3.9553 0.4487 -3.8154 36.8327 6.6226
# 6 4.4054 -18.4640 -4.1186 -8.5868 6.6226 33.8700
#
#
#
# Elastic Compliance Matrix: (Units=1/GPa)
#
#
# Indices 1 2 3 4 5 6 
#
# 1 0.035112 -0.008983 -0.002920 0.002614 0.007918 -0.010704
# 2 -0.008983 0.010314 -0.002573 -0.002560 -0.001944 0.006209
# 3 -0.002920 -0.002573 0.009181 0.004040 -0.000750 0.001264
# 4 0.002614 -0.002560 0.004040 0.018972 0.001550 0.003262
# 5 0.007918 -0.001944 -0.000750 0.001550 0.029986 -0.007651
# 6 -0.010704 0.006209 0.001264 0.003262 -0.007651 0.036779
#
#
# Mechanical properties :
#
#
# Convention : Reuss Voigt Hill
#
# Bulk Modulus (GPa) = 38.98007 65.79083 52.38545
# Shear Modulus (GPa) = 28.11395 41.54694 34.83044
#
# Velocity S-wave (km/s) = 3.45919 4.20516 3.85028
# Velocity P-wave (km/s) = 5.70487 7.18193 6.48558
#
# Compressibility (1/GPa) = 0.02565414
#
# Stress axis : x y z
#
# Youngs Moduli (GPa) = 28.48006 96.95874 108.92408
#
# Poissons Ratio (x) = 0.87097 0.31807
# Poissons Ratio (y) = 0.25583 0.28029
# Poissons Ratio (z) = 0.08317 0.24950
#
# Static dielectric constant tensor:
#      x y z
#    x 2.182450 0.130530 -0.220720 
#    y 0.130530 1.965610 -0.057900 
#    z -0.220720 -0.057900 2.168860 
# 
# From -- ./inp_files/67187.got.cif
#   From: 2010.05.17/outbox.cif.g08.bks.cpg/sg2_34_cif.got.tgz:67187.got - 2010.06.03 11:33:40.
