data_PCOD9064269
_publ_section_title
;
Structure prediction by ZEFSAII (Michael W. Deem and Ramdas Pophale) SiO2 
 PCOD9064269
Probable space group: P -1
;
_chemical_formula_sum "Si O2"
_cell_formula_units_Z 16
_cell_length_a 18.383118
_cell_length_b 8.902245
_cell_length_c 6.504895
_cell_angle_alpha 103.040115
_cell_angle_beta 122.209732
_cell_angle_gamma 51.280505
_cell_volume 693.316401
_symmetry_space_group_name_H-M "P -1"
_symmetry_group_IT_number 2
_symmetry_cell_setting 'triclinic'
loop_
_space_group_symop_operation_xyz
x,y,z
-x,-y,-z
loop_
_atom_site_type_symbol
_atom_site_label
_atom_site_fract_x
_atom_site_fract_y
_atom_site_fract_z
Si Si1 0.117756 0.941719 0.643677
Si Si2 0.137835 0.192044 0.072069
Si Si3 0.535181 0.851739 0.321612
Si Si4 0.252242 0.950505 0.528668
Si Si5 0.229435 0.580850 0.969121
Si Si6 0.338369 0.158474 0.838285
Si Si7 0.953234 0.452128 0.218049
Si Si8 0.405042 0.538678 0.516443
O O1 0.155071 0.958717 0.482395
O O2 0.206539 0.722253 0.791657
O O3 0.000000 0.000000 0.500000
O O4 0.111597 0.090292 0.837115
O O5 0.050046 0.311218 0.159793
O O6 0.241169 0.013646 0.294860
O O7 0.133445 0.352767 0.985474
O O8 0.638426 0.813307 0.350924
O O9 0.553947 0.656923 0.361380
O O10 0.500000 0.000000 0.500000
O O11 0.442044 0.970273 0.046669
O O12 0.360532 0.729259 0.644434
O O13 0.254475 0.110789 0.698129
O O14 0.302466 0.353293 0.953986
O O15 0.111809 0.632663 0.853962
O O16 0.297161 0.598860 0.248337
O O17 0.000000 0.500000 0.500000
O O18 0.500000 0.500000 0.500000
#
# Coordination Sequence:
#
# PCOD9064269 Si02
#       8
#     2   2   2   2   2   2   2   2
#     4  12  27  45  72 106 148 189 243 297 366 444
#     4  11  24  45  73 102 146 184 240 300 368 429
#     4  11  24  47  72 100 140 186 243 307 353 421
#     4  12  27  46  73 105 145 193 239 301 369 430
#     4  12  25  46  72 105 146 189 243 291 371 428
#     4  11  26  44  75 103 134 190 248 295 361 429
#     4  11  25  46  73 109 142 190 241 307 360 440
#     4  12  28  46  73 106 150 193 240 300 367 430
#
# _framework density 23.077486
#
# number of rings (size 3 to 8) (size 9 to 14) (size 15 to 20)
#    0.000    0.500    2.500    5.250    7.000    4.500 
#    0.000    0.000    0.000    0.000    0.000    0.000 
#    0.000    0.000    0.000    0.000    0.000    0.000 
#
# Total GULP energy -89427.129153 kJ/mol
# GULP energy per Si atom -5589.195572 kJ/mol
# Density = 2.302496 g / cm^3
# Si number density = 23.077486 Si / 1000 Ang^3
#
#
#
# Elastic Constant Matrix: (Units=GPa)
#
#
# Indices 1 2 3 4 5 6 
#
# 1 118.4354 24.3128 20.1170 -1.7965 -11.7556 13.6787
# 2 24.3128 145.5930 21.4153 -16.3445 -17.8479 24.3235
# 3 20.1170 21.4153 62.1246 -8.9360 -7.5095 16.9758
# 4 -1.7965 -16.3445 -8.9360 50.6059 8.1191 -14.2307
# 5 -11.7556 -17.8479 -7.5095 8.1191 31.7273 -1.5609
# 6 13.6787 24.3235 16.9758 -14.2307 -1.5609 40.1871
#
#
#
# Elastic Compliance Matrix: (Units=1/GPa)
#
#
# Indices 1 2 3 4 5 6 
#
# 1 0.009464 -0.000696 -0.002043 -0.001358 0.002866 -0.002307
# 2 -0.000696 0.008349 -0.000995 0.000766 0.003811 -0.003977
# 3 -0.002043 -0.000995 0.019314 0.000752 0.002743 -0.006488
# 4 -0.001358 0.000766 0.000752 0.023117 -0.005433 0.007656
# 5 0.002866 0.003811 0.002743 -0.005433 0.036521 -0.004946
# 6 -0.002307 -0.003977 -0.006488 0.007656 -0.004946 0.033335
#
#
# Mechanical properties :
#
#
# Convention : Reuss Voigt Hill
#
# Bulk Modulus (GPa) = 33.71773 50.87149 42.29461
# Shear Modulus (GPa) = 33.90913 41.85790 37.88352
#
# Velocity S-wave (km/s) = 3.83738 4.26349 4.05604
# Velocity P-wave (km/s) = 5.85460 6.80648 6.34840
#
# Compressibility (1/GPa) = 0.02965799
#
# Stress axis : x y z
#
# Youngs Moduli (GPa) = 105.66901 119.78073 51.77599
#
# Poissons Ratio (x) = 0.08332 0.10580
# Poissons Ratio (y) = 0.07350 0.05152
# Poissons Ratio (z) = 0.21592 0.11919
#
# Static dielectric constant tensor:
#      x y z
#    x 1.887060 -0.012460 0.040890 
#    y -0.012460 1.860720 -0.036390 
#    z 0.040890 -0.036390 1.873340 
# 
# From -- ./inp_files/106630.got.cif
#   From: 2010.05.17/outbox.cif.g08.bks.cpg/sg2_54_cif.got.tgz:106630.got - 2010.06.03 11:33:40.
