data_PCOD9064051
_publ_section_title
;
Structure prediction by ZEFSAII (Michael W. Deem and Ramdas Pophale) SiO2 
 PCOD9064051
Probable space group: P -1
;
_chemical_formula_sum "Si O2"
_cell_formula_units_Z 16
_cell_length_a 8.579647
_cell_length_b 16.357915
_cell_length_c 8.662675
_cell_angle_alpha 79.542696
_cell_angle_beta 103.709536
_cell_angle_gamma 45.125804
_cell_volume 721.700503
_symmetry_space_group_name_H-M "P -1"
_symmetry_group_IT_number 2
_symmetry_cell_setting 'triclinic'
loop_
_space_group_symop_operation_xyz
x,y,z
-x,-y,-z
loop_
_atom_site_type_symbol
_atom_site_label
_atom_site_fract_x
_atom_site_fract_y
_atom_site_fract_z
Si Si1 0.357746 0.195376 0.944972
Si Si2 0.088785 0.080185 0.165908
Si Si3 0.418928 0.731765 0.192343
Si Si4 0.379780 0.053295 0.757312
Si Si5 0.074749 0.790665 0.605372
Si Si6 0.330501 0.530110 0.813293
Si Si7 0.875802 0.637371 0.868261
Si Si8 0.633039 0.188413 0.513594
O O1 0.449272 0.243753 0.872850
O O2 0.255358 0.173514 0.798106
O O3 0.173484 0.290166 0.012491
O O4 0.597385 0.045178 0.121886
O O5 0.925788 0.194936 0.217419
O O6 0.329970 0.034763 0.177161
O O7 0.216898 0.951052 0.331326
O O8 0.885472 0.140703 0.964457
O O9 0.534026 0.599359 0.200837
O O10 0.465330 0.723515 0.387612
O O11 0.215591 0.111208 0.546198
O O12 0.250734 0.641170 0.653475
O O13 0.174689 0.831364 0.529395
O O14 0.072801 0.599734 0.809836
O O15 0.500000 0.500000 0.000000
O O16 0.603450 0.737494 0.680994
O O17 0.000000 0.500000 0.000000
#
# Coordination Sequence:
#
# PCOD9064051 Si02
#       8
#     2   2   2   2   2   2   2   2
#     4  11  24  45  70 103 140 179 229 281 355 403
#     4  12  23  46  72 101 146 181 230 288 350 412
#     4  12  26  46  71 100 146 187 228 286 344 416
#     4  11  25  41  74 108 136 179 234 290 347 408
#     4  12  25  44  70 101 144 180 235 288 342 410
#     4  12  26  47  71 101 138 182 233 282 346 410
#     4  12  25  47  74 100 139 185 234 284 347 417
#     4  12  27  44  72 107 136 186 236 284 350 412
#
# _framework density 22.169861000000001
#
# number of rings (size 3 to 8) (size 9 to 14) (size 15 to 20)
#    0.000    0.250    3.750    5.625    3.500    2.000 
#    0.000    0.000    0.000    0.000    0.000    0.000 
#    0.000    0.000    0.000    0.000    0.000    0.000 
#
# Total GULP energy -89570.167481 kJ/mol
# GULP energy per Si atom -5598.135468 kJ/mol
# Density = 2.211940 g / cm^3
# Si number density = 22.169861 Si / 1000 Ang^3
#
#
#
# Elastic Constant Matrix: (Units=GPa)
#
#
# Indices 1 2 3 4 5 6 
#
# 1 63.5234 19.6721 9.2722 -5.2307 -3.0964 -6.4396
# 2 19.6721 132.0812 -4.5191 13.9359 -7.9014 7.4232
# 3 9.2722 -4.5191 32.0084 5.6002 -5.8784 -3.7909
# 4 -5.2307 13.9359 5.6002 34.3919 -3.6341 -6.6243
# 5 -3.0964 -7.9014 -5.8784 -3.6341 22.5551 -2.6644
# 6 -6.4396 7.4232 -3.7909 -6.6243 -2.6644 32.1035
#
#
#
# Elastic Compliance Matrix: (Units=1/GPa)
#
#
# Indices 1 2 3 4 5 6 
#
# 1 0.019095 -0.004009 -0.006392 0.006766 0.001292 0.005506
# 2 -0.004009 0.009173 0.003398 -0.005298 0.002290 -0.003427
# 3 -0.006392 0.003398 0.036628 -0.007077 0.008900 0.001536
# 4 0.006766 -0.005298 -0.007077 0.035656 0.004089 0.009443
# 5 0.001292 0.002290 0.008900 0.004089 0.048966 0.005688
# 6 0.005506 -0.003427 0.001536 0.009443 0.005688 0.035648
#
#
# Mechanical properties :
#
#
# Convention : Reuss Voigt Hill
#
# Bulk Modulus (GPa) = 19.65007 30.71817 25.18412
# Shear Modulus (GPa) = 23.13375 31.35595 27.24485
#
# Velocity S-wave (km/s) = 3.23379 3.76486 3.50939
# Velocity P-wave (km/s) = 4.77765 5.72581 5.27308
#
# Compressibility (1/GPa) = 0.05089041
#
# Stress axis : x y z
#
# Youngs Moduli (GPa) = 52.36984 109.01498 27.30167
#
# Poissons Ratio (x) = 0.43702 0.17451
# Poissons Ratio (y) = 0.20994 -0.09277
# Poissons Ratio (z) = 0.33475 -0.37044
#
# Static dielectric constant tensor:
#      x y z
#    x 1.785580 0.016520 -0.010300 
#    y 0.016520 1.850550 -0.004780 
#    z -0.010300 -0.004780 1.786890 
# 
# From -- ./inp_files/207011.got.cif
#   From: 2010.05.17/outbox.cif.g08.bks.cpg/sg2_104_cif.got.tgz:207011.got - 2010.06.03 11:33:40.
