data_PCOD9064159
_publ_section_title
;
Structure prediction by ZEFSAII (Michael W. Deem and Ramdas Pophale) SiO2 
 PCOD9064159
Probable space group: P -1
;
_chemical_formula_sum "Si O2"
_cell_formula_units_Z 16
_cell_length_a 11.314109
_cell_length_b 23.092572
_cell_length_c 18.983460
_cell_angle_alpha 164.321364
_cell_angle_beta 148.706546
_cell_angle_gamma 30.874377
_cell_volume 673.484812
_symmetry_space_group_name_H-M "P -1"
_symmetry_group_IT_number 2
_symmetry_cell_setting 'triclinic'
loop_
_space_group_symop_operation_xyz
x,y,z
-x,-y,-z
loop_
_atom_site_type_symbol
_atom_site_label
_atom_site_fract_x
_atom_site_fract_y
_atom_site_fract_z
Si Si1 0.048429 0.849581 0.745198
Si Si2 0.533510 0.978395 0.159147
Si Si3 0.040785 0.477020 0.576957
Si Si4 0.537900 0.009091 0.614036
Si Si5 0.856809 0.560650 0.069550
Si Si6 0.552332 0.269828 0.637437
Si Si7 0.776414 0.478123 0.673886
Si Si8 0.567100 0.766147 0.721395
O O1 0.269906 0.952770 0.982807
O O2 0.009997 0.749325 0.683923
O O3 0.453947 0.598826 0.510339
O O4 0.804107 0.993996 0.757839
O O5 0.707603 0.744351 0.952998
O O6 0.562719 0.054940 0.342346
O O7 0.550460 0.178806 0.350981
O O8 0.844073 0.670973 0.740224
O O9 0.000000 0.500000 0.500000
O O10 0.308978 0.448884 0.703371
O O11 0.464481 0.807532 0.381616
O O12 0.365035 0.235420 0.816984
O O13 0.500000 0.000000 0.500000
O O14 0.119160 0.641094 0.483740
O O15 0.031742 0.621510 0.286319
O O16 0.763751 0.368359 0.835398
O O17 0.000000 0.500000 0.000000
O O18 0.500000 0.000000 0.000000
#
# Coordination Sequence:
#
# PCOD9064159 Si02
#       8
#     2   2   2   2   2   2   2   2
#     4  11  24  47  76 110 151 194 246 314 377 441
#     4  12  24  44  73 112 151 185 246 310 377 440
#     4  11  24  45  71 109 151 185 243 305 377 442
#     4  11  26  52  76 109 150 205 257 305 373 447
#     4  12  28  49  77 106 153 203 257 308 367 452
#     4  11  28  47  77 112 147 203 253 309 376 445
#     4  12  25  47  72 110 154 195 248 309 367 444
#     4  12  24  42  72 108 146 192 236 301 376 443
#
# _framework density 23.757031999999999
#
# number of rings (size 3 to 8) (size 9 to 14) (size 15 to 20)
#    0.000    0.500    5.000    2.625    1.750    6.500 
#    0.000    0.000    0.000    0.000    0.000    0.000 
#    0.000    0.000    0.000    0.000    0.000    0.000 
#
# Total GULP energy -89630.646569 kJ/mol
# GULP energy per Si atom -5601.915411 kJ/mol
# Density = 2.370296 g / cm^3
# Si number density = 23.757032 Si / 1000 Ang^3
#
#
#
# Elastic Constant Matrix: (Units=GPa)
#
#
# Indices 1 2 3 4 5 6 
#
# 1 156.3757 54.7448 26.4891 3.0507 -11.8087 18.3442
# 2 54.7448 133.2595 44.1896 20.3069 -7.9599 2.0024
# 3 26.4891 44.1896 72.7933 26.3020 -19.4517 -10.7695
# 4 3.0507 20.3069 26.3020 39.6137 -4.5415 -5.1106
# 5 -11.8087 -7.9599 -19.4517 -4.5415 35.6971 1.6281
# 6 18.3442 2.0024 -10.7695 -5.1106 1.6281 53.2774
#
#
#
# Elastic Compliance Matrix: (Units=1/GPa)
#
#
# Indices 1 2 3 4 5 6 
#
# 1 0.008144 -0.002849 -0.002015 0.001944 0.001343 -0.002959
# 2 -0.002849 0.010622 -0.005205 -0.002037 -0.001641 -0.000616
# 3 -0.002015 -0.005205 0.025519 -0.012353 0.010299 0.004548
# 4 0.001944 -0.002037 -0.012353 0.034119 -0.002213 0.000251
# 5 0.001343 -0.001641 0.010299 -0.002213 0.033402 0.000448
# 6 -0.002959 -0.000616 0.004548 0.000251 0.000448 0.020741
#
#
# Mechanical properties :
#
#
# Convention : Reuss Voigt Hill
#
# Bulk Modulus (GPa) = 41.41337 68.14171 54.77754
# Shear Modulus (GPa) = 31.10697 41.51797 36.31247
#
# Velocity S-wave (km/s) = 3.62246 4.18498 3.91384
# Velocity P-wave (km/s) = 5.91322 7.21783 6.59785
#
# Compressibility (1/GPa) = 0.02414679
#
# Stress axis : x y z
#
# Youngs Moduli (GPa) = 122.78622 94.14179 39.18633
#
# Poissons Ratio (x) = 0.26820 0.07897
# Poissons Ratio (y) = 0.34981 0.20397
# Poissons Ratio (z) = 0.24746 0.49002
#
# Static dielectric constant tensor:
#      x y z
#    x 1.969560 0.017370 0.007270 
#    y 0.017370 1.888910 0.010660 
#    z 0.007270 0.010660 1.905380 
# 
# From -- ./inp_files/596456.got.cif
#   From: 2010.05.17/outbox.cif.g08.bks.cpg/sg2_299_cif.got.tgz:596456.got - 2010.06.03 11:33:40.
