data_PCOD9064863
_publ_section_title
;
Structure prediction by ZEFSAII (Michael W. Deem and Ramdas Pophale) SiO2 
 PCOD9064863
Probable space group: P -1
;
_chemical_formula_sum "Si O2"
_cell_formula_units_Z 16
_cell_length_a 15.936252
_cell_length_b 10.057410
_cell_length_c 10.061955
_cell_angle_alpha 82.102634
_cell_angle_beta 103.415938
_cell_angle_gamma 156.864658
_cell_volume 604.050957
_symmetry_space_group_name_H-M "P -1"
_symmetry_group_IT_number 2
_symmetry_cell_setting 'triclinic'
loop_
_space_group_symop_operation_xyz
x,y,z
-x,-y,-z
loop_
_atom_site_type_symbol
_atom_site_label
_atom_site_fract_x
_atom_site_fract_y
_atom_site_fract_z
Si Si1 0.562316 0.740297 0.844735
Si Si2 0.655484 0.582564 0.908344
Si Si3 0.007660 0.610790 0.618706
Si Si4 0.926312 0.499565 0.137633
Si Si5 0.146653 0.961400 0.390085
Si Si6 0.117386 0.220731 0.377561
Si Si7 0.117163 0.345076 0.095639
Si Si8 0.455551 0.152991 0.415817
O O1 0.472208 0.622548 0.973217
O O2 0.437487 0.662237 0.712398
O O3 0.545340 0.560847 0.815441
O O4 0.821072 0.153601 0.872684
O O5 0.686302 0.481447 0.869461
O O6 0.903712 0.990903 0.980876
O O7 0.000000 0.500000 0.500000
O O8 0.134165 0.725745 0.775443
O O9 0.088069 0.857120 0.538645
O O10 0.750983 0.241249 0.615004
O O11 0.959690 0.642635 0.260403
O O12 0.812377 0.415515 0.985484
O O13 0.172041 0.153130 0.340805
O O14 0.349445 0.146659 0.418231
O O15 0.031095 0.200121 0.235608
O O16 0.356806 0.621307 0.448935
O O17 0.000000 0.000000 0.500000
#
# Coordination Sequence:
#
# PCOD9064863 Si02
#       8
#     2   2   2   2   2   2   2   2
#     4   8  14  25  43  66  91 118 155 202 237 269
#     4   9  15  25  42  64  92 121 156 197 240 279
#     4   7  14  31  56  75  88 120 170 209 233 271
#     4   8  15  29  51  73  91 117 162 206 237 275
#     4   9  17  33  56  74  92 126 168 205 237 276
#     4  12  23  31  44  73 109 134 153 190 247 299
#     4  10  18  28  42  66  99 128 153 191 244 289
#     4   9  17  31  49  72  98 125 160 198 239 287
#
# _framework density 26.487831
#
# number of rings (size 3 to 8) (size 9 to 14) (size 15 to 20)
#    0.000    3.500    0.000    4.125    0.000    0.000 
#    0.000    0.625    0.000   12.000    0.000    0.875 
#    0.000    1.000    0.000    0.000    0.000    0.000 
#
# Total GULP energy -89192.244410 kJ/mol
# GULP energy per Si atom -5574.515276 kJ/mol
# Density = 2.642754 g / cm^3
# Si number density = 26.487831 Si / 1000 Ang^3
#
#
#
# Elastic Constant Matrix: (Units=GPa)
#
#
# Indices 1 2 3 4 5 6 
#
# 1 106.3881 8.1434 51.7884 -13.3566 25.5895 -5.1892
# 2 8.1434 31.3921 32.2875 -8.9465 10.3058 1.2849
# 3 51.7884 32.2875 205.4212 -38.6699 42.5830 -6.6270
# 4 -13.3566 -8.9465 -38.6699 48.3313 -4.4887 -1.8639
# 5 25.5895 10.3058 42.5830 -4.4887 40.1014 -12.7349
# 6 -5.1892 1.2849 -6.6270 -1.8639 -12.7349 14.0465
#
#
#
# Elastic Compliance Matrix: (Units=1/GPa)
#
#
# Indices 1 2 3 4 5 6 
#
# 1 0.011764 0.001319 -0.001554 0.001523 -0.006814 -0.002483
# 2 0.001319 0.041184 -0.004443 0.002807 -0.011211 -0.015167
# 3 -0.001554 -0.004443 0.008110 0.004573 -0.006476 -0.001607
# 4 0.001523 0.002807 0.004573 0.025175 -0.002652 0.003399
# 5 -0.006814 -0.011211 -0.006476 -0.002652 0.052228 0.042452
# 6 -0.002483 -0.015167 -0.001607 0.003399 0.042452 0.109844
#
#
# Mechanical properties :
#
#
# Convention : Reuss Voigt Hill
#
# Bulk Modulus (GPa) = 19.34131 58.62667 38.98399
# Shear Modulus (GPa) = 18.18890 37.22796 27.70843
#
# Velocity S-wave (km/s) = 2.62332 3.75303 3.23783
# Velocity P-wave (km/s) = 4.06122 6.40014 5.35982
#
# Compressibility (1/GPa) = 0.05170280
#
# Stress axis : x y z
#
# Youngs Moduli (GPa) = 85.00429 24.28152 123.30826
#
# Poissons Ratio (x) = -0.03204 0.19163
# Poissons Ratio (y) = -0.11215 0.54781
# Poissons Ratio (z) = 0.13210 0.10787
#
# Static dielectric constant tensor:
#      x y z
#    x 2.213580 -0.004180 -0.030590 
#    y -0.004180 2.081720 -0.047850 
#    z -0.030590 -0.047850 2.182160 
# 
# From -- ./inp_files/471373.got.cif
#   From: 2010.05.17/outbox.cif.g08.bks.cpg/sg2_236_cif.got.tgz:471373.got - 2010.06.03 11:33:40.
