data_PCOD9064860
_publ_section_title
;
Structure prediction by ZEFSAII (Michael W. Deem and Ramdas Pophale) SiO2 
 PCOD9064860
Probable space group: P -1
;
_chemical_formula_sum "Si O2"
_cell_formula_units_Z 13
_cell_length_a 15.619259
_cell_length_b 9.325474
_cell_length_c 11.977696
_cell_angle_alpha 142.709384
_cell_angle_beta 26.809700
_cell_angle_gamma 134.141769
_cell_volume 476.145346
_symmetry_space_group_name_H-M "P -1"
_symmetry_group_IT_number 2
_symmetry_cell_setting 'triclinic'
loop_
_space_group_symop_operation_xyz
x,y,z
-x,-y,-z
loop_
_atom_site_type_symbol
_atom_site_label
_atom_site_fract_x
_atom_site_fract_y
_atom_site_fract_z
Si Si1 0.135442 0.710737 0.167427
Si Si2 0.223199 0.713625 0.439048
Si Si3 0.772879 0.181732 0.099106
Si Si4 0.354788 0.214584 0.601542
Si Si5 0.212337 0.253401 0.028732
Si Si6 0.500000 0.000000 0.000000
Si Si7 0.741404 0.564865 0.563795
O O1 0.937394 0.682284 0.443347
O O2 0.297805 0.861056 0.126373
O O3 0.085510 0.810065 0.163135
O O4 0.221315 0.443980 0.878669
O O5 0.225064 0.520066 0.220516
O O6 0.328397 0.586350 0.343117
O O7 0.006743 0.769882 0.766114
O O8 0.293652 0.963884 0.472490
O O9 0.563601 0.244839 0.331870
O O10 0.799259 0.374895 0.282856
O O11 0.757054 0.929640 0.019832
O O12 0.348979 0.192302 0.728770
O O13 0.404635 0.239720 0.196263
#
# Coordination Sequence:
#
# PCOD9064860 Si02
#       7
#     2   2   2   2   2   1   2
#     4  12  27  50  75 111 154 203 251 315 385 451
#     4  11  25  46  78 112 148 200 258 311 383 458
#     4  12  26  47  75 110 152 204 257 310 382 455
#     4  12  24  47  76 108 156 196 253 316 372 452
#     4  11  24  46  74 111 148 202 256 308 386 449
#     4  12  28  46  74 110 152 196 258 308 382 452
#     4  12  25  50  77 110 156 198 253 321 377 457
#
# _framework density 27.302586999999999
#
# number of rings (size 3 to 8) (size 9 to 14) (size 15 to 20)
#    0.000    0.308    4.615    4.154    0.000    1.846 
#    0.000    0.000    0.000    0.000    0.000    0.000 
#    0.000    0.000    0.000    0.000    0.000    0.000 
#
# Total GULP energy -72754.525767 kJ/mol
# GULP energy per Si atom -5596.501982 kJ/mol
# Density = 2.724044 g / cm^3
# Si number density = 27.302587 Si / 1000 Ang^3
#
#
#
# Elastic Constant Matrix: (Units=GPa)
#
#
# Indices 1 2 3 4 5 6 
#
# 1 68.3041 38.7882 25.3550 7.7704 -6.7457 10.6549
# 2 38.7882 135.1944 39.0211 31.3227 4.2807 21.3533
# 3 25.3550 39.0211 98.4372 12.5175 -11.9776 4.5258
# 4 7.7704 31.3227 12.5175 62.4672 -1.7332 -1.0956
# 5 -6.7457 4.2807 -11.9776 -1.7332 50.5106 5.3015
# 6 10.6549 21.3533 4.5258 -1.0956 5.3015 59.6414
#
#
#
# Elastic Compliance Matrix: (Units=1/GPa)
#
#
# Indices 1 2 3 4 5 6 
#
# 1 0.018648 -0.004490 -0.002714 0.000513 0.002426 -0.001724
# 2 -0.004490 0.011048 -0.002765 -0.004534 -0.002049 -0.002845
# 3 -0.002714 -0.002765 0.012361 -0.000672 0.002751 0.000280
# 4 0.000513 -0.004534 -0.000672 0.018405 0.000730 0.001856
# 5 0.002426 -0.002049 0.002751 0.000730 0.021159 -0.001776
# 6 -0.001724 -0.002845 0.000280 0.001856 -0.001776 0.018264
#
#
# Mechanical properties :
#
#
# Convention : Reuss Voigt Hill
#
# Bulk Modulus (GPa) = 45.21079 56.47381 50.84230
# Shear Modulus (GPa) = 39.30947 47.77526 43.54236
#
# Velocity S-wave (km/s) = 3.79855 4.18765 3.99784
# Velocity P-wave (km/s) = 5.98613 6.64163 6.32238
#
# Compressibility (1/GPa) = 0.02211861
#
# Stress axis : x y z
#
# Youngs Moduli (GPa) = 53.62525 90.51799 80.89928
#
# Poissons Ratio (x) = 0.40644 0.21957
# Poissons Ratio (y) = 0.24079 0.22366
# Poissons Ratio (z) = 0.14554 0.25026
#
# Static dielectric constant tensor:
#      x y z
#    x 2.050700 -0.005250 0.001980 
#    y -0.005250 2.107770 -0.000980 
#    z 0.001980 -0.000980 2.052660 
# 
# From -- ./inp_files/274269.got.cif
#   From: 2010.05.17/outbox.cif.g08.bks.cpg/sg2_138_cif.got.tgz:274269.got - 2010.06.03 11:33:40.
