data_PCOD9064657
_publ_section_title
;
Structure prediction by ZEFSAII (Michael W. Deem and Ramdas Pophale) SiO2 
 PCOD9064657
Probable space group: P -1
;
_chemical_formula_sum "Si O2"
_cell_formula_units_Z 14
_cell_length_a 24.678148
_cell_length_b 5.177366
_cell_length_c 15.117598
_cell_angle_alpha 82.341984
_cell_angle_beta 162.272303
_cell_angle_gamma 104.216348
_cell_volume 535.951877
_symmetry_space_group_name_H-M "P -1"
_symmetry_group_IT_number 2
_symmetry_cell_setting 'triclinic'
loop_
_space_group_symop_operation_xyz
x,y,z
-x,-y,-z
loop_
_atom_site_type_symbol
_atom_site_label
_atom_site_fract_x
_atom_site_fract_y
_atom_site_fract_z
Si Si1 0.118382 0.973790 0.100185
Si Si2 0.987536 0.855488 0.291566
Si Si3 0.476547 0.273678 0.737986
Si Si4 0.830652 0.199453 0.261701
Si Si5 0.619365 0.801613 0.213376
Si Si6 0.401796 0.193198 0.233098
Si Si7 0.835503 0.435929 0.943663
O O1 0.327428 0.013150 0.462659
O O2 0.146115 0.259387 0.078264
O O3 0.067021 0.707447 0.967261
O O4 0.000000 0.000000 0.000000
O O5 0.068715 0.955052 0.512823
O O6 0.166964 0.052658 0.502339
O O7 0.766060 0.831162 0.956483
O O8 0.944821 0.535485 0.202605
O O9 0.367149 0.269164 0.658950
O O10 0.545472 0.544308 0.767467
O O11 0.666424 0.233186 0.065678
O O12 0.000000 0.500000 0.500000
O O13 0.708649 0.070560 0.990784
O O14 0.500000 0.500000 0.000000
O O15 0.500000 0.000000 0.000000
O O16 0.605422 0.246568 0.594575
#
# Coordination Sequence:
#
# PCOD9064657 Si02
#       7
#     2   2   2   2   2   2   2
#     4  11  24  47  75 102 147 198 245 295 368 450
#     4  12  26  46  74 113 149 195 245 311 374 436
#     4  11  24  46  71 104 142 196 246 300 362 442
#     4  12  24  43  75 105 144 194 251 298 365 444
#     4  12  28  45  69 106 153 190 239 306 370 428
#     4  11  25  48  74 106 149 196 251 302 369 448
#     4  11  26  47  73 111 146 189 246 313 366 431
#
# _framework density 26.121748
#
# number of rings (size 3 to 8) (size 9 to 14) (size 15 to 20)
#    0.000    0.571    4.286    3.000    2.000    3.429 
#    0.000    2.857    0.000    0.000    0.000    0.000 
#    0.000    0.000    0.000    0.000    0.000    0.000 
#
# Total GULP energy -78224.082227 kJ/mol
# GULP energy per Si atom -5587.434445 kJ/mol
# Density = 2.606229 g / cm^3
# Si number density = 26.121748 Si / 1000 Ang^3
#
#
#
# Elastic Constant Matrix: (Units=GPa)
#
#
# Indices 1 2 3 4 5 6 
#
# 1 169.4332 48.3426 59.1064 30.1330 24.6333 -6.9437
# 2 48.3426 89.0151 38.0153 11.0955 -2.1120 -14.5952
# 3 59.1064 38.0153 173.0957 19.9149 0.9728 -10.4963
# 4 30.1330 11.0955 19.9149 48.1833 -8.3264 -9.5497
# 5 24.6333 -2.1120 0.9728 -8.3264 58.6150 13.2149
# 6 -6.9437 -14.5952 -10.4963 -9.5497 13.2149 46.6001
#
#
#
# Elastic Compliance Matrix: (Units=1/GPa)
#
#
# Indices 1 2 3 4 5 6 
#
# 1 0.009107 -0.003697 -0.001698 -0.004922 -0.004661 0.000130
# 2 -0.003697 0.014511 -0.001804 0.000621 0.001450 0.003304
# 3 -0.001698 -0.001804 0.006921 -0.001257 0.000263 0.000409
# 4 -0.004922 0.000621 -0.001257 0.025682 0.005084 0.002999
# 5 -0.004661 0.001450 0.000263 0.005084 0.020934 -0.005076
# 6 0.000130 0.003304 0.000409 0.002999 -0.005076 0.024659
#
#
# Mechanical properties :
#
#
# Convention : Reuss Voigt Hill
#
# Bulk Modulus (GPa) = 61.94773 80.27473 71.11123
# Shear Modulus (GPa) = 41.12134 49.75165 45.43650
#
# Velocity S-wave (km/s) = 3.97195 4.36891 4.17515
# Velocity P-wave (km/s) = 6.69340 7.49984 7.10807
#
# Compressibility (1/GPa) = 0.01614264
#
# Stress axis : x y z
#
# Youngs Moduli (GPa) = 109.80093 68.91449 144.48968
#
# Poissons Ratio (x) = 0.25476 0.24528
# Poissons Ratio (y) = 0.40591 0.26063
# Poissons Ratio (z) = 0.18640 0.12431
#
# Static dielectric constant tensor:
#      x y z
#    x 2.209730 0.033170 -0.128810 
#    y 0.033170 2.088970 -0.079740 
#    z -0.128810 -0.079740 2.145620 
# 
# From -- ./inp_files/542191.got.cif
#   From: 2010.05.17/outbox.cif.g08.bks.cpg/sg2_272_cif.got.tgz:542191.got - 2010.06.03 11:33:40.
