data_PCOD9064401
_publ_section_title
;
Structure prediction by ZEFSAII (Michael W. Deem and Ramdas Pophale) SiO2 
 PCOD9064401
Probable space group: P -1
;
_chemical_formula_sum "Si O2"
_cell_formula_units_Z 12
_cell_length_a 5.110639
_cell_length_b 14.800472
_cell_length_c 9.848128
_cell_angle_alpha 51.514484
_cell_angle_beta 68.299387
_cell_angle_gamma 100.470249
_cell_volume 446.540466
_symmetry_space_group_name_H-M "P -1"
_symmetry_group_IT_number 2
_symmetry_cell_setting 'triclinic'
loop_
_space_group_symop_operation_xyz
x,y,z
-x,-y,-z
loop_
_atom_site_type_symbol
_atom_site_label
_atom_site_fract_x
_atom_site_fract_y
_atom_site_fract_z
Si Si1 0.241838 0.914825 0.500056
Si Si2 0.795103 0.381205 0.761680
Si Si3 0.776278 0.000875 0.852186
Si Si4 0.479899 0.631858 0.898790
Si Si5 0.501748 0.737348 0.513622
Si Si6 0.210760 0.251851 0.815736
O O1 0.385327 0.841025 0.454456
O O2 0.845276 0.782112 0.721777
O O3 0.500000 0.000000 0.500000
O O4 0.269526 0.022990 0.280531
O O5 0.409371 0.326750 0.845192
O O6 0.000000 0.500000 0.500000
O O7 0.918335 0.276824 0.818921
O O8 0.796147 0.406573 0.896446
O O9 0.876305 0.902053 0.994414
O O10 0.091285 0.160953 0.646643
O O11 0.500000 0.000000 0.000000
O O12 0.365539 0.648450 0.757590
O O13 0.500000 0.500000 0.000000
O O14 0.495128 0.679241 0.422064
#
# Coordination Sequence:
#
# PCOD9064401 Si02
#       6
#     2   2   2   2   2   2
#     4  11  28  48  78 120 163 210 274 339 411 493
#     4  12  30  52  81 117 159 214 285 346 406 496
#     4  11  24  45  74 116 160 212 267 331 413 491
#     4  11  29  52  80 112 162 219 271 339 417 495
#     4  11  26  45  76 113 162 208 266 336 411 486
#     4  12  27  48  81 116 161 214 273 344 416 487
#
# _framework density 26.873263999999999
#
# number of rings (size 3 to 8) (size 9 to 14) (size 15 to 20)
#    0.000    0.667    1.667    3.000   14.000    2.000 
#    0.000    2.500    0.000    0.000    0.000    0.000 
#    0.000    0.000    0.000    0.000    0.000    0.000 
#
# Total GULP energy -67071.636903 kJ/mol
# GULP energy per Si atom -5589.303075 kJ/mol
# Density = 2.681210 g / cm^3
# Si number density = 26.873264 Si / 1000 Ang^3
#
#
#
# Elastic Constant Matrix: (Units=GPa)
#
#
# Indices 1 2 3 4 5 6 
#
# 1 112.8722 53.7051 45.9816 -4.5825 19.9345 -2.0859
# 2 53.7051 124.2413 70.1861 23.8236 10.3830 -9.7518
# 3 45.9816 70.1861 225.5943 22.8350 22.8575 1.7200
# 4 -4.5825 23.8236 22.8350 46.7880 1.0339 1.3408
# 5 19.9345 10.3830 22.8575 1.0339 50.8487 1.3521
# 6 -2.0859 -9.7518 1.7200 1.3408 1.3521 63.2133
#
#
#
# Elastic Compliance Matrix: (Units=1/GPa)
#
#
# Indices 1 2 3 4 5 6 
#
# 1 0.012705 -0.005580 -0.000967 0.004647 -0.003490 -0.000439
# 2 -0.005580 0.013091 -0.002399 -0.006114 0.000664 0.002016
# 3 -0.000967 -0.002399 0.005710 -0.001609 -0.001652 -0.000488
# 4 0.004647 -0.006114 -0.001609 0.025771 -0.000340 -0.001285
# 5 -0.003490 0.000664 -0.001652 -0.000340 0.021660 -0.000424
# 6 -0.000439 0.002016 -0.000488 -0.001285 -0.000424 0.016166
#
#
# Mechanical properties :
#
#
# Convention : Reuss Voigt Hill
#
# Bulk Modulus (GPa) = 73.45088 89.16150 81.30619
# Shear Modulus (GPa) = 42.54098 51.69234 47.11666
#
# Velocity S-wave (km/s) = 3.98304 4.39060 4.19177
# Velocity P-wave (km/s) = 6.96738 7.67813 7.33138
#
# Compressibility (1/GPa) = 0.01361454
#
# Stress axis : x y z
#
# Youngs Moduli (GPa) = 78.70775 76.38654 175.11890
#
# Poissons Ratio (x) = 0.42620 0.16938
# Poissons Ratio (y) = 0.43915 0.42019
# Poissons Ratio (z) = 0.07613 0.18328
#
# Static dielectric constant tensor:
#      x y z
#    x 2.489690 0.089930 0.418660 
#    y 0.089930 2.257760 0.040410 
#    z 0.418660 0.040410 2.926550 
# 
# From -- ./inp_files/82328.got.cif
#   From: 2010.05.17/outbox.cif.g08.bks.cpg/sg2_42_cif.got.tgz:82328.got - 2010.06.03 11:33:40.
