data_PCOD9064046
_publ_section_title
;
Structure prediction by ZEFSAII (Michael W. Deem and Ramdas Pophale) SiO2 
 PCOD9064046
Probable space group: P -1
;
_chemical_formula_sum "Si O2"
_cell_formula_units_Z 16
_cell_length_a 8.947823
_cell_length_b 18.349002
_cell_length_c 11.985296
_cell_angle_alpha 126.345513
_cell_angle_beta 134.231035
_cell_angle_gamma 30.104954
_cell_volume 706.908724
_symmetry_space_group_name_H-M "P -1"
_symmetry_group_IT_number 2
_symmetry_cell_setting 'triclinic'
loop_
_space_group_symop_operation_xyz
x,y,z
-x,-y,-z
loop_
_atom_site_type_symbol
_atom_site_label
_atom_site_fract_x
_atom_site_fract_y
_atom_site_fract_z
Si Si1 0.273502 0.103804 0.310121
Si Si2 0.403262 0.158840 0.652318
Si Si3 0.685911 0.725964 0.864494
Si Si4 0.498374 0.356775 0.135525
Si Si5 0.226967 0.983152 0.685623
Si Si6 0.726438 0.401589 0.635396
Si Si7 0.213311 0.698900 0.195616
Si Si8 0.274942 0.414803 0.818887
O O1 0.431391 0.104429 0.496851
O O2 0.476719 0.066328 0.273665
O O3 0.881473 0.259709 0.248819
O O4 0.317071 0.982299 0.251905
O O5 0.349669 0.283459 0.720675
O O6 0.063459 0.246304 0.619240
O O7 0.533725 0.726438 0.892158
O O8 0.402248 0.864616 0.764902
O O9 0.897317 0.580574 0.770694
O O10 0.945702 0.713631 0.032212
O O11 0.254027 0.508029 0.211226
O O12 0.395159 0.390109 0.984763
O O13 0.000000 0.000000 0.500000
O O14 0.988932 0.139175 0.757190
O O15 0.500000 0.500000 0.500000
O O16 0.633354 0.371442 0.665187
O O17 0.505443 0.605013 0.172701
#
# Coordination Sequence:
#
# PCOD9064046 Si02
#       8
#     2   2   2   2   2   2   2   2
#     4  11  26  46  72 101 145 192 239 291 360 429
#     4  11  24  45  70 102 144 188 242 294 354 426
#     4  12  27  46  73 107 145 190 241 298 364 427
#     4  12  26  45  77 108 143 188 243 297 359 433
#     4  12  29  49  72 106 148 193 242 298 360 430
#     4  12  24  45  76 108 143 190 238 301 362 423
#     4  12  27  49  74 103 152 192 237 298 365 428
#     4  12  26  47  75 108 144 189 244 299 359 432
#
# _framework density 22.633756999999999
#
# number of rings (size 3 to 8) (size 9 to 14) (size 15 to 20)
#    0.000    0.250    5.000    3.375    8.750    0.500 
#    0.000    1.875    0.000    0.000    0.000    0.000 
#    0.000    0.000    0.000    0.000    0.000    0.000 
#
# Total GULP energy -89516.781281 kJ/mol
# GULP energy per Si atom -5594.798830 kJ/mol
# Density = 2.258224 g / cm^3
# Si number density = 22.633757 Si / 1000 Ang^3
#
#
#
# Elastic Constant Matrix: (Units=GPa)
#
#
# Indices 1 2 3 4 5 6 
#
# 1 127.9039 26.5103 27.6807 -18.4104 -31.7736 -3.5257
# 2 26.5103 113.6668 21.1820 -3.2660 -19.1825 20.6512
# 3 27.6807 21.1820 64.3209 -9.9821 -23.0501 15.1903
# 4 -18.4104 -3.2660 -9.9821 36.0008 8.4857 -7.5072
# 5 -31.7736 -19.1825 -23.0501 8.4857 39.6978 -1.4799
# 6 -3.5257 20.6512 15.1903 -7.5072 -1.4799 44.8581
#
#
#
# Elastic Compliance Matrix: (Units=1/GPa)
#
#
# Indices 1 2 3 4 5 6 
#
# 1 0.010724 -0.001577 -0.002120 0.004033 0.005846 0.003154
# 2 -0.001577 0.010793 -0.000605 -0.001959 0.003831 -0.005089
# 3 -0.002120 -0.000605 0.022180 0.001129 0.010392 -0.006867
# 4 0.004033 -0.001959 0.001129 0.032117 -0.003701 0.006089
# 5 0.005846 0.003831 0.010392 -0.003701 0.038390 -0.004176
# 6 0.003154 -0.005089 -0.006867 0.006089 -0.004176 0.028090
#
#
# Mechanical properties :
#
#
# Convention : Reuss Voigt Hill
#
# Bulk Modulus (GPa) = 28.49563 50.73752 39.61657
# Shear Modulus (GPa) = 30.75142 39.47925 35.11533
#
# Velocity S-wave (km/s) = 3.68999 4.18097 3.94313
# Velocity P-wave (km/s) = 5.54724 6.76556 6.18646
#
# Compressibility (1/GPa) = 0.03509310
#
# Stress axis : x y z
#
# Youngs Moduli (GPa) = 93.25241 92.65258 45.08648
#
# Poissons Ratio (x) = 0.14608 0.09558
# Poissons Ratio (y) = 0.14703 0.02728
# Poissons Ratio (z) = 0.19768 0.05606
#
# Static dielectric constant tensor:
#      x y z
#    x 1.852290 0.045120 0.042010 
#    y 0.045120 1.858630 0.015230 
#    z 0.042010 0.015230 1.834740 
# 
# From -- ./inp_files/206410.got.cif
#   From: 2010.05.17/outbox.cif.g08.bks.cpg/sg2_104_cif.got.tgz:206410.got - 2010.06.03 11:33:40.
