data_PCOD9064770
_publ_section_title
;
Structure prediction by ZEFSAII (Michael W. Deem and Ramdas Pophale) SiO2 
 PCOD9064770
Probable space group: P -1
;
_chemical_formula_sum "Si O2"
_cell_formula_units_Z 12
_cell_length_a 17.268502
_cell_length_b 11.305907
_cell_length_c 19.194309
_cell_angle_alpha 144.833385
_cell_angle_beta 21.761863
_cell_angle_gamma 156.207888
_cell_volume 547.247101
_symmetry_space_group_name_H-M "P -1"
_symmetry_group_IT_number 2
_symmetry_cell_setting 'triclinic'
loop_
_space_group_symop_operation_xyz
x,y,z
-x,-y,-z
loop_
_atom_site_type_symbol
_atom_site_label
_atom_site_fract_x
_atom_site_fract_y
_atom_site_fract_z
Si Si1 0.837419 0.594067 0.096889
Si Si2 0.743351 0.859703 0.091036
Si Si3 0.272277 0.705469 0.498972
Si Si4 0.051220 0.791638 0.155900
Si Si5 0.595222 0.384908 0.917474
Si Si6 0.205475 0.185457 0.349603
O O1 0.541894 0.372116 0.187720
O O2 0.798227 0.639307 0.232326
O O3 0.966589 0.455613 0.923957
O O4 0.073179 0.920008 0.021259
O O5 0.472716 0.819812 0.317139
O O6 0.601606 0.532550 0.050611
O O7 0.000000 0.000000 0.000000
O O8 0.215319 0.435883 0.445670
O O9 0.938807 0.563159 0.699534
O O10 0.500000 0.000000 0.500000
O O11 0.078520 0.961072 0.281594
O O12 0.362487 0.042157 0.969663
O O13 0.500000 0.500000 0.000000
O O14 0.000000 0.000000 0.500000
#
# Coordination Sequence:
#
# PCOD9064770 Si02
#       6
#     2   2   2   2   2   2
#     4  11  24  46  73 102 145 198 232 303 366 424
#     4  12  22  45  73 103 142 187 241 296 355 429
#     4  12  26  42  73 107 138 192 247 288 368 434
#     4  11  25  46  71 103 148 191 240 298 367 429
#     4  12  24  46  69 102 144 184 236 302 359 423
#     4  12  26  45  70 105 146 190 245 297 360 437
#
# _framework density 21.927935999999999
#
# number of rings (size 3 to 8) (size 9 to 14) (size 15 to 20)
#    0.000    0.333    6.667    1.500    2.333    1.333 
#    0.000    0.000    0.000    0.000    0.000    0.000 
#    0.000    0.000    0.000    0.000    0.000    0.000 
#
# Total GULP energy -66852.096025 kJ/mol
# GULP energy per Si atom -5571.008002 kJ/mol
# Density = 2.187803 g / cm^3
# Si number density = 21.927936 Si / 1000 Ang^3
#
#
#
# Elastic Constant Matrix: (Units=GPa)
#
#
# Indices 1 2 3 4 5 6 
#
# 1 131.4436 40.5480 28.4978 13.1750 -5.5953 3.6450
# 2 40.5480 124.2915 2.5323 22.2854 0.6136 -0.0950
# 3 28.4978 2.5323 87.6115 3.0816 -8.6932 3.1978
# 4 13.1750 22.2854 3.0816 29.4698 -3.3448 6.4003
# 5 -5.5953 0.6136 -8.6932 -3.3448 32.3482 5.2730
# 6 3.6450 -0.0950 3.1978 6.4003 5.2730 43.8087
#
#
#
# Elastic Compliance Matrix: (Units=1/GPa)
#
#
# Indices 1 2 3 4 5 6 
#
# 1 0.009244 -0.002669 -0.002776 -0.001639 0.000804 -0.000430
# 2 -0.002669 0.010173 0.000628 -0.007032 -0.001441 0.001399
# 3 -0.002776 0.000628 0.012643 0.000026 0.003082 -0.001065
# 4 -0.001639 -0.007032 0.000026 0.042027 0.005288 -0.006657
# 5 0.000804 -0.001441 0.003082 0.005288 0.033282 -0.005073
# 6 -0.000430 0.001399 -0.001065 -0.006657 -0.005073 0.024526
#
#
# Mechanical properties :
#
#
# Convention : Reuss Voigt Hill
#
# Bulk Modulus (GPa) = 44.59813 54.05588 49.32700
# Shear Modulus (GPa) = 33.55580 39.24323 36.39951
#
# Velocity S-wave (km/s) = 3.91612 4.23501 4.07868
# Velocity P-wave (km/s) = 6.38988 6.97272 6.68766
#
# Compressibility (1/GPa) = 0.02242246
#
# Stress axis : x y z
#
# Youngs Moduli (GPa) = 108.18206 98.30145 79.09662
#
# Poissons Ratio (x) = 0.26241 0.21961
# Poissons Ratio (y) = 0.28879 -0.04964
# Poissons Ratio (z) = 0.30037 -0.06169
#
# Static dielectric constant tensor:
#      x y z
#    x 1.927830 0.104490 0.075390 
#    y 0.104490 1.777020 0.031260 
#    z 0.075390 0.031260 1.853630 
# 
# From -- ./inp_files/256918.got.cif
#   From: 2010.05.17/outbox.cif.g08.bks.cpg/sg2_129_cif.got.tgz:256918.got - 2010.06.03 11:33:40.
