data_PCOD9064822
_publ_section_title
;
Structure prediction by ZEFSAII (Michael W. Deem and Ramdas Pophale) SiO2 
 PCOD9064822
Probable space group: P -1
;
_chemical_formula_sum "Si O2"
_cell_formula_units_Z 12
_cell_length_a 7.424606
_cell_length_b 15.021294
_cell_length_c 15.479091
_cell_angle_alpha 160.679017
_cell_angle_beta 118.461467
_cell_angle_gamma 64.187863
_cell_volume 501.535387
_symmetry_space_group_name_H-M "P -1"
_symmetry_group_IT_number 2
_symmetry_cell_setting 'triclinic'
loop_
_space_group_symop_operation_xyz
x,y,z
-x,-y,-z
loop_
_atom_site_type_symbol
_atom_site_label
_atom_site_fract_x
_atom_site_fract_y
_atom_site_fract_z
Si Si1 0.997191 0.660953 0.440544
Si Si2 0.773235 0.065865 0.541332
Si Si3 0.617414 0.020986 0.732758
Si Si4 0.360300 0.738075 0.709129
Si Si5 0.840284 0.198833 0.106670
Si Si6 0.779246 0.494577 0.087639
O O1 0.805453 0.848286 0.583773
O O2 0.957758 0.400363 0.252731
O O3 0.201928 0.797342 0.650905
O O4 0.991385 0.566535 0.253531
O O5 0.601982 0.101563 0.461308
O O6 0.793244 0.314400 0.840275
O O7 0.697650 0.787618 0.317696
O O8 0.000000 0.000000 0.500000
O O9 0.652085 0.313851 0.963070
O O10 0.660122 0.056945 0.877211
O O11 0.500000 0.500000 0.500000
O O12 0.246315 0.657821 0.698712
O O13 0.500000 0.000000 0.000000
O O14 0.000000 0.000000 0.000000
#
# Coordination Sequence:
#
# PCOD9064822 Si02
#       6
#     2   2   2   2   2   2
#     4  11  25  46  75 103 135 194 246 283 352 429
#     4  12  27  46  69 108 146 181 228 299 364 416
#     4  11  25  44  78 100 135 193 245 286 348 423
#     4  12  28  45  69 105 148 183 229 301 363 410
#     4  11  24  46  74 103 144 192 248 292 345 434
#     4  11  25  47  73  99 143 183 239 288 347 430
#
# _framework density 23.926527
#
# number of rings (size 3 to 8) (size 9 to 14) (size 15 to 20)
#    0.000    0.667    3.333    3.000    9.333    2.667 
#    0.000    0.000    0.000    0.000    0.000    0.000 
#    0.000    0.000    0.000    0.000    0.000    0.000 
#
# Total GULP energy -67179.985154 kJ/mol
# GULP energy per Si atom -5598.332096 kJ/mol
# Density = 2.387207 g / cm^3
# Si number density = 23.926527 Si / 1000 Ang^3
#
#
#
# Elastic Constant Matrix: (Units=GPa)
#
#
# Indices 1 2 3 4 5 6 
#
# 1 69.0560 43.0967 32.0124 -20.0598 -7.1169 -32.1610
# 2 43.0967 167.3813 76.7990 -43.9030 7.6164 -35.0022
# 3 32.0124 76.7990 163.5237 -35.8281 -6.7356 -25.3219
# 4 -20.0598 -43.9030 -35.8281 78.8356 -0.7319 16.0624
# 5 -7.1169 7.6164 -6.7356 -0.7319 43.8225 -3.8559
# 6 -32.1610 -35.0022 -25.3219 16.0624 -3.8559 41.9465
#
#
#
# Elastic Compliance Matrix: (Units=1/GPa)
#
#
# Indices 1 2 3 4 5 6 
#
# 1 0.025236 -0.002646 -0.000553 0.001318 0.005978 0.016852
# 2 -0.002646 0.009397 -0.002980 0.002613 -0.002230 0.002808
# 3 -0.000553 -0.002980 0.008320 0.001663 0.001880 0.001648
# 4 0.001318 0.002613 0.001663 0.015591 0.000121 -0.001765
# 5 0.005978 -0.002230 0.001880 0.000121 0.025006 0.006110
# 6 0.016852 0.002808 0.001648 -0.001765 0.006110 0.041336
#
#
# Mechanical properties :
#
#
# Convention : Reuss Voigt Hill
#
# Bulk Modulus (GPa) = 32.68513 78.19746 55.44129
# Shear Modulus (GPa) = 33.91149 49.45779 41.68464
#
# Velocity S-wave (km/s) = 3.76881 4.55144 4.17849
# Velocity P-wave (km/s) = 5.71217 7.77007 6.81920
#
# Compressibility (1/GPa) = 0.03059496
#
# Stress axis : x y z
#
# Youngs Moduli (GPa) = 39.62577 106.41777 120.19262
#
# Poissons Ratio (x) = 0.28161 0.06646
# Poissons Ratio (y) = 0.10486 0.35815
# Poissons Ratio (z) = 0.02191 0.31711
#
# Static dielectric constant tensor:
#      x y z
#    x 1.974110 -0.004150 0.066090 
#    y -0.004150 1.936540 -0.051920 
#    z 0.066090 -0.051920 1.918630 
# 
# From -- ./inp_files/228377.got.cif
#   From: 2010.05.17/outbox.cif.g08.bks.cpg/sg2_115_cif.got.tgz:228377.got - 2010.06.03 11:33:40.
