data_PCOD9064662
_publ_section_title
;
Structure prediction by ZEFSAII (Michael W. Deem and Ramdas Pophale) SiO2 
 PCOD9064662
Probable space group: P -1
;
_chemical_formula_sum "Si O2"
_cell_formula_units_Z 14
_cell_length_a 9.837337
_cell_length_b 12.914149
_cell_length_c 9.126684
_cell_angle_alpha 122.777862
_cell_angle_beta 135.986144
_cell_angle_gamma 53.529514
_cell_volume 634.255748
_symmetry_space_group_name_H-M "P -1"
_symmetry_group_IT_number 2
_symmetry_cell_setting 'triclinic'
loop_
_space_group_symop_operation_xyz
x,y,z
-x,-y,-z
loop_
_atom_site_type_symbol
_atom_site_label
_atom_site_fract_x
_atom_site_fract_y
_atom_site_fract_z
Si Si1 0.289596 0.971201 0.836114
Si Si2 0.143912 0.793001 0.374401
Si Si3 0.783862 0.983722 0.859776
Si Si4 0.163986 0.321322 0.336406
Si Si5 0.599538 0.218051 0.731413
Si Si6 0.292917 0.599773 0.839539
Si Si7 0.719850 0.465156 0.560414
O O1 0.084070 0.098113 0.738913
O O2 0.268872 0.854501 0.630763
O O3 0.285937 0.947921 0.986922
O O4 0.500000 0.000000 0.000000
O O5 0.271969 0.768575 0.302588
O O6 0.131167 0.659520 0.329441
O O7 0.810458 0.830960 0.786803
O O8 0.639085 0.066520 0.680095
O O9 0.000000 0.000000 0.000000
O O10 0.356499 0.301706 0.582281
O O11 0.207961 0.408894 0.306802
O O12 0.932908 0.397348 0.277046
O O13 0.691764 0.267744 0.980171
O O14 0.299873 0.581695 0.656968
O O15 0.500000 0.500000 0.000000
O O16 0.500000 0.500000 0.500000
#
# Coordination Sequence:
#
# PCOD9064662 Si02
#       7
#     2   2   2   2   2   2   2
#     4  11  25  45  72 107 141 184 243 292 359 422
#     4  11  24  46  71 105 147 183 230 303 355 416
#     4  12  24  47  76 105 143 188 243 301 353 422
#     4  12  26  46  77 106 141 193 241 293 365 426
#     4  12  24  47  77 104 141 189 244 296 354 425
#     4  12  25  47  73 104 145 186 245 290 349 440
#     4  12  26  48  74 104 152 189 231 299 362 428
#
# _framework density 22.073114
#
# number of rings (size 3 to 8) (size 9 to 14) (size 15 to 20)
#    0.000    0.286    5.714    2.571    0.000    1.143 
#    2.571    3.571    0.000    0.000    0.000    0.000 
#    0.000    0.000    0.000    0.000    0.000    0.000 
#
# Total GULP energy -78207.899719 kJ/mol
# GULP energy per Si atom -5586.278551 kJ/mol
# Density = 2.202287 g / cm^3
# Si number density = 22.073114 Si / 1000 Ang^3
#
#
#
# Elastic Constant Matrix: (Units=GPa)
#
#
# Indices 1 2 3 4 5 6 
#
# 1 178.4501 63.1391 56.5920 -2.2904 5.2323 14.4097
# 2 63.1391 161.9028 24.6632 -8.6109 11.0181 32.0888
# 3 56.5920 24.6632 69.5819 10.3010 15.2163 13.0276
# 4 -2.2904 -8.6109 10.3010 40.5784 -3.9385 7.6713
# 5 5.2323 11.0181 15.2163 -3.9385 47.0397 -5.5038
# 6 14.4097 32.0888 13.0276 7.6713 -5.5038 47.0133
#
#
#
# Elastic Compliance Matrix: (Units=1/GPa)
#
#
# Indices 1 2 3 4 5 6 
#
# 1 0.008608 -0.002543 -0.007024 0.001749 0.002175 0.001013
# 2 -0.002543 0.008569 0.000248 0.002490 -0.002276 -0.005811
# 3 -0.007024 0.000248 0.023479 -0.006234 -0.007912 -0.004431
# 4 0.001749 0.002490 -0.006234 0.028042 0.003034 -0.004728
# 5 0.002175 -0.002276 -0.007912 0.003034 0.025008 0.005512
# 6 0.001013 -0.005811 -0.004431 -0.004728 0.005512 0.027571
#
#
# Mechanical properties :
#
#
# Convention : Reuss Voigt Hill
#
# Bulk Modulus (GPa) = 45.41556 77.63595 61.52575
# Shear Modulus (GPa) = 33.95476 44.62899 39.29187
#
# Velocity S-wave (km/s) = 3.92635 4.50140 4.22367
# Velocity P-wave (km/s) = 6.41675 7.89084 7.19166
#
# Compressibility (1/GPa) = 0.02201889
#
# Stress axis : x y z
#
# Youngs Moduli (GPa) = 116.17358 116.69367 42.59080
#
# Poissons Ratio (x) = 0.29671 0.29915
# Poissons Ratio (y) = 0.29539 -0.01055
# Poissons Ratio (z) = 0.81598 -0.02890
#
# Static dielectric constant tensor:
#      x y z
#    x 1.762630 -0.024440 0.019240 
#    y -0.024440 1.942120 0.045330 
#    z 0.019240 0.045330 1.843360 
# 
# From -- ./inp_files/190441.got.cif
#   From: 2010.05.17/outbox.cif.g08.bks.cpg/sg2_96_cif.got.tgz:190441.got - 2010.06.03 11:33:40.
