data_PCOD9064499
_publ_section_title
;
Structure prediction by ZEFSAII (Michael W. Deem and Ramdas Pophale) SiO2 
 PCOD9064499
Probable space group: P -1
;
_chemical_formula_sum "Si O2"
_cell_formula_units_Z 12
_cell_length_a 5.576215
_cell_length_b 11.401223
_cell_length_c 9.101770
_cell_angle_alpha 124.785131
_cell_angle_beta 77.316040
_cell_angle_gamma 103.246571
_cell_volume 459.734033
_symmetry_space_group_name_H-M "P -1"
_symmetry_group_IT_number 2
_symmetry_cell_setting 'triclinic'
loop_
_space_group_symop_operation_xyz
x,y,z
-x,-y,-z
loop_
_atom_site_type_symbol
_atom_site_label
_atom_site_fract_x
_atom_site_fract_y
_atom_site_fract_z
Si Si1 0.007960 0.262783 0.333076
Si Si2 0.547260 0.720884 0.266327
Si Si3 0.196347 0.074217 0.413241
Si Si4 0.912302 0.332369 0.929238
Si Si5 0.736759 0.113878 0.010404
Si Si6 0.639494 0.491098 0.627024
O O1 0.826617 0.374462 0.487329
O O2 0.119502 0.208699 0.428411
O O3 0.214188 0.350569 0.264462
O O4 0.881137 0.132441 0.158400
O O5 0.567726 0.855118 0.474125
O O6 0.306514 0.717812 0.195078
O O7 0.511719 0.572768 0.258792
O O8 0.818977 0.728543 0.160745
O O9 0.202600 0.959481 0.202286
O O10 0.000000 0.000000 0.500000
O O11 0.776944 0.280947 0.065583
O O12 0.000000 0.500000 0.000000
O O13 0.500000 0.000000 0.000000
O O14 0.500000 0.500000 0.500000
#
# Coordination Sequence:
#
# PCOD9064499 Si02
#       6
#     2   2   2   2   2   2
#     4  11  26  49  77 115 161 204 268 335 403 482
#     4  12  26  49  79 112 157 208 271 326 406 485
#     4  12  26  49  78 113 159 218 265 325 403 489
#     4  12  29  51  79 116 160 211 267 341 405 481
#     4  12  29  47  78 117 160 211 267 337 402 483
#     4  11  24  45  80 112 151 203 266 328 410 475
#
# _framework density 26.102049000000001
#
# number of rings (size 3 to 8) (size 9 to 14) (size 15 to 20)
#    0.000    0.333    3.333    4.000    7.000    2.000 
#    0.000    0.000    0.000    0.000    0.000    0.000 
#    0.000    0.000    0.000    0.000    0.000    0.000 
#
# Total GULP energy -67087.281938 kJ/mol
# GULP energy per Si atom -5590.606828 kJ/mol
# Density = 2.604264 g / cm^3
# Si number density = 26.102049 Si / 1000 Ang^3
#
#
#
# Elastic Constant Matrix: (Units=GPa)
#
#
# Indices 1 2 3 4 5 6 
#
# 1 129.9219 55.9940 55.4400 -3.0172 38.9385 20.0232
# 2 55.9940 183.4154 17.9553 -28.8775 3.0974 31.0439
# 3 55.4400 17.9553 105.9606 -8.5097 29.9313 19.8361
# 4 -3.0172 -28.8775 -8.5097 54.2939 11.4555 -0.6301
# 5 38.9385 3.0974 29.9313 11.4555 64.9821 -0.1708
# 6 20.0232 31.0439 19.8361 -0.6301 -0.1708 64.9698
#
#
#
# Elastic Compliance Matrix: (Units=1/GPa)
#
#
# Indices 1 2 3 4 5 6 
#
# 1 0.012765 -0.003298 -0.004479 -0.000636 -0.005319 -0.001011
# 2 -0.003298 0.007423 0.001203 0.003839 0.000384 -0.002860
# 3 -0.004479 0.001203 0.013689 0.003402 -0.004287 -0.003352
# 4 -0.000636 0.003839 0.003402 0.022039 -0.005261 -0.002477
# 5 -0.005319 0.000384 -0.004287 -0.005261 0.021467 0.002770
# 6 -0.001011 -0.002860 -0.003352 -0.002477 0.002770 0.018076
#
#
# Mechanical properties :
#
#
# Convention : Reuss Voigt Hill
#
# Bulk Modulus (GPa) = 48.24289 75.34183 61.79236
# Shear Modulus (GPa) = 43.28367 56.17640 49.73003
#
# Velocity S-wave (km/s) = 4.07658 4.64420 4.36961
# Velocity P-wave (km/s) = 6.37813 7.59507 7.01304
#
# Compressibility (1/GPa) = 0.02072844
#
# Stress axis : x y z
#
# Youngs Moduli (GPa) = 78.34129 134.71579 73.05168
#
# Poissons Ratio (x) = 0.44424 0.32721
# Poissons Ratio (y) = 0.25834 -0.08786
# Poissons Ratio (z) = 0.35091 -0.16202
#
# Static dielectric constant tensor:
#      x y z
#    x 2.283150 -2.015590 -0.157030 
#    y -2.015590 28.050030 1.472630 
#    z -0.157030 1.472630 2.144820 
# 
# From -- ./inp_files/131954.got.cif
#   From: 2010.05.17/outbox.cif.g08.bks.cpg/sg2_66_cif.got.tgz:131954.got - 2010.06.03 11:33:40.
