data_PCOD9064252
_publ_section_title
;
Structure prediction by ZEFSAII (Michael W. Deem and Ramdas Pophale) SiO2 
 PCOD9064252
Probable space group: P -1
;
_chemical_formula_sum "Si O2"
_cell_formula_units_Z 12
_cell_length_a 12.245902
_cell_length_b 9.215468
_cell_length_c 7.302118
_cell_angle_alpha 83.557709
_cell_angle_beta 83.526164
_cell_angle_gamma 34.885261
_cell_volume 468.019507
_symmetry_space_group_name_H-M "P -1"
_symmetry_group_IT_number 2
_symmetry_cell_setting 'triclinic'
loop_
_space_group_symop_operation_xyz
x,y,z
-x,-y,-z
loop_
_atom_site_type_symbol
_atom_site_label
_atom_site_fract_x
_atom_site_fract_y
_atom_site_fract_z
Si Si1 0.219510 0.717779 0.509179
Si Si2 0.910632 0.940460 0.049764
Si Si3 0.025859 0.557058 0.296490
Si Si4 0.452497 0.669102 0.761654
Si Si5 0.530018 0.928220 0.719181
Si Si6 0.199550 0.459542 0.797656
O O1 0.331613 0.704314 0.629774
O O2 0.333216 0.598675 0.312713
O O3 0.221771 0.550401 0.613087
O O4 0.000000 0.000000 0.500000
O O5 0.955351 0.798658 0.246932
O O6 0.040299 0.708869 0.916855
O O7 0.680874 0.212002 0.050830
O O8 0.000000 0.000000 0.000000
O O9 0.247514 0.309446 0.241684
O O10 0.000000 0.500000 0.500000
O O11 0.891245 0.600967 0.197616
O O12 0.460607 0.836584 0.747240
O O13 0.500000 0.000000 0.500000
O O14 0.418636 0.171309 0.826071
#
# Coordination Sequence:
#
# PCOD9064252 Si02
#       6
#     2   2   2   2   2   2
#     4  11  26  43  74 110 141 198 254 297 364 449
#     4  12  27  51  72 110 160 194 237 318 379 432
#     4  12  26  46  80 107 143 201 249 297 369 446
#     4  11  24  45  72  98 151 192 241 302 366 435
#     4  12  24  43  75 110 142 192 252 306 362 437
#     4  12  26  46  73 109 152 187 249 316 363 437
#
# _framework density 25.639955
#
# number of rings (size 3 to 8) (size 9 to 14) (size 15 to 20)
#    0.000    0.333    6.667    0.500    7.000    0.667 
#    0.000    1.667    0.000    0.000    0.000    0.000 
#    0.000    0.000    0.000    0.000    0.000    0.000 
#
# Total GULP energy -66948.085510 kJ/mol
# GULP energy per Si atom -5579.007126 kJ/mol
# Density = 2.558160 g / cm^3
# Si number density = 25.639955 Si / 1000 Ang^3
#
#
#
# Elastic Constant Matrix: (Units=GPa)
#
#
# Indices 1 2 3 4 5 6 
#
# 1 135.0216 56.8683 20.9532 0.1318 -49.8913 4.3725
# 2 56.8683 187.7911 46.3213 47.6255 -25.8531 -14.6473
# 3 20.9532 46.3213 128.0686 23.3788 -46.5840 6.2066
# 4 0.1318 47.6255 23.3788 63.5846 1.3203 -10.8271
# 5 -49.8913 -25.8531 -46.5840 1.3203 49.2909 6.4539
# 6 4.3725 -14.6473 6.2066 -10.8271 6.4539 54.7449
#
#
#
# Elastic Compliance Matrix: (Units=1/GPa)
#
#
# Indices 1 2 3 4 5 6 
#
# 1 0.016302 -0.003805 0.007366 -0.001387 0.022297 -0.006058
# 2 -0.003805 0.008182 -0.002150 -0.004961 -0.001715 0.001958
# 3 0.007366 -0.002150 0.017801 -0.006710 0.024296 -0.007373
# 4 -0.001387 -0.004961 -0.006710 0.023090 -0.011684 0.005488
# 5 0.022297 -0.001715 0.024296 -0.011684 0.067226 -0.015230
# 6 -0.006058 0.001958 -0.007373 0.005488 -0.015230 0.022991
#
#
# Mechanical properties :
#
#
# Convention : Reuss Voigt Hill
#
# Bulk Modulus (GPa) = 22.16919 77.68523 49.92721
# Shear Modulus (GPa) = 29.79635 55.30663 42.55149
#
# Velocity S-wave (km/s) = 3.41267 4.64944 4.07821
# Velocity P-wave (km/s) = 4.91869 7.69333 6.45681
#
# Compressibility (1/GPa) = 0.04510764
#
# Stress axis : x y z
#
# Youngs Moduli (GPa) = 61.34201 122.21237 56.17799
#
# Poissons Ratio (x) = 0.46500 -0.41381
# Poissons Ratio (y) = 0.23340 0.12078
# Poissons Ratio (z) = -0.45185 0.26275
#
# Static dielectric constant tensor:
#      x y z
#    x 2.009360 -0.079650 0.085350 
#    y -0.079650 1.954750 -0.034720 
#    z 0.085350 -0.034720 2.226420 
# 
# From -- ./inp_files/238269.got.cif
#   From: 2010.05.17/outbox.cif.g08.bks.cpg/sg2_120_cif.got.tgz:238269.got - 2010.06.03 11:33:40.
