data_PCOD9064606
_publ_section_title
;
Structure prediction by ZEFSAII (Michael W. Deem and Ramdas Pophale) SiO2 
 PCOD9064606
Probable space group: P -1
;
_chemical_formula_sum "Si O2"
_cell_formula_units_Z 12
_cell_length_a 14.937269
_cell_length_b 16.586972
_cell_length_c 12.182362
_cell_angle_alpha 24.482272
_cell_angle_beta 145.468254
_cell_angle_gamma 155.392059
_cell_volume 520.743609
_symmetry_space_group_name_H-M "P -1"
_symmetry_group_IT_number 2
_symmetry_cell_setting 'triclinic'
loop_
_space_group_symop_operation_xyz
x,y,z
-x,-y,-z
loop_
_atom_site_type_symbol
_atom_site_label
_atom_site_fract_x
_atom_site_fract_y
_atom_site_fract_z
Si Si1 0.513545 0.696489 0.159946
Si Si2 0.753626 0.661342 0.058119
Si Si3 0.220250 0.088313 0.654632
Si Si4 0.777418 0.335713 0.915393
Si Si5 0.675312 0.281592 0.271417
Si Si6 0.960450 0.715754 0.430425
O O1 0.403328 0.394270 0.427469
O O2 0.752231 0.898667 0.201368
O O3 0.385748 0.726197 0.080475
O O4 0.463658 0.729951 0.948411
O O5 0.776255 0.516079 0.168690
O O6 0.825557 0.642152 0.274180
O O7 0.500000 0.500000 0.000000
O O8 0.899088 0.972114 0.794826
O O9 0.000000 0.000000 0.500000
O O10 0.262211 0.912839 0.863421
O O11 0.813362 0.518034 0.626758
O O12 0.000000 0.500000 0.000000
O O13 0.866436 0.311550 0.378731
O O14 0.500000 0.000000 0.500000
#
# Coordination Sequence:
#
# PCOD9064606 Si02
#       6
#     2   2   2   2   2   2
#     4  11  27  46  70 108 139 185 234 285 358 412
#     4  11  26  48  72 103 142 185 233 293 342 419
#     4  11  24  46  70 103 143 183 228 292 347 415
#     4  12  24  45  75 101 139 183 231 292 349 417
#     4  12  25  46  73 101 141 184 234 287 347 417
#     4  11  26  48  72 104 138 186 238 283 357 411
#
# _framework density 23.043970999999999
#
# number of rings (size 3 to 8) (size 9 to 14) (size 15 to 20)
#    0.000    0.667    5.000    1.000    4.667    4.000 
#    3.000    0.000    0.000    0.000    0.000    0.000 
#    0.000    0.000    0.000    0.000    0.000    0.000 
#
# Total GULP energy -67202.312168 kJ/mol
# GULP energy per Si atom -5600.192681 kJ/mol
# Density = 2.299152 g / cm^3
# Si number density = 23.043971 Si / 1000 Ang^3
#
#
#
# Elastic Constant Matrix: (Units=GPa)
#
#
# Indices 1 2 3 4 5 6 
#
# 1 81.0737 38.0915 37.7432 -14.9774 1.8241 -14.3639
# 2 38.0915 178.5602 69.7217 7.1497 -1.0339 -32.7705
# 3 37.7432 69.7217 138.1552 -7.2949 -8.7894 -39.9595
# 4 -14.9774 7.1497 -7.2949 49.1382 -13.0238 13.7001
# 5 1.8241 -1.0339 -8.7894 -13.0238 40.4916 5.7674
# 6 -14.3639 -32.7705 -39.9595 13.7001 5.7674 42.4957
#
#
#
# Elastic Compliance Matrix: (Units=1/GPa)
#
#
# Indices 1 2 3 4 5 6 
#
# 1 0.015694 -0.002599 -0.003050 0.005180 0.000415 -0.001294
# 2 -0.002599 0.008123 -0.002354 -0.004275 -0.002253 0.004856
# 3 -0.003050 -0.002354 0.011674 -0.000844 0.001165 0.008245
# 4 0.005180 -0.004275 -0.000844 0.028897 0.010634 -0.013099
# 5 0.000415 -0.002253 0.001165 0.010634 0.029422 -0.007923
# 6 -0.001294 0.004856 0.008245 -0.013099 -0.007923 0.039890
#
#
# Mechanical properties :
#
#
# Convention : Reuss Voigt Hill
#
# Bulk Modulus (GPa) = 51.32354 76.54466 63.93410
# Shear Modulus (GPa) = 32.00991 43.24061 37.62526
#
# Velocity S-wave (km/s) = 3.73108 4.33649 4.04513
# Velocity P-wave (km/s) = 6.39387 7.63953 7.04429
#
# Compressibility (1/GPa) = 0.01948424
#
# Stress axis : x y z
#
# Youngs Moduli (GPa) = 63.71859 123.10181 85.66293
#
# Poissons Ratio (x) = 0.32000 0.26128
# Poissons Ratio (y) = 0.16564 0.20164
# Poissons Ratio (z) = 0.19435 0.28976
#
# Static dielectric constant tensor:
#      x y z
#    x 1.911380 0.005940 0.004550 
#    y 0.005940 1.910120 0.051100 
#    z 0.004550 0.051100 1.887170 
# 
# From -- ./inp_files/453547.got.cif
#   From: 2010.05.17/outbox.cif.g08.bks.cpg/sg2_227_cif.got.tgz:453547.got - 2010.06.03 11:33:40.
