data_PCOD9064811
_publ_section_title
;
Structure prediction by ZEFSAII (Michael W. Deem and Ramdas Pophale) SiO2 
 PCOD9064811
Probable space group: P -1
;
_chemical_formula_sum "Si O2"
_cell_formula_units_Z 16
_cell_length_a 8.558824
_cell_length_b 9.178783
_cell_length_c 14.742060
_cell_angle_alpha 49.349246
_cell_angle_beta 101.649537
_cell_angle_gamma 74.579264
_cell_volume 727.119754
_symmetry_space_group_name_H-M "P -1"
_symmetry_group_IT_number 2
_symmetry_cell_setting 'triclinic'
loop_
_space_group_symop_operation_xyz
x,y,z
-x,-y,-z
loop_
_atom_site_type_symbol
_atom_site_label
_atom_site_fract_x
_atom_site_fract_y
_atom_site_fract_z
Si Si1 0.429474 0.886754 0.612303
Si Si2 0.073219 0.389892 0.673302
Si Si3 0.013171 0.768423 0.804406
Si Si4 0.343945 0.768756 0.354571
Si Si5 0.161702 0.737692 0.635433
Si Si6 0.779897 0.523452 0.882842
Si Si7 0.881882 0.233785 0.841184
Si Si8 0.707293 0.779496 0.395945
O O1 0.345673 0.741516 0.624913
O O2 0.569978 0.740619 0.770272
O O3 0.500000 0.000000 0.500000
O O4 0.269727 0.099510 0.564089
O O5 0.138459 0.558500 0.646553
O O6 0.225989 0.195168 0.704289
O O7 0.029474 0.286530 0.794372
O O8 0.871512 0.517784 0.543801
O O9 0.911521 0.625910 0.846068
O O10 0.139622 0.708117 0.753079
O O11 0.841957 0.036846 0.687945
O O12 0.142798 0.661971 0.953005
O O13 0.500000 0.500000 0.500000
O O14 0.251087 0.774284 0.246023
O O15 0.494588 0.844004 0.341282
O O16 0.000000 0.000000 0.500000
O O17 0.772238 0.420837 0.828030
O O18 0.000000 0.000000 0.000000
#
# Coordination Sequence:
#
# PCOD9064811 Si02
#       8
#     2   2   2   2   2   2   2   2
#     4  12  26  44  72 108 139 186 247 298 358 432
#     4  11  25  47  66 107 147 185 235 296 369 424
#     4  11  25  46  72 104 141 195 241 294 374 432
#     4  12  26  41  73 108 141 188 245 293 356 431
#     4  12  26  42  74 104 145 185 237 307 366 425
#     4  11  24  46  73  98 148 191 240 302 356 440
#     4  12  25  46  72 103 147 195 238 289 366 437
#     4  11  25  43  69 103 145 181 236 301 353 424
#
# _framework density 22.004628
#
# number of rings (size 3 to 8) (size 9 to 14) (size 15 to 20)
#    0.000    0.500    6.250    1.500    5.250    0.500 
#    0.000    0.625    0.000    0.000    0.000    0.000 
#    0.000    0.000    0.000    0.000    0.000    0.000 
#
# Total GULP energy -89155.509706 kJ/mol
# GULP energy per Si atom -5572.219357 kJ/mol
# Density = 2.195454 g / cm^3
# Si number density = 22.004628 Si / 1000 Ang^3
#
#
#
# Elastic Constant Matrix: (Units=GPa)
#
#
# Indices 1 2 3 4 5 6 
#
# 1 95.6596 23.1307 37.0270 7.7443 5.8988 19.6896
# 2 23.1307 115.7411 13.2182 11.5849 1.1957 6.6634
# 3 37.0270 13.2182 103.0813 5.8843 1.1773 3.1263
# 4 7.7443 11.5849 5.8843 30.3660 -1.7717 4.5262
# 5 5.8988 1.1957 1.1773 -1.7717 25.5434 1.6089
# 6 19.6896 6.6634 3.1263 4.5262 1.6089 43.0074
#
#
#
# Elastic Compliance Matrix: (Units=1/GPa)
#
#
# Indices 1 2 3 4 5 6 
#
# 1 0.014078 -0.001810 -0.004548 -0.001342 -0.002698 -0.005592
# 2 -0.001810 0.009363 -0.000368 -0.003010 -0.000195 -0.000271
# 3 -0.004548 -0.000368 0.011397 -0.001097 0.000377 0.001412
# 4 -0.001342 -0.003010 -0.001097 0.035213 0.003111 -0.002662
# 5 -0.002698 -0.000195 0.000377 0.003111 0.040017 -0.000587
# 6 -0.005592 -0.000271 0.001412 -0.002662 -0.000587 0.026053
#
#
# Mechanical properties :
#
#
# Convention : Reuss Voigt Hill
#
# Bulk Modulus (GPa) = 46.75915 51.24820 49.00367
# Shear Modulus (GPa) = 31.90802 35.85709 33.88256
#
# Velocity S-wave (km/s) = 3.81210 4.04112 3.92828
# Velocity P-wave (km/s) = 6.37745 6.71673 6.54929
#
# Compressibility (1/GPa) = 0.02138619
#
# Stress axis : x y z
#
# Youngs Moduli (GPa) = 71.03492 106.80768 87.74023
#
# Poissons Ratio (x) = 0.19331 0.39901
# Poissons Ratio (y) = 0.12856 0.03231
# Poissons Ratio (z) = 0.32304 0.03933
#
# Static dielectric constant tensor:
#      x y z
#    x 1.809430 0.068090 -0.032360 
#    y 0.068090 1.758740 0.055900 
#    z -0.032360 0.055900 1.817220 
# 
# From -- ./inp_files/494404.got.cif
#   From: 2010.05.17/outbox.cif.g08.bks.cpg/sg2_248_cif.got.tgz:494404.got - 2010.06.03 11:33:40.
