data_PCOD9064021
_publ_section_title
;
Structure prediction by ZEFSAII (Michael W. Deem and Ramdas Pophale) SiO2 
 PCOD9064021
Probable space group: P -1
;
_chemical_formula_sum "Si O2"
_cell_formula_units_Z 12
_cell_length_a 8.071232
_cell_length_b 11.663732
_cell_length_c 5.428541
_cell_angle_alpha 96.102144
_cell_angle_beta 103.499019
_cell_angle_gamma 109.622708
_cell_volume 458.453656
_symmetry_space_group_name_H-M "P -1"
_symmetry_group_IT_number 2
_symmetry_cell_setting 'triclinic'
loop_
_space_group_symop_operation_xyz
x,y,z
-x,-y,-z
loop_
_atom_site_type_symbol
_atom_site_label
_atom_site_fract_x
_atom_site_fract_y
_atom_site_fract_z
Si Si1 0.098177 0.250929 0.974745
Si Si2 0.514857 0.401764 0.284353
Si Si3 0.288921 0.910601 0.071797
Si Si4 0.089939 0.468676 0.769970
Si Si5 0.466337 0.167672 0.504205
Si Si6 0.811819 0.937246 0.282806
O O1 0.046577 0.321005 0.744324
O O2 0.131330 0.122833 0.941548
O O3 0.911791 0.198077 0.052313
O O4 0.300892 0.344735 0.124064
O O5 0.500000 0.500000 0.500000
O O6 0.687696 0.462024 0.173684
O O7 0.548685 0.282710 0.381700
O O8 0.393417 0.837708 0.239281
O O9 0.357245 0.035187 0.300896
O O10 0.300332 0.978308 0.825008
O O11 0.000000 0.500000 0.500000
O O12 0.000000 0.500000 0.000000
O O13 0.306498 0.179799 0.620357
O O14 0.000000 0.000000 0.500000
#
# Coordination Sequence:
#
# PCOD9064021 Si02
#       6
#     2   2   2   2   2   2
#     4  12  25  47  76 110 155 201 270 333 400 485
#     4  12  26  51  82 116 158 213 274 336 403 483
#     4  11  24  45  69 113 150 201 252 326 404 469
#     4  12  29  53  78 116 161 219 274 336 410 486
#     4  11  24  46  74 108 156 197 260 324 404 473
#     4  12  23  42  72 110 152 200 255 324 403 482
#
# _framework density 26.174947
#
# number of rings (size 3 to 8) (size 9 to 14) (size 15 to 20)
#    0.000    0.333    3.333    5.500    0.000    4.000 
#    6.000    0.000    0.000    0.000    0.000    0.000 
#    0.000    0.000    0.000    0.000    0.000    0.000 
#
# Total GULP energy -66813.230606 kJ/mol
# GULP energy per Si atom -5567.769217 kJ/mol
# Density = 2.611537 g / cm^3
# Si number density = 26.174947 Si / 1000 Ang^3
#
#
#
# Elastic Constant Matrix: (Units=GPa)
#
#
# Indices 1 2 3 4 5 6 
#
# 1 109.3964 43.7776 58.1921 8.7480 -1.2386 19.2125
# 2 43.7776 131.5801 42.0144 -27.6669 -3.2274 25.2101
# 3 58.1921 42.0144 125.4709 -6.4556 15.7789 18.3510
# 4 8.7480 -27.6669 -6.4556 55.0489 9.6390 2.0060
# 5 -1.2386 -3.2274 15.7789 9.6390 30.2387 -8.2207
# 6 19.2125 25.2101 18.3510 2.0060 -8.2207 47.4157
#
#
#
# Elastic Compliance Matrix: (Units=1/GPa)
#
#
# Indices 1 2 3 4 5 6 
#
# 1 0.014741 -0.003933 -0.006489 -0.006028 0.005445 -0.000171
# 2 -0.003933 0.011449 -0.000680 0.006844 -0.002093 -0.004883
# 3 -0.006489 -0.000680 0.013202 0.004062 -0.009597 -0.003954
# 4 -0.006028 0.006844 0.004062 0.025220 -0.011248 -0.005786
# 5 0.005445 -0.002093 -0.009597 -0.011248 0.044607 0.010831
# 6 -0.000171 -0.004883 -0.003954 -0.005786 0.010831 0.027408
#
#
# Mechanical properties :
#
#
# Convention : Reuss Voigt Hill
#
# Bulk Modulus (GPa) = 58.18744 72.71284 65.45014
# Shear Modulus (GPa) = 30.38393 41.37154 35.87774
#
# Velocity S-wave (km/s) = 3.41075 3.97996 3.70630
# Velocity P-wave (km/s) = 6.14731 6.99714 6.58595
#
# Compressibility (1/GPa) = 0.01718584
#
# Stress axis : x y z
#
# Youngs Moduli (GPa) = 67.83939 87.34477 75.74860
#
# Poissons Ratio (x) = 0.34355 0.49156
# Poissons Ratio (y) = 0.26683 0.05151
# Poissons Ratio (z) = 0.44024 0.05939
#
# Static dielectric constant tensor:
#      x y z
#    x 2.101960 -0.065380 0.024210 
#    y -0.065380 1.984640 0.010920 
#    z 0.024210 0.010920 2.254880 
# 
# From -- ./inp_files/27350.got.cif
#   From: 2010.05.17/outbox.cif.g08.bks.cpg/sg2_14_cif.got.tgz:27350.got - 2010.06.03 11:33:40.
