data_PCOD9064529
_publ_section_title
;
Structure prediction by ZEFSAII (Michael W. Deem and Ramdas Pophale) SiO2 
 PCOD9064529
Probable space group: P -1
;
_chemical_formula_sum "Si O2"
_cell_formula_units_Z 12
_cell_length_a 8.526119
_cell_length_b 6.830336
_cell_length_c 18.614285
_cell_angle_alpha 136.008262
_cell_angle_beta 126.106773
_cell_angle_gamma 77.928233
_cell_volume 561.954808
_symmetry_space_group_name_H-M "P -1"
_symmetry_group_IT_number 2
_symmetry_cell_setting 'triclinic'
loop_
_space_group_symop_operation_xyz
x,y,z
-x,-y,-z
loop_
_atom_site_type_symbol
_atom_site_label
_atom_site_fract_x
_atom_site_fract_y
_atom_site_fract_z
Si Si1 0.390574 0.277486 0.976009
Si Si2 0.066028 0.752832 0.145147
Si Si3 0.097548 0.677631 0.297060
Si Si4 0.170242 0.368867 0.540865
Si Si5 0.690214 0.397270 0.204942
Si Si6 0.409002 0.395256 0.369231
O O1 0.143120 0.182547 0.881062
O O2 0.413482 0.954188 0.891299
O O3 0.500000 0.500000 0.000000
O O4 0.502472 0.445191 0.123830
O O5 0.116802 0.650318 0.209455
O O6 0.249719 0.049327 0.243008
O O7 0.000000 0.500000 0.000000
O O8 0.281035 0.598362 0.362215
O O9 0.874544 0.454603 0.210884
O O10 0.114002 0.020168 0.409244
O O11 0.201998 0.402253 0.644131
O O12 0.396639 0.560706 0.618324
O O13 0.000000 0.500000 0.500000
O O14 0.500000 0.500000 0.500000
#
# Coordination Sequence:
#
# PCOD9064529 Si02
#       6
#     2   2   2   2   2   2
#     4  11  24  46  68 102 146 188 234 297 353 431
#     4  12  28  44  74 106 145 192 242 294 366 429
#     4  12  25  50  72 106 148 188 240 305 362 429
#     4  12  27  46  77 107 141 194 246 299 364 433
#     4  11  25  43  74 104 140 185 243 293 362 426
#     4  12  27  49  73 103 152 189 242 300 364 429
#
# _framework density 21.354029000000001
#
# number of rings (size 3 to 8) (size 9 to 14) (size 15 to 20)
#    0.000    0.333    5.000    3.000    4.667    0.667 
#    0.000    0.000    0.000    0.000    0.000    0.000 
#    0.000    0.000    0.000    0.000    0.000    0.000 
#
# Total GULP energy -67140.422471 kJ/mol
# GULP energy per Si atom -5595.035206 kJ/mol
# Density = 2.130543 g / cm^3
# Si number density = 21.354029 Si / 1000 Ang^3
#
#
#
# Elastic Constant Matrix: (Units=GPa)
#
#
# Indices 1 2 3 4 5 6 
#
# 1 79.7679 47.8647 25.2795 11.1210 23.4347 13.9837
# 2 47.8647 150.1054 72.9356 -10.9590 1.8770 10.8989
# 3 25.2795 72.9356 136.4584 0.3286 -6.8213 5.0895
# 4 11.1210 -10.9590 0.3286 52.5758 8.4324 14.1271
# 5 23.4347 1.8770 -6.8213 8.4324 54.4686 -4.6724
# 6 13.9837 10.8989 5.0895 14.1271 -4.6724 33.6877
#
#
#
# Elastic Compliance Matrix: (Units=1/GPa)
#
#
# Indices 1 2 3 4 5 6 
#
# 1 0.020289 -0.005549 -0.000979 -0.002188 -0.008905 -0.006797
# 2 -0.005549 0.011256 -0.004887 0.004056 0.000569 -0.002222
# 3 -0.000979 -0.004887 0.010184 -0.001621 0.002240 0.001439
# 4 -0.002188 0.004056 -0.001621 0.023864 -0.004016 -0.010724
# 5 -0.008905 0.000569 0.002240 -0.004016 0.023773 0.008155
# 6 -0.006797 -0.002222 0.001439 -0.010724 0.008155 0.038635
#
#
# Mechanical properties :
#
#
# Convention : Reuss Voigt Hill
#
# Bulk Modulus (GPa) = 52.91219 73.16570 63.03894
# Shear Modulus (GPa) = 31.82074 42.82988 37.32531
#
# Velocity S-wave (km/s) = 3.86444 4.48337 4.18536
# Velocity P-wave (km/s) = 6.68911 7.81910 7.27607
#
# Compressibility (1/GPa) = 0.01889924
#
# Stress axis : x y z
#
# Youngs Moduli (GPa) = 49.28845 88.83998 98.19506
#
# Poissons Ratio (x) = 0.49294 0.09616
# Poissons Ratio (y) = 0.27348 0.47987
# Poissons Ratio (z) = 0.04827 0.43415
#
# Static dielectric constant tensor:
#      x y z
#    x 1.759250 -0.039910 -0.026710 
#    y -0.039910 1.860410 0.006950 
#    z -0.026710 0.006950 1.786310 
# 
# From -- ./inp_files/17414.got.cif
#   From: 2010.05.17/outbox.cif.g08.bks.cpg/sg2_9_cif.got.tgz:17414.got - 2010.06.03 11:33:40.
