data_PCOD9064001
_publ_section_title
;
Structure prediction by ZEFSAII (Michael W. Deem and Ramdas Pophale) SiO2 
 PCOD9064001
Probable space group: P -1
;
_chemical_formula_sum "Si O2"
_cell_formula_units_Z 14
_cell_length_a 8.471998
_cell_length_b 10.988593
_cell_length_c 8.343677
_cell_angle_alpha 59.838286
_cell_angle_beta 97.851642
_cell_angle_gamma 111.588977
_cell_volume 623.352486
_symmetry_space_group_name_H-M "P -1"
_symmetry_group_IT_number 2
_symmetry_cell_setting 'triclinic'
loop_
_space_group_symop_operation_xyz
x,y,z
-x,-y,-z
loop_
_atom_site_type_symbol
_atom_site_label
_atom_site_fract_x
_atom_site_fract_y
_atom_site_fract_z
Si Si1 0.408124 0.074921 0.262102
Si Si2 0.043095 0.667322 0.979182
Si Si3 0.090610 0.877900 0.562460
Si Si4 0.822523 0.403261 0.624328
Si Si5 0.849296 0.840239 0.035217
Si Si6 0.237876 0.315718 0.535122
Si Si7 0.523646 0.201027 0.515860
O O1 0.510697 0.965930 0.308811
O O2 0.251164 0.966713 0.419238
O O3 0.512673 0.197824 0.323705
O O4 0.315019 0.127269 0.073844
O O5 0.900646 0.736517 0.979207
O O6 0.142199 0.666374 0.159134
O O7 0.132043 0.793487 0.776057
O O8 0.000000 0.500000 0.000000
O O9 0.942373 0.749560 0.535718
O O10 0.000000 0.000000 0.500000
O O11 0.714310 0.507733 0.583630
O O12 0.706999 0.293049 0.550247
O O13 0.000000 0.500000 0.500000
O O14 0.799213 0.742953 0.251679
O O15 0.000000 0.000000 0.000000
O O16 0.377825 0.259421 0.516050
#
# Coordination Sequence:
#
# PCOD9064001 Si02
#       7
#     2   2   2   2   2   2   2
#     4  11  24  45  69 102 143 179 234 286 348 415
#     4  12  25  41  72 110 135 178 243 285 347 417
#     4  12  21  43  75 100 137 185 231 288 344 420
#     4  12  25  48  70  96 138 184 234 286 351 420
#     4  12  23  42  73 108 135 186 240 284 341 422
#     4  12  23  43  71 100 140 182 230 287 350 409
#     4  11  26  45  66 100 141 184 228 294 351 407
#
# _framework density 22.459202999999999
#
# number of rings (size 3 to 8) (size 9 to 14) (size 15 to 20)
#    0.000    0.286    7.143    2.143    0.000    0.571 
#    5.143    0.714    0.000    0.000    0.000    0.000 
#    0.000    0.000    0.000    0.000    0.000    0.000 
#
# Total GULP energy -78210.401909 kJ/mol
# GULP energy per Si atom -5586.457279 kJ/mol
# Density = 2.240808 g / cm^3
# Si number density = 22.459203 Si / 1000 Ang^3
#
#
#
# Elastic Constant Matrix: (Units=GPa)
#
#
# Indices 1 2 3 4 5 6 
#
# 1 91.3872 27.3900 15.4527 -0.3412 17.4746 -16.0976
# 2 27.3900 121.4533 8.9578 14.3518 16.5518 5.3810
# 3 15.4527 8.9578 130.9143 5.6261 27.3736 15.4962
# 4 -0.3412 14.3518 5.6261 34.5990 1.2236 19.7828
# 5 17.4746 16.5518 27.3736 1.2236 39.4593 -3.2636
# 6 -16.0976 5.3810 15.4962 19.7828 -3.2636 51.4820
#
#
#
# Elastic Compliance Matrix: (Units=1/GPa)
#
#
# Indices 1 2 3 4 5 6 
#
# 1 0.013501 -0.002521 -0.001219 -0.001460 -0.003602 0.005185
# 2 -0.002521 0.009663 0.000574 -0.003542 -0.003293 -0.000819
# 3 -0.001219 0.000574 0.009593 0.000735 -0.006713 -0.004037
# 4 -0.001460 -0.003542 0.000735 0.039057 -0.000860 -0.015370
# 5 -0.003602 -0.003293 -0.006713 -0.000860 0.033307 0.003681
# 6 0.005185 -0.000819 -0.004037 -0.015370 0.003681 0.028486
#
#
# Mechanical properties :
#
#
# Convention : Reuss Voigt Hill
#
# Bulk Modulus (GPa) = 37.84272 49.70619 43.77445
# Shear Modulus (GPa) = 33.61428 44.57166 39.09297
#
# Velocity S-wave (km/s) = 3.87289 4.45967 4.17660
# Velocity P-wave (km/s) = 6.07332 6.97840 6.54153
#
# Compressibility (1/GPa) = 0.02642516
#
# Stress axis : x y z
#
# Youngs Moduli (GPa) = 74.07058 103.48264 104.24306
#
# Poissons Ratio (x) = 0.26089 0.12707
# Poissons Ratio (y) = 0.18674 -0.05984
# Poissons Ratio (z) = 0.09029 -0.05941
#
# Static dielectric constant tensor:
#      x y z
#    x 1.892400 -0.028290 0.018140 
#    y -0.028290 1.639590 0.096660 
#    z 0.018140 0.096660 1.756200 
# 
# From -- ./inp_files/184470.got.cif
#   From: 2010.05.17/outbox.cif.g08.bks.cpg/sg2_93_cif.got.tgz:184470.got - 2010.06.03 11:33:40.
