data_PCOD9064976
_publ_section_title
;
Structure prediction by ZEFSAII (Michael W. Deem and Ramdas Pophale) SiO2 
 PCOD9064976
Probable space group: P -1
;
_chemical_formula_sum "Si O2"
_cell_formula_units_Z 14
_cell_length_a 14.431845
_cell_length_b 13.494503
_cell_length_c 16.741824
_cell_angle_alpha 24.062890
_cell_angle_beta 152.888858
_cell_angle_gamma 139.371642
_cell_volume 579.871282
_symmetry_space_group_name_H-M "P -1"
_symmetry_group_IT_number 2
_symmetry_cell_setting 'triclinic'
loop_
_space_group_symop_operation_xyz
x,y,z
-x,-y,-z
loop_
_atom_site_type_symbol
_atom_site_label
_atom_site_fract_x
_atom_site_fract_y
_atom_site_fract_z
Si Si1 0.877112 0.819292 0.719613
Si Si2 0.059002 0.383284 0.918801
Si Si3 0.347380 0.268272 0.711910
Si Si4 0.332282 0.603055 0.865546
Si Si5 0.699682 0.643647 0.208868
Si Si6 0.968298 0.904812 0.133679
Si Si7 0.357558 0.490776 0.318129
O O1 0.729003 0.751840 0.586477
O O2 0.814110 0.116122 0.471412
O O3 0.836799 0.661329 0.881985
O O4 0.131057 0.711756 0.979807
O O5 0.857639 0.630546 0.576206
O O6 0.205808 0.410076 0.937807
O O7 0.982001 0.135713 0.029143
O O8 0.270377 0.272767 0.740287
O O9 0.486399 0.464581 0.663629
O O10 0.500000 0.000000 0.000000
O O11 0.500000 0.500000 0.000000
O O12 0.463276 0.637776 0.018149
O O13 0.759193 0.827979 0.054096
O O14 0.848128 0.357982 0.518476
O O15 0.000000 0.000000 0.000000
O O16 0.500000 0.500000 0.500000
#
# Coordination Sequence:
#
# PCOD9064976 Si02
#       7
#     2   2   2   2   2   2   2
#     4  11  27  48  77 109 153 194 265 316 378 467
#     4  12  26  46  74 107 152 197 255 314 382 465
#     4  12  27  43  75 110 151 199 255 313 384 447
#     4  12  28  46  72 111 154 197 247 326 390 450
#     4  11  27  46  73 111 153 198 258 319 381 459
#     4  11  24  46  78 109 148 202 262 312 384 462
#     4  11  25  49  75 109 143 206 256 316 384 448
#
# _framework density 24.143288999999999
#
# number of rings (size 3 to 8) (size 9 to 14) (size 15 to 20)
#    0.000    0.571    2.857    3.429   10.000    4.571 
#    0.000    3.571    0.000    0.000    0.000    0.000 
#    0.000    0.000    0.000    0.000    0.000    0.000 
#
# Total GULP energy -78333.960351 kJ/mol
# GULP energy per Si atom -5595.282882 kJ/mol
# Density = 2.408834 g / cm^3
# Si number density = 24.143289 Si / 1000 Ang^3
#
#
#
# Elastic Constant Matrix: (Units=GPa)
#
#
# Indices 1 2 3 4 5 6 
#
# 1 96.4494 18.4532 16.7814 -4.2705 -10.9183 14.3550
# 2 18.4532 101.8869 30.1618 2.7147 -11.8577 3.7065
# 3 16.7814 30.1618 95.5433 -11.2701 5.2894 -2.9415
# 4 -4.2705 2.7147 -11.2701 35.4007 -5.7052 -3.9626
# 5 -10.9183 -11.8577 5.2894 -5.7052 41.0170 -2.0564
# 6 14.3550 3.7065 -2.9415 -3.9626 -2.0564 48.6042
#
#
#
# Elastic Compliance Matrix: (Units=1/GPa)
#
#
# Indices 1 2 3 4 5 6 
#
# 1 0.011788 -0.001141 -0.001857 0.001037 0.003027 -0.003294
# 2 -0.001141 0.011632 -0.003893 -0.001832 0.003266 -0.000797
# 3 -0.001857 -0.003893 0.012682 0.003893 -0.002623 0.001819
# 4 0.001037 -0.001832 0.003893 0.030645 0.003643 0.002721
# 5 0.003027 0.003266 -0.002623 0.003643 0.026982 0.000137
# 6 -0.003294 -0.000797 0.001819 0.002721 0.000137 0.021946
#
#
# Mechanical properties :
#
#
# Convention : Reuss Voigt Hill
#
# Bulk Modulus (GPa) = 44.80208 47.18581 45.99394
# Shear Modulus (GPa) = 36.52385 40.23658 38.38022
#
# Velocity S-wave (km/s) = 3.89369 4.08680 3.99141
# Velocity P-wave (km/s) = 6.22988 6.46960 6.35087
#
# Compressibility (1/GPa) = 0.02232039
#
# Stress axis : x y z
#
# Youngs Moduli (GPa) = 84.82913 85.97092 78.85175
#
# Poissons Ratio (x) = 0.09808 0.14643
# Poissons Ratio (y) = 0.09678 0.30698
# Poissons Ratio (z) = 0.15753 0.33469
#
# Static dielectric constant tensor:
#      x y z
#    x 2.003410 -0.074200 -0.013540 
#    y -0.074200 1.952690 0.010360 
#    z -0.013540 0.010360 1.928640 
# 
# From -- ./inp_files/573795.got.cif
#   From: 2010.05.17/outbox.cif.g08.bks.cpg/sg2_287_cif.got.tgz:573795.got - 2010.06.03 11:33:40.
