data_PCOD9064821
_publ_section_title
;
Structure prediction by ZEFSAII (Michael W. Deem and Ramdas Pophale) SiO2 
 PCOD9064821
Probable space group: P -1
;
_chemical_formula_sum "Si O2"
_cell_formula_units_Z 16
_cell_length_a 14.616564
_cell_length_b 14.818655
_cell_length_c 9.628612
_cell_angle_alpha 90.630317
_cell_angle_beta 66.457748
_cell_angle_gamma 31.052259
_cell_volume 655.799861
_symmetry_space_group_name_H-M "P -1"
_symmetry_group_IT_number 2
_symmetry_cell_setting 'triclinic'
loop_
_space_group_symop_operation_xyz
x,y,z
-x,-y,-z
loop_
_atom_site_type_symbol
_atom_site_label
_atom_site_fract_x
_atom_site_fract_y
_atom_site_fract_z
Si Si1 0.693839 0.985607 0.086119
Si Si2 0.488181 0.562068 0.651977
Si Si3 0.327449 0.883929 0.622477
Si Si4 0.892252 0.943737 0.734486
Si Si5 0.629715 0.879996 0.571341
Si Si6 0.262342 0.287516 0.143778
Si Si7 0.213417 0.765198 0.094296
Si Si8 0.481970 0.837155 0.259625
O O1 0.733019 0.996575 0.213483
O O2 0.638732 0.930675 0.171519
O O3 0.398674 0.241192 0.174361
O O4 0.905880 0.853458 0.843467
O O5 0.500000 0.500000 0.500000
O O6 0.434098 0.708808 0.641696
O O7 0.801141 0.298028 0.527867
O O8 0.263898 0.712277 0.898003
O O9 0.538836 0.743067 0.372192
O O10 0.048385 0.080783 0.713520
O O11 0.673495 0.099386 0.750201
O O12 0.832938 0.089122 0.847928
O O13 0.709994 0.910987 0.581043
O O14 0.918194 0.570864 0.390459
O O15 0.500000 0.000000 0.500000
O O16 0.500000 0.000000 0.000000
O O17 0.270715 0.330354 0.990590
O O18 0.500000 0.500000 0.000000
#
# Coordination Sequence:
#
# PCOD9064821 Si02
#       8
#     2   2   2   2   2   2   2   2
#     4  11  24  46  74 103 142 189 238 299 357 434
#     4  12  25  45  76 100 145 187 237 300 359 431
#     4  12  25  46  72 108 142 186 240 294 366 424
#     4  11  26  47  70 108 138 189 244 290 365 431
#     4  12  26  49  73 107 153 191 242 310 366 430
#     4  11  26  48  76 105 147 196 245 299 368 434
#     4  12  27  48  70 103 150 190 235 303 359 433
#     4  11  27  46  71 110 142 192 242 300 360 445
#
# _framework density 24.397687999999999
#
# number of rings (size 3 to 8) (size 9 to 14) (size 15 to 20)
#    0.000    0.500    5.000    2.250    3.500    5.500 
#    0.000    0.000    0.000    0.000    0.000    0.000 
#    0.000    0.000    0.000    0.000    0.000    0.000 
#
# Total GULP energy -89147.441298 kJ/mol
# GULP energy per Si atom -5571.715081 kJ/mol
# Density = 2.434216 g / cm^3
# Si number density = 24.397688 Si / 1000 Ang^3
#
#
#
# Elastic Constant Matrix: (Units=GPa)
#
#
# Indices 1 2 3 4 5 6 
#
# 1 116.3081 -0.0533 13.5868 1.5820 11.7978 -11.4721
# 2 -0.0533 65.6327 27.8914 -12.5635 0.6406 -4.7031
# 3 13.5868 27.8914 90.8164 -37.6733 -10.5016 -4.4904
# 4 1.5820 -12.5635 -37.6733 55.9208 -4.7095 -2.6815
# 5 11.7978 0.6406 -10.5016 -4.7095 31.9370 -13.0457
# 6 -11.4721 -4.7031 -4.4904 -2.6815 -13.0457 25.9829
#
#
#
# Elastic Compliance Matrix: (Units=1/GPa)
#
#
# Indices 1 2 3 4 5 6 
#
# 1 0.009601 0.001048 -0.003261 -0.002543 -0.004458 0.001365
# 2 0.001048 0.017833 -0.005768 0.000010 -0.001936 0.001723
# 3 -0.003261 -0.005768 0.021865 0.015291 0.015019 0.010414
# 4 -0.002543 0.000010 0.015291 0.030157 0.015483 0.012408
# 5 -0.004458 -0.001936 0.015019 0.015483 0.051559 0.027762
# 6 0.001365 0.001723 0.010414 0.012408 0.027762 0.056420
#
#
# Mechanical properties :
#
#
# Convention : Reuss Voigt Hill
#
# Bulk Modulus (GPa) = 29.99690 39.51189 34.75440
# Shear Modulus (GPa) = 23.30905 38.19032 30.74968
#
# Velocity S-wave (km/s) = 3.09427 3.96071 3.55400
# Velocity P-wave (km/s) = 5.00876 6.09478 5.57827
#
# Compressibility (1/GPa) = 0.03333677
#
# Stress axis : x y z
#
# Youngs Moduli (GPa) = 104.15985 56.07689 45.73453
#
# Poissons Ratio (x) = -0.05878 0.14915
# Poissons Ratio (y) = -0.10918 0.26379
# Poissons Ratio (z) = 0.33968 0.32345
#
# Static dielectric constant tensor:
#      x y z
#    x 1.881090 0.030250 0.008040 
#    y 0.030250 1.955060 0.030020 
#    z 0.008040 0.030020 1.969190 
# 
# From -- ./inp_files/315213.got.cif
#   From: 2010.05.17/outbox.cif.g08.bks.cpg/sg2_158_cif.got.tgz:315213.got - 2010.06.03 11:33:40.
