data_PCOD9064081
_publ_section_title
;
Structure prediction by ZEFSAII (Michael W. Deem and Ramdas Pophale) SiO2 
 PCOD9064081
Probable space group: P -1
;
_chemical_formula_sum "Si O2"
_cell_formula_units_Z 12
_cell_length_a 5.065536
_cell_length_b 11.215196
_cell_length_c 12.886868
_cell_angle_alpha 124.303326
_cell_angle_beta 57.090655
_cell_angle_gamma 89.092159
_cell_volume 449.666329
_symmetry_space_group_name_H-M "P -1"
_symmetry_group_IT_number 2
_symmetry_cell_setting 'triclinic'
loop_
_space_group_symop_operation_xyz
x,y,z
-x,-y,-z
loop_
_atom_site_type_symbol
_atom_site_label
_atom_site_fract_x
_atom_site_fract_y
_atom_site_fract_z
Si Si1 0.794411 0.618624 0.812649
Si Si2 0.766560 0.269197 0.353855
Si Si3 0.903127 0.068976 0.936207
Si Si4 0.660826 0.615887 0.065141
Si Si5 0.027539 0.275878 0.515286
Si Si6 0.517732 0.055077 0.642795
O O1 0.435029 0.755433 0.905710
O O2 0.875262 0.378617 0.313668
O O3 0.851880 0.435464 0.702341
O O4 0.768756 0.671562 0.962524
O O5 0.758023 0.311258 0.496407
O O6 0.109297 0.088879 0.187411
O O7 0.594347 0.732014 0.603766
O O8 0.177238 0.079326 0.797721
O O9 0.000000 0.000000 0.000000
O O10 0.466915 0.777118 0.255880
O O11 0.500000 0.500000 0.000000
O O12 0.000000 0.500000 0.000000
O O13 0.159982 0.098813 0.448481
O O14 0.500000 0.000000 0.500000
#
# Coordination Sequence:
#
# PCOD9064081 Si02
#       6
#     2   2   2   2   2   2
#     4  12  24  45  74 108 151 201 256 321 383 457
#     4  11  24  45  70 108 150 196 249 312 384 459
#     4  11  24  46  78 113 151 199 257 319 385 456
#     4  12  28  48  74 110 147 198 260 318 378 455
#     4  11  26  44  72 110 150 197 249 312 385 459
#     4  11  25  50  77 111 157 207 256 318 389 464
#
# _framework density 26.686451000000002
#
# number of rings (size 3 to 8) (size 9 to 14) (size 15 to 20)
#    0.000    0.667    0.000    7.500    0.000    9.333 
#    0.000    7.500    0.000    0.000    0.000    0.000 
#    0.000    0.000    0.000    0.000    0.000    0.000 
#
# Total GULP energy -67185.986698 kJ/mol
# GULP energy per Si atom -5598.832225 kJ/mol
# Density = 2.662571 g / cm^3
# Si number density = 26.686451 Si / 1000 Ang^3
#
#
#
# Elastic Constant Matrix: (Units=GPa)
#
#
# Indices 1 2 3 4 5 6 
#
# 1 115.9170 58.3936 47.3725 1.9327 4.7090 -21.2022
# 2 58.3936 151.2360 71.1846 28.3813 2.0192 -11.1962
# 3 47.3725 71.1846 203.0062 15.8386 11.6124 -7.4758
# 4 1.9327 28.3813 15.8386 74.4040 -5.8784 2.6140
# 5 4.7090 2.0192 11.6124 -5.8784 58.0196 3.3042
# 6 -21.2022 -11.1962 -7.4758 2.6140 3.3042 49.0867
#
#
#
# Elastic Compliance Matrix: (Units=1/GPa)
#
#
# Indices 1 2 3 4 5 6 
#
# 1 0.011866 -0.003893 -0.001317 0.001263 -0.000665 0.004014
# 2 -0.003893 0.009805 -0.002275 -0.003161 0.000089 0.000371
# 3 -0.001317 -0.002275 0.006129 -0.000487 -0.001087 -0.000055
# 4 0.001263 -0.003161 -0.000487 0.014890 0.001679 -0.001155
# 5 -0.000665 0.000089 -0.001087 0.001679 0.017772 -0.001718
# 6 0.004014 0.000371 -0.000055 -0.001155 -0.001718 0.022359
#
#
# Mechanical properties :
#
#
# Convention : Reuss Voigt Hill
#
# Bulk Modulus (GPa) = 77.93004 91.56227 84.74615
# Shear Modulus (GPa) = 48.98703 55.84932 52.41818
#
# Velocity S-wave (km/s) = 4.28910 4.57967 4.43677
# Velocity P-wave (km/s) = 7.33444 7.89616 7.62048
#
# Compressibility (1/GPa) = 0.01283202
#
# Stress axis : x y z
#
# Youngs Moduli (GPa) = 84.27258 101.98464 163.16042
#
# Poissons Ratio (x) = 0.39702 0.21483
# Poissons Ratio (y) = 0.32807 0.37113
# Poissons Ratio (z) = 0.11096 0.23198
#
# Static dielectric constant tensor:
#      x y z
#    x 2.027650 0.147690 -0.156760 
#    y 0.147690 2.168940 -0.048480 
#    z -0.156760 -0.048480 2.056560 
# 
# From -- ./inp_files/365357.got.cif
#   From: 2010.05.17/outbox.cif.g08.bks.cpg/sg2_183_cif.got.tgz:365357.got - 2010.06.03 11:33:40.
