data_PCOD9064204
_publ_section_title
;
Structure prediction by ZEFSAII (Michael W. Deem and Ramdas Pophale) SiO2 
 PCOD9064204
Probable space group: P -1
;
_chemical_formula_sum "Si O2"
_cell_formula_units_Z 16
_cell_length_a 12.003358
_cell_length_b 9.186480
_cell_length_c 18.625441
_cell_angle_alpha 84.767782
_cell_angle_beta 38.976481
_cell_angle_gamma 54.104284
_cell_volume 731.039221
_symmetry_space_group_name_H-M "P -1"
_symmetry_group_IT_number 2
_symmetry_cell_setting 'triclinic'
loop_
_space_group_symop_operation_xyz
x,y,z
-x,-y,-z
loop_
_atom_site_type_symbol
_atom_site_label
_atom_site_fract_x
_atom_site_fract_y
_atom_site_fract_z
Si Si1 0.330394 0.543040 0.015115
Si Si2 0.614841 0.912577 0.724208
Si Si3 0.295603 0.689056 0.874155
Si Si4 0.750853 0.247035 0.433066
Si Si5 0.669968 0.643787 0.596993
Si Si6 0.416246 0.953870 0.111941
Si Si7 0.633619 0.226626 0.650888
Si Si8 0.668543 0.031022 0.385727
O O1 0.967917 0.782660 0.202252
O O2 0.500000 0.500000 0.000000
O O3 0.379093 0.614361 0.918824
O O4 0.428627 0.310352 0.961886
O O5 0.500604 0.879882 0.721404
O O6 0.958324 0.610973 0.579778
O O7 0.488969 0.027679 0.862447
O O8 0.608294 0.071159 0.680859
O O9 0.569818 0.569172 0.693541
O O10 0.337708 0.495795 0.831065
O O11 0.000000 0.000000 0.000000
O O12 0.500000 0.500000 0.500000
O O13 0.621973 0.294887 0.573349
O O14 0.792413 0.061174 0.381885
O O15 0.054611 0.145148 0.289607
O O16 0.550396 0.737886 0.572060
O O17 0.500000 0.000000 0.000000
O O18 0.000000 0.000000 0.500000
O O19 0.500000 0.000000 0.500000
#
# Coordination Sequence:
#
# PCOD9064204 Si02
#       8
#     2   2   2   2   2   2   2   2
#     4  12  27  46  74 105 144 194 238 298 372 432
#     4  11  24  45  72 104 139 189 245 298 359 436
#     4  12  24  45  70 100 146 185 236 299 360 428
#     4  12  26  46  75 103 141 189 236 295 361 428
#     4  11  25  44  73 103 140 191 242 301 363 430
#     4  12  27  48  71 108 146 189 243 301 365 438
#     4  12  22  45  74 100 138 184 245 293 349 434
#     4  12  27  47  70 107 147 188 242 296 363 435
#
# _framework density 21.886651000000001
#
# number of rings (size 3 to 8) (size 9 to 14) (size 15 to 20)
#    0.000    0.250    6.250    2.250    5.250    1.000 
#    0.000    1.250    0.000    0.000    0.000    0.000 
#    0.000    0.000    0.000    0.000    0.000    0.000 
#
# Total GULP energy -89255.796623 kJ/mol
# GULP energy per Si atom -5578.487289 kJ/mol
# Density = 2.183684 g / cm^3
# Si number density = 21.886651 Si / 1000 Ang^3
#
#
#
# Elastic Constant Matrix: (Units=GPa)
#
#
# Indices 1 2 3 4 5 6 
#
# 1 107.8256 40.7735 16.0097 -5.7584 35.2810 -3.8209
# 2 40.7735 126.0715 24.7117 -7.9660 23.3238 -18.0725
# 3 16.0097 24.7117 53.7719 3.2406 20.7274 -12.1715
# 4 -5.7584 -7.9660 3.2406 60.0107 2.4478 12.0071
# 5 35.2810 23.3238 20.7274 2.4478 35.7011 -4.3017
# 6 -3.8209 -18.0725 -12.1715 12.0071 -4.3017 50.6980
#
#
#
# Elastic Compliance Matrix: (Units=1/GPa)
#
#
# Indices 1 2 3 4 5 6 
#
# 1 0.014637 -0.002517 0.001949 0.001732 -0.014184 -0.000940
# 2 -0.002517 0.010076 -0.002445 0.000846 -0.002443 0.002407
# 3 0.001949 -0.002445 0.025997 -0.001884 -0.014725 0.004713
# 4 0.001732 0.000846 -0.001884 0.018075 -0.002958 -0.004552
# 5 -0.014184 -0.002443 -0.014725 -0.002958 0.052335 -0.000334
# 6 -0.000940 0.002407 0.004713 -0.004552 -0.000334 0.022693
#
#
# Mechanical properties :
#
#
# Convention : Reuss Voigt Hill
#
# Bulk Modulus (GPa) = 22.37971 50.07319 36.22645
# Shear Modulus (GPa) = 30.35188 43.02691 36.68939
#
# Velocity S-wave (km/s) = 3.72798 4.43865 4.09875
# Velocity P-wave (km/s) = 5.36451 7.01405 6.24399
#
# Compressibility (1/GPa) = 0.04468333
#
# Stress axis : x y z
#
# Youngs Moduli (GPa) = 68.32082 99.24569 38.46605
#
# Poissons Ratio (x) = 0.24981 -0.07498
# Poissons Ratio (y) = 0.17197 0.09406
# Poissons Ratio (z) = -0.13317 0.24269
#
# Static dielectric constant tensor:
#      x y z
#    x 1.880170 0.071350 -0.004400 
#    y 0.071350 1.738190 0.023210 
#    z -0.004400 0.023210 1.819220 
# 
# From -- ./inp_files/263604.got.cif
#   From: 2010.05.17/outbox.cif.g08.bks.cpg/sg2_132_cif.got.tgz:263604.got - 2010.06.03 11:33:40.
