data_PCOD9064144
_publ_section_title
;
Structure prediction by ZEFSAII (Michael W. Deem and Ramdas Pophale) SiO2 
 PCOD9064144
Probable space group: P -1
;
_chemical_formula_sum "Si O2"
_cell_formula_units_Z 12
_cell_length_a 9.539958
_cell_length_b 9.271494
_cell_length_c 9.611967
_cell_angle_alpha 102.332317
_cell_angle_beta 133.129339
_cell_angle_gamma 66.602713
_cell_volume 567.317929
_symmetry_space_group_name_H-M "P -1"
_symmetry_group_IT_number 2
_symmetry_cell_setting 'triclinic'
loop_
_space_group_symop_operation_xyz
x,y,z
-x,-y,-z
loop_
_atom_site_type_symbol
_atom_site_label
_atom_site_fract_x
_atom_site_fract_y
_atom_site_fract_z
Si Si1 0.120693 0.328167 0.191194
Si Si2 0.439115 0.679311 0.930090
Si Si3 0.134525 0.306901 0.885455
Si Si4 0.172691 0.844847 0.023720
Si Si5 0.444427 0.843361 0.461650
Si Si6 0.151916 0.833730 0.511608
O O1 0.335842 0.290430 0.401890
O O2 0.006540 0.512505 0.150970
O O3 0.168410 0.245913 0.054531
O O4 0.961430 0.258690 0.135786
O O5 0.287398 0.718046 0.700603
O O6 0.500000 0.500000 0.000000
O O7 0.651107 0.699845 0.034351
O O8 0.324221 0.818946 0.990796
O O9 0.001294 0.233624 0.687740
O O10 0.322330 0.794113 0.246593
O O11 0.000000 0.000000 0.000000
O O12 0.309806 0.861533 0.512877
O O13 0.500000 0.000000 0.500000
O O14 0.000000 0.000000 0.500000
#
# Coordination Sequence:
#
# PCOD9064144 Si02
#       6
#     2   2   2   2   2   2
#     4  11  24  45  71 106 142 189 244 297 367 431
#     4  12  28  48  73 111 148 191 244 303 370 432
#     4  11  26  46  74 102 146 190 241 305 363 436
#     4  12  25  45  72 106 147 190 244 301 360 441
#     4  12  26  44  74 105 139 194 241 294 366 438
#     4  12  29  47  73 108 147 190 246 304 369 434
#
# _framework density 21.152159000000001
#
# number of rings (size 3 to 8) (size 9 to 14) (size 15 to 20)
#    0.000    0.333    6.667    1.000    4.667    2.000 
#    0.000    0.000    0.000    0.000    0.000    0.000 
#    0.000    0.000    0.000    0.000    0.000    0.000 
#
# Total GULP energy -66986.003040 kJ/mol
# GULP energy per Si atom -5582.166920 kJ/mol
# Density = 2.110402 g / cm^3
# Si number density = 21.152159 Si / 1000 Ang^3
#
#
#
# Elastic Constant Matrix: (Units=GPa)
#
#
# Indices 1 2 3 4 5 6 
#
# 1 150.5874 33.1004 56.7411 -8.3057 13.4933 -11.9834
# 2 33.1004 59.2263 23.0644 9.7549 9.9120 -13.8446
# 3 56.7411 23.0644 151.2012 -13.2919 23.3211 -20.4624
# 4 -8.3057 9.7549 -13.2919 31.5551 -3.9884 -1.5019
# 5 13.4933 9.9120 23.3211 -3.9884 42.7890 0.6452
# 6 -11.9834 -13.8446 -20.4624 -1.5019 0.6452 30.9901
#
#
#
# Elastic Compliance Matrix: (Units=1/GPa)
#
#
# Indices 1 2 3 4 5 6 
#
# 1 0.008624 -0.004307 -0.002316 0.002599 -0.000218 0.000012
# 2 -0.004307 0.023822 -0.001042 -0.009136 -0.004563 0.007941
# 3 -0.002316 -0.001042 0.009191 0.003339 -0.003801 0.004949
# 4 0.002599 -0.009136 0.003339 0.037015 0.002914 0.000862
# 5 -0.000218 -0.004563 -0.003801 0.002914 0.026916 -0.005052
# 6 0.000012 0.007941 0.004949 0.000862 -0.005052 0.039235
#
#
# Mechanical properties :
#
#
# Convention : Reuss Voigt Hill
#
# Bulk Modulus (GPa) = 38.01136 65.20298 51.60717
# Shear Modulus (GPa) = 29.60319 37.60742 33.60530
#
# Velocity S-wave (km/s) = 3.74509 4.22115 3.99023
# Velocity P-wave (km/s) = 6.05891 7.39257 6.75872
#
# Compressibility (1/GPa) = 0.02630792
#
# Stress axis : x y z
#
# Youngs Moduli (GPa) = 115.96086 41.97829 108.79927
#
# Poissons Ratio (x) = 0.18078 0.25193
# Poissons Ratio (y) = 0.49939 0.11340
# Poissons Ratio (z) = 0.26851 0.04375
#
# Static dielectric constant tensor:
#      x y z
#    x 1.762450 0.041900 -0.058330 
#    y 0.041900 1.795610 -0.049310 
#    z -0.058330 -0.049310 1.753980 
# 
# From -- ./inp_files/148777.got.cif
#   From: 2010.05.17/outbox.cif.g08.bks.cpg/sg2_75_cif.got.tgz:148777.got - 2010.06.03 11:33:40.
