data_PCOD9064958
_publ_section_title
;
Structure prediction by ZEFSAII (Michael W. Deem and Ramdas Pophale) SiO2 
 PCOD9064958
Probable space group: P -1
;
_chemical_formula_sum "Si O2"
_cell_formula_units_Z 11
_cell_length_a 11.235962
_cell_length_b 7.744199
_cell_length_c 5.306208
_cell_angle_alpha 86.926823
_cell_angle_beta 65.882280
_cell_angle_gamma 74.076670
_cell_volume 404.337583
_symmetry_space_group_name_H-M "P -1"
_symmetry_group_IT_number 2
_symmetry_cell_setting 'triclinic'
loop_
_space_group_symop_operation_xyz
x,y,z
-x,-y,-z
loop_
_atom_site_type_symbol
_atom_site_label
_atom_site_fract_x
_atom_site_fract_y
_atom_site_fract_z
Si Si1 0.295309 0.314560 0.426509
Si Si2 0.068605 0.903209 0.697419
Si Si3 0.631137 0.093997 0.655811
Si Si4 0.569544 0.307926 0.204456
Si Si5 0.000000 0.500000 0.500000
Si Si6 0.165417 0.561504 0.911048
O O1 0.373719 0.109432 0.327172
O O2 0.411944 0.420126 0.275374
O O3 0.161908 0.370987 0.366671
O O4 0.231322 0.365913 0.753617
O O5 0.090975 0.685328 0.718852
O O6 0.217694 0.921639 0.560587
O O7 0.000000 0.000000 0.500000
O O8 0.000000 0.000000 0.000000
O O9 0.547242 0.220401 0.500852
O O10 0.611174 0.175513 0.943035
O O11 0.701709 0.379900 0.124543
O O12 0.045076 0.603385 0.210397
#
# Coordination Sequence:
#
# PCOD9064958 Si02
#       6
#     2   2   2   2   1   2
#     4  12  28  48  79 116 163 203 271 335 402 475
#     4  11  24  46  77 109 159 210 262 320 394 482
#     4  11  26  47  79 115 155 206 271 329 397 469
#     4  11  27  52  82 113 154 216 270 328 395 478
#     4  12  30  46  78 116 172 200 268 328 418 460
#     4  11  28  50  77 119 157 217 267 329 405 476
#
# _framework density 27.204988
#
# number of rings (size 3 to 8) (size 9 to 14) (size 15 to 20)
#    0.000    0.727    0.000    5.455   15.273    0.727 
#    0.000    0.000    0.000    0.000    0.000    0.000 
#    0.000    0.000    0.000    0.000    0.000    0.000 
#
# Total GULP energy -61387.388708 kJ/mol
# GULP energy per Si atom -5580.671701 kJ/mol
# Density = 2.714307 g / cm^3
# Si number density = 27.204988 Si / 1000 Ang^3
#
#
#
# Elastic Constant Matrix: (Units=GPa)
#
#
# Indices 1 2 3 4 5 6 
#
# 1 158.3162 14.9771 37.4204 -3.9721 -26.5828 -28.7943
# 2 14.9771 77.3358 20.4566 10.2180 19.5685 9.8439
# 3 37.4204 20.4566 150.3085 30.0626 1.5094 1.3686
# 4 -3.9721 10.2180 30.0626 48.1268 -0.2262 8.5088
# 5 -26.5828 19.5685 1.5094 -0.2262 75.9101 2.5703
# 6 -28.7943 9.8439 1.3686 8.5088 2.5703 37.5960
#
#
#
# Elastic Compliance Matrix: (Units=1/GPa)
#
#
# Indices 1 2 3 4 5 6 
#
# 1 0.009194 -0.003310 -0.002263 0.001591 0.003873 0.007366
# 2 -0.003310 0.016118 -0.000833 -0.002158 -0.005105 -0.005888
# 3 -0.002263 -0.000833 0.008369 -0.005134 -0.000739 -0.000607
# 4 0.001591 -0.002158 -0.005134 0.025261 0.001421 -0.003844
# 5 0.003873 -0.005105 -0.000739 0.001421 0.015765 0.002931
# 6 0.007366 -0.005888 -0.000607 -0.003844 0.002931 0.034474
#
#
# Mechanical properties :
#
#
# Convention : Reuss Voigt Hill
#
# Bulk Modulus (GPa) = 47.91456 59.07429 53.49443
# Shear Modulus (GPa) = 38.77449 53.20034 45.98742
#
# Velocity S-wave (km/s) = 3.77937 4.42694 4.11591
# Velocity P-wave (km/s) = 6.05768 6.92041 6.50337
#
# Compressibility (1/GPa) = 0.02087048
#
# Stress axis : x y z
#
# Youngs Moduli (GPa) = 108.76131 62.04162 119.48192
#
# Poissons Ratio (x) = 0.20536 0.27035
# Poissons Ratio (y) = 0.36000 0.09954
# Poissons Ratio (z) = 0.24609 0.05169
#
# Static dielectric constant tensor:
#      x y z
#    x 1.680800 -0.191460 -0.139790 
#    y -0.191460 2.130930 -0.221320 
#    z -0.139790 -0.221320 1.972550 
# 
# From -- ./inp_files/58358.got.cif
#   From: 2010.05.17/outbox.cif.g08.bks.cpg/sg2_30_cif.got.tgz:58358.got - 2010.06.03 11:33:40.
