data_PCOD9064236
_publ_section_title
;
Structure prediction by ZEFSAII (Michael W. Deem and Ramdas Pophale) SiO2 
 PCOD9064236
Probable space group: P -1
;
_chemical_formula_sum "Si O2"
_cell_formula_units_Z 14
_cell_length_a 5.144096
_cell_length_b 7.546321
_cell_length_c 18.828275
_cell_angle_alpha 54.244413
_cell_angle_beta 115.776792
_cell_angle_gamma 113.365991
_cell_volume 523.860758
_symmetry_space_group_name_H-M "P -1"
_symmetry_group_IT_number 2
_symmetry_cell_setting 'triclinic'
loop_
_space_group_symop_operation_xyz
x,y,z
-x,-y,-z
loop_
_atom_site_type_symbol
_atom_site_label
_atom_site_fract_x
_atom_site_fract_y
_atom_site_fract_z
Si Si1 0.384861 0.141273 0.607085
Si Si2 0.270326 0.200501 0.005878
Si Si3 0.519028 0.173225 0.191514
Si Si4 0.239441 0.560418 0.101738
Si Si5 0.567541 0.196037 0.407578
Si Si6 0.109698 0.445835 0.259500
Si Si7 0.086305 0.516869 0.408187
O O1 0.214407 0.324092 0.511243
O O2 0.722244 0.251035 0.599413
O O3 0.425180 0.052547 0.711630
O O4 0.255597 0.912511 0.604655
O O5 0.459563 0.144803 0.107960
O O6 0.502006 0.289373 0.949535
O O7 0.081918 0.385729 0.965428
O O8 0.000000 0.000000 0.000000
O O9 0.255970 0.298970 0.155875
O O10 0.792315 0.357829 0.208881
O O11 0.276896 0.607386 0.180372
O O12 0.275764 0.240923 0.328672
O O13 0.741868 0.432453 0.400378
O O14 0.500000 0.000000 0.500000
O O15 0.110410 0.521022 0.323947
#
# Coordination Sequence:
#
# PCOD9064236 Si02
#       7
#     2   2   2   2   2   2   2
#     4  11  24  45  72 108 151 200 259 310 384 455
#     4  12  30  51  77 113 154 195 253 331 390 453
#     4  12  26  47  78 107 147 203 260 307 391 466
#     4  12  26  50  78 108 149 198 256 312 389 459
#     4  12  23  43  72 102 151 206 251 314 382 451
#     4  12  24  44  76 105 146 203 250 313 379 458
#     4  11  25  47  67 109 159 195 253 323 375 453
#
# _framework density 26.724658000000002
#
# number of rings (size 3 to 8) (size 9 to 14) (size 15 to 20)
#    0.000    0.286    5.714    2.571    4.000    0.571 
#    2.571    1.429    0.000    0.000    0.000    0.000 
#    0.000    0.000    0.000    0.000    0.000    0.000 
#
# Total GULP energy -78180.474582 kJ/mol
# GULP energy per Si atom -5584.319613 kJ/mol
# Density = 2.666383 g / cm^3
# Si number density = 26.724658 Si / 1000 Ang^3
#
#
#
# Elastic Constant Matrix: (Units=GPa)
#
#
# Indices 1 2 3 4 5 6 
#
# 1 101.0936 19.0988 64.4293 9.7829 -18.7990 23.5921
# 2 19.0988 108.2716 34.3000 20.1573 -11.7806 15.8746
# 3 64.4293 34.3000 237.9808 41.4567 -25.8116 13.2381
# 4 9.7829 20.1573 41.4567 24.6659 -6.8486 -6.3629
# 5 -18.7990 -11.7806 -25.8116 -6.8486 62.6129 -1.7142
# 6 23.5921 15.8746 13.2381 -6.3629 -1.7142 29.8106
#
#
#
# Elastic Compliance Matrix: (Units=1/GPa)
#
#
# Indices 1 2 3 4 5 6 
#
# 1 0.015157 0.001295 -0.002269 -0.005743 0.002882 -0.012738
# 2 0.001295 0.013705 0.001499 -0.017091 0.001372 -0.012558
# 3 -0.002269 0.001499 0.007407 -0.013836 0.000999 -0.005188
# 4 -0.005743 -0.017091 -0.013836 0.090197 0.000292 0.039059
# 5 0.002882 0.001372 0.000999 0.000292 0.017473 -0.002389
# 6 -0.012738 -0.012558 -0.005188 0.039059 -0.002389 0.060816
#
#
# Mechanical properties :
#
#
# Convention : Reuss Voigt Hill
#
# Bulk Modulus (GPa) = 26.79480 75.88915 51.34197
# Shear Modulus (GPa) = 23.13247 45.38574 34.25911
#
# Velocity S-wave (km/s) = 2.94528 4.12548 3.58429
# Velocity P-wave (km/s) = 4.64911 7.15200 6.03180
#
# Compressibility (1/GPa) = 0.03732068
#
# Stress axis : x y z
#
# Youngs Moduli (GPa) = 65.97447 72.96480 135.00138
#
# Poissons Ratio (x) = -0.09452 0.30628
# Poissons Ratio (y) = -0.08546 -0.20233
# Poissons Ratio (z) = 0.14968 -0.10935
#
# Static dielectric constant tensor:
#      x y z
#    x 2.213070 -0.038850 -0.098300 
#    y -0.038850 2.073850 0.018990 
#    z -0.098300 0.018990 2.108180 
# 
# From -- ./inp_files/581838.got.cif
#   From: 2010.05.17/outbox.cif.g08.bks.cpg/sg2_291_cif.got.tgz:581838.got - 2010.06.03 11:33:40.
