data_PCOD9064054
_publ_section_title
;
Structure prediction by ZEFSAII (Michael W. Deem and Ramdas Pophale) SiO2 
 PCOD9064054
Probable space group: P -1
;
_chemical_formula_sum "Si O2"
_cell_formula_units_Z 14
_cell_length_a 7.257779
_cell_length_b 5.011936
_cell_length_c 23.801109
_cell_angle_alpha 66.980383
_cell_angle_beta 44.865744
_cell_angle_gamma 84.747672
_cell_volume 538.666203
_symmetry_space_group_name_H-M "P -1"
_symmetry_group_IT_number 2
_symmetry_cell_setting 'triclinic'
loop_
_space_group_symop_operation_xyz
x,y,z
-x,-y,-z
loop_
_atom_site_type_symbol
_atom_site_label
_atom_site_fract_x
_atom_site_fract_y
_atom_site_fract_z
Si Si1 0.251307 0.897393 0.790620
Si Si2 0.773277 0.274920 0.699058
Si Si3 0.449115 0.415368 0.859515
Si Si4 0.319364 0.225998 0.021935
Si Si5 0.158893 0.690138 0.503076
Si Si6 0.027783 0.788365 0.725355
Si Si7 0.493133 0.261843 0.435906
O O1 0.314093 0.615235 0.832721
O O2 0.184084 0.860150 0.743394
O O3 0.531613 0.157427 0.716173
O O4 0.975967 0.929774 0.875028
O O5 0.594579 0.248195 0.796956
O O6 0.961931 0.586615 0.608165
O O7 0.969965 0.060970 0.680101
O O8 0.261794 0.280197 0.963888
O O9 0.719964 0.598511 0.819234
O O10 0.500000 0.500000 0.000000
O O11 0.500000 0.000000 0.000000
O O12 0.711073 0.947811 0.549687
O O13 0.000000 0.500000 0.500000
O O14 0.403276 0.531543 0.460923
O O15 0.206820 0.620614 0.665069
O O16 0.500000 0.000000 0.500000
#
# Coordination Sequence:
#
# PCOD9064054 Si02
#       7
#     2   2   2   2   2   2   2
#     4  11  26  46  74 107 142 192 238 295 366 428
#     4  11  26  44  70 106 144 193 240 304 352 432
#     4  11  26  45  75 106 148 185 241 300 354 435
#     4  12  27  51  79 108 146 189 238 292 367 435
#     4  12  27  46  70 104 148 188 248 298 359 419
#     4  11  24  45  70 103 146 188 246 294 362 424
#     4  12  25  45  72 102 141 197 238 300 357 421
#
# _framework density 25.990124999999999
#
# number of rings (size 3 to 8) (size 9 to 14) (size 15 to 20)
#    0.000    0.571    2.857    3.857   10.000    1.714 
#    0.000    0.000    0.000    0.000    0.000    0.000 
#    0.000    0.000    0.000    0.000    0.000    0.000 
#
# Total GULP energy -78314.547305 kJ/mol
# GULP energy per Si atom -5593.896236 kJ/mol
# Density = 2.593097 g / cm^3
# Si number density = 25.990125 Si / 1000 Ang^3
#
#
#
# Elastic Constant Matrix: (Units=GPa)
#
#
# Indices 1 2 3 4 5 6 
#
# 1 161.2642 26.0871 30.2120 14.4620 -8.8781 17.3972
# 2 26.0871 113.0932 7.5653 24.9747 -9.7692 1.4222
# 3 30.2120 7.5653 107.3822 20.9958 -0.8941 -8.1351
# 4 14.4620 24.9747 20.9958 30.8348 -1.8723 -2.6139
# 5 -8.8781 -9.7692 -0.8941 -1.8723 34.7284 12.0214
# 6 17.3972 1.4222 -8.1351 -2.6139 12.0214 35.7006
#
#
#
# Elastic Compliance Matrix: (Units=1/GPa)
#
#
# Indices 1 2 3 4 5 6 
#
# 1 0.007682 -0.000891 -0.002160 -0.001665 0.003468 -0.005490
# 2 -0.000891 0.011352 0.001236 -0.009559 0.002980 -0.001440
# 3 -0.002160 0.001236 0.011594 -0.007671 -0.001570 0.003612
# 4 -0.001665 -0.009559 -0.007671 0.046353 -0.002032 0.003522
# 5 0.003468 0.002980 -0.001570 -0.002032 0.035284 -0.014197
# 6 -0.005490 -0.001440 0.003612 0.003522 -0.014197 0.036605
#
#
# Mechanical properties :
#
#
# Convention : Reuss Voigt Hill
#
# Bulk Modulus (GPa) = 37.04178 56.60759 46.82468
# Shear Modulus (GPa) = 30.95984 41.44445 36.20214
#
# Velocity S-wave (km/s) = 3.45514 3.99761 3.73623
# Velocity P-wave (km/s) = 5.49550 6.56776 6.05541
#
# Compressibility (1/GPa) = 0.02699654
#
# Stress axis : x y z
#
# Youngs Moduli (GPa) = 130.16704 88.09322 86.25372
#
# Poissons Ratio (x) = 0.07851 0.18632
# Poissons Ratio (y) = 0.11600 -0.10658
# Poissons Ratio (z) = 0.28117 -0.10886
#
# Static dielectric constant tensor:
#      x y z
#    x 2.871510 0.497870 0.136090 
#    y 0.497870 2.373860 0.039770 
#    z 0.136090 0.039770 2.049490 
# 
# From -- ./inp_files/53884.got.cif
#   From: 2010.05.17/outbox.cif.g08.bks.cpg/sg2_27_cif.got.tgz:53884.got - 2010.06.03 11:33:40.
