data_PCOD9064867
_publ_section_title
;
Structure prediction by ZEFSAII (Michael W. Deem and Ramdas Pophale) SiO2 
 PCOD9064867
Probable space group: P -1
;
_chemical_formula_sum "Si O2"
_cell_formula_units_Z 10
_cell_length_a 13.260567
_cell_length_b 7.486745
_cell_length_c 4.881291
_cell_angle_alpha 116.615128
_cell_angle_beta 73.287440
_cell_angle_gamma 98.557973
_cell_volume 414.842299
_symmetry_space_group_name_H-M "P -1"
_symmetry_group_IT_number 2
_symmetry_cell_setting 'triclinic'
loop_
_space_group_symop_operation_xyz
x,y,z
-x,-y,-z
loop_
_atom_site_type_symbol
_atom_site_label
_atom_site_fract_x
_atom_site_fract_y
_atom_site_fract_z
Si Si1 0.405298 0.017154 0.361322
Si Si2 0.935287 0.639111 0.854090
Si Si3 0.507104 0.348602 0.143880
Si Si4 0.808186 0.006700 0.209066
Si Si5 0.868322 0.257772 0.857348
O O1 0.203950 0.833670 0.911405
O O2 0.500000 0.000000 0.500000
O O3 0.301718 0.073811 0.642892
O O4 0.394726 0.791599 0.098224
O O5 0.849257 0.485819 0.944949
O O6 0.000000 0.500000 0.500000
O O7 0.877588 0.829492 0.914270
O O8 0.016337 0.722198 0.076935
O O9 0.500000 0.500000 0.500000
O O10 0.500000 0.500000 0.000000
O O11 0.428176 0.170839 0.200561
O O12 0.864281 0.118770 0.498412
#
# Coordination Sequence:
#
# PCOD9064867 Si02
#       5
#     2   2   2   2   2
#     4  11  27  48  71 108 144 189 244 290 350 427
#     4  11  25  47  72 106 141 181 237 287 352 426
#     4  11  24  46  74  96 137 189 235 295 357 404
#     4  12  28  43  73 103 145 184 235 287 354 414
#     4  11  26  45  71 103 139 186 231 290 355 416
#
# _framework density 24.105543000000001
#
# number of rings (size 3 to 8) (size 9 to 14) (size 15 to 20)
#    0.000    0.800    4.000    1.200   11.200    3.200 
#    0.000    2.000    0.000    0.000    0.000    0.000 
#    0.000    0.000    0.000    0.000    0.000    0.000 
#
# Total GULP energy -55852.104545 kJ/mol
# GULP energy per Si atom -5585.210455 kJ/mol
# Density = 2.405068 g / cm^3
# Si number density = 24.105543 Si / 1000 Ang^3
#
#
#
# Elastic Constant Matrix: (Units=GPa)
#
#
# Indices 1 2 3 4 5 6 
#
# 1 80.4106 39.8178 51.5310 7.1054 6.8998 -1.6388
# 2 39.8178 183.1134 43.9063 -26.2312 9.2080 -21.6705
# 3 51.5310 43.9063 164.0483 -6.4805 10.9917 -17.1987
# 4 7.1054 -26.2312 -6.4805 49.4796 -3.7005 -0.5341
# 5 6.8998 9.2080 10.9917 -3.7005 29.0740 -7.6255
# 6 -1.6388 -21.6705 -17.1987 -0.5341 -7.6255 18.9565
#
#
#
# Elastic Compliance Matrix: (Units=1/GPa)
#
#
# Indices 1 2 3 4 5 6 
#
# 1 0.019379 -0.004840 -0.005925 -0.006592 -0.004623 -0.011279
# 2 -0.004840 0.008313 0.000480 0.005407 0.001744 0.010374
# 3 -0.005925 0.000480 0.008756 0.002370 0.000398 0.008207
# 4 -0.006592 0.005407 0.002370 0.024809 0.004844 0.010410
# 5 -0.004623 0.001744 0.000398 0.004844 0.040195 0.018260
# 6 -0.011279 0.010374 0.008207 0.010410 0.018260 0.078722
#
#
# Mechanical properties :
#
#
# Convention : Reuss Voigt Hill
#
# Bulk Modulus (GPa) = 62.98137 77.56472 70.27304
# Shear Modulus (GPa) = 24.26741 38.98981 31.62861
#
# Velocity S-wave (km/s) = 3.17632 4.02613 3.62621
# Velocity P-wave (km/s) = 6.29572 7.33894 6.83725
#
# Compressibility (1/GPa) = 0.01587771
#
# Stress axis : x y z
#
# Youngs Moduli (GPa) = 51.60127 120.29126 114.20761
#
# Poissons Ratio (x) = 0.58221 0.67670
# Poissons Ratio (y) = 0.24975 -0.05479
# Poissons Ratio (z) = 0.30575 -0.05771
#
# Static dielectric constant tensor:
#      x y z
#    x 1.974550 0.029790 0.020140 
#    y 0.029790 2.031000 -0.021140 
#    z 0.020140 -0.021140 1.929960 
# 
# From -- ./inp_files/2835.got.cif
#   From: 2010.05.17/outbox.cif.g08.bks.cpg/sg2_2_cif.got.tgz:2835.got - 2010.06.03 11:33:40.
