data_PCOD9064341
_publ_section_title
;
Structure prediction by ZEFSAII (Michael W. Deem and Ramdas Pophale) SiO2 
 PCOD9064341
Probable space group: P -1
;
_chemical_formula_sum "Si O2"
_cell_formula_units_Z 16
_cell_length_a 28.417899
_cell_length_b 5.088479
_cell_length_c 5.464217
_cell_angle_alpha 74.575471
_cell_angle_beta 69.330850
_cell_angle_gamma 60.043256
_cell_volume 636.586880
_symmetry_space_group_name_H-M "P -1"
_symmetry_group_IT_number 2
_symmetry_cell_setting 'triclinic'
loop_
_space_group_symop_operation_xyz
x,y,z
-x,-y,-z
loop_
_atom_site_type_symbol
_atom_site_label
_atom_site_fract_x
_atom_site_fract_y
_atom_site_fract_z
Si Si1 0.487766 0.704288 0.221966
Si Si2 0.718412 0.523221 0.013512
Si Si3 0.899250 0.796838 0.612763
Si Si4 0.602720 0.616948 0.095090
Si Si5 0.011256 0.674856 0.153201
Si Si6 0.826913 0.514143 0.568120
Si Si7 0.625952 0.231994 0.652226
Si Si8 0.738245 0.874145 0.288833
O O1 0.500000 0.500000 0.500000
O O2 0.419741 0.896147 0.293202
O O3 0.500000 0.500000 0.000000
O O4 0.535181 0.825398 0.143629
O O5 0.656302 0.688472 0.970892
O O6 0.770197 0.568819 0.801186
O O7 0.692661 0.043008 0.541629
O O8 0.713139 0.672110 0.251375
O O9 0.924115 0.534260 0.838265
O O10 0.859861 0.701542 0.545355
O O11 0.959782 0.747466 0.414157
O O12 0.866221 0.156624 0.623479
O O13 0.614300 0.381086 0.906505
O O14 0.736920 0.160734 0.070846
O O15 0.000000 0.500000 0.000000
O O16 0.000000 0.000000 0.000000
O O17 0.800493 0.644817 0.319007
O O18 0.611182 0.472056 0.390042
#
# Coordination Sequence:
#
# PCOD9064341 Si02
#       8
#     2   2   2   2   2   2   2   2
#     4   8  14  30  55  91 123 169 224 294 362 433
#     4  11  26  43  65  97 133 184 234 288 355 426
#     4  11  26  44  68 110 134 183 232 282 338 415
#     4   9  19  35  63  92 132 176 234 295 366 435
#     4  11  24  45  74 102 144 181 224 281 345 405
#     4  12  26  43  70  95 146 176 234 288 338 412
#     4   9  19  35  63  92 132 176 234 295 366 435
#     4  11  26  43  65  97 133 184 234 288 355 426
#
# _framework density 25.134039999999999
#
# number of rings (size 3 to 8) (size 9 to 14) (size 15 to 20)
#    0.000    1.750    0.000    3.000    8.750    8.000 
#    0.000    0.625    0.000    0.750    0.000    0.000 
#    0.000    0.000    0.000    0.000    0.000    0.000 
#
# Total GULP energy -89286.390485 kJ/mol
# GULP energy per Si atom -5580.399405 kJ/mol
# Density = 2.507683 g / cm^3
# Si number density = 25.134040 Si / 1000 Ang^3
#
#
#
# Elastic Constant Matrix: (Units=GPa)
#
#
# Indices 1 2 3 4 5 6 
#
# 1 147.7628 13.4952 18.8036 -8.3175 -3.2542 -9.7557
# 2 13.4952 92.2249 8.6892 -3.1083 3.7692 -11.4927
# 3 18.8036 8.6892 50.6932 -7.2897 7.4382 -8.3733
# 4 -8.3175 -3.1083 -7.2897 25.4238 1.0263 1.4713
# 5 -3.2542 3.7692 7.4382 1.0263 52.4707 -4.3044
# 6 -9.7557 -11.4927 -8.3733 1.4713 -4.3044 57.3501
#
#
#
# Elastic Compliance Matrix: (Units=1/GPa)
#
#
# Indices 1 2 3 4 5 6 
#
# 1 0.007292 -0.000732 -0.002358 0.001540 0.000873 0.000775
# 2 -0.000732 0.011347 -0.001172 0.000723 -0.000551 0.001918
# 3 -0.002358 -0.001172 0.022433 0.005514 -0.003165 0.002260
# 4 0.001540 0.000723 0.005514 0.041567 -0.001549 0.000029
# 5 0.000873 -0.000551 -0.003165 -0.001549 0.019721 0.001096
# 6 0.000775 0.001918 0.002260 0.000029 0.001096 0.018365
#
#
# Mechanical properties :
#
#
# Convention : Reuss Voigt Hill
#
# Bulk Modulus (GPa) = 30.72391 41.40631 36.06511
# Shear Modulus (GPa) = 35.68998 43.69510 39.69254
#
# Velocity S-wave (km/s) = 3.77236 4.17404 3.97827
# Velocity P-wave (km/s) = 5.58792 6.30397 5.95671
#
# Compressibility (1/GPa) = 0.03254794
#
# Stress axis : x y z
#
# Youngs Moduli (GPa) = 137.14461 88.13290 44.57807
#
# Poissons Ratio (x) = 0.06451 0.10510
# Poissons Ratio (y) = 0.10038 0.05223
# Poissons Ratio (z) = 0.32335 0.10326
#
# Static dielectric constant tensor:
#      x y z
#    x 1.884080 0.015120 0.020450 
#    y 0.015120 2.049750 -0.214830 
#    z 0.020450 -0.214830 2.273800 
# 
# From -- ./inp_files/121542.got.cif
#   From: 2010.05.17/outbox.cif.g08.bks.cpg/sg2_61_cif.got.tgz:121542.got - 2010.06.03 11:33:40.
