data_PCOD9064972
_publ_section_title
;
Structure prediction by ZEFSAII (Michael W. Deem and Ramdas Pophale) SiO2 
 PCOD9064972
Probable space group: P -1
;
_chemical_formula_sum "Si O2"
_cell_formula_units_Z 15
_cell_length_a 18.414646
_cell_length_b 10.571864
_cell_length_c 6.788561
_cell_angle_alpha 116.484641
_cell_angle_beta 51.414695
_cell_angle_gamma 144.730896
_cell_volume 590.617051
_symmetry_space_group_name_H-M "P -1"
_symmetry_group_IT_number 2
_symmetry_cell_setting 'triclinic'
loop_
_space_group_symop_operation_xyz
x,y,z
-x,-y,-z
loop_
_atom_site_type_symbol
_atom_site_label
_atom_site_fract_x
_atom_site_fract_y
_atom_site_fract_z
Si Si1 0.271434 0.013251 0.672826
Si Si2 0.755369 0.485157 0.035043
Si Si3 0.222772 0.312589 0.505438
Si Si4 0.925470 0.109631 0.758730
Si Si5 0.500000 0.500000 0.500000
Si Si6 0.955557 0.292305 0.480192
Si Si7 0.352562 0.892292 0.764165
Si Si8 0.538009 0.331060 0.974395
O O1 0.422998 0.265737 0.557521
O O2 0.189613 0.904043 0.531154
O O3 0.276296 0.873649 0.690440
O O4 0.173598 0.002835 0.962785
O O5 0.742512 0.617360 0.274896
O O6 0.725037 0.320622 0.123685
O O7 0.635343 0.351030 0.974463
O O8 0.912982 0.653653 0.783775
O O9 0.086452 0.254166 0.645891
O O10 0.151448 0.081395 0.404190
O O11 0.355261 0.505140 0.273105
O O12 0.937465 0.266179 0.726292
O O13 0.496437 0.421443 0.228827
O O14 0.000000 0.500000 0.500000
O O15 0.500000 0.000000 0.500000
O O16 0.405254 0.084057 0.944862
#
# Coordination Sequence:
#
# PCOD9064972 Si02
#       8
#     2   2   2   2   1   2   2   2
#     4  12  29  49  74 111 148 194 250 304 376 446
#     4  12  26  47  76 109 149 194 250 307 375 442
#     4  11  24  46  78 107 148 194 242 314 369 440
#     4  11  25  48  74 111 148 188 244 310 376 433
#     4  12  30  50  76 110 150 202 248 304 370 454
#     4  12  29  45  76 111 152 193 246 315 372 445
#     4  12  28  48  75 105 153 206 245 302 367 451
#     4  12  27  49  75 109 149 197 253 307 368 448
#
# _framework density 25.397168000000001
#
# number of rings (size 3 to 8) (size 9 to 14) (size 15 to 20)
#    0.000    0.267    5.333    2.000    9.333    2.133 
#    0.000    0.000    0.000    0.000    0.000    0.000 
#    0.000    0.000    0.000    0.000    0.000    0.000 
#
# Total GULP energy -83878.378558 kJ/mol
# GULP energy per Si atom -5591.891904 kJ/mol
# Density = 2.533936 g / cm^3
# Si number density = 25.397168 Si / 1000 Ang^3
#
#
#
# Elastic Constant Matrix: (Units=GPa)
#
#
# Indices 1 2 3 4 5 6 
#
# 1 71.7055 -3.9734 0.0060 -12.8490 22.4327 9.4019
# 2 -3.9734 69.3375 2.7414 -5.5332 -1.1060 5.1565
# 3 0.0060 2.7414 133.9534 -11.0692 -7.0783 9.3402
# 4 -12.8490 -5.5332 -11.0692 45.1735 -8.2130 8.3509
# 5 22.4327 -1.1060 -7.0783 -8.2130 42.1484 -3.7416
# 6 9.4019 5.1565 9.3402 8.3509 -3.7416 31.0817
#
#
#
# Elastic Compliance Matrix: (Units=1/GPa)
#
#
# Indices 1 2 3 4 5 6 
#
# 1 0.019373 0.002071 0.000551 0.005794 -0.009844 -0.009111
# 2 0.002071 0.015083 0.000217 0.003172 -0.000416 -0.004096
# 3 0.000551 0.000217 0.008006 0.002991 0.001352 -0.003249
# 4 0.005794 0.003172 0.002991 0.027142 0.001882 -0.010243
# 5 -0.009844 -0.000416 0.001352 0.001882 0.030058 0.005753
# 6 -0.009111 -0.004096 -0.003249 -0.010243 0.005753 0.040030
#
#
# Mechanical properties :
#
#
# Convention : Reuss Voigt Hill
#
# Bulk Modulus (GPa) = 20.77268 30.28269 25.52769
# Shear Modulus (GPa) = 33.31958 42.09555 37.70756
#
# Velocity S-wave (km/s) = 3.62600 4.07564 3.85738
# Velocity P-wave (km/s) = 5.07222 5.83930 5.46922
#
# Compressibility (1/GPa) = 0.04814015
#
# Stress axis : x y z
#
# Youngs Moduli (GPa) = 51.61807 66.29796 124.90629
#
# Poissons Ratio (x) = -0.13732 -0.06877
# Poissons Ratio (y) = -0.10692 -0.02710
# Poissons Ratio (z) = -0.02842 -0.01438
#
# Static dielectric constant tensor:
#      x y z
#    x 1.789010 -0.146180 0.251730 
#    y -0.146180 1.878200 0.216820 
#    z 0.251730 0.216820 1.644790 
# 
# From -- ./inp_files/118782.got.cif
#   From: 2010.05.17/outbox.cif.g08.bks.cpg/sg2_60_cif.got.tgz:118782.got - 2010.06.03 11:33:40.
