data_PCOD9064037
_publ_section_title
;
Structure prediction by ZEFSAII (Michael W. Deem and Ramdas Pophale) SiO2 
 PCOD9064037
Probable space group: P -1
;
_chemical_formula_sum "Si O2"
_cell_formula_units_Z 16
_cell_length_a 25.222263
_cell_length_b 15.683451
_cell_length_c 9.652718
_cell_angle_alpha 133.523434
_cell_angle_beta 150.560531
_cell_angle_gamma 26.201797
_cell_volume 749.171084
_symmetry_space_group_name_H-M "P -1"
_symmetry_group_IT_number 2
_symmetry_cell_setting 'triclinic'
loop_
_space_group_symop_operation_xyz
x,y,z
-x,-y,-z
loop_
_atom_site_type_symbol
_atom_site_label
_atom_site_fract_x
_atom_site_fract_y
_atom_site_fract_z
Si Si1 0.484258 0.573499 0.198202
Si Si2 0.861512 0.476154 0.741490
Si Si3 0.911693 0.178432 0.398804
Si Si4 0.269927 0.224390 0.436795
Si Si5 0.947622 0.880175 0.637880
Si Si6 0.308994 0.698006 0.378614
Si Si7 0.866830 0.531382 0.318818
Si Si8 0.594554 0.734715 0.676740
O O1 0.660101 0.376152 0.477639
O O2 0.482075 0.716776 0.359372
O O3 0.500000 0.500000 0.000000
O O4 0.291698 0.695233 0.968713
O O5 0.858373 0.343254 0.546644
O O6 0.723291 0.675499 0.545769
O O7 0.780382 0.570172 0.814429
O O8 0.084585 0.316990 0.065491
O O9 0.046999 0.096108 0.487204
O O10 0.000000 0.000000 0.500000
O O11 0.216719 0.328909 0.579938
O O12 0.456209 0.971526 0.596419
O O13 0.997823 0.700250 0.583008
O O14 0.757209 0.106222 0.533758
O O15 0.130469 0.787965 0.009422
O O16 0.500000 0.500000 0.500000
O O17 0.000000 0.500000 0.500000
O O18 0.686152 0.652151 0.946548
#
# Coordination Sequence:
#
# PCOD9064037 Si02
#       8
#     2   2   2   2   2   2   2   2
#     4  12  24  42  67 106 139 177 236 286 347 425
#     4  11  24  46  70  99 146 176 239 290 345 418
#     4  12  24  43  73 104 141 185 228 291 358 418
#     4  11  25  46  70 102 137 193 234 289 349 407
#     4  11  25  46  71  98 146 182 229 297 348 412
#     4  11  24  45  70 101 136 184 231 282 357 418
#     4  12  25  48  71 102 140 185 238 285 348 415
#     4  12  25  45  71 100 140 183 239 291 344 419
#
# _framework density 21.356936999999999
#
# number of rings (size 3 to 8) (size 9 to 14) (size 15 to 20)
#    0.000    0.500    6.250    2.250    0.000    1.000 
#    4.500    0.000    0.000    0.000    0.000    0.000 
#    0.000    0.000    0.000    0.000    0.000    0.000 
#
# Total GULP energy -89461.205337 kJ/mol
# GULP energy per Si atom -5591.325334 kJ/mol
# Density = 2.130833 g / cm^3
# Si number density = 21.356937 Si / 1000 Ang^3
#
#
#
# Elastic Constant Matrix: (Units=GPa)
#
#
# Indices 1 2 3 4 5 6 
#
# 1 85.0978 42.4748 18.0696 8.9134 -16.0978 12.0874
# 2 42.4748 171.2586 28.5552 4.0173 -3.2031 22.7771
# 3 18.0696 28.5552 51.7180 13.7761 -19.3578 3.6001
# 4 8.9134 4.0173 13.7761 28.5581 1.0905 3.5823
# 5 -16.0978 -3.2031 -19.3578 1.0905 39.2076 -2.3824
# 6 12.0874 22.7771 3.6001 3.5823 -2.3824 39.4987
#
#
#
# Elastic Compliance Matrix: (Units=1/GPa)
#
#
# Indices 1 2 3 4 5 6 
#
# 1 0.015270 -0.003310 0.000024 -0.004289 0.006008 -0.002015
# 2 -0.003310 0.007829 -0.005003 0.002920 -0.003485 -0.003521
# 3 0.000024 -0.005003 0.032110 -0.015699 0.016033 0.002342
# 4 -0.004289 0.002920 -0.015699 0.044380 -0.010727 -0.003613
# 5 0.006008 -0.003485 0.016033 -0.010727 0.036014 0.001855
# 6 -0.002015 -0.003521 0.002342 -0.003613 0.001855 0.028190
#
#
# Mechanical properties :
#
#
# Convention : Reuss Voigt Hill
#
# Bulk Modulus (GPa) = 25.88700 54.03039 39.95869
# Shear Modulus (GPa) = 25.87338 36.05119 30.96228
#
# Velocity S-wave (km/s) = 3.48440 4.11302 3.81169
# Velocity P-wave (km/s) = 5.32311 6.92168 6.17435
#
# Compressibility (1/GPa) = 0.03862943
#
# Stress axis : x y z
#
# Youngs Moduli (GPa) = 65.48666 127.73217 31.14336
#
# Poissons Ratio (x) = 0.42283 -0.00074
# Poissons Ratio (y) = 0.21678 0.15581
# Poissons Ratio (z) = -0.00155 0.63906
#
# Static dielectric constant tensor:
#      x y z
#    x 1.782260 0.001560 -0.001210 
#    y 0.001560 1.759780 -0.008220 
#    z -0.001210 -0.008220 1.777700 
# 
# From -- ./inp_files/354606.got.cif
#   From: 2010.05.17/outbox.cif.g08.bks.cpg/sg2_178_cif.got.tgz:354606.got - 2010.06.03 11:33:40.
