data_PCOD9064706
_publ_section_title
;
Structure prediction by ZEFSAII (Michael W. Deem and Ramdas Pophale) SiO2 
 PCOD9064706
Probable space group: P -1
;
_chemical_formula_sum "Si O2"
_cell_formula_units_Z 14
_cell_length_a 21.825367
_cell_length_b 6.663317
_cell_length_c 4.816459
_cell_angle_alpha 103.808376
_cell_angle_beta 54.962239
_cell_angle_gamma 110.960408
_cell_volume 535.054932
_symmetry_space_group_name_H-M "P -1"
_symmetry_group_IT_number 2
_symmetry_cell_setting 'triclinic'
loop_
_space_group_symop_operation_xyz
x,y,z
-x,-y,-z
loop_
_atom_site_type_symbol
_atom_site_label
_atom_site_fract_x
_atom_site_fract_y
_atom_site_fract_z
Si Si1 0.105028 0.852491 0.251658
Si Si2 0.350643 0.151547 0.258030
Si Si3 0.851693 0.371070 0.397713
Si Si4 0.437236 0.544397 0.471220
Si Si5 0.294156 0.484286 0.260776
Si Si6 0.956012 0.810235 0.260841
Si Si7 0.632651 0.137556 0.384880
O O1 0.109971 0.095696 0.400167
O O2 0.019163 0.783542 0.312152
O O3 0.162911 0.816679 0.853632
O O4 0.915141 0.577379 0.170573
O O5 0.418130 0.376349 0.209589
O O6 0.282727 0.249478 0.351184
O O7 0.356189 0.048013 0.505146
O O8 0.355262 0.964069 0.974097
O O9 0.777679 0.454880 0.673425
O O10 0.884317 0.284033 0.555639
O O11 0.500000 0.500000 0.500000
O O12 0.446428 0.786133 0.414651
O O13 0.361061 0.510087 0.862063
O O14 0.315823 0.651717 0.517081
O O15 0.000000 0.000000 0.000000
#
# Coordination Sequence:
#
# PCOD9064706 Si02
#       7
#     2   2   2   2   2   2   2
#     4  11  26  45  71 108 141 189 236 294 360 428
#     4  11  24  47  73 101 142 190 236 301 362 430
#     4  12  28  43  74 101 147 190 237 294 371 416
#     4  11  26  48  74 111 147 190 250 306 360 436
#     4  11  27  48  69 107 146 192 245 306 360 441
#     4  11  25  47  73 109 142 186 244 291 355 434
#     4  11  24  46  72 102 140 186 241 297 367 431
#
# _framework density 26.165538000000002
#
# number of rings (size 3 to 8) (size 9 to 14) (size 15 to 20)
#    0.000    0.857    4.286    0.857    8.000    5.714 
#    0.000    0.000    0.000    0.000    0.000    0.000 
#    0.000    0.000    0.000    0.000    0.000    0.000 
#
# Total GULP energy -78236.093625 kJ/mol
# GULP energy per Si atom -5588.292402 kJ/mol
# Density = 2.610598 g / cm^3
# Si number density = 26.165538 Si / 1000 Ang^3
#
#
#
# Elastic Constant Matrix: (Units=GPa)
#
#
# Indices 1 2 3 4 5 6 
#
# 1 110.1586 58.4048 41.9315 8.2283 -10.8720 -44.1885
# 2 58.4048 119.0599 37.1800 27.5222 -7.1623 -30.9993
# 3 41.9315 37.1800 119.7119 19.6779 6.0815 -10.0325
# 4 8.2283 27.5222 19.6779 57.3828 -14.8004 4.5973
# 5 -10.8720 -7.1623 6.0815 -14.8004 50.0338 15.1862
# 6 -44.1885 -30.9993 -10.0325 4.5973 15.1862 60.3365
#
#
#
# Elastic Compliance Matrix: (Units=1/GPa)
#
#
# Indices 1 2 3 4 5 6 
#
# 1 0.016618 -0.004808 -0.003763 0.000752 0.000937 0.008782
# 2 -0.004808 0.013528 -0.001002 -0.006359 -0.002171 0.004293
# 3 -0.003763 -0.001002 0.010664 -0.003408 -0.003129 -0.000450
# 4 0.000752 -0.006359 -0.003408 0.024503 0.009180 -0.007461
# 5 0.000937 -0.002171 -0.003129 0.009180 0.025417 -0.008046
# 6 0.008782 0.004293 -0.000450 -0.007461 -0.008046 0.027730
#
#
# Mechanical properties :
#
#
# Convention : Reuss Voigt Hill
#
# Bulk Modulus (GPa) = 46.15862 69.32922 57.74392
# Shear Modulus (GPa) = 34.52405 47.64491 41.08448
#
# Velocity S-wave (km/s) = 3.63636 4.27183 3.96684
# Velocity P-wave (km/s) = 5.94223 7.13339 6.56489
#
# Compressibility (1/GPa) = 0.02166443
#
# Stress axis : x y z
#
# Youngs Moduli (GPa) = 60.17502 73.92187 93.77416
#
# Poissons Ratio (x) = 0.35541 0.35285
# Poissons Ratio (y) = 0.28932 0.09397
# Poissons Ratio (z) = 0.22643 0.07407
#
# Static dielectric constant tensor:
#      x y z
#    x 2.102370 0.016380 -0.089680 
#    y 0.016380 2.067350 -0.065210 
#    z -0.089680 -0.065210 2.089960 
# 
# From -- ./inp_files/113801.got.cif
#   From: 2010.05.17/outbox.cif.g08.bks.cpg/sg2_57_cif.got.tgz:113801.got - 2010.06.03 11:33:40.
