data_PCOD9064517
_publ_section_title
;
Structure prediction by ZEFSAII (Michael W. Deem and Ramdas Pophale) SiO2 
 PCOD9064517
Probable space group: P -1
;
_chemical_formula_sum "Si O2"
_cell_formula_units_Z 16
_cell_length_a 6.015402
_cell_length_b 17.671988
_cell_length_c 9.422227
_cell_angle_alpha 85.625324
_cell_angle_beta 127.725409
_cell_angle_gamma 107.357917
_cell_volume 748.626981
_symmetry_space_group_name_H-M "P -1"
_symmetry_group_IT_number 2
_symmetry_cell_setting 'triclinic'
loop_
_space_group_symop_operation_xyz
x,y,z
-x,-y,-z
loop_
_atom_site_type_symbol
_atom_site_label
_atom_site_fract_x
_atom_site_fract_y
_atom_site_fract_z
Si Si1 0.269860 0.220173 0.611158
Si Si2 0.788082 0.028860 0.813251
Si Si3 0.172655 0.947511 0.503811
Si Si4 0.728283 0.561459 0.684098
Si Si5 0.678447 0.729162 0.682056
Si Si6 0.714643 0.489761 0.207193
Si Si7 0.102626 0.784721 0.108384
Si Si8 0.005054 0.672614 0.367115
O O1 0.278840 0.212466 0.445413
O O2 0.568276 0.216082 0.801061
O O3 0.991504 0.146417 0.558311
O O4 0.228412 0.302412 0.632856
O O5 0.805601 0.021465 0.652634
O O6 0.844147 0.122830 0.846345
O O7 0.459137 0.968020 0.712605
O O8 0.000000 0.000000 0.000000
O O9 0.000000 0.000000 0.500000
O O10 0.500000 0.500000 0.500000
O O11 0.774495 0.654920 0.673595
O O12 0.530025 0.545994 0.757221
O O13 0.047799 0.548963 0.768433
O O14 0.323410 0.700555 0.564696
O O15 0.865632 0.760610 0.891993
O O16 0.914292 0.578175 0.322305
O O17 0.500000 0.500000 0.000000
O O18 0.018232 0.721744 0.216787
#
# Coordination Sequence:
#
# PCOD9064517 Si02
#       8
#     2   2   2   2   2   2   2   2
#     4  11  25  44  68  97 137 178 226 282 349 417
#     4  11  26  42  69  98 135 176 228 282 341 418
#     4  11  24  46  67  95 135 177 222 280 344 409
#     4  12  25  48  71 106 142 188 242 299 354 432
#     4  11  27  42  71  98 141 179 229 287 353 413
#     4  12  27  45  75 103 144 188 245 296 362 426
#     4  11  25  45  64 103 135 176 229 283 345 422
#     4  11  25  46  67  97 138 185 223 284 353 419
#
# _framework density 21.372461000000001
#
# number of rings (size 3 to 8) (size 9 to 14) (size 15 to 20)
#    0.000    0.750    3.750    2.250    8.750    2.500 
#    0.000    0.000    0.000    0.000    0.000    0.000 
#    0.000    0.000    0.000    0.000    0.000    0.000 
#
# Total GULP energy -89155.878003 kJ/mol
# GULP energy per Si atom -5572.242375 kJ/mol
# Density = 2.132382 g / cm^3
# Si number density = 21.372461 Si / 1000 Ang^3
#
#
#
# Elastic Constant Matrix: (Units=GPa)
#
#
# Indices 1 2 3 4 5 6 
#
# 1 89.0711 11.9073 42.3381 -13.4482 19.6607 -19.0177
# 2 11.9073 44.9119 -8.3383 -1.7327 6.7856 -10.2770
# 3 42.3381 -8.3383 158.5761 -1.4360 26.2359 -5.2195
# 4 -13.4482 -1.7327 -1.4360 29.2841 -2.2576 -0.2789
# 5 19.6607 6.7856 26.2359 -2.2576 31.8669 -4.7295
# 6 -19.0177 -10.2770 -5.2195 -0.2789 -4.7295 44.1059
#
#
#
# Elastic Compliance Matrix: (Units=1/GPa)
#
#
# Indices 1 2 3 4 5 6 
#
# 1 0.016695 -0.002664 -0.003425 0.006964 -0.005586 0.005618
# 2 -0.002664 0.025456 0.003140 0.000042 -0.005685 0.004545
# 3 -0.003425 0.003140 0.008275 -0.001411 -0.005522 -0.000367
# 4 0.006964 0.000042 -0.001411 0.037306 -0.000045 0.003077
# 5 -0.005586 -0.005685 -0.005522 -0.000045 0.040575 -0.000036
# 6 0.005618 0.004545 -0.000367 0.003077 -0.000036 0.026126
#
#
# Mechanical properties :
#
#
# Convention : Reuss Voigt Hill
#
# Bulk Modulus (GPa) = 22.45846 42.70816 32.58331
# Shear Modulus (GPa) = 28.54321 37.49484 33.01902
#
# Velocity S-wave (km/s) = 3.65843 4.19304 3.93483
# Velocity P-wave (km/s) = 5.32695 6.59305 5.99353
#
# Compressibility (1/GPa) = 0.04452666
#
# Stress axis : x y z
#
# Youngs Moduli (GPa) = 59.89749 39.28404 120.85245
#
# Poissons Ratio (x) = 0.10466 0.41397
# Poissons Ratio (y) = 0.15958 -0.37951
# Poissons Ratio (z) = 0.20517 -0.12336
#
# Static dielectric constant tensor:
#      x y z
#    x 3.362250 0.277630 -0.150580 
#    y 0.277630 1.802280 -0.055700 
#    z -0.150580 -0.055700 1.717900 
# 
# From -- ./inp_files/48014.got.cif
#   From: 2010.05.17/outbox.cif.g08.bks.cpg/sg2_25_cif.got.tgz:48014.got - 2010.06.03 11:33:40.
