data_PCOD9064074
_publ_section_title
;
Structure prediction by ZEFSAII (Michael W. Deem and Ramdas Pophale) SiO2 
 PCOD9064074
Probable space group: P -1
;
_chemical_formula_sum "Si O2"
_cell_formula_units_Z 10
_cell_length_a 11.994247
_cell_length_b 23.711348
_cell_length_c 9.256253
_cell_angle_alpha 28.845285
_cell_angle_beta 35.479270
_cell_angle_gamma 18.423483
_cell_volume 398.960441
_symmetry_space_group_name_H-M "P -1"
_symmetry_group_IT_number 2
_symmetry_cell_setting 'triclinic'
loop_
_space_group_symop_operation_xyz
x,y,z
-x,-y,-z
loop_
_atom_site_type_symbol
_atom_site_label
_atom_site_fract_x
_atom_site_fract_y
_atom_site_fract_z
Si Si1 0.751077 0.182930 0.233803
Si Si2 0.893172 0.689819 0.717222
Si Si3 0.263504 0.637087 0.697647
Si Si4 0.492543 0.936437 0.304593
Si Si5 0.725869 0.109562 0.918890
O O1 0.483667 0.214791 0.409120
O O2 0.535545 0.407707 0.996318
O O3 0.000000 0.000000 0.500000
O O4 0.023874 0.060742 0.090376
O O5 0.775778 0.805433 0.429167
O O6 0.163182 0.629389 0.664507
O O7 0.552037 0.840920 0.840707
O O8 0.000000 0.500000 0.000000
O O9 0.430250 0.681530 0.418069
O O10 0.894850 0.839349 0.719901
O O11 0.500000 0.000000 0.000000
O O12 0.000000 0.000000 0.000000
#
# Coordination Sequence:
#
# PCOD9064074 Si02
#       5
#     2   2   2   2   2
#     4  11  26  46  68 105 144 187 235 290 360 415
#     4  12  24  47  75 107 138 186 241 286 350 426
#     4  11  25  48  74 101 143 190 231 298 350 408
#     4  11  26  45  69 109 141 181 239 286 355 422
#     4  11  24  45  70 107 139 180 244 284 346 432
#
# _framework density 25.065141000000001
#
# number of rings (size 3 to 8) (size 9 to 14) (size 15 to 20)
#    0.000    0.800    6.000    0.600    2.800   10.400 
#    0.000    0.000    0.000    0.000    0.000    0.000 
#    0.000    0.000    0.000    0.000    0.000    0.000 
#
# Total GULP energy -55989.956323 kJ/mol
# GULP energy per Si atom -5598.995632 kJ/mol
# Density = 2.500809 g / cm^3
# Si number density = 25.065141 Si / 1000 Ang^3
#
#
#
# Elastic Constant Matrix: (Units=GPa)
#
#
# Indices 1 2 3 4 5 6 
#
# 1 59.4998 -1.5620 39.6874 14.7225 -6.0631 0.9272
# 2 -1.5620 73.3384 44.0363 8.6506 2.9055 13.9352
# 3 39.6874 44.0363 191.4787 -5.1557 -12.9967 10.7581
# 4 14.7225 8.6506 -5.1557 59.2578 3.4105 -5.6070
# 5 -6.0631 2.9055 -12.9967 3.4105 64.2197 0.4656
# 6 0.9272 13.9352 10.7581 -5.6070 0.4656 36.5532
#
#
#
# Elastic Compliance Matrix: (Units=1/GPa)
#
#
# Indices 1 2 3 4 5 6 
#
# 1 0.022835 0.005231 -0.005945 -0.007202 0.001113 -0.001943
# 2 0.005231 0.018773 -0.005247 -0.005049 -0.001102 -0.006506
# 3 -0.005945 -0.005247 0.007798 0.002885 0.001099 0.000285
# 4 -0.007202 -0.005049 0.002885 0.020121 -0.000968 0.004357
# 5 0.001113 -0.001102 0.001099 -0.000968 0.016002 -0.000284
# 6 -0.001943 -0.006506 0.000285 0.004357 -0.000284 0.030475
#
#
# Mechanical properties :
#
#
# Convention : Reuss Voigt Hill
#
# Bulk Modulus (GPa) = 26.67861 54.29335 40.48598
# Shear Modulus (GPa) = 35.60735 48.14984 41.87859
#
# Velocity S-wave (km/s) = 3.77316 4.38766 4.09196
# Velocity P-wave (km/s) = 5.44510 6.88307 6.20588
#
# Compressibility (1/GPa) = 0.03748321
#
# Stress axis : x y z
#
# Youngs Moduli (GPa) = 43.79160 53.26937 128.24298
#
# Poissons Ratio (x) = -0.27864 0.76244
# Poissons Ratio (y) = -0.22906 0.67285
# Poissons Ratio (z) = 0.26035 0.27949
#
# Static dielectric constant tensor:
#      x y z
#    x 2.097660 -0.043140 -0.021130 
#    y -0.043140 2.006120 -0.003950 
#    z -0.021130 -0.003950 2.071560 
# 
# From -- ./inp_files/144094.got.cif
#   From: 2010.05.17/outbox.cif.g08.bks.cpg/sg2_73_cif.got.tgz:144094.got - 2010.06.03 11:33:40.
