data_PCOD9064898
_publ_section_title
;
Structure prediction by ZEFSAII (Michael W. Deem and Ramdas Pophale) SiO2 
 PCOD9064898
Probable space group: P -1
;
_chemical_formula_sum "Si O2"
_cell_formula_units_Z 16
_cell_length_a 9.377055
_cell_length_b 10.270587
_cell_length_c 11.325654
_cell_angle_alpha 44.838665
_cell_angle_beta 81.398415
_cell_angle_gamma 56.681234
_cell_volume 586.980205
_symmetry_space_group_name_H-M "P -1"
_symmetry_group_IT_number 2
_symmetry_cell_setting 'triclinic'
loop_
_space_group_symop_operation_xyz
x,y,z
-x,-y,-z
loop_
_atom_site_type_symbol
_atom_site_label
_atom_site_fract_x
_atom_site_fract_y
_atom_site_fract_z
Si Si1 0.188103 0.341472 0.001519
Si Si2 0.750579 0.105982 0.426597
Si Si3 0.367461 0.839898 0.264704
Si Si4 0.375737 0.531651 0.103479
Si Si5 0.589340 0.122006 0.035224
Si Si6 0.251295 0.388618 0.550177
Si Si7 0.874741 0.579841 0.721423
Si Si8 0.071233 0.851449 0.393298
O O1 0.371036 0.320852 0.976455
O O2 0.091760 0.398476 0.848110
O O3 0.000000 0.500000 0.000000
O O4 0.290237 0.072742 0.200336
O O5 0.532940 0.311566 0.309182
O O6 0.820364 0.174540 0.483140
O O7 0.803748 0.845605 0.587414
O O8 0.864134 0.076345 0.313072
O O9 0.417711 0.872586 0.108471
O O10 0.563074 0.635408 0.434771
O O11 0.183336 0.865152 0.269008
O O12 0.300750 0.781180 0.008448
O O13 0.225906 0.492251 0.136591
O O14 0.500000 0.500000 0.000000
O O15 0.685169 0.865750 0.247824
O O16 0.095461 0.620772 0.498485
O O17 0.816125 0.569967 0.602618
#
# Coordination Sequence:
#
# PCOD9064898 Si02
#       8
#     2   2   2   2   2   2   2   2
#     4  11  25  45  76 113 153 202 257 316 379 466
#     4  11  27  45  75 112 153 200 258 318 387 462
#     4  11  24  46  75 108 151 207 258 308 383 467
#     4  12  26  47  74 110 154 202 252 319 392 463
#     4  11  26  49  80 109 156 210 262 309 388 478
#     4  11  24  49  75 111 151 206 251 321 384 457
#     4  12  27  47  77 114 156 198 252 329 395 448
#     4  11  25  46  78 111 150 202 264 315 377 471
#
# _framework density 27.258158999999999
#
# number of rings (size 3 to 8) (size 9 to 14) (size 15 to 20)
#    0.000    0.750    0.000    6.750   10.500    3.500 
#    2.250    1.250    0.000    0.000    0.000    0.000 
#    0.000    0.000    0.000    0.000    0.000    0.000 
#
# Total GULP energy -89506.043998 kJ/mol
# GULP energy per Si atom -5594.127750 kJ/mol
# Density = 2.719612 g / cm^3
# Si number density = 27.258159 Si / 1000 Ang^3
#
#
#
# Elastic Constant Matrix: (Units=GPa)
#
#
# Indices 1 2 3 4 5 6 
#
# 1 145.6107 29.0266 34.4379 6.6896 -3.5579 -4.1817
# 2 29.0266 164.5041 35.4517 18.4886 0.2759 6.6374
# 3 34.4379 35.4517 54.1629 3.9701 0.7278 0.5942
# 4 6.6896 18.4886 3.9701 47.6377 4.7012 -5.4183
# 5 -3.5579 0.2759 0.7278 4.7012 48.5515 10.8870
# 6 -4.1817 6.6374 0.5942 -5.4183 10.8870 46.4945
#
#
#
# Elastic Compliance Matrix: (Units=1/GPa)
#
#
# Indices 1 2 3 4 5 6 
#
# 1 0.008163 -0.000336 -0.004942 -0.000589 0.000588 0.000639
# 2 -0.000336 0.007464 -0.004465 -0.002706 0.000597 -0.001494
# 3 -0.004942 -0.004465 0.024502 0.000475 -0.000776 0.000117
# 4 -0.000589 -0.002706 0.000475 0.022810 -0.003075 0.003705
# 5 0.000588 0.000597 -0.000776 -0.003075 0.022197 -0.005578
# 6 0.000639 -0.001494 0.000117 0.003705 -0.005578 0.023515
#
#
# Mechanical properties :
#
#
# Convention : Reuss Voigt Hill
#
# Bulk Modulus (GPa) = 48.44294 62.45667 55.44980
# Shear Modulus (GPa) = 37.03201 46.22751 41.62976
#
# Velocity S-wave (km/s) = 3.68987 4.12262 3.91223
# Velocity P-wave (km/s) = 5.99700 6.75456 6.38702
#
# Compressibility (1/GPa) = 0.02064284
#
# Stress axis : x y z
#
# Youngs Moduli (GPa) = 122.50035 133.97963 40.81283
#
# Poissons Ratio (x) = 0.04499 0.20171
# Poissons Ratio (y) = 0.04114 0.18223
# Poissons Ratio (z) = 0.60543 0.59823
#
# Static dielectric constant tensor:
#      x y z
#    x 2.143470 0.007850 -0.081370 
#    y 0.007850 2.202320 0.079250 
#    z -0.081370 0.079250 2.163520 
# 
# From -- ./inp_files/308530.got.cif
#   From: 2010.05.17/outbox.cif.g08.bks.cpg/sg2_155_cif.got.tgz:308530.got - 2010.06.03 11:33:40.
