data_PCOD9064624
_publ_section_title
;
Structure prediction by ZEFSAII (Michael W. Deem and Ramdas Pophale) SiO2 
 PCOD9064624
Probable space group: P -1
;
_chemical_formula_sum "Si O2"
_cell_formula_units_Z 15
_cell_length_a 8.775045
_cell_length_b 19.175592
_cell_length_c 12.414464
_cell_angle_alpha 26.122959
_cell_angle_beta 143.264676
_cell_angle_gamma 132.662806
_cell_volume 543.130659
_symmetry_space_group_name_H-M "P -1"
_symmetry_group_IT_number 2
_symmetry_cell_setting 'triclinic'
loop_
_space_group_symop_operation_xyz
x,y,z
-x,-y,-z
loop_
_atom_site_type_symbol
_atom_site_label
_atom_site_fract_x
_atom_site_fract_y
_atom_site_fract_z
Si Si1 0.610440 0.269032 0.624252
Si Si2 0.392982 0.212145 0.798283
Si Si3 0.000000 0.500000 0.500000
Si Si4 0.418022 0.730472 0.824510
Si Si5 0.295601 0.126048 0.491225
Si Si6 0.162233 0.095317 0.208896
Si Si7 0.816537 0.340067 0.991184
Si Si8 0.909007 0.403042 0.334348
O O1 0.402241 0.249039 0.626008
O O2 0.747468 0.421304 0.508963
O O3 0.472048 0.253812 0.454116
O O4 0.858107 0.127957 0.973926
O O5 0.117906 0.241123 0.659172
O O6 0.572625 0.324603 0.800958
O O7 0.545220 0.037053 0.149588
O O8 0.083745 0.538151 0.622199
O O9 0.719992 0.749932 0.989391
O O10 0.281638 0.654906 0.950144
O O11 0.349884 0.639564 0.806483
O O12 0.288004 0.919935 0.482995
O O13 0.243215 0.114237 0.351961
O O14 0.019035 0.175964 0.320126
O O15 0.967553 0.474525 0.843489
#
# Coordination Sequence:
#
# PCOD9064624 Si02
#       8
#     2   2   1   2   2   2   2   2
#     4  12  26  44  72 107 146 195 239 297 366 431
#     4  12  24  46  75 106 146 188 248 301 357 426
#     4  12  28  46  68 102 150 188 236 300 356 440
#     4  11  25  44  73 106 142 194 241 297 364 433
#     4  12  24  47  77 107 144 193 242 301 361 430
#     4  11  24  46  70 108 151 186 240 303 361 433
#     4  12  24  47  74 105 150 189 240 304 361 423
#     4  12  27  48  74 107 143 197 243 299 365 436
#
# _framework density 27.617663
#
# number of rings (size 3 to 8) (size 9 to 14) (size 15 to 20)
#    0.000    0.267    4.000    4.800    1.867    1.067 
#    0.000    6.000    0.000    0.000    0.000    0.000 
#    0.000    0.000    0.000    0.000    0.000    0.000 
#
# Total GULP energy -84044.573520 kJ/mol
# GULP energy per Si atom -5602.971568 kJ/mol
# Density = 2.755480 g / cm^3
# Si number density = 27.617663 Si / 1000 Ang^3
#
#
#
# Elastic Constant Matrix: (Units=GPa)
#
#
# Indices 1 2 3 4 5 6 
#
# 1 131.1518 39.2519 39.4358 27.0218 -7.9873 -33.1294
# 2 39.2519 210.8104 29.7521 36.6809 -5.9431 -12.0584
# 3 39.4358 29.7521 92.6624 -0.9064 10.4148 -5.5267
# 4 27.0218 36.6809 -0.9064 33.2085 1.2666 4.0889
# 5 -7.9873 -5.9431 10.4148 1.2666 57.0985 7.3989
# 6 -33.1294 -12.0584 -5.5267 4.0889 7.3989 43.0497
#
#
#
# Elastic Compliance Matrix: (Units=1/GPa)
#
#
# Indices 1 2 3 4 5 6 
#
# 1 0.016294 0.001795 -0.007156 -0.017171 0.002424 0.013337
# 2 0.001795 0.006703 -0.002934 -0.009431 0.001231 0.003566
# 3 -0.007156 -0.002934 0.015007 0.010196 -0.003655 -0.004742
# 4 -0.017171 -0.009431 0.010196 0.057309 -0.004014 -0.019300
# 5 0.002424 0.001231 -0.003655 -0.004014 0.018882 -0.001123
# 6 0.013337 0.003566 -0.004742 -0.019300 -0.001123 0.035909
#
#
# Mechanical properties :
#
#
# Convention : Reuss Voigt Hill
#
# Bulk Modulus (GPa) = 46.69736 72.38935 59.54336
# Shear Modulus (GPa) = 28.76341 48.41699 38.59020
#
# Velocity S-wave (km/s) = 3.23071 4.19157 3.74210
# Velocity P-wave (km/s) = 5.55534 7.04938 6.34648
#
# Compressibility (1/GPa) = 0.02141449
#
# Stress axis : x y z
#
# Youngs Moduli (GPa) = 61.37381 149.18395 66.63561
#
# Poissons Ratio (x) = -0.26779 0.47682
# Poissons Ratio (y) = -0.11017 0.19551
# Poissons Ratio (z) = 0.43916 0.43772
#
# Static dielectric constant tensor:
#      x y z
#    x 2.086520 0.061080 -0.067070 
#    y 0.061080 2.091660 -0.056130 
#    z -0.067070 -0.056130 2.104170 
# 
# From -- ./inp_files/402775.got.cif
#   From: 2010.05.17/outbox.cif.g08.bks.cpg/sg2_202_cif.got.tgz:402775.got - 2010.06.03 11:33:40.
