data_PCOD9064539
_publ_section_title
;
Structure prediction by ZEFSAII (Michael W. Deem and Ramdas Pophale) SiO2 
 PCOD9064539
Probable space group: P -1
;
_chemical_formula_sum "Si O2"
_cell_formula_units_Z 11
_cell_length_a 11.466793
_cell_length_b 11.839271
_cell_length_c 6.039676
_cell_angle_alpha 92.198676
_cell_angle_beta 78.571798
_cell_angle_gamma 145.499463
_cell_volume 443.541884
_symmetry_space_group_name_H-M "P -1"
_symmetry_group_IT_number 2
_symmetry_cell_setting 'triclinic'
loop_
_space_group_symop_operation_xyz
x,y,z
-x,-y,-z
loop_
_atom_site_type_symbol
_atom_site_label
_atom_site_fract_x
_atom_site_fract_y
_atom_site_fract_z
Si Si1 0.401682 0.032256 0.754105
Si Si2 0.000000 0.000000 0.000000
Si Si3 0.318242 0.345739 0.244715
Si Si4 0.180539 0.737036 0.438245
Si Si5 0.570912 0.372398 0.423018
Si Si6 0.007212 0.777395 0.191861
O O1 0.621567 0.153424 0.774978
O O2 0.484947 0.194587 0.565458
O O3 0.279352 0.839266 0.647936
O O4 0.222511 0.941488 0.973608
O O5 0.101867 0.161597 0.172252
O O6 0.945093 0.858390 0.196025
O O7 0.384191 0.284876 0.348107
O O8 0.351927 0.478496 0.403715
O O9 0.500000 0.500000 0.000000
O O10 0.000000 0.500000 0.500000
O O11 0.087833 0.780313 0.383936
O O12 0.787446 0.532797 0.204553
#
# Coordination Sequence:
#
# PCOD9064539 Si02
#       6
#     2   1   2   2   2   2
#     4  11  26  48  74 105 146 193 245 312 367 430
#     4  12  26  44  74 110 148 194 238 296 378 430
#     4  11  24  46  68 107 153 196 243 301 360 444
#     4  11  25  50  74 106 144 193 251 303 370 438
#     4  11  25  47  75 107 152 195 249 304 367 444
#     4  12  26  45  74 110 143 197 241 305 367 442
#
# _framework density 24.800363999999998
#
# number of rings (size 3 to 8) (size 9 to 14) (size 15 to 20)
#    0.000    0.727    3.636    2.727    5.091    1.455 
#    6.545    0.000    0.000    0.000    0.000    0.000 
#    0.000    0.000    0.000    0.000    0.000    0.000 
#
# Total GULP energy -61257.937016 kJ/mol
# GULP energy per Si atom -5568.903365 kJ/mol
# Density = 2.474392 g / cm^3
# Si number density = 24.800364 Si / 1000 Ang^3
#
#
#
# Elastic Constant Matrix: (Units=GPa)
#
#
# Indices 1 2 3 4 5 6 
#
# 1 77.5225 20.9474 30.5981 -7.8189 20.4591 14.7931
# 2 20.9474 138.8109 36.9519 -2.8303 6.5778 -5.7411
# 3 30.5981 36.9519 70.8669 -29.4469 7.1053 -4.4850
# 4 -7.8189 -2.8303 -29.4469 47.1469 14.3162 5.1049
# 5 20.4591 6.5778 7.1053 14.3162 35.0068 -11.0588
# 6 14.7931 -5.7411 -4.4850 5.1049 -11.0588 43.0447
#
#
#
# Elastic Compliance Matrix: (Units=1/GPa)
#
#
# Indices 1 2 3 4 5 6 
#
# 1 0.025447 -0.002035 -0.004510 0.010031 -0.022909 -0.016562
# 2 -0.002035 0.008966 -0.006067 -0.005005 0.003666 0.002798
# 3 -0.004510 -0.006067 0.028574 0.020141 -0.010710 -0.001422
# 4 0.010031 -0.005005 0.020141 0.047029 -0.033348 -0.016161
# 5 -0.022909 0.003666 -0.010710 -0.033348 0.065970 0.028150
# 6 -0.016562 0.002798 -0.001422 -0.016161 0.028150 0.038297
#
#
# Mechanical properties :
#
#
# Convention : Reuss Voigt Hill
#
# Bulk Modulus (GPa) = 26.47895 51.57723 39.02809
# Shear Modulus (GPa) = 19.83383 38.28652 29.06017
#
# Velocity S-wave (km/s) = 2.83103 3.93337 3.42682
# Velocity P-wave (km/s) = 4.62454 6.43977 5.60611
#
# Compressibility (1/GPa) = 0.03776585
#
# Stress axis : x y z
#
# Youngs Moduli (GPa) = 39.29698 111.53235 34.99647
#
# Poissons Ratio (x) = 0.22692 0.15782
# Poissons Ratio (y) = 0.07995 0.21231
# Poissons Ratio (z) = 0.17721 0.67663
#
# Static dielectric constant tensor:
#      x y z
#    x 2.086140 0.069260 -0.078310 
#    y 0.069260 1.907840 -0.005810 
#    z -0.078310 -0.005810 2.035290 
# 
# From -- ./inp_files/4023.got.cif
#   From: 2010.05.17/outbox.cif.g08.bks.cpg/sg2_3_cif.got.tgz:4023.got - 2010.06.03 11:33:40.
