data_PCOD9064620
_publ_section_title
;
Structure prediction by ZEFSAII (Michael W. Deem and Ramdas Pophale) SiO2 
 PCOD9064620
Probable space group: P -1
;
_chemical_formula_sum "Si O2"
_cell_formula_units_Z 16
_cell_length_a 12.484617
_cell_length_b 9.480145
_cell_length_c 9.081761
_cell_angle_alpha 123.415069
_cell_angle_beta 82.242708
_cell_angle_gamma 63.319587
_cell_volume 688.381299
_symmetry_space_group_name_H-M "P -1"
_symmetry_group_IT_number 2
_symmetry_cell_setting 'triclinic'
loop_
_space_group_symop_operation_xyz
x,y,z
-x,-y,-z
loop_
_atom_site_type_symbol
_atom_site_label
_atom_site_fract_x
_atom_site_fract_y
_atom_site_fract_z
Si Si1 0.994380 0.293006 0.980625
Si Si2 0.715336 0.903230 0.045584
Si Si3 0.428111 0.702361 0.517170
Si Si4 0.123896 0.834076 0.603519
Si Si5 0.880070 0.513166 0.433468
Si Si6 0.830374 0.438831 0.831537
Si Si7 0.397418 0.022536 0.162459
Si Si8 0.450003 0.374312 0.868556
O O1 0.148763 0.167388 0.938969
O O2 0.949154 0.400060 0.889479
O O3 0.004243 0.081322 0.820389
O O4 0.906135 0.463799 0.226115
O O5 0.593225 0.096042 0.282059
O O6 0.751845 0.667778 0.890699
O O7 0.691416 0.009124 0.951433
O O8 0.500000 0.500000 0.500000
O O9 0.277689 0.768536 0.542011
O O10 0.511314 0.657099 0.327147
O O11 0.118334 0.678454 0.619304
O O12 0.113435 0.758665 0.401216
O O13 0.725223 0.740202 0.615347
O O14 0.000000 0.500000 0.500000
O O15 0.713402 0.485774 0.990819
O O16 0.473668 0.846791 0.176077
O O17 0.500000 0.000000 0.000000
O O18 0.500000 0.500000 0.000000
#
# Coordination Sequence:
#
# PCOD9064620 Si02
#       8
#     2   2   2   2   2   2   2   2
#     4  11  26  44  70 109 145 193 251 308 369 449
#     4  11  24  46  70 105 146 198 240 308 382 436
#     4  11  27  45  72 105 152 192 244 311 377 445
#     4  11  24  48  69 104 144 198 241 306 384 428
#     4  12  25  47  75 108 144 195 254 305 371 445
#     4  12  24  45  73 103 151 192 251 306 370 445
#     4  12  25  47  78 105 155 195 245 308 375 442
#     4  12  26  45  72 113 144 196 254 299 377 449
#
# _framework density 23.242932
#
# number of rings (size 3 to 8) (size 9 to 14) (size 15 to 20)
#    0.000    0.500    5.000    1.875    5.250    1.500 
#    2.250    0.000    0.000    0.000    0.000    0.000 
#    0.000    0.000    0.000    0.000    0.000    0.000 
#
# Total GULP energy -89276.473155 kJ/mol
# GULP energy per Si atom -5579.779572 kJ/mol
# Density = 2.319003 g / cm^3
# Si number density = 23.242932 Si / 1000 Ang^3
#
#
#
# Elastic Constant Matrix: (Units=GPa)
#
#
# Indices 1 2 3 4 5 6 
#
# 1 62.2475 20.4763 26.4253 -2.9353 0.2628 -2.4162
# 2 20.4763 131.8538 69.1520 -13.2183 -6.0129 -7.9615
# 3 26.4253 69.1520 206.1115 -10.9027 5.2061 -3.5046
# 4 -2.9353 -13.2183 -10.9027 43.0478 -0.7799 2.6886
# 5 0.2628 -6.0129 5.2061 -0.7799 36.9773 -3.2073
# 6 -2.4162 -7.9615 -3.5046 2.6886 -3.2073 41.9617
#
#
#
# Elastic Compliance Matrix: (Units=1/GPa)
#
#
# Indices 1 2 3 4 5 6 
#
# 1 0.017369 -0.001819 -0.001594 0.000188 -0.000148 0.000499
# 2 -0.001819 0.009836 -0.002986 0.002083 0.002211 0.001548
# 3 -0.001594 -0.002986 0.006115 0.000516 -0.001349 -0.000284
# 4 0.000188 0.002083 0.000516 0.024091 0.000682 -0.001042
# 5 -0.000148 0.002211 -0.001349 0.000682 0.027815 0.002381
# 6 0.000499 0.001548 -0.000284 -0.001042 0.002381 0.024379
#
#
# Mechanical properties :
#
#
# Convention : Reuss Voigt Hill
#
# Bulk Modulus (GPa) = 48.73179 70.25779 59.49479
# Shear Modulus (GPa) = 38.68689 43.34131 41.01410
#
# Velocity S-wave (km/s) = 4.08420 4.32291 4.20525
# Velocity P-wave (km/s) = 6.57668 7.43034 7.01651
#
# Compressibility (1/GPa) = 0.02052049
#
# Stress axis : x y z
#
# Youngs Moduli (GPa) = 57.57404 101.66891 163.54306
#
# Poissons Ratio (x) = 0.18492 0.26076
# Poissons Ratio (y) = 0.10472 0.48836
# Poissons Ratio (z) = 0.09180 0.30360
#
# Static dielectric constant tensor:
#      x y z
#    x 2.059600 -0.027500 0.022770 
#    y -0.027500 1.904240 0.020160 
#    z 0.022770 0.020160 1.922390 
# 
# From -- ./inp_files/299485.got.cif
#   From: 2010.05.17/outbox.cif.g08.bks.cpg/sg2_150_cif.got.tgz:299485.got - 2010.06.03 11:33:40.
