data_PCOD9064571
_publ_section_title
;
Structure prediction by ZEFSAII (Michael W. Deem and Ramdas Pophale) SiO2 
 PCOD9064571
Probable space group: P -1
;
_chemical_formula_sum "Si O2"
_cell_formula_units_Z 16
_cell_length_a 23.431548
_cell_length_b 25.771036
_cell_length_c 5.522721
_cell_angle_alpha 61.189510
_cell_angle_beta 119.098261
_cell_angle_gamma 167.488022
_cell_volume 630.851585
_symmetry_space_group_name_H-M "P -1"
_symmetry_group_IT_number 2
_symmetry_cell_setting 'triclinic'
loop_
_space_group_symop_operation_xyz
x,y,z
-x,-y,-z
loop_
_atom_site_type_symbol
_atom_site_label
_atom_site_fract_x
_atom_site_fract_y
_atom_site_fract_z
Si Si1 0.410269 0.317316 0.108409
Si Si2 0.092857 0.129263 0.607188
Si Si3 0.593453 0.849022 0.921625
Si Si4 0.707860 0.269944 0.922029
Si Si5 0.413168 0.014962 0.374497
Si Si6 0.235820 0.453307 0.382933
Si Si7 0.133729 0.293149 0.115536
Si Si8 0.136650 0.466607 0.475100
O O1 0.635656 0.494713 0.363601
O O2 0.329873 0.310918 0.850729
O O3 0.563906 0.423861 0.959633
O O4 0.140884 0.062816 0.252719
O O5 0.152541 0.241962 0.343104
O O6 0.000000 0.000000 0.500000
O O7 0.593022 0.919004 0.807834
O O8 0.373233 0.649665 0.710200
O O9 0.478827 0.708047 0.220677
O O10 0.877447 0.074431 0.910588
O O11 0.561843 0.130679 0.675565
O O12 0.758379 0.384777 0.785078
O O13 0.547555 0.109604 0.192234
O O14 0.000000 0.500000 0.000000
O O15 0.108805 0.729215 0.426226
O O16 0.054580 0.269439 0.211607
O O17 0.064109 0.347247 0.427014
#
# Coordination Sequence:
#
# PCOD9064571 Si02
#       8
#     2   2   2   2   2   2   2   2
#     4  11  25  45  70  99 133 185 234 290 377 435
#     4  11  26  47  69  98 138 182 239 300 361 454
#     4  11  24  46  69 105 148 185 244 306 370 436
#     4  11  26  48  76 116 157 202 254 310 367 445
#     4  11  25  46  78 109 157 202 251 310 378 437
#     4  12  24  44  71 103 141 183 243 305 370 444
#     4  12  27  45  72 102 141 183 240 302 376 439
#     4  11  27  46  75 108 150 196 248 302 373 443
#
# _framework density 25.362544
#
# number of rings (size 3 to 8) (size 9 to 14) (size 15 to 20)
#    0.000    0.750    2.500    3.750    5.250    5.000 
#    2.250    0.000    0.000    0.000    0.000    0.000 
#    0.000    0.000    0.000    0.000    0.000    0.000 
#
# Total GULP energy -89377.308248 kJ/mol
# GULP energy per Si atom -5586.081766 kJ/mol
# Density = 2.530482 g / cm^3
# Si number density = 25.362544 Si / 1000 Ang^3
#
#
#
# Elastic Constant Matrix: (Units=GPa)
#
#
# Indices 1 2 3 4 5 6 
#
# 1 82.0976 41.0099 34.3196 0.3350 -9.4758 16.9861
# 2 41.0099 107.6541 50.8507 -8.9580 -10.3007 44.1243
# 3 34.3196 50.8507 107.7012 10.1707 -7.5575 25.0955
# 4 0.3350 -8.9580 10.1707 44.3750 15.4162 1.1392
# 5 -9.4758 -10.3007 -7.5575 15.4162 33.9675 -4.7751
# 6 16.9861 44.1243 25.0955 1.1392 -4.7751 47.9918
#
#
#
# Elastic Compliance Matrix: (Units=1/GPa)
#
#
# Indices 1 2 3 4 5 6 
#
# 1 0.015967 -0.004982 -0.002486 -0.001699 0.003245 0.000592
# 2 -0.004982 0.019691 -0.005113 0.005967 -0.001222 -0.013931
# 3 -0.002486 -0.005113 0.013411 -0.005067 0.002896 -0.001024
# 4 -0.001699 0.005967 -0.005067 0.029875 -0.013960 -0.004333
# 5 0.003245 -0.001222 0.002896 -0.013960 0.037306 0.002504
# 6 0.000592 -0.013931 -0.001024 -0.004333 0.002504 0.034323
#
#
# Mechanical properties :
#
#
# Convention : Reuss Voigt Hill
#
# Bulk Modulus (GPa) = 41.82559 61.09037 51.45798
# Shear Modulus (GPa) = 27.21754 36.68502 31.95128
#
# Velocity S-wave (km/s) = 3.27943 3.80732 3.55319
# Velocity P-wave (km/s) = 5.55576 6.59293 6.09644
#
# Compressibility (1/GPa) = 0.02390881
#
# Stress axis : x y z
#
# Youngs Moduli (GPa) = 62.62778 50.78375 74.56400
#
# Poissons Ratio (x) = 0.25301 0.18534
# Poissons Ratio (y) = 0.31202 0.38123
# Poissons Ratio (z) = 0.15567 0.25965
#
# Static dielectric constant tensor:
#      x y z
#    x 1.982790 0.000360 -0.065810 
#    y 0.000360 1.939220 -0.069380 
#    z -0.065810 -0.069380 2.199030 
# 
# From -- ./inp_files/127841.got.cif
#   From: 2010.05.17/outbox.cif.g08.bks.cpg/sg2_64_cif.got.tgz:127841.got - 2010.06.03 11:33:40.
