data_PCOD9064457
_publ_section_title
;
Structure prediction by ZEFSAII (Michael W. Deem and Ramdas Pophale) SiO2 
 PCOD9064457
Probable space group: P -1
;
_chemical_formula_sum "Si O2"
_cell_formula_units_Z 16
_cell_length_a 11.038073
_cell_length_b 7.966229
_cell_length_c 13.361223
_cell_angle_alpha 73.743499
_cell_angle_beta 54.751344
_cell_angle_gamma 45.212597
_cell_volume 664.507790
_symmetry_space_group_name_H-M "P -1"
_symmetry_group_IT_number 2
_symmetry_cell_setting 'triclinic'
loop_
_space_group_symop_operation_xyz
x,y,z
-x,-y,-z
loop_
_atom_site_type_symbol
_atom_site_label
_atom_site_fract_x
_atom_site_fract_y
_atom_site_fract_z
Si Si1 0.976028 0.219117 0.856864
Si Si2 0.091038 0.658995 0.749846
Si Si3 0.333663 0.300024 0.177983
Si Si4 0.800741 0.484273 0.581597
Si Si5 0.181639 0.044095 0.003895
Si Si6 0.497733 0.520840 0.377448
Si Si7 0.165351 0.055540 0.356687
Si Si8 0.740899 0.787918 0.400143
O O1 0.792778 0.508915 0.882883
O O2 0.146043 0.132533 0.706876
O O3 0.876909 0.108315 0.914217
O O4 0.090188 0.144620 0.920571
O O5 0.270391 0.612505 0.731580
O O6 0.195562 0.414633 0.677855
O O7 0.927280 0.744269 0.897893
O O8 0.971356 0.874512 0.688595
O O9 0.254427 0.468166 0.285399
O O10 0.266615 0.156849 0.257462
O O11 0.575703 0.123219 0.081927
O O12 0.596438 0.575246 0.609471
O O13 0.830853 0.646934 0.486202
O O14 0.992874 0.215449 0.497752
O O15 0.500000 0.500000 0.500000
O O16 0.345413 0.789940 0.358498
O O17 0.500000 0.000000 0.500000
#
# Coordination Sequence:
#
# PCOD9064457 Si02
#       8
#     2   2   2   2   2   2   2   2
#     4  11  26  50  72 108 148 197 253 305 360 435
#     4  11  27  49  69 109 143 198 244 301 367 438
#     4  12  26  49  75 106 147 199 245 305 366 439
#     4  11  25  45  74 111 146 187 244 298 382 441
#     4  11  29  47  74 103 148 202 253 302 360 433
#     4  12  26  44  73 109 151 190 238 305 378 442
#     4  11  26  47  70 112 146 189 244 309 371 437
#     4  11  24  45  76 110 146 184 242 301 375 441
#
# _framework density 24.077974000000001
#
# number of rings (size 3 to 8) (size 9 to 14) (size 15 to 20)
#    0.000    0.750    5.000    1.875   10.500    2.000 
#    0.000    0.000    0.000    0.000    0.000    0.000 
#    0.000    0.000    0.000    0.000    0.000    0.000 
#
# Total GULP energy -89585.016570 kJ/mol
# GULP energy per Si atom -5599.063536 kJ/mol
# Density = 2.402317 g / cm^3
# Si number density = 24.077974 Si / 1000 Ang^3
#
#
#
# Elastic Constant Matrix: (Units=GPa)
#
#
# Indices 1 2 3 4 5 6 
#
# 1 113.7229 55.1141 50.8366 5.2883 -22.5391 -23.2444
# 2 55.1141 159.1617 65.4236 -3.1829 -16.6808 -32.4694
# 3 50.8366 65.4236 155.9434 26.0596 -27.6635 -20.6556
# 4 5.2883 -3.1829 26.0596 44.9480 -3.8066 -11.4688
# 5 -22.5391 -16.6808 -27.6635 -3.8066 38.8756 6.2282
# 6 -23.2444 -32.4694 -20.6556 -11.4688 6.2282 31.6316
#
#
#
# Elastic Compliance Matrix: (Units=1/GPa)
#
#
# Indices 1 2 3 4 5 6 
#
# 1 0.012541 -0.001896 -0.002022 0.001352 0.004253 0.005602
# 2 -0.001896 0.010209 -0.003365 0.005129 -0.000013 0.008751
# 3 -0.002022 -0.003365 0.010014 -0.005791 0.004153 -0.001319
# 4 0.001352 0.005129 -0.005791 0.029122 -0.000385 0.013112
# 5 0.004253 -0.000013 0.004153 -0.000385 0.031174 -0.000453
# 6 0.005602 0.008751 -0.001319 0.013112 -0.000453 0.048695
#
#
# Mechanical properties :
#
#
# Convention : Reuss Voigt Hill
#
# Bulk Modulus (GPa) = 54.95483 85.73073 70.34278
# Shear Modulus (GPa) = 30.79037 40.25461 35.52249
#
# Velocity S-wave (km/s) = 3.57988 4.09325 3.84514
# Velocity P-wave (km/s) = 6.32144 7.61724 6.99939
#
# Compressibility (1/GPa) = 0.01819676
#
# Stress axis : x y z
#
# Youngs Moduli (GPa) = 79.73651 97.95147 99.86513
#
# Poissons Ratio (x) = 0.18569 0.20198
# Poissons Ratio (y) = 0.15116 0.33608
# Poissons Ratio (z) = 0.16127 0.32964
#
# Static dielectric constant tensor:
#      x y z
#    x 1.988320 0.049870 -0.037370 
#    y 0.049870 1.986040 -0.011270 
#    z -0.037370 -0.011270 1.904900 
# 
# From -- ./inp_files/515321.got.cif
#   From: 2010.05.17/outbox.cif.g08.bks.cpg/sg2_258_cif.got.tgz:515321.got - 2010.06.03 11:33:40.
