data_PCOD9064670
_publ_section_title
;
Structure prediction by ZEFSAII (Michael W. Deem and Ramdas Pophale) SiO2 
 PCOD9064670
Probable space group: P -1
;
_chemical_formula_sum "Si O2"
_cell_formula_units_Z 16
_cell_length_a 11.830873
_cell_length_b 20.402811
_cell_length_c 17.875753
_cell_angle_alpha 21.105648
_cell_angle_beta 151.649830
_cell_angle_gamma 152.642395
_cell_volume 678.574255
_symmetry_space_group_name_H-M "P -1"
_symmetry_group_IT_number 2
_symmetry_cell_setting 'triclinic'
loop_
_space_group_symop_operation_xyz
x,y,z
-x,-y,-z
loop_
_atom_site_type_symbol
_atom_site_label
_atom_site_fract_x
_atom_site_fract_y
_atom_site_fract_z
Si Si1 0.411910 0.152854 0.699782
Si Si2 0.363016 0.260985 0.396360
Si Si3 0.588417 0.066405 0.333214
Si Si4 0.976308 0.679483 0.143594
Si Si5 0.082043 0.767235 0.410461
Si Si6 0.963337 0.284142 0.021981
Si Si7 0.743533 0.699158 0.142649
Si Si8 0.120967 0.312674 0.464241
O O1 0.283063 0.191113 0.508257
O O2 0.712793 0.217907 0.788340
O O3 0.357316 0.286664 0.588568
O O4 0.274782 0.924882 0.885469
O O5 0.152294 0.306100 0.177685
O O6 0.619377 0.462204 0.333505
O O7 0.407064 0.086781 0.564028
O O8 0.862836 0.170693 0.421363
O O9 0.365710 0.936903 0.398877
O O10 0.486462 0.223911 0.071262
O O11 0.895098 0.444419 0.353493
O O12 0.870581 0.745654 0.084926
O O13 0.893122 0.718019 0.971049
O O14 0.910588 0.757069 0.394049
O O15 0.945382 0.789201 0.231075
O O16 0.882679 0.470089 0.773825
#
# Coordination Sequence:
#
# PCOD9064670 Si02
#       8
#     2   2   2   2   2   2   2   2
#     4  12  26  49  72 100 152 190 236 290 350 432
#     4  12  25  48  74 106 143 187 240 298 353 415
#     4  12  25  45  75 107 139 188 239 295 356 421
#     4  11  25  47  74 105 144 188 234 298 354 421
#     4  11  24  46  71 106 147 183 236 297 354 420
#     4  11  26  46  71 107 142 191 237 286 356 423
#     4  12  25  49  75 105 144 185 240 300 357 414
#     4  11  27  46  72 108 143 191 236 291 354 423
#
# _framework density 23.578849000000002
#
# number of rings (size 3 to 8) (size 9 to 14) (size 15 to 20)
#    0.000    0.500    5.000    2.625    1.750    5.000 
#    4.500    0.000    0.000    0.000    0.000    0.000 
#    0.000    0.000    0.000    0.000    0.000    0.000 
#
# Total GULP energy -89725.420110 kJ/mol
# GULP energy per Si atom -5607.838757 kJ/mol
# Density = 2.352518 g / cm^3
# Si number density = 23.578849 Si / 1000 Ang^3
#
#
#
# Elastic Constant Matrix: (Units=GPa)
#
#
# Indices 1 2 3 4 5 6 
#
# 1 115.1111 39.2604 50.4928 -29.3313 1.2678 -9.5993
# 2 39.2604 74.5813 40.6127 9.3254 -3.5508 -10.8421
# 3 50.4928 40.6127 83.2086 -16.9368 -7.6109 -4.3812
# 4 -29.3313 9.3254 -16.9368 28.4690 -1.4945 -1.7315
# 5 1.2678 -3.5508 -7.6109 -1.4945 42.3631 0.4350
# 6 -9.5993 -10.8421 -4.3812 -1.7315 0.4350 28.0910
#
#
#
# Elastic Compliance Matrix: (Units=1/GPa)
#
#
# Indices 1 2 3 4 5 6 
#
# 1 0.019757 -0.012469 -0.000928 0.024036 -0.000989 0.003291
# 2 -0.012469 0.032522 -0.014677 -0.032023 -0.000709 0.004039
# 3 -0.000928 -0.014677 0.023697 0.018069 0.003705 -0.001230
# 4 0.024036 -0.032023 0.018069 0.081493 0.002680 0.003654
# 5 -0.000989 -0.000709 0.003705 0.002680 0.024338 -0.000245
# 6 0.003291 0.004039 -0.001230 0.003654 -0.000245 0.038319
#
#
# Mechanical properties :
#
#
# Convention : Reuss Voigt Hill
#
# Bulk Modulus (GPa) = 50.43501 59.29255 54.86378
# Shear Modulus (GPa) = 17.67513 29.28696 23.48104
#
# Velocity S-wave (km/s) = 2.74089 3.52815 3.15914
# Velocity P-wave (km/s) = 5.60830 6.46515 6.05191
#
# Compressibility (1/GPa) = 0.01982750
#
# Stress axis : x y z
#
# Youngs Moduli (GPa) = 50.61512 30.74839 42.20000
#
# Poissons Ratio (x) = 0.38341 0.03915
# Poissons Ratio (y) = 0.63113 0.61938
# Poissons Ratio (z) = 0.04695 0.45130
#
# Static dielectric constant tensor:
#      x y z
#    x 1.864460 -0.008570 -0.007430 
#    y -0.008570 1.889250 0.002710 
#    z -0.007430 0.002710 1.880850 
# 
# From -- ./inp_files/282853.got.cif
#   From: 2010.05.17/outbox.cif.g08.bks.cpg/sg2_142_cif.got.tgz:282853.got - 2010.06.03 11:33:40.
