data_PCOD9064322
_publ_section_title
;
Structure prediction by ZEFSAII (Michael W. Deem and Ramdas Pophale) SiO2 
 PCOD9064322
Probable space group: P -1
;
_chemical_formula_sum "Si O2"
_cell_formula_units_Z 15
_cell_length_a 9.714210
_cell_length_b 9.139130
_cell_length_c 11.425667
_cell_angle_alpha 71.522702
_cell_angle_beta 138.007128
_cell_angle_gamma 106.361693
_cell_volume 641.958991
_symmetry_space_group_name_H-M "P -1"
_symmetry_group_IT_number 2
_symmetry_cell_setting 'triclinic'
loop_
_space_group_symop_operation_xyz
x,y,z
-x,-y,-z
loop_
_atom_site_type_symbol
_atom_site_label
_atom_site_fract_x
_atom_site_fract_y
_atom_site_fract_z
Si Si1 0.000000 0.000000 0.500000
Si Si2 0.011965 0.670000 0.015882
Si Si3 0.464476 0.977185 0.730055
Si Si4 0.542550 0.670281 0.746595
Si Si5 0.245057 0.873670 0.924141
Si Si6 0.044642 0.168952 0.668253
Si Si7 0.698835 0.196342 0.638715
Si Si8 0.544115 0.622388 0.099821
O O1 0.759294 0.961430 0.416145
O O2 0.013553 0.813313 0.507107
O O3 0.786035 0.694930 0.912019
O O4 0.078497 0.790413 0.925694
O O5 0.000000 0.500000 0.000000
O O6 0.179313 0.696324 0.216578
O O7 0.591485 0.054328 0.680399
O O8 0.455868 0.794510 0.748357
O O9 0.595787 0.025767 0.916954
O O10 0.471484 0.719293 0.561444
O O11 0.466920 0.492980 0.766742
O O12 0.126968 0.993492 0.738536
O O13 0.372403 0.745360 0.976349
O O14 0.234141 0.284826 0.794731
O O15 0.870944 0.156555 0.660587
O O16 0.500000 0.500000 0.000000
#
# Coordination Sequence:
#
# PCOD9064322 Si02
#       8
#     1   2   2   2   2   2   2   2
#     4  12  26  42  72 108 146 174 250 290 360 428
#     4  11  24  46  69 109 141 186 240 293 366 428
#     4  11  24  48  71 106 140 186 242 298 352 436
#     4  12  25  46  74 106 145 190 234 306 361 424
#     4  11  24  45  73  97 140 190 243 294 352 433
#     4  12  26  47  71 106 137 196 240 296 358 432
#     4  11  26  47  76 105 143 188 248 294 356 437
#     4  12  26  43  70 106 148 189 241 299 368 427
#
# _framework density 23.365978999999999
#
# number of rings (size 3 to 8) (size 9 to 14) (size 15 to 20)
#    0.000    0.533    4.000    4.000    3.733    3.200 
#    2.400    0.000    0.000    0.000    0.000    0.000 
#    0.000    0.000    0.000    0.000    0.000    0.000 
#
# Total GULP energy -83775.747902 kJ/mol
# GULP energy per Si atom -5585.049860 kJ/mol
# Density = 2.331280 g / cm^3
# Si number density = 23.365979 Si / 1000 Ang^3
#
#
#
# Elastic Constant Matrix: (Units=GPa)
#
#
# Indices 1 2 3 4 5 6 
#
# 1 112.3721 33.3803 15.9888 15.7402 16.4812 1.7760
# 2 33.3803 115.1671 40.0872 7.5322 1.8138 0.5777
# 3 15.9888 40.0872 100.6884 13.1327 5.1600 9.5197
# 4 15.7402 7.5322 13.1327 39.0860 2.3199 -1.9063
# 5 16.4812 1.8138 5.1600 2.3199 51.0033 4.5224
# 6 1.7760 0.5777 9.5197 -1.9063 4.5224 36.0306
#
#
#
# Elastic Compliance Matrix: (Units=1/GPa)
#
#
# Indices 1 2 3 4 5 6 
#
# 1 0.010710 -0.002850 0.000098 -0.003623 -0.003178 -0.000301
# 2 -0.002850 0.010879 -0.004066 0.000414 0.000842 0.000957
# 3 0.000098 -0.004066 0.012342 -0.003523 -0.000683 -0.003301
# 4 -0.003623 0.000414 -0.003523 0.028274 -0.000004 0.002599
# 5 -0.003178 0.000842 -0.000683 -0.000004 0.020876 -0.002297
# 6 -0.000301 0.000957 -0.003301 0.002599 -0.002297 0.029052
#
#
# Mechanical properties :
#
#
# Convention : Reuss Voigt Hill
#
# Bulk Modulus (GPa) = 49.27586 56.34891 52.81239
# Shear Modulus (GPa) = 37.72588 41.14208 39.43398
#
# Velocity S-wave (km/s) = 4.02252 4.20070 4.11258
# Velocity P-wave (km/s) = 6.53519 6.90623 6.72327
#
# Compressibility (1/GPa) = 0.02029391
#
# Stress axis : x y z
#
# Youngs Moduli (GPa) = 93.37175 91.91764 81.02614
#
# Poissons Ratio (x) = 0.26194 -0.00791
# Poissons Ratio (y) = 0.26608 0.32949
# Poissons Ratio (z) = -0.00912 0.37378
#
# Static dielectric constant tensor:
#      x y z
#    x 1.991820 -0.043550 -0.084210 
#    y -0.043550 1.886370 0.033670 
#    z -0.084210 0.033670 2.202060 
# 
# From -- ./inp_files/382165.got.cif
#   From: 2010.05.17/outbox.cif.g08.bks.cpg/sg2_192_cif.got.tgz:382165.got - 2010.06.03 11:33:40.
