data_PCOD9064374
_publ_section_title
;
Structure prediction by ZEFSAII (Michael W. Deem and Ramdas Pophale) SiO2 
 PCOD9064374
Probable space group: P -1
;
_chemical_formula_sum "Si O2"
_cell_formula_units_Z 14
_cell_length_a 30.590219
_cell_length_b 29.527938
_cell_length_c 11.590044
_cell_angle_alpha 158.582237
_cell_angle_beta 20.206566
_cell_angle_gamma 170.348204
_cell_volume 603.241283
_symmetry_space_group_name_H-M "P -1"
_symmetry_group_IT_number 2
_symmetry_cell_setting 'triclinic'
loop_
_space_group_symop_operation_xyz
x,y,z
-x,-y,-z
loop_
_atom_site_type_symbol
_atom_site_label
_atom_site_fract_x
_atom_site_fract_y
_atom_site_fract_z
Si Si1 0.267396 0.095700 0.360748
Si Si2 0.967295 0.327381 0.644868
Si Si3 0.149841 0.998629 0.154784
Si Si4 0.555839 0.014826 0.265518
Si Si5 0.355368 0.389924 0.219848
Si Si6 0.563132 0.790159 0.301999
Si Si7 0.995351 0.383292 0.441986
O O1 0.287722 0.120227 0.228623
O O2 0.942190 0.804912 0.507400
O O3 0.427670 0.352258 0.623617
O O4 0.393870 0.087033 0.092475
O O5 0.233919 0.493520 0.431908
O O6 0.004063 0.349340 0.470298
O O7 0.672233 0.002335 0.611716
O O8 0.000000 0.500000 0.000000
O O9 0.951464 0.702984 0.956950
O O10 0.000000 0.000000 0.500000
O O11 0.355093 0.145569 0.885783
O O12 0.810732 0.327702 0.351899
O O13 0.500000 0.000000 0.500000
O O14 0.300018 0.828885 0.377832
O O15 0.500000 0.500000 0.000000
O O16 0.289320 0.198619 0.982667
#
# Coordination Sequence:
#
# PCOD9064374 Si02
#       7
#     2   2   2   2   2   2   2
#     4  12  27  45  75 105 136 193 230 286 360 413
#     4  11  25  45  71 101 139 185 237 278 350 409
#     4  11  24  45  74 107 142 179 235 292 360 414
#     4  12  25  43  69 101 145 175 228 280 346 419
#     4  12  28  49  69 103 141 184 241 283 347 419
#     4  11  25  45  72 104 142 180 229 306 341 412
#     4  11  25  44  68 104 141 182 226 290 341 410
#
# _framework density 23.20796
#
# number of rings (size 3 to 8) (size 9 to 14) (size 15 to 20)
#    0.000    0.571    2.857    4.714    4.000    5.143 
#    0.000    0.000    0.000    0.000    0.000    0.000 
#    0.000    0.000    0.000    0.000    0.000    0.000 
#
# Total GULP energy -78144.988096 kJ/mol
# GULP energy per Si atom -5581.784864 kJ/mol
# Density = 2.315514 g / cm^3
# Si number density = 23.207960 Si / 1000 Ang^3
#
#
#
# Elastic Constant Matrix: (Units=GPa)
#
#
# Indices 1 2 3 4 5 6 
#
# 1 46.1115 21.5854 27.9851 5.8509 -6.9717 14.8295
# 2 21.5854 120.7896 18.7189 13.1413 2.3334 31.9369
# 3 27.9851 18.7189 117.4189 23.2909 -9.6499 25.8617
# 4 5.8509 13.1413 23.2909 48.5689 6.7187 4.5816
# 5 -6.9717 2.3334 -9.6499 6.7187 50.9564 2.3265
# 6 14.8295 31.9369 25.8617 4.5816 2.3265 33.3198
#
#
#
# Elastic Compliance Matrix: (Units=1/GPa)
#
#
# Indices 1 2 3 4 5 6 
#
# 1 0.028411 -0.002587 -0.004470 -0.000418 0.003529 -0.006885
# 2 -0.002587 0.011678 0.001745 -0.002684 0.000300 -0.011049
# 3 -0.004470 0.001745 0.012590 -0.005524 0.002827 -0.008894
# 4 -0.000418 -0.002684 -0.005524 0.024239 -0.004360 0.004018
# 5 0.003529 0.000300 0.002827 -0.004360 0.021430 -0.004950
# 6 -0.006885 -0.011049 -0.008894 0.004018 -0.004950 0.050363
#
#
# Mechanical properties :
#
#
# Convention : Reuss Voigt Hill
#
# Bulk Modulus (GPa) = 23.77685 46.76655 35.27170
# Shear Modulus (GPa) = 28.84302 40.97107 34.90704
#
# Velocity S-wave (km/s) = 3.52917 4.20621 3.88248
# Velocity P-wave (km/s) = 5.18402 6.61698 5.94384
#
# Compressibility (1/GPa) = 0.04205772
#
# Stress axis : x y z
#
# Youngs Moduli (GPa) = 35.19792 85.62959 79.42544
#
# Poissons Ratio (x) = 0.22150 0.35500
# Poissons Ratio (y) = 0.09105 -0.13863
# Poissons Ratio (z) = 0.15732 -0.14946
#
# Static dielectric constant tensor:
#      x y z
#    x 1.819010 -0.104610 -0.002720 
#    y -0.104610 2.795540 0.599480 
#    z -0.002720 0.599480 2.236160 
# 
# From -- ./inp_files/409059.got.cif
#   From: 2010.05.17/outbox.cif.g08.bks.cpg/sg2_205_cif.got.tgz:409059.got - 2010.06.03 11:33:40.
