data_PCOD9064262
_publ_section_title
;
Structure prediction by ZEFSAII (Michael W. Deem and Ramdas Pophale) SiO2 
 PCOD9064262
Probable space group: P -1
;
_chemical_formula_sum "Si O2"
_cell_formula_units_Z 14
_cell_length_a 8.848687
_cell_length_b 5.493894
_cell_length_c 12.134565
_cell_angle_alpha 90.184068
_cell_angle_beta 103.373888
_cell_angle_gamma 86.389867
_cell_volume 572.731234
_symmetry_space_group_name_H-M "P -1"
_symmetry_group_IT_number 2
_symmetry_cell_setting 'triclinic'
loop_
_space_group_symop_operation_xyz
x,y,z
-x,-y,-z
loop_
_atom_site_type_symbol
_atom_site_label
_atom_site_fract_x
_atom_site_fract_y
_atom_site_fract_z
Si Si1 0.385978 0.413552 0.886682
Si Si2 0.207210 0.019562 0.157632
Si Si3 0.155977 0.225342 0.717883
Si Si4 0.191941 0.687554 0.342535
Si Si5 0.769413 0.269753 0.393184
Si Si6 0.566730 0.646468 0.737381
Si Si7 0.900483 0.312132 0.052585
O O1 0.288030 0.181217 0.835913
O O2 0.491527 0.440544 0.796901
O O3 0.230546 0.587562 0.885297
O O4 0.500000 0.500000 0.000000
O O5 0.342006 0.198957 0.158233
O O6 0.035941 0.151489 0.135947
O O7 0.255776 0.905002 0.282664
O O8 0.188852 0.832735 0.055840
O O9 0.196510 0.461490 0.649713
O O10 0.984225 0.311840 0.731250
O O11 0.148356 0.970218 0.650985
O O12 0.189103 0.724546 0.471541
O O13 0.302906 0.456624 0.325486
O O14 0.585101 0.233237 0.347167
O O15 0.000000 0.500000 0.000000
#
# Coordination Sequence:
#
# PCOD9064262 Si02
#       7
#     2   2   2   2   2   2   2
#     4  11  24  45  73 101 152 188 248 305 377 440
#     4  11  25  41  75 102 144 193 250 297 378 444
#     4  11  27  49  75 112 147 196 256 308 372 443
#     4  12  26  47  76 104 149 197 250 307 372 445
#     4  11  28  49  76 110 151 196 254 313 371 435
#     4  11  27  44  69 109 148 193 246 304 378 444
#     4  11  24  47  69 108 142 195 245 311 368 445
#
# _framework density 24.444272000000002
#
# number of rings (size 3 to 8) (size 9 to 14) (size 15 to 20)
#    0.000    0.857    0.000    5.571   14.000    2.286 
#    0.000    0.000    0.000    0.000    0.000    0.000 
#    0.000    0.000    0.000    0.000    0.000    0.000 
#
# Total GULP energy -78160.582528 kJ/mol
# GULP energy per Si atom -5582.898752 kJ/mol
# Density = 2.438864 g / cm^3
# Si number density = 24.444272 Si / 1000 Ang^3
#
#
#
# Elastic Constant Matrix: (Units=GPa)
#
#
# Indices 1 2 3 4 5 6 
#
# 1 128.3005 17.9027 5.6505 6.8180 11.9088 -5.3864
# 2 17.9027 90.5655 11.6264 6.7599 -11.3736 -0.4923
# 3 5.6505 11.6264 82.6521 2.5740 -0.8200 -5.8277
# 4 6.8180 6.7599 2.5740 33.8166 -1.8726 7.0966
# 5 11.9088 -11.3736 -0.8200 -1.8726 36.8006 1.1634
# 6 -5.3864 -0.4923 -5.8277 7.0966 1.1634 26.3776
#
#
#
# Elastic Compliance Matrix: (Units=1/GPa)
#
#
# Indices 1 2 3 4 5 6 
#
# 1 0.008616 -0.001973 -0.000114 -0.002037 -0.003580 0.002403
# 2 -0.001973 0.012292 -0.001518 -0.001651 0.004328 -0.000256
# 3 -0.000114 -0.001518 0.012575 -0.001297 -0.000316 0.003089
# 4 -0.002037 -0.001651 -0.001297 0.032536 0.002078 -0.009578
# 5 -0.003580 0.004328 -0.000316 0.002078 0.029850 -0.002596
# 6 0.002403 -0.000256 0.003089 -0.009578 -0.002596 0.041771
#
#
# Mechanical properties :
#
#
# Convention : Reuss Voigt Hill
#
# Bulk Modulus (GPa) = 38.06178 41.31969 39.69073
# Shear Modulus (GPa) = 32.55045 37.15486 34.85266
#
# Velocity S-wave (km/s) = 3.65309 3.90292 3.78007
# Velocity P-wave (km/s) = 5.77911 6.10334 5.94344
#
# Compressibility (1/GPa) = 0.02627308
#
# Stress axis : x y z
#
# Youngs Moduli (GPa) = 116.06368 81.35429 79.52091
#
# Poissons Ratio (x) = 0.16052 0.00908
# Poissons Ratio (y) = 0.22900 0.12070
# Poissons Ratio (z) = 0.01325 0.12349
#
# Static dielectric constant tensor:
#      x y z
#    x 1.923410 0.033080 0.029420 
#    y 0.033080 2.065220 -0.014960 
#    z 0.029420 -0.014960 1.963110 
# 
# From -- ./inp_files/52729.got.cif
#   From: 2010.05.17/outbox.cif.g08.bks.cpg/sg2_27_cif.got.tgz:52729.got - 2010.06.03 11:33:40.
