data_PCOD9064935
_publ_section_title
;
Structure prediction by ZEFSAII (Michael W. Deem and Ramdas Pophale) SiO2 
 PCOD9064935
Probable space group: P -1
;
_chemical_formula_sum "Si O2"
_cell_formula_units_Z 16
_cell_length_a 5.653266
_cell_length_b 14.377144
_cell_length_c 24.178472
_cell_angle_alpha 19.438966
_cell_angle_beta 84.258983
_cell_angle_gamma 85.912321
_cell_volume 649.156248
_symmetry_space_group_name_H-M "P -1"
_symmetry_group_IT_number 2
_symmetry_cell_setting 'triclinic'
loop_
_space_group_symop_operation_xyz
x,y,z
-x,-y,-z
loop_
_atom_site_type_symbol
_atom_site_label
_atom_site_fract_x
_atom_site_fract_y
_atom_site_fract_z
Si Si1 0.499487 0.580825 0.888814
Si Si2 0.982962 0.302860 0.020806
Si Si3 0.606588 0.030144 0.921398
Si Si4 0.131720 0.443652 0.831219
Si Si5 0.390902 0.481414 0.602706
Si Si6 0.193902 0.276057 0.609113
Si Si7 0.348336 0.979673 0.573251
Si Si8 0.029993 0.480577 0.332455
O O1 0.475617 0.853151 0.695437
O O2 0.500000 0.500000 0.000000
O O3 0.769554 0.503368 0.916579
O O4 0.251236 0.411504 0.970176
O O5 0.922925 0.034967 0.210809
O O6 0.975388 0.242596 0.988821
O O7 0.446198 0.225199 0.782691
O O8 0.850576 0.226659 0.811753
O O9 0.500000 0.000000 0.000000
O O10 0.624316 0.711952 0.080290
O O11 0.144122 0.746351 0.689008
O O12 0.078017 0.461810 0.757929
O O13 0.345100 0.326617 0.632481
O O14 0.631343 0.674120 0.475030
O O15 0.170785 0.618052 0.561638
O O16 0.000000 0.500000 0.500000
O O17 0.500000 0.000000 0.500000
O O18 0.228851 0.260517 0.437594
#
# Coordination Sequence:
#
# PCOD9064935 Si02
#       8
#     2   2   2   2   2   2   2   2
#     4  11  27  52  77 112 151 207 272 330 391 477
#     4  11  26  48  79 110 150 209 262 327 398 474
#     4  12  25  44  72 113 149 196 255 325 395 472
#     4  11  24  46  76 108 156 199 261 320 398 478
#     4  11  26  44  73 109 159 198 252 338 395 482
#     4  11  26  48  72 109 152 205 264 322 408 476
#     4  11  26  49  77 112 157 209 260 324 405 476
#     4  12  25  46  73 117 150 201 264 325 404 472
#
# _framework density 24.647379000000001
#
# number of rings (size 3 to 8) (size 9 to 14) (size 15 to 20)
#    0.000    0.750    1.250    4.875    8.750    3.000 
#    4.500    0.000    0.000    0.000    0.000    0.000 
#    0.000    0.000    0.000    0.000    0.000    0.000 
#
# Total GULP energy -89156.368425 kJ/mol
# GULP energy per Si atom -5572.273027 kJ/mol
# Density = 2.459128 g / cm^3
# Si number density = 24.647379 Si / 1000 Ang^3
#
#
#
# Elastic Constant Matrix: (Units=GPa)
#
#
# Indices 1 2 3 4 5 6 
#
# 1 84.5449 45.7246 36.7432 11.8570 -7.9752 -11.2273
# 2 45.7246 136.0263 46.0631 21.3885 8.7851 -26.7106
# 3 36.7432 46.0631 127.4859 26.5530 5.6638 -12.6533
# 4 11.8570 21.3885 26.5530 45.4189 -0.1518 -13.6405
# 5 -7.9752 8.7851 5.6638 -0.1518 47.6333 3.4470
# 6 -11.2273 -26.7106 -12.6533 -13.6405 3.4470 43.2033
#
#
#
# Elastic Compliance Matrix: (Units=1/GPa)
#
#
# Indices 1 2 3 4 5 6 
#
# 1 0.016040 -0.004546 -0.003105 -0.000196 0.003887 0.000077
# 2 -0.004546 0.010808 -0.001681 -0.001498 -0.002904 0.004767
# 3 -0.003105 -0.001681 0.010331 -0.004478 -0.001444 -0.000119
# 4 -0.000196 -0.001498 -0.004478 0.027283 0.000408 0.006293
# 5 0.003887 -0.002904 -0.001444 0.000408 0.022562 -0.002880
# 6 0.000077 0.004767 -0.000119 0.006293 -0.002880 0.028295
#
#
# Mechanical properties :
#
#
# Convention : Reuss Voigt Hill
#
# Bulk Modulus (GPa) = 54.00484 67.23544 60.62014
# Shear Modulus (GPa) = 35.67496 41.88618 38.78057
#
# Velocity S-wave (km/s) = 3.80862 4.12687 3.97093
# Velocity P-wave (km/s) = 6.42645 7.07434 6.75816
#
# Compressibility (1/GPa) = 0.01851686
#
# Stress axis : x y z
#
# Youngs Moduli (GPa) = 62.34369 92.52482 96.79340
#
# Poissons Ratio (x) = 0.42058 0.30053
# Poissons Ratio (y) = 0.28339 0.16269
# Poissons Ratio (z) = 0.19357 0.15551
#
# Static dielectric constant tensor:
#      x y z
#    x 2.225880 -0.163250 -0.015420 
#    y -0.163250 2.149170 -0.084910 
#    z -0.015420 -0.084910 1.912560 
# 
# From -- ./inp_files/604692.got.cif
#   From: 2010.05.17/outbox.cif.g08.bks.cpg/sg2_303_cif.got.tgz:604692.got - 2010.06.03 11:33:40.
