data_PCOD9064359
_publ_section_title
;
Structure prediction by ZEFSAII (Michael W. Deem and Ramdas Pophale) SiO2 
 PCOD9064359
Probable space group: P -1
;
_chemical_formula_sum "Si O2"
_cell_formula_units_Z 16
_cell_length_a 8.403375
_cell_length_b 19.838891
_cell_length_c 23.257079
_cell_angle_alpha 20.820744
_cell_angle_beta 31.728824
_cell_angle_gamma 31.913013
_cell_volume 694.049826
_symmetry_space_group_name_H-M "P -1"
_symmetry_group_IT_number 2
_symmetry_cell_setting 'triclinic'
loop_
_space_group_symop_operation_xyz
x,y,z
-x,-y,-z
loop_
_atom_site_type_symbol
_atom_site_label
_atom_site_fract_x
_atom_site_fract_y
_atom_site_fract_z
Si Si1 0.231530 0.968138 0.754541
Si Si2 0.792434 0.381425 0.542443
Si Si3 0.635554 0.521154 0.765210
Si Si4 0.355145 0.862433 0.993767
Si Si5 0.205744 0.549801 0.094612
Si Si6 0.479779 0.450438 0.705871
Si Si7 0.561459 0.108963 0.646259
Si Si8 0.315312 0.970381 0.521309
O O1 0.361618 0.016247 0.737306
O O2 0.537638 0.916535 0.661056
O O3 0.088973 0.787401 0.945260
O O4 0.981801 0.154302 0.653337
O O5 0.500000 0.500000 0.500000
O O6 0.641648 0.375162 0.655751
O O7 0.062854 0.488110 0.360753
O O8 0.549534 0.322200 0.933775
O O9 0.703834 0.519625 0.813074
O O10 0.399901 0.741433 0.655551
O O11 0.422789 0.732636 0.134437
O O12 0.514973 0.025718 0.790246
O O13 0.000000 0.000000 0.000000
O O14 0.900142 0.484058 0.225746
O O15 0.500000 0.500000 0.000000
O O16 0.564065 0.658728 0.517170
O O17 0.939551 0.046369 0.575880
O O18 0.500000 0.000000 0.500000
#
# Coordination Sequence:
#
# PCOD9064359 Si02
#       8
#     2   2   2   2   2   2   2   2
#     4  11  25  45  72 102 147 193 244 306 374 439
#     4  11  24  45  74 104 146 196 249 310 373 438
#     4  11  24  47  71 107 150 194 246 312 377 442
#     4  12  28  48  75 111 152 195 252 314 374 448
#     4  12  26  45  70 108 149 189 249 309 365 443
#     4  12  27  47  76 111 144 198 256 302 376 450
#     4  12  26  49  75 107 151 200 243 307 379 446
#     4  11  25  44  75 109 148 194 253 308 375 447
#
# _framework density 23.053101000000002
#
# number of rings (size 3 to 8) (size 9 to 14) (size 15 to 20)
#    0.000    0.500    2.500    5.625    5.250    4.500 
#    0.000    0.000    0.000    0.000    0.000    0.000 
#    0.000    0.000    0.000    0.000    0.000    0.000 
#
# Total GULP energy -89283.151619 kJ/mol
# GULP energy per Si atom -5580.196976 kJ/mol
# Density = 2.300063 g / cm^3
# Si number density = 23.053101 Si / 1000 Ang^3
#
#
#
# Elastic Constant Matrix: (Units=GPa)
#
#
# Indices 1 2 3 4 5 6 
#
# 1 77.7849 25.4245 32.6716 2.7397 28.8935 0.5530
# 2 25.4245 113.6261 35.8861 15.7951 6.1468 -14.1371
# 3 32.6716 35.8861 149.6411 6.6716 22.0119 2.7820
# 4 2.7397 15.7951 6.6716 33.0930 14.4202 1.5320
# 5 28.8935 6.1468 22.0119 14.4202 45.1612 0.4138
# 6 0.5530 -14.1371 2.7820 1.5320 0.4138 21.8600
#
#
#
# Elastic Compliance Matrix: (Units=1/GPa)
#
#
# Indices 1 2 3 4 5 6 
#
# 1 0.019775 -0.004633 -0.001466 0.006907 -0.013480 -0.003539
# 2 -0.004633 0.012558 -0.002540 -0.007627 0.004846 0.009005
# 3 -0.001466 -0.002540 0.008049 0.001131 -0.002976 -0.002653
# 4 0.006907 -0.007627 0.001131 0.040774 -0.016881 -0.007789
# 5 -0.013480 0.004846 -0.002976 -0.016881 0.036909 0.004338
# 6 -0.003539 0.009005 -0.002653 -0.007789 0.004338 0.052460
#
#
# Mechanical properties :
#
#
# Convention : Reuss Voigt Hill
#
# Bulk Modulus (GPa) = 43.28352 58.77962 51.03157
# Shear Modulus (GPa) = 25.57488 36.49414 31.03451
#
# Velocity S-wave (km/s) = 3.33436 3.98307 3.67307
# Velocity P-wave (km/s) = 5.80003 6.83418 6.33823
#
# Compressibility (1/GPa) = 0.02310348
#
# Stress axis : x y z
#
# Youngs Moduli (GPa) = 50.56876 79.62953 124.24580
#
# Poissons Ratio (x) = 0.36893 0.18211
# Poissons Ratio (y) = 0.23429 0.31562
# Poissons Ratio (z) = 0.07412 0.20228
#
# Static dielectric constant tensor:
#      x y z
#    x 2.400630 0.451410 -0.180130 
#    y 0.451410 2.248120 -0.221990 
#    z -0.180130 -0.221990 2.075700 
# 
# From -- ./inp_files/350073.got.cif
#   From: 2010.05.17/outbox.cif.g08.bks.cpg/sg2_176_cif.got.tgz:350073.got - 2010.06.03 11:33:40.
