data_PCOD9064659
_publ_section_title
;
Structure prediction by ZEFSAII (Michael W. Deem and Ramdas Pophale) SiO2 
 PCOD9064659
Probable space group: P -1
;
_chemical_formula_sum "Si O2"
_cell_formula_units_Z 16
_cell_length_a 7.760046
_cell_length_b 20.234161
_cell_length_c 6.605857
_cell_angle_alpha 60.298597
_cell_angle_beta 117.397275
_cell_angle_gamma 128.292209
_cell_volume 689.065325
_symmetry_space_group_name_H-M "P -1"
_symmetry_group_IT_number 2
_symmetry_cell_setting 'triclinic'
loop_
_space_group_symop_operation_xyz
x,y,z
-x,-y,-z
loop_
_atom_site_type_symbol
_atom_site_label
_atom_site_fract_x
_atom_site_fract_y
_atom_site_fract_z
Si Si1 0.924574 0.398661 0.111866
Si Si2 0.513417 0.314080 0.703133
Si Si3 0.049997 0.054925 0.241685
Si Si4 0.395915 0.018020 0.111868
Si Si5 0.253336 0.728108 0.442217
Si Si6 0.438127 0.882778 0.618650
Si Si7 0.362850 0.402099 0.171461
Si Si8 0.844740 0.750037 0.042517
O O1 0.856241 0.364135 0.357171
O O2 0.128018 0.386401 0.160633
O O3 0.719476 0.352036 0.913589
O O4 0.000000 0.500000 0.000000
O O5 0.563263 0.260152 0.641718
O O6 0.493405 0.387318 0.449366
O O7 0.293073 0.263719 0.801384
O O8 0.292810 0.071643 0.286080
O O9 0.081199 0.151732 0.139219
O O10 0.000000 0.000000 0.500000
O O11 0.840610 0.997310 0.069531
O O12 0.360210 0.940467 0.364589
O O13 0.597039 0.110269 0.174095
O O14 0.500000 0.000000 0.000000
O O15 0.353944 0.795066 0.582992
O O16 0.058259 0.739760 0.220988
O O17 0.500000 0.500000 0.000000
O O18 0.306162 0.326909 0.084229
#
# Coordination Sequence:
#
# PCOD9064659 Si02
#       8
#     2   2   2   2   2   2   2   2
#     4  12  27  47  77 117 156 204 257 315 388 461
#     4  12  26  50  80 109 159 207 249 327 381 460
#     4  12  25  49  76 107 148 199 252 320 385 459
#     4  11  24  46  71 105 141 188 241 311 376 453
#     4  12  26  51  78 112 153 203 259 320 386 459
#     4  11  25  46  72 105 144 188 250 308 378 456
#     4  12  27  48  79 120 158 203 259 318 383 467
#     4  12  27  51  78 114 153 206 265 314 395 465
#
# _framework density 23.219859
#
# number of rings (size 3 to 8) (size 9 to 14) (size 15 to 20)
#    0.000    0.250    5.000    4.125    1.750    5.000 
#   11.250    0.000    0.000    0.000    0.000    0.000 
#    0.000    0.000    0.000    0.000    0.000    0.000 
#
# Total GULP energy -89524.779907 kJ/mol
# GULP energy per Si atom -5595.298744 kJ/mol
# Density = 2.316701 g / cm^3
# Si number density = 23.219859 Si / 1000 Ang^3
#
#
#
# Elastic Constant Matrix: (Units=GPa)
#
#
# Indices 1 2 3 4 5 6 
#
# 1 117.8417 -1.2179 39.0182 -0.6511 2.0797 -7.3970
# 2 -1.2179 85.6759 45.8703 -8.1480 -9.8015 -20.3316
# 3 39.0182 45.8703 163.5223 -14.3085 19.0056 -0.3640
# 4 -0.6511 -8.1480 -14.3085 45.0983 -0.5228 2.2292
# 5 2.0797 -9.8015 19.0056 -0.5228 50.6177 8.7805
# 6 -7.3970 -20.3316 -0.3640 2.2292 8.7805 33.8780
#
#
#
# Elastic Compliance Matrix: (Units=1/GPa)
#
#
# Indices 1 2 3 4 5 6 
#
# 1 0.009796 0.002756 -0.003234 -0.000557 0.000714 0.003610
# 2 0.002756 0.017884 -0.006020 0.000901 0.003848 0.010213
# 3 -0.003234 -0.006020 0.009186 0.001900 -0.003883 -0.003339
# 4 -0.000557 0.000901 0.001900 0.022982 -0.000097 -0.001048
# 5 0.000714 0.003848 -0.003883 -0.000097 0.022520 -0.003407
# 6 0.003610 0.010213 -0.003339 -0.001048 -0.003407 0.037351
#
#
# Mechanical properties :
#
#
# Convention : Reuss Voigt Hill
#
# Bulk Modulus (GPa) = 41.89383 59.37568 50.63476
# Shear Modulus (GPa) = 35.54377 44.81007 40.17692
#
# Velocity S-wave (km/s) = 3.91672 4.39773 4.16418
# Velocity P-wave (km/s) = 6.20771 7.17031 6.70630
#
# Compressibility (1/GPa) = 0.02386986
#
# Stress axis : x y z
#
# Youngs Moduli (GPa) = 102.07958 55.91701 108.86204
#
# Poissons Ratio (x) = -0.15412 0.35209
# Poissons Ratio (y) = -0.28136 0.65534
# Poissons Ratio (z) = 0.33016 0.33662
#
# Static dielectric constant tensor:
#      x y z
#    x 1.576560 0.238410 0.298690 
#    y 0.238410 1.711970 -0.266920 
#    z 0.298690 -0.266920 1.430450 
# 
# From -- ./inp_files/52587.got.cif
#   From: 2010.05.17/outbox.cif.g08.bks.cpg/sg2_27_cif.got.tgz:52587.got - 2010.06.03 11:33:40.
