data_PCOD9064396
_publ_section_title
;
Structure prediction by ZEFSAII (Michael W. Deem and Ramdas Pophale) SiO2 
 PCOD9064396
Probable space group: P -1
;
_chemical_formula_sum "Si O2"
_cell_formula_units_Z 16
_cell_length_a 8.179018
_cell_length_b 16.373507
_cell_length_c 13.146268
_cell_angle_alpha 33.672452
_cell_angle_beta 62.498728
_cell_angle_gamma 43.180030
_cell_volume 617.178796
_symmetry_space_group_name_H-M "P -1"
_symmetry_group_IT_number 2
_symmetry_cell_setting 'triclinic'
loop_
_space_group_symop_operation_xyz
x,y,z
-x,-y,-z
loop_
_atom_site_type_symbol
_atom_site_label
_atom_site_fract_x
_atom_site_fract_y
_atom_site_fract_z
Si Si1 0.462361 0.908160 0.221923
Si Si2 0.382993 0.170161 0.270821
Si Si3 0.741576 0.113110 0.071646
Si Si4 0.085237 0.724173 0.992084
Si Si5 0.569605 0.626584 0.307071
Si Si6 0.824145 0.384675 0.138139
Si Si7 0.026233 0.694456 0.347437
Si Si8 0.546601 0.604905 0.641228
O O1 0.456626 0.816698 0.215273
O O2 0.404050 0.828666 0.412748
O O3 0.751268 0.800694 0.270274
O O4 0.214514 0.151204 0.041226
O O5 0.591997 0.073739 0.221202
O O6 0.115635 0.249827 0.227885
O O7 0.500000 0.000000 0.500000
O O8 0.306047 0.384878 0.090068
O O9 0.846616 0.180566 0.048074
O O10 0.539009 0.281130 0.869312
O O11 0.165927 0.715965 0.863221
O O12 0.266550 0.489846 0.218531
O O13 0.979753 0.890163 0.185770
O O14 0.874920 0.448084 0.433431
O O15 0.664732 0.394682 0.262657
O O16 0.500000 0.500000 0.500000
O O17 0.247369 0.542994 0.356038
#
# Coordination Sequence:
#
# PCOD9064396 Si02
#       8
#     2   2   2   2   2   2   2   2
#     4  11  26  45  75 116 151 205 254 315 386 458
#     4  11  28  52  79 111 152 196 259 326 383 453
#     4  12  26  47  77 113 154 203 252 317 387 457
#     4  12  26  46  75 109 151 205 257 309 372 464
#     4  11  24  45  74 111 155 196 252 318 387 460
#     4  11  27  50  78 110 148 203 258 317 385 454
#     4  11  26  47  74 117 153 200 256 316 388 459
#     4  11  24  45  78 107 155 197 254 315 383 453
#
# _framework density 25.924417999999999
#
# number of rings (size 3 to 8) (size 9 to 14) (size 15 to 20)
#    0.000    0.750    1.250    5.625    1.750   11.000 
#    0.000    0.000    0.000    0.000    0.000    0.000 
#    0.000    0.000    0.000    0.000    0.000    0.000 
#
# Total GULP energy -89547.014863 kJ/mol
# GULP energy per Si atom -5596.688429 kJ/mol
# Density = 2.586541 g / cm^3
# Si number density = 25.924418 Si / 1000 Ang^3
#
#
#
# Elastic Constant Matrix: (Units=GPa)
#
#
# Indices 1 2 3 4 5 6 
#
# 1 136.3430 43.5420 43.7410 15.2215 9.9272 -12.6833
# 2 43.5420 93.6954 38.1187 6.1008 7.6571 0.5348
# 3 43.7410 38.1187 180.0457 22.5114 16.4804 -13.6603
# 4 15.2215 6.1008 22.5114 35.8935 -8.4103 -2.3165
# 5 9.9272 7.6571 16.4804 -8.4103 41.3956 -1.2599
# 6 -12.6833 0.5348 -13.6603 -2.3165 -1.2599 44.9971
#
#
#
# Elastic Compliance Matrix: (Units=1/GPa)
#
#
# Indices 1 2 3 4 5 6 
#
# 1 0.009479 -0.003746 -0.000770 -0.003188 -0.001853 0.002267
# 2 -0.003746 0.013284 -0.002009 0.000296 -0.000755 -0.001830
# 3 -0.000770 -0.002009 0.007133 -0.004433 -0.003134 0.001657
# 4 -0.003188 0.000296 -0.004433 0.034131 0.009402 -0.000228
# 5 -0.001853 -0.000755 -0.003134 0.009402 0.027893 -0.000200
# 6 0.002267 -0.001830 0.001657 -0.000228 -0.000200 0.023370
#
#
# Mechanical properties :
#
#
# Convention : Reuss Voigt Hill
#
# Bulk Modulus (GPa) = 59.35725 73.43193 66.39459
# Shear Modulus (GPa) = 37.32572 43.43607 40.38090
#
# Velocity S-wave (km/s) = 3.79857 4.09771 3.95098
# Velocity P-wave (km/s) = 6.49499 7.12567 6.81763
#
# Compressibility (1/GPa) = 0.01684714
#
# Stress axis : x y z
#
# Youngs Moduli (GPa) = 105.49180 75.27874 140.18639
#
# Poissons Ratio (x) = 0.28200 0.10789
# Poissons Ratio (y) = 0.39518 0.28165
# Poissons Ratio (z) = 0.08119 0.15124
#
# Static dielectric constant tensor:
#      x y z
#    x 2.109560 0.019240 -0.036470 
#    y 0.019240 2.068580 -0.010650 
#    z -0.036470 -0.010650 2.096680 
# 
# From -- ./inp_files/398393.got.cif
#   From: 2010.05.17/outbox.cif.g08.bks.cpg/sg2_200_cif.got.tgz:398393.got - 2010.06.03 11:33:40.
