data_PCOD9064615
_publ_section_title
;
Structure prediction by ZEFSAII (Michael W. Deem and Ramdas Pophale) SiO2 
 PCOD9064615
Probable space group: P -1
;
_chemical_formula_sum "Si O2"
_cell_formula_units_Z 14
_cell_length_a 9.302314
_cell_length_b 18.760058
_cell_length_c 5.476132
_cell_angle_alpha 121.441816
_cell_angle_beta 50.775356
_cell_angle_gamma 123.743806
_cell_volume 593.674494
_symmetry_space_group_name_H-M "P -1"
_symmetry_group_IT_number 2
_symmetry_cell_setting 'triclinic'
loop_
_space_group_symop_operation_xyz
x,y,z
-x,-y,-z
loop_
_atom_site_type_symbol
_atom_site_label
_atom_site_fract_x
_atom_site_fract_y
_atom_site_fract_z
Si Si1 0.429747 0.945150 0.724260
Si Si2 0.491742 0.367392 0.009525
Si Si3 0.106646 0.482358 0.098023
Si Si4 0.616656 0.785847 0.747809
Si Si5 0.885577 0.988850 0.853437
Si Si6 0.316561 0.757905 0.653260
Si Si7 0.863799 0.687535 0.030882
O O1 0.450766 0.849364 0.542400
O O2 0.500000 0.000000 0.500000
O O3 0.500000 0.000000 0.000000
O O4 0.201824 0.932355 0.931650
O O5 0.661565 0.457223 0.064755
O O6 0.618390 0.325382 0.624734
O O7 0.297642 0.372997 0.095597
O O8 0.414146 0.290090 0.154384
O O9 0.000000 0.500000 0.500000
O O10 0.105533 0.381553 0.928980
O O11 0.000000 0.500000 0.000000
O O12 0.727833 0.889496 0.858699
O O13 0.396208 0.777493 0.879145
O O14 0.760239 0.757236 0.354128
O O15 0.000000 0.000000 0.500000
O O16 0.000000 0.000000 0.000000
O O17 0.089281 0.736035 0.795306
#
# Coordination Sequence:
#
# PCOD9064615 Si02
#       7
#     2   2   2   2   2   2   2
#     4  12  25  45  71 101 142 193 240 297 361 422
#     4  11  26  46  75 107 148 188 243 304 358 439
#     4  12  27  51  79 109 148 193 241 296 371 440
#     4  11  26  45  72 106 147 193 245 305 361 433
#     4  12  27  47  71 105 148 192 247 305 360 427
#     4  11  24  46  70 104 145 190 243 301 361 433
#     4  11  26  46  76 109 144 193 241 298 370 434
#
# _framework density 23.581947
#
# number of rings (size 3 to 8) (size 9 to 14) (size 15 to 20)
#    0.000    0.571    2.857    3.857   10.000    1.714 
#    0.000    0.000    0.000    0.000    0.000    0.000 
#    0.000    0.000    0.000    0.000    0.000    0.000 
#
# Total GULP energy -78093.087811 kJ/mol
# GULP energy per Si atom -5578.077701 kJ/mol
# Density = 2.352827 g / cm^3
# Si number density = 23.581947 Si / 1000 Ang^3
#
#
#
# Elastic Constant Matrix: (Units=GPa)
#
#
# Indices 1 2 3 4 5 6 
#
# 1 158.2291 23.8188 28.4320 -22.1038 -4.2234 2.0513
# 2 23.8188 123.2232 4.1043 -8.7642 4.5799 -0.4263
# 3 28.4320 4.1043 61.9273 -12.2212 -3.9918 7.0312
# 4 -22.1038 -8.7642 -12.2212 38.1977 -7.1618 -4.4724
# 5 -4.2234 4.5799 -3.9918 -7.1618 37.9034 -5.2337
# 6 2.0513 -0.4263 7.0312 -4.4724 -5.2337 48.2868
#
#
#
# Elastic Compliance Matrix: (Units=1/GPa)
#
#
# Indices 1 2 3 4 5 6 
#
# 1 0.007497 -0.001160 -0.002630 0.003565 0.001447 0.000541
# 2 -0.001160 0.008451 0.000129 0.001153 -0.000903 0.000114
# 3 -0.002630 0.000129 0.018633 0.004670 0.002271 -0.001922
# 4 0.003565 0.001153 0.004670 0.031677 0.007134 0.002886
# 5 0.001447 -0.000903 0.002271 0.007134 0.028706 0.003372
# 6 0.000541 0.000114 -0.001922 0.002886 0.003372 0.021600
#
#
# Mechanical properties :
#
#
# Convention : Reuss Voigt Hill
#
# Bulk Modulus (GPa) = 36.68430 50.67663 43.68046
# Shear Modulus (GPa) = 37.60199 44.01254 40.80727
#
# Velocity S-wave (km/s) = 3.99748 4.32483 4.16437
# Velocity P-wave (km/s) = 6.07424 6.81727 6.45645
#
# Compressibility (1/GPa) = 0.02725962
#
# Stress axis : x y z
#
# Youngs Moduli (GPa) = 133.39174 118.32587 53.66845
#
# Poissons Ratio (x) = 0.13724 0.14113
# Poissons Ratio (y) = 0.15471 -0.00691
# Poissons Ratio (z) = 0.35076 -0.01524
#
# Static dielectric constant tensor:
#      x y z
#    x 1.966120 0.035700 0.006120 
#    y 0.035700 1.897400 0.036330 
#    z 0.006120 0.036330 2.024920 
# 
# From -- ./inp_files/39124.got.cif
#   From: 2010.05.17/outbox.cif.g08.bks.cpg/sg2_20_cif.got.tgz:39124.got - 2010.06.03 11:33:40.
