data_PCOD9064921
_publ_section_title
;
Structure prediction by ZEFSAII (Michael W. Deem and Ramdas Pophale) SiO2 
 PCOD9064921
Probable space group: P -1
;
_chemical_formula_sum "Si O2"
_cell_formula_units_Z 14
_cell_length_a 9.861937
_cell_length_b 9.507699
_cell_length_c 9.839738
_cell_angle_alpha 44.421114
_cell_angle_beta 55.644469
_cell_angle_gamma 69.287739
_cell_volume 531.161514
_symmetry_space_group_name_H-M "P -1"
_symmetry_group_IT_number 2
_symmetry_cell_setting 'triclinic'
loop_
_space_group_symop_operation_xyz
x,y,z
-x,-y,-z
loop_
_atom_site_type_symbol
_atom_site_label
_atom_site_fract_x
_atom_site_fract_y
_atom_site_fract_z
Si Si1 0.728725 0.831502 0.271602
Si Si2 0.405847 0.595500 0.253208
Si Si3 0.783729 0.328925 0.222549
Si Si4 0.156308 0.108300 0.550904
Si Si5 0.230108 0.237035 0.010207
Si Si6 0.168951 0.795100 0.429193
Si Si7 0.540670 0.220863 0.184380
O O1 0.858562 0.854977 0.305305
O O2 0.806583 0.810222 0.094512
O O3 0.885517 0.132513 0.280538
O O4 0.616659 0.018939 0.222568
O O5 0.375121 0.376531 0.487043
O O6 0.347390 0.164975 0.363594
O O7 0.253780 0.714694 0.304148
O O8 0.423820 0.614799 0.067584
O O9 0.840598 0.565906 0.020413
O O10 0.642645 0.284802 0.218848
O O11 0.750731 0.305350 0.418640
O O12 0.027141 0.233616 0.459199
O O13 0.426818 0.296342 0.857996
O O14 0.206297 0.034811 0.250268
#
# Coordination Sequence:
#
# PCOD9064921 Si02
#       7
#     2   2   2   2   2   2   2
#     4  11  24  46  76 104 141 189 243 295 346 422
#     4  12  25  43  79 108 136 187 249 291 347 423
#     4  11  25  48  73 105 143 188 240 296 350 420
#     4  11  26  46  72 105 152 183 228 299 369 414
#     4  12  25  43  77 107 138 187 250 290 341 426
#     4  12  27  46  73 107 148 188 232 292 365 424
#     4  11  25  48  76 106 141 184 243 299 349 417
#
# _framework density 26.357330999999999
#
# number of rings (size 3 to 8) (size 9 to 14) (size 15 to 20)
#    0.000    0.571    2.857    5.571    4.000    6.286 
#    0.000    1.429    0.000    0.000    0.000    0.000 
#    0.000    0.000    0.000    0.000    0.000    0.000 
#
# Total GULP energy -78486.493492 kJ/mol
# GULP energy per Si atom -5606.178107 kJ/mol
# Density = 2.629734 g / cm^3
# Si number density = 26.357331 Si / 1000 Ang^3
#
#
#
# Elastic Constant Matrix: (Units=GPa)
#
#
# Indices 1 2 3 4 5 6 
#
# 1 145.3597 69.8054 57.1027 12.2602 15.1995 7.7634
# 2 69.8054 139.1397 21.6949 9.3814 -2.9151 5.5823
# 3 57.1027 21.6949 118.3771 -5.8394 20.9531 3.9708
# 4 12.2602 9.3814 -5.8394 42.6697 5.4618 8.8044
# 5 15.1995 -2.9151 20.9531 5.4618 40.4511 -0.1076
# 6 7.7634 5.5823 3.9708 8.8044 -0.1076 55.5791
#
#
#
# Elastic Compliance Matrix: (Units=1/GPa)
#
#
# Indices 1 2 3 4 5 6 
#
# 1 0.011373 -0.004893 -0.004333 -0.002439 -0.002054 -0.000405
# 2 -0.004893 0.009765 0.000053 -0.001047 0.002656 -0.000130
# 3 -0.004333 0.000053 0.011594 0.003609 -0.004863 -0.000810
# 4 -0.002439 -0.001047 0.003609 0.026269 -0.004586 -0.003982
# 5 -0.002054 0.002656 -0.004863 -0.004586 0.028826 0.001150
# 6 -0.000405 -0.000130 -0.000810 -0.003982 0.001150 0.018753
#
#
# Mechanical properties :
#
#
# Convention : Reuss Voigt Hill
#
# Bulk Modulus (GPa) = 69.50485 77.78697 73.64591
# Shear Modulus (GPa) = 38.54464 44.69154 41.61809
#
# Velocity S-wave (km/s) = 3.82827 4.12224 3.97797
# Velocity P-wave (km/s) = 6.77999 7.22728 7.00721
#
# Compressibility (1/GPa) = 0.01438749
#
# Stress axis : x y z
#
# Youngs Moduli (GPa) = 87.92634 102.40906 86.25281
#
# Poissons Ratio (x) = 0.50105 0.37371
# Poissons Ratio (y) = 0.43019 -0.00459
# Poissons Ratio (z) = 0.38096 -0.00545
#
# Static dielectric constant tensor:
#      x y z
#    x 2.060210 -0.024680 -0.044000 
#    y -0.024680 2.073830 -0.015020 
#    z -0.044000 -0.015020 2.037940 
# 
# From -- ./inp_files/512616.got.cif
#   From: 2010.05.17/outbox.cif.g08.bks.cpg/sg2_257_cif.got.tgz:512616.got - 2010.06.03 11:33:40.
