data_PCOD9064712
_publ_section_title
;
Structure prediction by ZEFSAII (Michael W. Deem and Ramdas Pophale) SiO2 
 PCOD9064712
Probable space group: P -1
;
_chemical_formula_sum "Si O2"
_cell_formula_units_Z 14
_cell_length_a 8.046182
_cell_length_b 12.624371
_cell_length_c 8.163484
_cell_angle_alpha 64.530570
_cell_angle_beta 127.236210
_cell_angle_gamma 105.965093
_cell_volume 595.902059
_symmetry_space_group_name_H-M "P -1"
_symmetry_group_IT_number 2
_symmetry_cell_setting 'triclinic'
loop_
_space_group_symop_operation_xyz
x,y,z
-x,-y,-z
loop_
_atom_site_type_symbol
_atom_site_label
_atom_site_fract_x
_atom_site_fract_y
_atom_site_fract_z
Si Si1 0.684926 0.163402 0.537165
Si Si2 0.305908 0.522406 0.993255
Si Si3 0.992449 0.369003 0.503901
Si Si4 0.353827 0.911681 0.071806
Si Si5 0.538105 0.670683 0.293525
Si Si6 0.691956 0.712850 0.716788
Si Si7 0.081115 0.043826 0.346467
O O1 0.866390 0.264559 0.592365
O O2 0.610363 0.108579 0.701677
O O3 0.484889 0.232592 0.307427
O O4 0.760709 0.054079 0.552396
O O5 0.406214 0.572079 0.186289
O O6 0.204063 0.395355 0.059304
O O7 0.500000 0.500000 0.000000
O O8 0.140163 0.607903 0.756159
O O9 0.000000 0.500000 0.500000
O O10 0.227236 0.329143 0.638310
O O11 0.407772 0.787169 0.107983
O O12 0.118234 0.952545 0.891800
O O13 0.500000 0.000000 0.000000
O O14 0.574337 0.665323 0.514531
O O15 0.835565 0.823047 0.681601
O O16 0.000000 0.000000 0.500000
#
# Coordination Sequence:
#
# PCOD9064712 Si02
#       7
#     2   2   2   2   2   2   2
#     4  11  24  46  72 103 148 187 238 300 362 428
#     4  12  25  45  72 107 143 191 240 295 366 426
#     4  12  25  45  75 107 145 188 242 298 363 430
#     4  11  26  47  70 103 145 193 241 298 363 427
#     4  11  26  47  70 103 150 185 244 301 357 431
#     4  11  25  46  70 106 145 190 240 301 358 429
#     4  12  26  45  74 108 141 188 246 296 365 433
#
# _framework density 23.493793
#
# number of rings (size 3 to 8) (size 9 to 14) (size 15 to 20)
#    0.000    0.571    2.857    4.714    6.000    2.857 
#    0.000    0.000    0.000    0.000    0.000    0.000 
#    0.000    0.000    0.000    0.000    0.000    0.000 
#
# Total GULP energy -78314.284693 kJ/mol
# GULP energy per Si atom -5593.877478 kJ/mol
# Density = 2.344032 g / cm^3
# Si number density = 23.493793 Si / 1000 Ang^3
#
#
#
# Elastic Constant Matrix: (Units=GPa)
#
#
# Indices 1 2 3 4 5 6 
#
# 1 92.5845 51.2330 14.6166 -16.8395 -2.8115 -3.7885
# 2 51.2330 142.8161 20.3208 -17.6844 -27.3972 14.1188
# 3 14.6166 20.3208 47.4164 -3.8296 -4.0532 16.4303
# 4 -16.8395 -17.6844 -3.8296 35.3908 10.7298 -4.1608
# 5 -2.8115 -27.3972 -4.0532 10.7298 32.9222 -4.2371
# 6 -3.7885 14.1188 16.4303 -4.1608 -4.2371 39.9484
#
#
#
# Elastic Compliance Matrix: (Units=1/GPa)
#
#
# Indices 1 2 3 4 5 6 
#
# 1 0.015980 -0.005920 -0.004218 0.006495 -0.005499 0.005436
# 2 -0.005920 0.011171 -0.001173 -0.000258 0.008322 -0.003171
# 3 -0.004218 -0.001173 0.026679 -0.001287 0.000953 -0.010991
# 4 0.006495 -0.000258 -0.001287 0.034749 -0.010664 0.003725
# 5 -0.005499 0.008322 0.000953 -0.010664 0.040335 -0.000687
# 6 0.005436 -0.003171 -0.010991 0.003725 -0.000687 0.031504
#
#
# Mechanical properties :
#
#
# Convention : Reuss Voigt Hill
#
# Bulk Modulus (GPa) = 32.04393 50.57309 41.30851
# Shear Modulus (GPa) = 25.84761 34.76207 30.30484
#
# Velocity S-wave (km/s) = 3.32051 3.85077 3.59543
# Velocity P-wave (km/s) = 5.32635 6.42994 5.90398
#
# Compressibility (1/GPa) = 0.03120716
#
# Stress axis : x y z
#
# Youngs Moduli (GPa) = 62.57969 89.51957 37.48321
#
# Poissons Ratio (x) = 0.52998 0.15809
# Poissons Ratio (y) = 0.37049 0.04396
# Poissons Ratio (z) = 0.26394 0.10500
#
# Static dielectric constant tensor:
#      x y z
#    x 1.890060 -0.006980 -0.018670 
#    y -0.006980 1.905760 -0.010920 
#    z -0.018670 -0.010920 1.695510 
# 
# From -- ./inp_files/185516.got.cif
#   From: 2010.05.17/outbox.cif.g08.bks.cpg/sg2_93_cif.got.tgz:185516.got - 2010.06.03 11:33:40.
