data_PCOD9064743
_publ_section_title
;
Structure prediction by ZEFSAII (Michael W. Deem and Ramdas Pophale) SiO2 
 PCOD9064743
Probable space group: P -1
;
_chemical_formula_sum "Si O2"
_cell_formula_units_Z 16
_cell_length_a 9.253702
_cell_length_b 7.451856
_cell_length_c 11.865840
_cell_angle_alpha 76.788099
_cell_angle_beta 117.928870
_cell_angle_gamma 101.322206
_cell_volume 699.999222
_symmetry_space_group_name_H-M "P -1"
_symmetry_group_IT_number 2
_symmetry_cell_setting 'triclinic'
loop_
_space_group_symop_operation_xyz
x,y,z
-x,-y,-z
loop_
_atom_site_type_symbol
_atom_site_label
_atom_site_fract_x
_atom_site_fract_y
_atom_site_fract_z
Si Si1 0.680319 0.592836 0.016430
Si Si2 0.110987 0.533541 0.688043
Si Si3 0.265064 0.448632 0.384941
Si Si4 0.325535 0.045255 0.374070
Si Si5 0.663371 0.352325 0.840927
Si Si6 0.826754 0.073420 0.451560
Si Si7 0.199730 0.011980 0.074335
Si Si8 0.314076 0.304423 0.647423
O O1 0.719007 0.524014 0.915236
O O2 0.715829 0.813522 0.989652
O O3 0.500000 0.500000 0.000000
O O4 0.804784 0.513620 0.158998
O O5 0.189139 0.729912 0.638394
O O6 0.155919 0.373332 0.641257
O O7 0.922584 0.553254 0.642454
O O8 0.297886 0.256472 0.364710
O O9 0.299134 0.605905 0.282424
O O10 0.357686 0.445505 0.538741
O O11 0.280341 0.020871 0.229323
O O12 0.500000 0.000000 0.500000
O O13 0.199125 0.918694 0.425287
O O14 0.466920 0.318333 0.784220
O O15 0.749900 0.176207 0.933687
O O16 0.707431 0.902932 0.379971
O O17 0.000000 0.000000 0.500000
O O18 0.000000 0.000000 0.000000
#
# Coordination Sequence:
#
# PCOD9064743 Si02
#       8
#     2   2   2   2   2   2   2   2
#     4  12  29  51  74 108 153 204 245 310 381 450
#     4  12  26  46  75 104 154 190 240 307 376 447
#     4  11  24  46  72 109 145 189 242 308 371 443
#     4  11  25  46  76 108 151 193 249 311 376 441
#     4  12  27  47  77 104 148 195 254 302 366 452
#     4  11  25  44  72 109 146 188 241 311 374 437
#     4  12  29  50  78 112 149 201 258 311 376 451
#     4  11  25  44  70 112 141 189 245 301 374 443
#
# _framework density 22.857168999999999
#
# number of rings (size 3 to 8) (size 9 to 14) (size 15 to 20)
#    0.000    0.500    5.000    3.000    8.750    3.500 
#    0.000    0.000    0.000    0.000    0.000    0.000 
#    0.000    0.000    0.000    0.000    0.000    0.000 
#
# Total GULP energy -89471.818553 kJ/mol
# GULP energy per Si atom -5591.988660 kJ/mol
# Density = 2.280515 g / cm^3
# Si number density = 22.857169 Si / 1000 Ang^3
#
#
#
# Elastic Constant Matrix: (Units=GPa)
#
#
# Indices 1 2 3 4 5 6 
#
# 1 86.8660 26.5769 24.8135 -16.5106 3.0570 -5.8349
# 2 26.5769 101.4744 14.1351 -32.1980 5.4695 -2.9560
# 3 24.8135 14.1351 112.4834 -14.8989 8.5448 10.9822
# 4 -16.5106 -32.1980 -14.8989 45.3926 -0.8702 -6.1917
# 5 3.0570 5.4695 8.5448 -0.8702 31.9184 -8.4183
# 6 -5.8349 -2.9560 10.9822 -6.1917 -8.4183 35.3925
#
#
#
# Elastic Compliance Matrix: (Units=1/GPa)
#
#
# Indices 1 2 3 4 5 6 
#
# 1 0.013777 -0.002186 -0.002784 0.003067 0.000858 0.003693
# 2 -0.002186 0.013406 -0.000124 0.008930 -0.001268 0.002058
# 3 -0.002784 -0.000124 0.010430 0.001672 -0.003584 -0.004266
# 4 0.003067 0.008930 0.001672 0.030876 0.000201 0.006182
# 5 0.000858 -0.001268 -0.003584 0.000201 0.034933 0.009492
# 6 0.003693 0.002058 -0.004266 0.006182 0.009492 0.033698
#
#
# Mechanical properties :
#
#
# Convention : Reuss Voigt Hill
#
# Bulk Modulus (GPa) = 36.46321 47.98609 42.22465
# Shear Modulus (GPa) = 31.95896 38.22725 35.09310
#
# Velocity S-wave (km/s) = 3.74331 4.09398 3.92257
# Velocity P-wave (km/s) = 5.88816 6.58689 6.24730
#
# Compressibility (1/GPa) = 0.02742490
#
# Stress axis : x y z
#
# Youngs Moduli (GPa) = 72.58559 74.59129 95.87606
#
# Poissons Ratio (x) = 0.16306 0.26691
# Poissons Ratio (y) = 0.15867 0.01191
# Poissons Ratio (z) = 0.20208 0.00927
#
# Static dielectric constant tensor:
#      x y z
#    x 1.905630 0.018900 -0.016970 
#    y 0.018900 1.656260 -0.026480 
#    z -0.016970 -0.026480 1.842680 
# 
# From -- ./inp_files/381774.got.cif
#   From: 2010.05.17/outbox.cif.g08.bks.cpg/sg2_191_cif.got.tgz:381774.got - 2010.06.03 11:33:40.
