data_PCOD9064288
_publ_section_title
;
Structure prediction by ZEFSAII (Michael W. Deem and Ramdas Pophale) SiO2 
 PCOD9064288
Probable space group: P -1
;
_chemical_formula_sum "Si O2"
_cell_formula_units_Z 16
_cell_length_a 5.124961
_cell_length_b 11.641876
_cell_length_c 13.978382
_cell_angle_alpha 117.477329
_cell_angle_beta 118.869564
_cell_angle_gamma 67.099363
_cell_volume 632.940276
_symmetry_space_group_name_H-M "P -1"
_symmetry_group_IT_number 2
_symmetry_cell_setting 'triclinic'
loop_
_space_group_symop_operation_xyz
x,y,z
-x,-y,-z
loop_
_atom_site_type_symbol
_atom_site_label
_atom_site_fract_x
_atom_site_fract_y
_atom_site_fract_z
Si Si1 0.802048 0.139710 0.054367
Si Si2 0.211603 0.430409 0.427911
Si Si3 0.862616 0.002869 0.351035
Si Si4 0.790560 0.557111 0.771483
Si Si5 0.551789 0.827790 0.808128
Si Si6 0.729001 0.357950 0.976505
Si Si7 0.393527 0.159533 0.467662
Si Si8 0.737525 0.273326 0.725473
O O1 0.562717 0.128871 0.089281
O O2 0.091747 0.195528 0.162629
O O3 0.652497 0.242802 0.986355
O O4 0.000000 0.000000 0.000000
O O5 0.500000 0.500000 0.500000
O O6 0.039705 0.459363 0.306862
O O7 0.320170 0.278532 0.423530
O O8 0.000000 0.500000 0.500000
O O9 0.616589 0.059489 0.247674
O O10 0.691158 0.058339 0.439625
O O11 0.128757 0.080090 0.401696
O O12 0.978345 0.845940 0.297995
O O13 0.502915 0.676585 0.739855
O O14 0.740060 0.414386 0.733790
O O15 0.960145 0.609385 0.911366
O O16 0.736653 0.301269 0.849139
O O17 0.500000 0.500000 0.000000
O O18 0.464555 0.220615 0.605145
#
# Coordination Sequence:
#
# PCOD9064288 Si02
#       8
#     2   2   2   2   2   2   2   2
#     4  11  24  45  73 105 142 194 254 305 361 438
#     4  12  26  47  81 114 146 196 254 318 374 438
#     4  12  27  49  77 113 152 199 248 316 384 446
#     4  11  26  48  76 113 150 198 252 311 374 447
#     4  11  24  45  73 106 144 191 247 310 370 432
#     4  11  27  46  72 110 154 203 246 308 376 451
#     4  12  27  49  78 111 152 198 254 311 382 447
#     4  12  27  48  73 111 154 203 250 306 381 460
#
# _framework density 25.278843999999999
#
# number of rings (size 3 to 8) (size 9 to 14) (size 15 to 20)
#    0.000    0.500    2.500    4.500    3.500    4.000 
#    0.000    0.000    0.000    0.000    0.000    0.000 
#    0.000    0.000    0.000    0.000    0.000    0.000 
#
# Total GULP energy -89549.944769 kJ/mol
# GULP energy per Si atom -5596.871548 kJ/mol
# Density = 2.522131 g / cm^3
# Si number density = 25.278844 Si / 1000 Ang^3
#
#
#
# Elastic Constant Matrix: (Units=GPa)
#
#
# Indices 1 2 3 4 5 6 
#
# 1 88.4430 -13.5023 20.5632 7.0548 -8.3362 1.6697
# 2 -13.5023 135.6110 15.4083 8.6099 -3.2890 -1.7347
# 3 20.5632 15.4083 146.4334 5.2039 -28.8465 5.9777
# 4 7.0548 8.6099 5.2039 49.4486 -0.6884 -5.7999
# 5 -8.3362 -3.2890 -28.8465 -0.6884 39.7560 3.9131
# 6 1.6697 -1.7347 5.9777 -5.7999 3.9131 39.2743
#
#
#
# Elastic Compliance Matrix: (Units=1/GPa)
#
#
# Indices 1 2 3 4 5 6 
#
# 1 0.012200 0.001533 -0.001451 -0.001911 0.001666 -0.000678
# 2 0.001533 0.007733 -0.000938 -0.001442 0.000237 0.000183
# 3 -0.001451 -0.000938 0.008394 -0.000659 0.005889 -0.001941
# 4 -0.001911 -0.001442 -0.000659 0.021195 -0.000960 0.003343
# 5 0.001666 0.000237 0.005889 -0.000960 0.030183 -0.004106
# 6 -0.000678 0.000183 -0.001941 0.003343 -0.004106 0.026697
#
#
# Mechanical properties :
#
#
# Convention : Reuss Voigt Hill
#
# Bulk Modulus (GPa) = 37.57364 46.15843 41.86604
# Shear Modulus (GPa) = 42.74008 48.89700 45.81854
#
# Velocity S-wave (km/s) = 4.11633 4.40284 4.26199
# Velocity P-wave (km/s) = 6.12276 6.64425 6.38883
#
# Compressibility (1/GPa) = 0.02661440
#
# Stress axis : x y z
#
# Youngs Moduli (GPa) = 81.96535 129.31808 119.13022
#
# Poissons Ratio (x) = -0.19820 0.17282
# Poissons Ratio (y) = -0.12562 0.11179
# Poissons Ratio (z) = 0.11891 0.12135
#
# Static dielectric constant tensor:
#      x y z
#    x 2.035680 0.032310 0.067350 
#    y 0.032310 2.142550 0.026760 
#    z 0.067350 0.026760 2.141200 
# 
# From -- ./inp_files/482969.got.cif
#   From: 2010.05.17/outbox.cif.g08.bks.cpg/sg2_242_cif.got.tgz:482969.got - 2010.06.03 11:33:40.
