data_PCOD9064524
_publ_section_title
;
Structure prediction by ZEFSAII (Michael W. Deem and Ramdas Pophale) SiO2 
 PCOD9064524
Probable space group: P -1
;
_chemical_formula_sum "Si O2"
_cell_formula_units_Z 14
_cell_length_a 11.701367
_cell_length_b 7.035176
_cell_length_c 10.124902
_cell_angle_alpha 64.616371
_cell_angle_beta 98.247704
_cell_angle_gamma 125.886935
_cell_volume 603.426824
_symmetry_space_group_name_H-M "P -1"
_symmetry_group_IT_number 2
_symmetry_cell_setting 'triclinic'
loop_
_space_group_symop_operation_xyz
x,y,z
-x,-y,-z
loop_
_atom_site_type_symbol
_atom_site_label
_atom_site_fract_x
_atom_site_fract_y
_atom_site_fract_z
Si Si1 0.082473 0.935104 0.874413
Si Si2 0.695413 0.473306 0.314433
Si Si3 0.154064 0.559183 0.891426
Si Si4 0.373961 0.224471 0.279943
Si Si5 0.604958 0.300522 0.900630
Si Si6 0.723241 0.323021 0.655279
Si Si7 0.894209 0.834606 0.646669
O O1 0.116096 0.759147 0.851317
O O2 0.971845 0.948828 0.763655
O O3 0.226095 0.227542 0.811109
O O4 0.987417 0.742186 0.037466
O O5 0.755394 0.375062 0.245493
O O6 0.524160 0.305183 0.336986
O O7 0.733851 0.437268 0.478884
O O8 0.253793 0.601690 0.019901
O O9 0.418462 0.481955 0.130866
O O10 0.248937 0.177366 0.369842
O O11 0.303925 0.953123 0.274139
O O12 0.604284 0.292183 0.742211
O O13 0.500000 0.000000 0.000000
O O14 0.856327 0.550827 0.693023
O O15 0.000000 0.000000 0.500000
#
# Coordination Sequence:
#
# PCOD9064524 Si02
#       7
#     2   2   2   2   2   2   2
#     4  11  24  48  70 100 142 188 231 287 344 418
#     4  12  26  44  72 106 138 181 234 293 348 407
#     4  11  25  44  70 102 140 184 234 282 350 413
#     4  11  26  44  71 105 140 178 234 290 346 413
#     4  11  24  46  68 101 141 185 229 281 348 418
#     4  11  25  44  71 101 139 180 235 283 347 412
#     4  11  24  48  71 102 139 186 232 282 353 415
#
# _framework density 23.200827
#
# number of rings (size 3 to 8) (size 9 to 14) (size 15 to 20)
#    0.000    0.857    4.286    2.571    2.000    8.571 
#    0.000    0.000    0.000    0.000    0.000    0.000 
#    0.000    0.000    0.000    0.000    0.000    0.000 
#
# Total GULP energy -78025.007543 kJ/mol
# GULP energy per Si atom -5573.214824 kJ/mol
# Density = 2.314802 g / cm^3
# Si number density = 23.200827 Si / 1000 Ang^3
#
#
#
# Elastic Constant Matrix: (Units=GPa)
#
#
# Indices 1 2 3 4 5 6 
#
# 1 93.9380 20.4886 13.4361 20.0062 -13.5061 -5.7222
# 2 20.4886 125.3353 10.2259 -19.9554 -3.7418 -6.4128
# 3 13.4361 10.2259 59.5192 21.0624 -17.7452 -13.7134
# 4 20.0062 -19.9554 21.0624 45.6103 -5.0547 -1.8711
# 5 -13.5061 -3.7418 -17.7452 -5.0547 31.7017 -1.6670
# 6 -5.7222 -6.4128 -13.7134 -1.8711 -1.6670 31.1367
#
#
#
# Elastic Compliance Matrix: (Units=1/GPa)
#
#
# Indices 1 2 3 4 5 6 
#
# 1 0.013720 -0.003420 0.002720 -0.008006 0.005837 0.002846
# 2 -0.003420 0.010041 -0.004023 0.007608 -0.001307 0.000055
# 3 0.002720 -0.004023 0.029509 -0.014334 0.015581 0.012640
# 4 -0.008006 0.007608 -0.014334 0.034622 -0.005249 -0.004418
# 5 0.005837 -0.001307 0.015581 -0.005249 0.042267 0.009613
# 6 0.002846 0.000055 0.012640 -0.004418 0.009613 0.038467
#
#
# Mechanical properties :
#
#
# Convention : Reuss Voigt Hill
#
# Bulk Modulus (GPa) = 22.81818 40.78818 31.80318
# Shear Modulus (GPa) = 25.94999 37.33254 31.64127
#
# Velocity S-wave (km/s) = 3.34802 4.01572 3.69697
# Velocity P-wave (km/s) = 4.98017 6.25459 5.65341
#
# Compressibility (1/GPa) = 0.04382471
#
# Stress axis : x y z
#
# Youngs Moduli (GPa) = 72.88684 99.59290 33.88822
#
# Poissons Ratio (x) = 0.34056 -0.09216
# Poissons Ratio (y) = 0.24924 0.13632
# Poissons Ratio (z) = -0.19823 0.40062
#
# Static dielectric constant tensor:
#      x y z
#    x 1.960890 0.013910 -0.053060 
#    y 0.013910 1.916190 -0.069230 
#    z -0.053060 -0.069230 1.986550 
# 
# From -- ./inp_files/409909.got.cif
#   From: 2010.05.17/outbox.cif.g08.bks.cpg/sg2_205_cif.got.tgz:409909.got - 2010.06.03 11:33:40.
