data_PCOD9064354
_publ_section_title
;
Structure prediction by ZEFSAII (Michael W. Deem and Ramdas Pophale) SiO2 
 PCOD9064354
Probable space group: P -1
;
_chemical_formula_sum "Si O2"
_cell_formula_units_Z 14
_cell_length_a 8.810820
_cell_length_b 12.879304
_cell_length_c 8.224135
_cell_angle_alpha 131.158039
_cell_angle_beta 114.482332
_cell_angle_gamma 51.620451
_cell_volume 550.785731
_symmetry_space_group_name_H-M "P -1"
_symmetry_group_IT_number 2
_symmetry_cell_setting 'triclinic'
loop_
_space_group_symop_operation_xyz
x,y,z
-x,-y,-z
loop_
_atom_site_type_symbol
_atom_site_label
_atom_site_fract_x
_atom_site_fract_y
_atom_site_fract_z
Si Si1 0.658576 0.284009 0.733843
Si Si2 0.588102 0.076831 0.737648
Si Si3 0.762327 0.453405 0.208075
Si Si4 0.983060 0.452991 0.760584
Si Si5 0.334869 0.206403 0.078194
Si Si6 0.743170 0.059363 0.253439
Si Si7 0.973804 0.192153 0.314783
O O1 0.601835 0.213004 0.787850
O O2 0.461008 0.428371 0.719207
O O3 0.768562 0.132872 0.507460
O O4 0.765464 0.365589 0.950286
O O5 0.444390 0.158418 0.906239
O O6 0.500000 0.000000 0.500000
O O7 0.802350 0.940630 0.746288
O O8 0.878703 0.319635 0.257974
O O9 0.852450 0.561181 0.304213
O O10 0.970328 0.295499 0.575561
O O11 0.791751 0.605987 0.765449
O O12 0.000000 0.500000 0.000000
O O13 0.203805 0.123395 0.932527
O O14 0.509949 0.140300 0.215160
O O15 0.847063 0.111647 0.220652
#
# Coordination Sequence:
#
# PCOD9064354 Si02
#       7
#     2   2   2   2   2   2   2
#     4  11  24  45  74 103 149 191 245 294 364 429
#     4  12  25  46  74 106 142 193 238 302 357 433
#     4  11  26  45  73 108 145 194 241 300 361 432
#     4  12  26  45  72 105 144 190 238 302 355 437
#     4  11  26  45  73 103 152 183 242 294 371 423
#     4  11  26  45  73 107 143 191 239 302 357 429
#     4  12  28  46  77 106 149 186 251 295 364 428
#
# _framework density 25.418236
#
# number of rings (size 3 to 8) (size 9 to 14) (size 15 to 20)
#    0.000    0.571    1.429    5.571    6.000    6.286 
#    0.000    0.000    0.000    0.000    0.000    0.000 
#    0.000    0.000    0.000    0.000    0.000    0.000 
#
# Total GULP energy -78492.077978 kJ/mol
# GULP energy per Si atom -5606.576998 kJ/mol
# Density = 2.536038 g / cm^3
# Si number density = 25.418236 Si / 1000 Ang^3
#
#
#
# Elastic Constant Matrix: (Units=GPa)
#
#
# Indices 1 2 3 4 5 6 
#
# 1 95.0966 45.6757 29.6719 15.8942 15.8608 4.8174
# 2 45.6757 101.7302 -0.0788 3.0172 5.1203 -11.0646
# 3 29.6719 -0.0788 144.5287 10.3324 10.2999 4.3068
# 4 15.8942 3.0172 10.3324 38.8443 8.5276 -1.1646
# 5 15.8608 5.1203 10.2999 8.5276 37.0333 7.6590
# 6 4.8174 -11.0646 4.3068 -1.1646 7.6590 56.1258
#
#
#
# Elastic Compliance Matrix: (Units=1/GPa)
#
#
# Indices 1 2 3 4 5 6 
#
# 1 0.016357 -0.007262 -0.002698 -0.004661 -0.003719 -0.002218
# 2 -0.007262 0.013399 0.001291 0.001720 -0.000164 0.003224
# 3 -0.002698 0.001291 0.007599 -0.000808 -0.000954 0.000016
# 4 -0.004661 0.001720 -0.000808 0.028917 -0.005109 0.002098
# 5 -0.003719 -0.000164 -0.000954 -0.005109 0.030879 -0.003960
# 6 -0.002218 0.003224 0.000016 0.002098 -0.003960 0.019226
#
#
# Mechanical properties :
#
#
# Convention : Reuss Voigt Hill
#
# Bulk Modulus (GPa) = 49.95605 54.65478 52.30542
# Shear Modulus (GPa) = 35.61575 44.13979 39.87777
#
# Velocity S-wave (km/s) = 3.74731 4.17170 3.96519
# Velocity P-wave (km/s) = 6.19834 6.68977 6.44874
#
# Compressibility (1/GPa) = 0.02001759
#
# Stress axis : x y z
#
# Youngs Moduli (GPa) = 61.13549 74.63027 131.59922
#
# Poissons Ratio (x) = 0.54197 0.35502
# Poissons Ratio (y) = 0.44397 -0.16988
# Poissons Ratio (z) = 0.16493 -0.09634
#
# Static dielectric constant tensor:
#      x y z
#    x 1.974710 -0.011520 0.026210 
#    y -0.011520 2.046580 -0.037370 
#    z 0.026210 -0.037370 2.006190 
# 
# From -- ./inp_files/190944.got.cif
#   From: 2010.05.17/outbox.cif.g08.bks.cpg/sg2_96_cif.got.tgz:190944.got - 2010.06.03 11:33:40.
