data_PCOD9064707
_publ_section_title
;
Structure prediction by ZEFSAII (Michael W. Deem and Ramdas Pophale) SiO2 
 PCOD9064707
Probable space group: P -1
;
_chemical_formula_sum "Si O2"
_cell_formula_units_Z 13
_cell_length_a 6.703546
_cell_length_b 17.188344
_cell_length_c 9.299081
_cell_angle_alpha 44.945881
_cell_angle_beta 46.417856
_cell_angle_gamma 54.434243
_cell_volume 539.036591
_symmetry_space_group_name_H-M "P -1"
_symmetry_group_IT_number 2
_symmetry_cell_setting 'triclinic'
loop_
_space_group_symop_operation_xyz
x,y,z
-x,-y,-z
loop_
_atom_site_type_symbol
_atom_site_label
_atom_site_fract_x
_atom_site_fract_y
_atom_site_fract_z
Si Si1 0.500000 0.500000 0.500000
Si Si2 0.693553 0.753615 0.896174
Si Si3 0.317730 0.243463 0.438941
Si Si4 0.583202 0.536738 0.730224
Si Si5 0.170770 0.891636 0.137566
Si Si6 0.991471 0.461355 0.839820
Si Si7 0.174165 0.893749 0.471488
O O1 0.610800 0.539500 0.545506
O O2 0.166268 0.560477 0.622872
O O3 0.618049 0.744690 0.778200
O O4 0.986786 0.796678 0.700531
O O5 0.458387 0.840543 0.981249
O O6 0.747290 0.634385 0.109521
O O7 0.356601 0.353092 0.364359
O O8 0.544603 0.146446 0.527458
O O9 0.027241 0.200593 0.651676
O O10 0.821513 0.441389 0.806806
O O11 0.268932 0.522290 0.943643
O O12 0.217591 0.914835 0.253026
O O13 0.000000 0.000000 0.000000
O O14 0.000000 0.000000 0.500000
#
# Coordination Sequence:
#
# PCOD9064707 Si02
#       7
#     1   2   2   2   2   2   2
#     4  12  28  44  72 102 140 184 240 292 344 418
#     4  11  26  44  71 105 139 186 237 287 348 419
#     4  11  26  45  73 104 141 188 233 291 348 422
#     4  11  27  49  69 103 145 187 233 289 354 414
#     4  11  26  47  71 106 142 182 237 294 351 417
#     4  11  27  46  71 101 141 187 231 291 347 415
#     4  11  24  46  72 102 142 185 234 292 353 417
#
# _framework density 24.117101999999999
#
# number of rings (size 3 to 8) (size 9 to 14) (size 15 to 20)
#    0.000    0.923    1.538    2.769   10.769    7.385 
#    0.000    0.000    0.000    0.000    0.000    0.000 
#    0.000    0.000    0.000    0.000    0.000    0.000 
#
# Total GULP energy -72556.706944 kJ/mol
# GULP energy per Si atom -5581.285150 kJ/mol
# Density = 2.406221 g / cm^3
# Si number density = 24.117102 Si / 1000 Ang^3
#
#
#
# Elastic Constant Matrix: (Units=GPa)
#
#
# Indices 1 2 3 4 5 6 
#
# 1 150.8720 31.9673 63.4049 18.4822 30.3035 -3.9648
# 2 31.9673 77.9490 34.7397 -11.4581 15.0824 -4.6888
# 3 63.4049 34.7397 94.8086 17.3704 27.6351 -1.4872
# 4 18.4822 -11.4581 17.3704 40.7820 -7.9086 3.5728
# 5 30.3035 15.0824 27.6351 -7.9086 66.2366 10.4784
# 6 -3.9648 -4.6888 -1.4872 3.5728 10.4784 55.7365
#
#
#
# Elastic Compliance Matrix: (Units=1/GPa)
#
#
# Indices 1 2 3 4 5 6 
#
# 1 0.010000 -0.002124 -0.004295 -0.003983 -0.002970 0.001232
# 2 -0.002124 0.018099 -0.007147 0.009222 0.000866 0.000427
# 3 -0.004295 -0.007147 0.019560 -0.009662 -0.005936 0.001351
# 4 -0.003983 0.009222 -0.009662 0.034997 0.008503 -0.003607
# 5 -0.002970 0.000866 -0.005936 0.008503 0.020494 -0.004695
# 6 0.001232 0.000427 0.001351 -0.003607 -0.004695 0.019215
#
#
# Mechanical properties :
#
#
# Convention : Reuss Voigt Hill
#
# Bulk Modulus (GPa) = 48.71251 64.87259 56.79255
# Shear Modulus (GPa) = 31.98215 45.45221 38.71718
#
# Velocity S-wave (km/s) = 3.64554 4.34596 4.01107
# Velocity P-wave (km/s) = 6.16134 7.22084 6.71203
#
# Compressibility (1/GPa) = 0.02052861
#
# Stress axis : x y z
#
# Youngs Moduli (GPa) = 100.00195 55.25267 51.12467
#
# Poissons Ratio (x) = 0.11734 0.21956
# Poissons Ratio (y) = 0.21238 0.36537
# Poissons Ratio (z) = 0.42946 0.39487
#
# Static dielectric constant tensor:
#      x y z
#    x 1.858620 -0.107440 0.083800 
#    y -0.107440 1.938150 0.099240 
#    z 0.083800 0.099240 1.588570 
# 
# From -- ./inp_files/138437.got.cif
#   From: 2010.05.17/outbox.cif.g08.bks.cpg/sg2_70_cif.got.tgz:138437.got - 2010.06.03 11:33:40.
