data_PCOD9064479
_publ_section_title
;
Structure prediction by ZEFSAII (Michael W. Deem and Ramdas Pophale) SiO2 
 PCOD9064479
Probable space group: P -1
;
_chemical_formula_sum "Si O2"
_cell_formula_units_Z 14
_cell_length_a 8.788844
_cell_length_b 8.820790
_cell_length_c 10.260465
_cell_angle_alpha 115.303027
_cell_angle_beta 76.967167
_cell_angle_gamma 66.316349
_cell_volume 577.821798
_symmetry_space_group_name_H-M "P -1"
_symmetry_group_IT_number 2
_symmetry_cell_setting 'triclinic'
loop_
_space_group_symop_operation_xyz
x,y,z
-x,-y,-z
loop_
_atom_site_type_symbol
_atom_site_label
_atom_site_fract_x
_atom_site_fract_y
_atom_site_fract_z
Si Si1 0.706169 0.042781 0.034574
Si Si2 0.537493 0.988489 0.715514
Si Si3 0.817629 0.003226 0.501305
Si Si4 0.478201 0.355243 0.551211
Si Si5 0.571477 0.640421 0.008155
Si Si6 0.112813 0.729209 0.868909
Si Si7 0.032411 0.649946 0.130788
O O1 0.586085 0.189008 0.993777
O O2 0.795391 0.145471 0.134628
O O3 0.554239 0.031941 0.142581
O O4 0.903071 0.827863 0.886693
O O5 0.739573 0.943527 0.617221
O O6 0.520830 0.833730 0.574785
O O7 0.419788 0.234554 0.826715
O O8 0.657843 0.232328 0.567502
O O9 0.000000 0.000000 0.500000
O O10 0.872443 0.837756 0.315228
O O11 0.500000 0.500000 0.500000
O O12 0.272693 0.505732 0.709826
O O13 0.786240 0.493108 0.865088
O O14 0.500000 0.500000 0.000000
O O15 0.090489 0.737096 0.032674
O O16 0.000000 0.500000 0.000000
#
# Coordination Sequence:
#
# PCOD9064479 Si02
#       7
#     2   2   2   2   2   2   2
#     4  11  25  46  76 111 145 196 256 313 369 452
#     4  12  26  49  74 112 153 196 253 312 375 458
#     4  12  29  48  74 113 155 199 253 318 379 448
#     4  12  26  48  77 111 154 198 248 310 386 451
#     4  12  25  46  77 108 149 194 255 314 371 446
#     4  11  24  45  78 106 146 197 253 305 382 451
#     4  12  25  46  75 108 147 201 255 306 380 456
#
# _framework density 24.228921
#
# number of rings (size 3 to 8) (size 9 to 14) (size 15 to 20)
#    0.000    0.286    2.857    6.000    4.000    0.000 
#    0.000    5.000    0.000    0.000    0.000    0.000 
#    0.000    0.000    0.000    0.000    0.000    0.000 
#
# Total GULP energy -78105.538587 kJ/mol
# GULP energy per Si atom -5578.967042 kJ/mol
# Density = 2.417377 g / cm^3
# Si number density = 24.228921 Si / 1000 Ang^3
#
#
#
# Elastic Constant Matrix: (Units=GPa)
#
#
# Indices 1 2 3 4 5 6 
#
# 1 151.2649 100.4174 45.1938 2.3906 -26.8225 6.8327
# 2 100.4174 146.8439 70.8359 8.2441 -24.8402 -2.4830
# 3 45.1938 70.8359 166.0593 20.1589 -29.6375 -5.9940
# 4 2.3906 8.2441 20.1589 41.1866 8.7104 -14.1656
# 5 -26.8225 -24.8402 -29.6375 8.7104 45.7545 17.8321
# 6 6.8327 -2.4830 -5.9940 -14.1656 17.8321 62.2311
#
#
#
# Elastic Compliance Matrix: (Units=1/GPa)
#
#
# Indices 1 2 3 4 5 6 
#
# 1 0.013150 -0.008550 0.001224 -0.002181 0.005761 -0.003814
# 2 -0.008550 0.014522 -0.003807 -0.000165 0.000004 0.001113
# 3 0.001224 -0.003807 0.009195 -0.006223 0.006878 -0.002788
# 4 -0.002181 -0.000165 -0.006223 0.035417 -0.017044 0.012579
# 5 0.005761 0.000004 0.006878 -0.017044 0.038765 -0.014958
# 6 -0.003814 0.001113 -0.002788 0.012579 -0.014958 0.023413
#
#
# Mechanical properties :
#
#
# Convention : Reuss Voigt Hill
#
# Bulk Modulus (GPa) = 68.48981 99.67358 84.08169
# Shear Modulus (GPa) = 30.94173 46.34919 38.64546
#
# Velocity S-wave (km/s) = 3.57747 4.37850 3.99810
# Velocity P-wave (km/s) = 6.73747 8.17247 7.48942
#
# Compressibility (1/GPa) = 0.01460071
#
# Stress axis : x y z
#
# Youngs Moduli (GPa) = 76.04813 68.86207 108.75266
#
# Poissons Ratio (x) = 0.58877 -0.13309
# Poissons Ratio (y) = 0.65021 0.41400
# Poissons Ratio (z) = -0.09307 0.26214
#
# Static dielectric constant tensor:
#      x y z
#    x 2.034430 -0.011320 0.051740 
#    y -0.011320 2.046610 -0.038820 
#    z 0.051740 -0.038820 2.023930 
# 
# From -- ./inp_files/383169.got.cif
#   From: 2010.05.17/outbox.cif.g08.bks.cpg/sg2_192_cif.got.tgz:383169.got - 2010.06.03 11:33:40.
