data_PCOD9064277
_publ_section_title
;
Structure prediction by ZEFSAII (Michael W. Deem and Ramdas Pophale) SiO2 
 PCOD9064277
Probable space group: P -1
;
_chemical_formula_sum "Si O2"
_cell_formula_units_Z 16
_cell_length_a 14.161012
_cell_length_b 13.522419
_cell_length_c 10.954696
_cell_angle_alpha 62.471615
_cell_angle_beta 43.236429
_cell_angle_gamma 31.286954
_cell_volume 666.089629
_symmetry_space_group_name_H-M "P -1"
_symmetry_group_IT_number 2
_symmetry_cell_setting 'triclinic'
loop_
_space_group_symop_operation_xyz
x,y,z
-x,-y,-z
loop_
_atom_site_type_symbol
_atom_site_label
_atom_site_fract_x
_atom_site_fract_y
_atom_site_fract_z
Si Si1 0.656598 0.935980 0.694099
Si Si2 0.733338 0.231115 0.186658
Si Si3 0.084689 0.254166 0.084215
Si Si4 0.828891 0.420199 0.964000
Si Si5 0.844887 0.043305 0.435378
Si Si6 0.252527 0.222896 0.539545
Si Si7 0.717879 0.122981 0.795408
Si Si8 0.818717 0.494719 0.428192
O O1 0.720409 0.011479 0.530388
O O2 0.681011 0.819213 0.640306
O O3 0.906157 0.752552 0.651715
O O4 0.360607 0.130996 0.911659
O O5 0.719613 0.371529 0.100451
O O6 0.449279 0.373791 0.341700
O O7 0.756518 0.190524 0.332216
O O8 0.000000 0.000000 0.000000
O O9 0.991357 0.326054 0.990357
O O10 0.851939 0.464136 0.268272
O O11 0.146018 0.083553 0.164171
O O12 0.594374 0.667781 0.020929
O O13 0.016181 0.301432 0.739818
O O14 0.155560 0.858871 0.262664
O O15 0.756131 0.116623 0.617775
O O16 0.178698 0.385279 0.585724
O O17 0.500000 0.000000 0.500000
#
# Coordination Sequence:
#
# PCOD9064277 Si02
#       8
#     2   2   2   2   2   2   2   2
#     4  12  25  46  75 106 149 190 242 304 361 440
#     4  12  27  47  73 103 151 194 247 301 359 440
#     4  12  26  48  77 110 152 186 244 308 361 437
#     4  12  26  45  76 106 144 198 244 296 376 423
#     4  11  24  45  73 103 148 181 237 304 362 413
#     4  12  26  48  68 104 148 190 243 296 359 438
#     4  11  25  46  75 109 147 184 246 308 358 437
#     4  12  27  46  75 109 141 198 243 296 376 429
#
# _framework density 24.020790999999999
#
# number of rings (size 3 to 8) (size 9 to 14) (size 15 to 20)
#    0.000    0.250    3.750    5.250    3.500    2.500 
#    0.000    2.500    0.000    0.000    0.000    0.000 
#    0.000    0.000    0.000    0.000    0.000    0.000 
#
# Total GULP energy -89442.606628 kJ/mol
# GULP energy per Si atom -5590.162914 kJ/mol
# Density = 2.396612 g / cm^3
# Si number density = 24.020791 Si / 1000 Ang^3
#
#
#
# Elastic Constant Matrix: (Units=GPa)
#
#
# Indices 1 2 3 4 5 6 
#
# 1 62.5684 18.4372 39.2131 5.7244 -9.7657 7.5939
# 2 18.4372 71.0733 23.3890 12.1575 -14.8755 3.7088
# 3 39.2131 23.3890 132.1210 20.9719 -25.3660 7.1251
# 4 5.7244 12.1575 20.9719 37.0349 5.8883 -12.1931
# 5 -9.7657 -14.8755 -25.3660 5.8883 35.3475 4.9654
# 6 7.5939 3.7088 7.1251 -12.1931 4.9654 32.2430
#
#
#
# Elastic Compliance Matrix: (Units=1/GPa)
#
#
# Indices 1 2 3 4 5 6 
#
# 1 0.020827 -0.003026 -0.004926 -0.001069 0.001705 -0.004135
# 2 -0.003026 0.018993 0.002006 -0.011388 0.011619 -0.008011
# 3 -0.004926 0.002006 0.013492 -0.012360 0.012438 -0.008642
# 4 -0.001069 -0.011388 -0.012360 0.051229 -0.026387 0.027729
# 5 0.001705 0.011619 0.012438 -0.026387 0.050088 -0.022179
# 6 -0.004135 -0.008011 -0.008642 0.027729 -0.022179 0.048721
#
#
# Mechanical properties :
#
#
# Convention : Reuss Voigt Hill
#
# Bulk Modulus (GPa) = 24.14304 47.53795 35.84049
# Shear Modulus (GPa) = 21.82952 33.23996 27.53474
#
# Velocity S-wave (km/s) = 3.01786 3.72398 3.38936
# Velocity P-wave (km/s) = 4.71339 6.19064 5.50182
#
# Compressibility (1/GPa) = 0.04141981
#
# Stress axis : x y z
#
# Youngs Moduli (GPa) = 48.01426 52.65210 74.12069
#
# Poissons Ratio (x) = 0.15935 0.36510
# Poissons Ratio (y) = 0.14531 -0.14871
# Poissons Ratio (z) = 0.23650 -0.10564
#
# Static dielectric constant tensor:
#      x y z
#    x 1.942890 -0.022590 -0.027460 
#    y -0.022590 1.943740 0.001720 
#    z -0.027460 0.001720 1.802820 
# 
# From -- ./inp_files/455630.got.cif
#   From: 2010.05.17/outbox.cif.g08.bks.cpg/sg2_228_cif.got.tgz:455630.got - 2010.06.03 11:33:40.
