data_PCOD9064825
_publ_section_title
;
Structure prediction by ZEFSAII (Michael W. Deem and Ramdas Pophale) SiO2 
 PCOD9064825
Probable space group: P -1
;
_chemical_formula_sum "Si O2"
_cell_formula_units_Z 14
_cell_length_a 8.352953
_cell_length_b 12.894411
_cell_length_c 16.358522
_cell_angle_alpha 27.288221
_cell_angle_beta 126.586253
_cell_angle_gamma 118.000778
_cell_volume 639.879805
_symmetry_space_group_name_H-M "P -1"
_symmetry_group_IT_number 2
_symmetry_cell_setting 'triclinic'
loop_
_space_group_symop_operation_xyz
x,y,z
-x,-y,-z
loop_
_atom_site_type_symbol
_atom_site_label
_atom_site_fract_x
_atom_site_fract_y
_atom_site_fract_z
Si Si1 0.991893 0.877108 0.838859
Si Si2 0.561690 0.280871 0.613096
Si Si3 0.342952 0.467381 0.249694
Si Si4 0.290978 0.406284 0.994959
Si Si5 0.371157 0.229928 0.965096
Si Si6 0.011600 0.250926 0.714829
Si Si7 0.020046 0.185616 0.307596
O O1 0.026449 0.892482 0.742301
O O2 0.024585 0.088772 0.754155
O O3 0.764362 0.824171 0.819838
O O4 0.153738 0.667686 0.070894
O O5 0.500000 0.500000 0.500000
O O6 0.458906 0.360325 0.439800
O O7 0.803974 0.236771 0.708248
O O8 0.513115 0.029453 0.799782
O O9 0.236715 0.271017 0.313189
O O10 0.487400 0.596749 0.148091
O O11 0.140105 0.598460 0.863049
O O12 0.500000 0.500000 0.000000
O O13 0.268652 0.349945 0.931765
O O14 0.202359 0.201659 0.866706
O O15 0.000000 0.500000 0.500000
O O16 0.000000 0.000000 0.500000
#
# Coordination Sequence:
#
# PCOD9064825 Si02
#       7
#     2   2   2   2   2   2   2
#     4  11  25  49  72 102 154 187 243 301 362 435
#     4  12  28  45  74 107 145 194 248 293 362 435
#     4  11  26  47  72 111 141 194 242 297 369 427
#     4  11  24  46  74 104 142 190 241 298 367 427
#     4  12  26  48  76 107 155 189 240 306 359 435
#     4  12  27  47  71 109 147 194 240 300 363 428
#     4  11  27  45  76 107 144 194 241 304 363 434
#
# _framework density 21.879110000000001
#
# number of rings (size 3 to 8) (size 9 to 14) (size 15 to 20)
#    0.000    0.571    2.857    4.714   12.000    1.143 
#    0.000    2.143    0.000    0.000    0.000    0.000 
#    0.000    0.000    0.000    0.000    0.000    0.000 
#
# Total GULP energy -78246.216250 kJ/mol
# GULP energy per Si atom -5589.015446 kJ/mol
# Density = 2.182931 g / cm^3
# Si number density = 21.879110 Si / 1000 Ang^3
#
#
#
# Elastic Constant Matrix: (Units=GPa)
#
#
# Indices 1 2 3 4 5 6 
#
# 1 120.1731 83.4385 42.5676 9.2548 -16.2838 2.7342
# 2 83.4385 180.1987 46.9366 -2.5650 -20.3059 -20.5133
# 3 42.5676 46.9366 99.1256 6.9481 -37.0434 0.1784
# 4 9.2548 -2.5650 6.9481 22.1046 2.4105 1.3481
# 5 -16.2838 -20.3059 -37.0434 2.4105 30.0536 -3.5355
# 6 2.7342 -20.5133 0.1784 1.3481 -3.5355 45.2184
#
#
#
# Elastic Compliance Matrix: (Units=1/GPa)
#
#
# Indices 1 2 3 4 5 6 
#
# 1 0.014207 -0.006360 -0.002595 -0.005681 0.000241 -0.003546
# 2 -0.006360 0.009665 -0.001628 0.003861 0.001328 0.004764
# 3 -0.002595 -0.001628 0.022262 -0.009017 0.025847 0.001620
# 4 -0.005681 0.003861 -0.009017 0.052675 -0.015889 -0.000682
# 5 0.000241 0.001328 0.025847 -0.015889 0.068175 0.006290
# 6 -0.003546 0.004764 0.001620 -0.000682 0.006290 0.024996
#
#
# Mechanical properties :
#
#
# Convention : Reuss Voigt Hill
#
# Bulk Modulus (GPa) = 40.05130 82.82030 61.43580
# Shear Modulus (GPa) = 22.57648 34.57896 28.57772
#
# Velocity S-wave (km/s) = 3.21576 3.97981 3.61801
# Velocity P-wave (km/s) = 5.66866 7.68468 6.75233
#
# Compressibility (1/GPa) = 0.02496798
#
# Stress axis : x y z
#
# Youngs Moduli (GPa) = 70.38756 103.46181 44.91976
#
# Poissons Ratio (x) = 0.65800 0.11657
# Poissons Ratio (y) = 0.44765 0.07314
# Poissons Ratio (z) = 0.18266 0.16846
#
# Static dielectric constant tensor:
#      x y z
#    x 1.861820 0.098260 -0.040010 
#    y 0.098260 1.832580 -0.044570 
#    z -0.040010 -0.044570 1.823280 
# 
# From -- ./inp_files/224413.got.cif
#   From: 2010.05.17/outbox.cif.g08.bks.cpg/sg2_113_cif.got.tgz:224413.got - 2010.06.03 11:33:40.
