data_PCOD9064067
_publ_section_title
;
Structure prediction by ZEFSAII (Michael W. Deem and Ramdas Pophale) SiO2 
 PCOD9064067
Probable space group: P -1
;
_chemical_formula_sum "Si O2"
_cell_formula_units_Z 16
_cell_length_a 19.702470
_cell_length_b 6.498632
_cell_length_c 8.919969
_cell_angle_alpha 55.473721
_cell_angle_beta 46.762280
_cell_angle_gamma 71.544201
_cell_volume 680.585435
_symmetry_space_group_name_H-M "P -1"
_symmetry_group_IT_number 2
_symmetry_cell_setting 'triclinic'
loop_
_space_group_symop_operation_xyz
x,y,z
-x,-y,-z
loop_
_atom_site_type_symbol
_atom_site_label
_atom_site_fract_x
_atom_site_fract_y
_atom_site_fract_z
Si Si1 0.405553 0.813985 0.680903
Si Si2 0.136804 0.062013 0.661030
Si Si3 0.604955 0.443014 0.890206
Si Si4 0.912773 0.366795 0.898207
Si Si5 0.739724 0.060984 0.755123
Si Si6 0.907021 0.376091 0.558557
Si Si7 0.726005 0.794621 0.361507
Si Si8 0.709727 0.535032 0.191429
O O1 0.384700 0.649352 0.630255
O O2 0.500000 0.000000 0.500000
O O3 0.322296 0.985684 0.731381
O O4 0.387185 0.617432 0.923189
O O5 0.108688 0.326511 0.535634
O O6 0.176297 0.126581 0.742158
O O7 0.212152 0.979276 0.461541
O O8 0.067634 0.815462 0.917214
O O9 0.648582 0.213069 0.836420
O O10 0.665502 0.690502 0.637854
O O11 0.500000 0.500000 0.000000
O O12 0.915657 0.280992 0.754420
O O13 0.992075 0.609096 0.681615
O O14 0.806605 0.428501 0.049626
O O15 0.821285 0.223776 0.662860
O O16 0.712108 0.794134 0.988513
O O17 0.718922 0.586608 0.331672
#
# Coordination Sequence:
#
# PCOD9064067 Si02
#       8
#     2   2   2   2   2   2   2   2
#     4  12  26  49  71 103 140 179 235 291 352 424
#     4  12  24  46  73 104 142 187 243 283 352 415
#     4  12  25  47  72 103 138 178 233 290 350 416
#     4  11  24  45  70 106 144 192 233 292 351 413
#     4  12  25  46  74 103 142 191 232 294 351 418
#     4  11  25  46  70 103 150 184 238 294 346 415
#     4  12  25  46  74 100 142 189 230 293 349 416
#     4  12  25  47  74 103 142 190 234 284 357 421
#
# _framework density 23.509170999999998
#
# number of rings (size 3 to 8) (size 9 to 14) (size 15 to 20)
#    0.000    0.250    6.250    3.375    0.000    1.500 
#    2.250    3.125    0.000    0.000    0.000    0.000 
#    0.000    0.000    0.000    0.000    0.000    0.000 
#
# Total GULP energy -89341.745400 kJ/mol
# GULP energy per Si atom -5583.859087 kJ/mol
# Density = 2.345566 g / cm^3
# Si number density = 23.509171 Si / 1000 Ang^3
#
#
#
# Elastic Constant Matrix: (Units=GPa)
#
#
# Indices 1 2 3 4 5 6 
#
# 1 106.4407 60.3947 33.2528 6.3492 -6.7514 -1.5327
# 2 60.3947 79.3721 14.2484 -1.6155 -6.2911 13.8610
# 3 33.2528 14.2484 97.7511 -5.9488 -0.7944 20.1963
# 4 6.3492 -1.6155 -5.9488 24.4637 6.2726 7.4043
# 5 -6.7514 -6.2911 -0.7944 6.2726 41.4489 -2.7980
# 6 -1.5327 13.8610 20.1963 7.4043 -2.7980 41.4108
#
#
#
# Elastic Compliance Matrix: (Units=1/GPa)
#
#
# Indices 1 2 3 4 5 6 
#
# 1 0.025584 -0.020432 -0.009962 -0.016347 0.004420 0.015866
# 2 -0.020432 0.029994 0.006950 0.014610 -0.001996 -0.016933
# 3 -0.009962 0.006950 0.015906 0.011489 -0.002859 -0.012700
# 4 -0.016347 0.014610 0.011489 0.058314 -0.010551 -0.022238
# 5 0.004420 -0.001996 -0.002859 -0.010551 0.026483 0.005902
# 6 0.015866 -0.016933 -0.012700 -0.022238 0.005902 0.040972
#
#
# Mechanical properties :
#
#
# Convention : Reuss Voigt Hill
#
# Bulk Modulus (GPa) = 40.65711 55.48398 48.07054
# Shear Modulus (GPa) = 19.81454 33.17590 26.49522
#
# Velocity S-wave (km/s) = 2.90633 3.76066 3.36075
# Velocity P-wave (km/s) = 5.34734 6.51989 5.96251
#
# Compressibility (1/GPa) = 0.02459594
#
# Stress axis : x y z
#
# Youngs Moduli (GPa) = 39.08675 33.33985 62.87064
#
# Poissons Ratio (x) = 0.68120 0.62631
# Poissons Ratio (y) = 0.79862 -0.43694
# Poissons Ratio (z) = 0.38938 -0.23171
#
# Static dielectric constant tensor:
#      x y z
#    x 1.911720 0.017250 0.028020 
#    y 0.017250 1.979490 0.005560 
#    z 0.028020 0.005560 1.807100 
# 
# From -- ./inp_files/340112.got.cif
#   From: 2010.05.17/outbox.cif.g08.bks.cpg/sg2_171_cif.got.tgz:340112.got - 2010.06.03 11:33:40.
