data_PCOD9064157
_publ_section_title
;
Structure prediction by ZEFSAII (Michael W. Deem and Ramdas Pophale) SiO2 
 PCOD9064157
Probable space group: P -1
;
_chemical_formula_sum "Si O2"
_cell_formula_units_Z 11
_cell_length_a 14.130492
_cell_length_b 4.981268
_cell_length_c 8.024769
_cell_angle_alpha 98.926340
_cell_angle_beta 133.723085
_cell_angle_gamma 72.217199
_cell_volume 387.418056
_symmetry_space_group_name_H-M "P -1"
_symmetry_group_IT_number 2
_symmetry_cell_setting 'triclinic'
loop_
_space_group_symop_operation_xyz
x,y,z
-x,-y,-z
loop_
_atom_site_type_symbol
_atom_site_label
_atom_site_fract_x
_atom_site_fract_y
_atom_site_fract_z
Si Si1 0.225736 0.933978 0.224122
Si Si2 0.975290 0.279025 0.816715
Si Si3 0.568177 0.803916 0.311315
Si Si4 0.857065 0.247400 0.347379
Si Si5 0.314442 0.194201 0.908237
Si Si6 0.500000 0.500000 0.500000
O O1 0.122214 0.885370 0.232231
O O2 0.339133 0.654921 0.289218
O O3 0.315294 0.119990 0.430834
O O4 0.127821 0.069498 0.964343
O O5 0.893710 0.414168 0.569237
O O6 0.000000 0.500000 0.000000
O O7 0.611083 0.753098 0.167586
O O8 0.533575 0.558690 0.347917
O O9 0.432408 0.074551 0.178205
O O10 0.802013 0.510036 0.179642
O O11 0.746553 0.072754 0.224186
O O12 0.000000 0.000000 0.500000
#
# Coordination Sequence:
#
# PCOD9064157 Si02
#       6
#     2   2   2   2   2   1
#     4  11  24  45  71 108 155 207 265 332 407 476
#     4  11  25  47  78 109 160 213 267 330 411 486
#     4  11  26  47  77 113 157 212 268 340 407 482
#     4  12  27  50  80 119 161 216 272 333 404 497
#     4  11  27  50  81 114 164 212 266 332 422 484
#     4  12  26  44  74 112 156 204 278 328 398 472
#
# _framework density 28.393101000000001
#
# number of rings (size 3 to 8) (size 9 to 14) (size 15 to 20)
#    0.000    0.727    1.818    4.364    7.636    1.455 
#    0.000    0.000    0.000    0.000    0.000    0.000 
#    0.000    0.000    0.000    0.000    0.000    0.000 
#
# Total GULP energy -61435.600191 kJ/mol
# GULP energy per Si atom -5585.054563 kJ/mol
# Density = 2.832848 g / cm^3
# Si number density = 28.393101 Si / 1000 Ang^3
#
#
#
# Elastic Constant Matrix: (Units=GPa)
#
#
# Indices 1 2 3 4 5 6 
#
# 1 82.9555 9.7163 43.6738 -2.5597 9.3435 9.2638
# 2 9.7163 131.9711 54.6245 -7.0967 22.6302 4.5666
# 3 43.6738 54.6245 190.8089 -33.7115 38.3901 6.4304
# 4 -2.5597 -7.0967 -33.7115 48.8586 -5.0729 14.0922
# 5 9.3435 22.6302 38.3901 -5.0729 56.1895 -12.9343
# 6 9.2638 4.5666 6.4304 14.0922 -12.9343 45.8418
#
#
#
# Elastic Compliance Matrix: (Units=1/GPa)
#
#
# Indices 1 2 3 4 5 6 
#
# 1 0.014054 0.000510 -0.003225 -0.000805 -0.000980 -0.002468
# 2 0.000510 0.008897 -0.002098 0.000016 -0.002561 -0.001423
# 3 -0.003225 -0.002098 0.008766 0.006113 -0.004891 -0.003628
# 4 -0.000805 0.000016 0.006113 0.027167 -0.003935 -0.010158
# 5 -0.000980 -0.002561 -0.004891 -0.003935 0.024083 0.009144
# 6 -0.002468 -0.001423 -0.003628 -0.010158 0.009144 0.028666
#
#
# Mechanical properties :
#
#
# Convention : Reuss Voigt Hill
#
# Bulk Modulus (GPa) = 45.26420 69.08495 57.17458
# Shear Modulus (GPa) = 38.87368 50.02603 44.44985
#
# Velocity S-wave (km/s) = 3.70418 4.20206 3.96095
# Velocity P-wave (km/s) = 5.85416 6.92297 6.41088
#
# Compressibility (1/GPa) = 0.02209251
#
# Stress axis : x y z
#
# Youngs Moduli (GPa) = 71.15572 112.39190 114.07726
#
# Poissons Ratio (x) = -0.05734 0.36785
# Poissons Ratio (y) = -0.03630 0.23932
# Poissons Ratio (z) = 0.22945 0.23579
#
# Static dielectric constant tensor:
#      x y z
#    x 2.292060 -0.198790 -0.018620 
#    y -0.198790 2.554980 0.043210 
#    z -0.018620 0.043210 2.140280 
# 
# From -- ./inp_files/288958.got.cif
#   From: 2010.05.17/outbox.cif.g08.bks.cpg/sg2_145_cif.got.tgz:288958.got - 2010.06.03 11:33:40.
