data_PCOD9064894
_publ_section_title
;
Structure prediction by ZEFSAII (Michael W. Deem and Ramdas Pophale) SiO2 
 PCOD9064894
Probable space group: P -1
;
_chemical_formula_sum "Si O2"
_cell_formula_units_Z 16
_cell_length_a 5.260483
_cell_length_b 5.762535
_cell_length_c 21.614586
_cell_angle_alpha 97.065354
_cell_angle_beta 97.036974
_cell_angle_gamma 78.905915
_cell_volume 634.796593
_symmetry_space_group_name_H-M "P -1"
_symmetry_group_IT_number 2
_symmetry_cell_setting 'triclinic'
loop_
_space_group_symop_operation_xyz
x,y,z
-x,-y,-z
loop_
_atom_site_type_symbol
_atom_site_label
_atom_site_fract_x
_atom_site_fract_y
_atom_site_fract_z
Si Si1 0.850704 0.700034 0.823035
Si Si2 0.473834 0.323348 0.648858
Si Si3 0.243482 0.372845 0.416723
Si Si4 0.787572 0.685168 0.243602
Si Si5 0.176328 0.183225 0.533349
Si Si6 0.040967 0.395830 0.929659
Si Si7 0.063863 0.053092 0.296001
Si Si8 0.547166 0.151315 0.875417
O O1 0.897092 0.861849 0.770231
O O2 0.942860 0.446930 0.782525
O O3 0.012797 0.618774 0.888126
O O4 0.599597 0.870424 0.850815
O O5 0.540985 0.517165 0.609720
O O6 0.297091 0.445138 0.703534
O O7 0.353720 0.135884 0.597448
O O8 0.727566 0.176416 0.683502
O O9 0.331553 0.240062 0.478989
O O10 0.107067 0.228465 0.357942
O O11 0.026293 0.589235 0.441065
O O12 0.574634 0.709791 0.184829
O O13 0.801869 0.945771 0.278440
O O14 0.000000 0.000000 0.500000
O O15 0.321221 0.229521 0.921563
O O16 0.813112 0.243449 0.902949
O O17 0.000000 0.500000 0.000000
#
# Coordination Sequence:
#
# PCOD9064894 Si02
#       8
#     2   2   2   2   2   2   2   2
#     4  11  24  46  75 107 154 202 254 315 387 453
#     4  12  24  43  70 103 141 190 253 323 382 472
#     4  11  26  43  70 100 138 194 251 310 403 456
#     4  11  26  46  72 108 155 197 258 322 390 459
#     4  11  25  48  68  97 143 191 251 318 385 474
#     4  11  27  49  78 118 161 209 264 324 378 459
#     4  12  25  45  67 108 143 196 256 315 392 467
#     4  11  25  48  78 114 156 207 266 316 387 462
#
# _framework density 25.204924999999999
#
# number of rings (size 3 to 8) (size 9 to 14) (size 15 to 20)
#    0.000    0.750    1.250    6.000    1.750   11.000 
#    2.250    0.000    0.000    0.000    0.000    0.000 
#    0.000    0.000    0.000    0.000    0.000    0.000 
#
# Total GULP energy -89366.631868 kJ/mol
# GULP energy per Si atom -5585.414492 kJ/mol
# Density = 2.514756 g / cm^3
# Si number density = 25.204925 Si / 1000 Ang^3
#
#
#
# Elastic Constant Matrix: (Units=GPa)
#
#
# Indices 1 2 3 4 5 6 
#
# 1 86.5132 24.4685 38.5955 34.1781 -14.4245 1.9388
# 2 24.4685 78.8216 53.1708 19.8591 -8.7399 -11.5556
# 3 38.5955 53.1708 191.3207 21.8732 -27.4397 10.6827
# 4 34.1781 19.8591 21.8732 43.9708 -8.7354 -5.1533
# 5 -14.4245 -8.7399 -27.4397 -8.7354 52.8189 10.2501
# 6 1.9388 -11.5556 10.6827 -5.1533 10.2501 39.7359
#
#
#
# Elastic Compliance Matrix: (Units=1/GPa)
#
#
# Indices 1 2 3 4 5 6 
#
# 1 0.018047 -0.001920 -0.001109 -0.012488 0.002637 -0.003441
# 2 -0.001920 0.018379 -0.004935 -0.003960 -0.002016 0.006772
# 3 -0.001109 -0.004935 0.007650 -0.000513 0.003631 -0.004441
# 4 -0.012488 -0.003960 -0.000513 0.035098 0.000702 0.003966
# 5 0.002637 -0.002016 0.003631 0.000702 0.022772 -0.007474
# 6 -0.003441 0.006772 -0.004441 0.003966 -0.007474 0.030940
#
#
# Mechanical properties :
#
#
# Convention : Reuss Voigt Hill
#
# Bulk Modulus (GPa) = 35.52640 65.45831 50.49235
# Shear Modulus (GPa) = 31.60645 43.33317 37.46981
#
# Velocity S-wave (km/s) = 3.54500 4.15086 3.85984
# Velocity P-wave (km/s) = 5.55712 6.99998 6.31986
#
# Compressibility (1/GPa) = 0.02814809
#
# Stress axis : x y z
#
# Youngs Moduli (GPa) = 55.41030 54.41048 130.72713
#
# Poissons Ratio (x) = 0.10445 0.14499
# Poissons Ratio (y) = 0.10637 0.64513
# Poissons Ratio (z) = 0.06145 0.26851
#
# Static dielectric constant tensor:
#      x y z
#    x 2.071270 0.001390 -0.001050 
#    y 0.001390 2.082870 -0.019560 
#    z -0.001050 -0.019560 1.917550 
# 
# From -- ./inp_files/581178.got.cif
#   From: 2010.05.17/outbox.cif.g08.bks.cpg/sg2_291_cif.got.tgz:581178.got - 2010.06.03 11:33:40.
