data_PCOD9064052
_publ_section_title
;
Structure prediction by ZEFSAII (Michael W. Deem and Ramdas Pophale) SiO2 
 PCOD9064052
Probable space group: P -1
;
_chemical_formula_sum "Si O2"
_cell_formula_units_Z 16
_cell_length_a 14.926497
_cell_length_b 12.188534
_cell_length_c 8.943463
_cell_angle_alpha 82.517133
_cell_angle_beta 89.563900
_cell_angle_gamma 151.463884
_cell_volume 744.655333
_symmetry_space_group_name_H-M "P -1"
_symmetry_group_IT_number 2
_symmetry_cell_setting 'triclinic'
loop_
_space_group_symop_operation_xyz
x,y,z
-x,-y,-z
loop_
_atom_site_type_symbol
_atom_site_label
_atom_site_fract_x
_atom_site_fract_y
_atom_site_fract_z
Si Si1 0.013701 0.523148 0.177344
Si Si2 0.141140 0.221647 0.353181
Si Si3 0.474003 0.667048 0.490890
Si Si4 0.360653 0.764643 0.638020
Si Si5 0.550229 0.942355 0.924408
Si Si6 0.356219 0.175207 0.961899
Si Si7 0.108481 0.853496 0.757228
Si Si8 0.422618 0.367286 0.221398
O O1 0.845235 0.403689 0.289632
O O2 0.996195 0.374773 0.243403
O O3 0.221049 0.802548 0.159240
O O4 0.000000 0.500000 0.000000
O O5 0.325372 0.460653 0.405909
O O6 0.227844 0.226634 0.239633
O O7 0.023803 0.191528 0.286654
O O8 0.000000 0.000000 0.500000
O O9 0.372114 0.662536 0.565572
O O10 0.521190 0.627727 0.624357
O O11 0.680764 0.918089 0.366012
O O12 0.441024 0.824758 0.790765
O O13 0.500000 0.000000 0.500000
O O14 0.514474 0.795724 0.055594
O O15 0.500000 0.000000 0.000000
O O16 0.418439 0.364013 0.865349
O O17 0.161686 0.929146 0.918632
O O18 0.381557 0.225920 0.128495
#
# Coordination Sequence:
#
# PCOD9064052 Si02
#       8
#     2   2   2   2   2   2   2   2
#     4  12  26  45  72 108 142 188 245 288 366 443
#     4  12  26  42  72 102 136 190 238 289 365 420
#     4  12  25  49  72 101 149 185 242 304 361 426
#     4  12  27  46  74 108 143 194 240 303 366 422
#     4  12  26  47  75 104 149 192 239 303 368 434
#     4  11  24  45  70 103 142 186 239 295 361 427
#     4  12  25  45  73 104 142 189 241 302 357 440
#     4  11  24  45  73 101 139 190 240 297 357 430
#
# _framework density 21.486450999999999
#
# number of rings (size 3 to 8) (size 9 to 14) (size 15 to 20)
#    0.000    0.250    7.500    1.125    3.500    3.000 
#    0.000    0.000    0.000    0.000    0.000    0.000 
#    0.000    0.000    0.000    0.000    0.000    0.000 
#
# Total GULP energy -89340.954376 kJ/mol
# GULP energy per Si atom -5583.809649 kJ/mol
# Density = 2.143755 g / cm^3
# Si number density = 21.486451 Si / 1000 Ang^3
#
#
#
# Elastic Constant Matrix: (Units=GPa)
#
#
# Indices 1 2 3 4 5 6 
#
# 1 165.9357 20.0064 31.5173 1.1340 0.8802 -5.7850
# 2 20.0064 53.9452 9.3612 -1.3396 0.5767 -4.1082
# 3 31.5173 9.3612 55.6898 4.3160 7.6397 0.2914
# 4 1.1340 -1.3396 4.3160 37.2829 1.9989 -4.1113
# 5 0.8802 0.5767 7.6397 1.9989 48.3999 -1.0754
# 6 -5.7850 -4.1082 0.2914 -4.1113 -1.0754 36.0678
#
#
#
# Elastic Compliance Matrix: (Units=1/GPa)
#
#
# Indices 1 2 3 4 5 6 
#
# 1 0.006991 -0.001870 -0.003734 0.000234 0.000497 0.000980
# 2 -0.001870 0.019841 -0.002411 0.001274 0.000173 0.002130
# 3 -0.003734 -0.002411 0.021103 -0.002402 -0.003167 -0.001412
# 4 0.000234 0.001274 -0.002402 0.027543 -0.000704 0.003321
# 5 0.000497 0.000173 -0.003167 -0.000704 0.021194 0.000677
# 6 0.000980 0.002130 -0.001412 0.003321 0.000677 0.028535
#
#
# Mechanical properties :
#
#
# Convention : Reuss Voigt Hill
#
# Bulk Modulus (GPa) = 31.34121 44.14897 37.74509
# Shear Modulus (GPa) = 32.92282 38.66249 35.79265
#
# Velocity S-wave (km/s) = 3.91866 4.24652 4.08588
# Velocity P-wave (km/s) = 5.92390 6.68101 6.31382
#
# Compressibility (1/GPa) = 0.03190687
#
# Stress axis : x y z
#
# Youngs Moduli (GPa) = 143.04268 50.40055 47.38719
#
# Poissons Ratio (x) = 0.09423 0.17692
# Poissons Ratio (y) = 0.26744 0.11424
# Poissons Ratio (z) = 0.53406 0.12150
#
# Static dielectric constant tensor:
#      x y z
#    x 1.784990 -0.044220 -0.013870 
#    y -0.044220 1.762670 -0.020270 
#    z -0.013870 -0.020270 1.834160 
# 
# From -- ./inp_files/307358.got.cif
#   From: 2010.05.17/outbox.cif.g08.bks.cpg/sg2_154_cif.got.tgz:307358.got - 2010.06.03 11:33:40.
