data_PCOD9064625
_publ_section_title
;
Structure prediction by ZEFSAII (Michael W. Deem and Ramdas Pophale) SiO2 
 PCOD9064625
Probable space group: P -1
;
_chemical_formula_sum "Si O2"
_cell_formula_units_Z 15
_cell_length_a 5.417669
_cell_length_b 18.585452
_cell_length_c 9.462406
_cell_angle_alpha 51.020955
_cell_angle_beta 108.265733
_cell_angle_gamma 129.278600
_cell_volume 567.603725
_symmetry_space_group_name_H-M "P -1"
_symmetry_group_IT_number 2
_symmetry_cell_setting 'triclinic'
loop_
_space_group_symop_operation_xyz
x,y,z
-x,-y,-z
loop_
_atom_site_type_symbol
_atom_site_label
_atom_site_fract_x
_atom_site_fract_y
_atom_site_fract_z
Si Si1 0.044636 0.602097 0.293748
Si Si2 0.679586 0.850484 0.039657
Si Si3 0.642215 0.888776 0.374284
Si Si4 0.500000 0.000000 0.000000
Si Si5 0.483870 0.885594 0.656237
Si Si6 0.064954 0.271901 0.667265
Si Si7 0.755080 0.474312 0.110907
Si Si8 0.804802 0.736222 0.596183
O O1 0.000000 0.500000 0.500000
O O2 0.858122 0.643718 0.294861
O O3 0.940112 0.552888 0.180642
O O4 0.404203 0.717950 0.197385
O O5 0.620666 0.872308 0.842430
O O6 0.632582 0.927262 0.039134
O O7 0.981648 0.843213 0.135139
O O8 0.646008 0.992498 0.189849
O O9 0.670746 0.890296 0.545660
O O10 0.873226 0.855231 0.407154
O O11 0.290640 0.782613 0.389033
O O12 0.113616 0.775573 0.696265
O O13 0.500000 0.000000 0.500000
O O14 0.253360 0.327247 0.485655
O O15 0.519308 0.341467 0.277425
O O16 0.500000 0.500000 0.000000
O O17 0.000000 0.500000 0.000000
#
# Coordination Sequence:
#
# PCOD9064625 Si02
#       8
#     2   2   2   1   2   2   2   2
#     4  12  28  50  80 114 160 210 286 342 414 497
#     4  12  26  46  73 119 156 211 271 344 408 497
#     4  11  24  46  70 108 154 206 263 332 408 493
#     4  12  22  46  72 108 162 198 270 324 414 480
#     4  11  26  45  75 113 160 208 266 334 416 495
#     4  11  24  46  80 113 152 213 270 342 410 491
#     4  12  31  52  80 119 163 220 275 348 424 498
#     4  11  26  49  77 111 160 211 272 340 413 497
#
# _framework density 26.426886
#
# number of rings (size 3 to 8) (size 9 to 14) (size 15 to 20)
#    0.000    0.533    4.000    2.400    9.333    4.267 
#    0.000    0.000    0.000    0.000    0.000    0.000 
#    0.000    0.000    0.000    0.000    0.000    0.000 
#
# Total GULP energy -83781.032887 kJ/mol
# GULP energy per Si atom -5585.402192 kJ/mol
# Density = 2.636674 g / cm^3
# Si number density = 26.426886 Si / 1000 Ang^3
#
#
#
# Elastic Constant Matrix: (Units=GPa)
#
#
# Indices 1 2 3 4 5 6 
#
# 1 98.6365 42.2127 61.0554 17.1362 7.6752 -14.8647
# 2 42.2127 145.1956 53.5280 13.3222 -3.7278 -19.9668
# 3 61.0554 53.5280 183.2990 14.1644 9.0826 -15.8474
# 4 17.1362 13.3222 14.1644 61.6418 -3.7909 -3.8756
# 5 7.6752 -3.7278 9.0826 -3.7909 64.2777 0.1669
# 6 -14.8647 -19.9668 -15.8474 -3.8756 0.1669 54.2417
#
#
#
# Elastic Compliance Matrix: (Units=1/GPa)
#
#
# Indices 1 2 3 4 5 6 
#
# 1 0.014223 -0.002354 -0.003622 -0.002591 -0.001481 0.001793
# 2 -0.002354 0.008489 -0.001520 -0.000648 0.000945 0.001987
# 3 -0.003622 -0.001520 0.007212 -0.000331 -0.000696 0.000534
# 4 -0.002591 -0.000648 -0.000331 0.017253 0.001336 0.000183
# 5 -0.001481 0.000945 -0.000696 0.001336 0.015967 -0.000215
# 6 0.001793 0.001987 0.000534 0.000183 -0.000215 0.019828
#
#
# Mechanical properties :
#
#
# Convention : Reuss Voigt Hill
#
# Bulk Modulus (GPa) = 66.96477 82.30261 74.63369
# Shear Modulus (GPa) = 48.57229 54.05456 51.31343
#
# Velocity S-wave (km/s) = 4.29183 4.52756 4.41127
# Velocity P-wave (km/s) = 7.06784 7.65133 7.36536
#
# Compressibility (1/GPa) = 0.01493322
#
# Stress axis : x y z
#
# Youngs Moduli (GPa) = 70.30972 117.80284 138.65867
#
# Poissons Ratio (x) = 0.27726 0.50217
# Poissons Ratio (y) = 0.16548 0.21076
# Poissons Ratio (z) = 0.25463 0.17906
#
# Static dielectric constant tensor:
#      x y z
#    x 2.081840 -0.041570 -0.000420 
#    y -0.041570 2.047710 -0.046130 
#    z -0.000420 -0.046130 2.022670 
# 
# From -- ./inp_files/138601.got.cif
#   From: 2010.05.17/outbox.cif.g08.bks.cpg/sg2_70_cif.got.tgz:138601.got - 2010.06.03 11:33:40.
