data_PCOD9064174
_publ_section_title
;
Structure prediction by ZEFSAII (Michael W. Deem and Ramdas Pophale) SiO2 
 PCOD9064174
Probable space group: P -1
;
_chemical_formula_sum "Si O2"
_cell_formula_units_Z 12
_cell_length_a 18.004892
_cell_length_b 12.259843
_cell_length_c 20.674410
_cell_angle_alpha 19.986415
_cell_angle_beta 160.151337
_cell_angle_gamma 152.023767
_cell_volume 529.607159
_symmetry_space_group_name_H-M "P -1"
_symmetry_group_IT_number 2
_symmetry_cell_setting 'triclinic'
loop_
_space_group_symop_operation_xyz
x,y,z
-x,-y,-z
loop_
_atom_site_type_symbol
_atom_site_label
_atom_site_fract_x
_atom_site_fract_y
_atom_site_fract_z
Si Si1 0.639880 0.629118 0.643398
Si Si2 0.346125 0.113613 0.752488
Si Si3 0.918225 0.383536 0.904432
Si Si4 0.621641 0.728007 0.894652
Si Si5 0.062136 0.524973 0.799403
Si Si6 0.214907 0.334776 0.796232
O O1 0.490263 0.325219 0.704402
O O2 0.848055 0.600410 0.877620
O O3 0.499344 0.942611 0.369962
O O4 0.749675 0.631890 0.660848
O O5 0.144043 0.337724 0.485846
O O6 0.225491 0.817328 0.785414
O O7 0.500000 0.000000 0.000000
O O8 0.816210 0.040707 0.026812
O O9 0.964616 0.419112 0.847168
O O10 0.428685 0.482688 0.856313
O O11 0.796390 0.739530 0.974163
O O12 0.746596 0.603413 0.130353
O O13 0.000000 0.500000 0.500000
#
# Coordination Sequence:
#
# PCOD9064174 Si02
#       6
#     2   2   2   2   2   2
#     4  11  24  45  71  99 136 185 232 277 340 413
#     4  11  24  46  69 102 137 184 225 283 341 411
#     4  11  24  45  71  99 136 185 232 277 340 413
#     4  11  26  45  71 105 138 177 230 288 343 401
#     4  11  26  45  71 105 138 177 230 288 343 401
#     4  11  24  46  69 102 137 184 225 283 341 411
#
# _framework density 22.658304999999999
#
# number of rings (size 3 to 8) (size 9 to 14) (size 15 to 20)
#    0.000    1.000    3.333    2.000    0.000   14.000 
#    0.000    0.000    0.000    0.000    0.000    0.000 
#    0.000    0.000    0.000    0.000    0.000    0.000 
#
# Total GULP energy -67166.706904 kJ/mol
# GULP energy per Si atom -5597.225575 kJ/mol
# Density = 2.260673 g / cm^3
# Si number density = 22.658305 Si / 1000 Ang^3
#
#
#
# Elastic Constant Matrix: (Units=GPa)
#
#
# Indices 1 2 3 4 5 6 
#
# 1 144.7863 22.8721 96.0295 6.0031 36.4834 15.5568
# 2 22.8721 116.4156 53.1914 17.0507 4.1031 26.9356
# 3 96.0295 53.1914 169.0162 19.8521 25.3154 -3.4489
# 4 6.0031 17.0507 19.8521 47.9695 -9.0484 -10.7527
# 5 36.4834 4.1031 25.3154 -9.0484 41.7814 1.4213
# 6 15.5568 26.9356 -3.4489 -10.7527 1.4213 24.6052
#
#
#
# Elastic Compliance Matrix: (Units=1/GPa)
#
#
# Indices 1 2 3 4 5 6 
#
# 1 0.020065 0.010364 -0.012241 -0.010045 -0.012296 -0.029427
# 2 0.010364 0.023445 -0.011353 -0.015113 -0.006384 -0.040045
# 3 -0.012241 -0.011353 0.016028 0.004838 0.002310 0.024395
# 4 -0.010045 -0.015113 0.004838 0.036820 0.013976 0.038857
# 5 -0.012296 -0.006384 0.002310 0.013976 0.036275 0.019100
# 6 -0.029427 -0.040045 0.024395 0.038857 0.019100 0.122382
#
#
# Mechanical properties :
#
#
# Convention : Reuss Voigt Hill
#
# Bulk Modulus (GPa) = 30.23097 86.04491 58.13794
# Shear Modulus (GPa) = 17.09404 40.07955 28.58679
#
# Velocity S-wave (km/s) = 2.74966 4.21035 3.55582
# Velocity P-wave (km/s) = 4.84272 7.85452 6.52478
#
# Compressibility (1/GPa) = 0.03307866
#
# Stress axis : x y z
#
# Youngs Moduli (GPa) = 49.83802 42.65336 62.39163
#
# Poissons Ratio (x) = -0.44207 0.76373
# Poissons Ratio (y) = -0.51653 0.70831
# Poissons Ratio (z) = 0.61006 0.48423
#
# Static dielectric constant tensor:
#      x y z
#    x 1.843760 -0.013770 0.007920 
#    y -0.013770 1.849800 -0.016760 
#    z 0.007920 -0.016760 1.839540 
# 
# From -- ./inp_files/390889.got.cif
#   From: 2010.05.17/outbox.cif.g08.bks.cpg/sg2_196_cif.got.tgz:390889.got - 2010.06.03 11:33:40.
