data_PCOD9064073
_publ_section_title
;
Structure prediction by ZEFSAII (Michael W. Deem and Ramdas Pophale) SiO2 
 PCOD9064073
Probable space group: P -1
;
_chemical_formula_sum "Si O2"
_cell_formula_units_Z 16
_cell_length_a 11.339078
_cell_length_b 11.768072
_cell_length_c 5.932426
_cell_angle_alpha 62.230835
_cell_angle_beta 104.660683
_cell_angle_gamma 104.708241
_cell_volume 669.038904
_symmetry_space_group_name_H-M "P -1"
_symmetry_group_IT_number 2
_symmetry_cell_setting 'triclinic'
loop_
_space_group_symop_operation_xyz
x,y,z
-x,-y,-z
loop_
_atom_site_type_symbol
_atom_site_label
_atom_site_fract_x
_atom_site_fract_y
_atom_site_fract_z
Si Si1 0.720874 0.574923 0.569836
Si Si2 0.743699 0.214683 0.437197
Si Si3 0.429470 0.983235 0.252534
Si Si4 0.817162 0.014251 0.373255
Si Si5 0.616940 0.824939 0.233310
Si Si6 0.636401 0.464828 0.124021
Si Si7 0.982289 0.644634 0.439452
Si Si8 0.044059 0.113340 0.096039
O O1 0.627209 0.680168 0.430456
O O2 0.691788 0.513573 0.356576
O O3 0.867437 0.629369 0.571005
O O4 0.701376 0.507787 0.870710
O O5 0.700279 0.114340 0.709794
O O6 0.736888 0.123020 0.301231
O O7 0.649282 0.314372 0.282777
O O8 0.883611 0.287020 0.469497
O O9 0.516067 0.899799 0.230449
O O10 0.500000 0.000000 0.500000
O O11 0.406887 0.131580 0.067621
O O12 0.940546 0.093744 0.257872
O O13 0.749579 0.907647 0.274014
O O14 0.840725 0.930641 0.681373
O O15 0.500000 0.500000 0.000000
O O16 0.000000 0.500000 0.500000
O O17 0.945927 0.744735 0.139505
O O18 0.000000 0.000000 0.000000
#
# Coordination Sequence:
#
# PCOD9064073 Si02
#       8
#     2   2   2   2   2   2   2   2
#     4  12  30  50  81 117 160 211 265 331 399 485
#     4  12  26  47  78 108 157 202 268 326 406 479
#     4  11  25  47  72 110 148 198 261 336 397 467
#     4  11  25  41  74 111 144 206 253 340 390 483
#     4  11  26  43  75 110 151 194 265 330 406 469
#     4  12  30  54  82 114 158 216 269 328 400 483
#     4  12  27  48  75 114 160 214 261 333 400 489
#     4  11  24  45  70 106 154 199 267 315 399 473
#
# _framework density 23.914904
#
# number of rings (size 3 to 8) (size 9 to 14) (size 15 to 20)
#    0.000    0.500    3.750    2.625   10.500    1.500 
#    0.000    0.000    0.000    0.000    0.000    0.000 
#    0.000    0.000    0.000    0.000    0.000    0.000 
#
# Total GULP energy -89213.676945 kJ/mol
# GULP energy per Si atom -5575.854809 kJ/mol
# Density = 2.386047 g / cm^3
# Si number density = 23.914904 Si / 1000 Ang^3
#
#
#
# Elastic Constant Matrix: (Units=GPa)
#
#
# Indices 1 2 3 4 5 6 
#
# 1 91.7365 -11.8155 -17.9722 -8.5942 -7.0789 -5.7548
# 2 -11.8155 71.4447 15.2934 -17.7940 14.5359 -17.1862
# 3 -17.9722 15.2934 88.4871 -17.7877 9.9183 -2.3919
# 4 -8.5942 -17.7940 -17.7877 37.6313 7.8570 14.7016
# 5 -7.0789 14.5359 9.9183 7.8570 37.1606 -2.2173
# 6 -5.7548 -17.1862 -2.3919 14.7016 -2.2173 46.4439
#
#
#
# Elastic Compliance Matrix: (Units=1/GPa)
#
#
# Indices 1 2 3 4 5 6 
#
# 1 0.012482 0.003219 0.003248 0.005676 -0.000885 0.001066
# 2 0.003219 0.019980 0.000547 0.010872 -0.009412 0.003930
# 3 0.003248 0.000547 0.014407 0.009773 -0.005627 -0.002015
# 4 0.005676 0.010872 0.009773 0.044712 -0.015811 -0.009679
# 5 -0.000885 -0.009412 -0.005627 -0.015811 0.035436 0.002814
# 6 0.001066 0.003930 -0.002015 -0.009679 0.002814 0.026212
#
#
# Mechanical properties :
#
#
# Convention : Reuss Voigt Hill
#
# Bulk Modulus (GPa) = 16.42086 24.74218 20.58152
# Shear Modulus (GPa) = 31.34790 41.99131 36.66961
#
# Velocity S-wave (km/s) = 3.62444 4.19485 3.92003
# Velocity P-wave (km/s) = 4.93930 5.81642 5.39571
#
# Compressibility (1/GPa) = 0.06089814
#
# Stress axis : x y z
#
# Youngs Moduli (GPa) = 80.11468 50.04973 69.41112
#
# Poissons Ratio (x) = -0.16113 -0.22544
# Poissons Ratio (y) = -0.25792 -0.03799
# Poissons Ratio (z) = -0.26020 -0.02739
#
# Static dielectric constant tensor:
#      x y z
#    x 2.152670 -0.025030 -0.285560 
#    y -0.025030 1.928910 0.102710 
#    z -0.285560 0.102710 2.251150 
# 
# From -- ./inp_files/68665.got.cif
#   From: 2010.05.17/outbox.cif.g08.bks.cpg/sg2_35_cif.got.tgz:68665.got - 2010.06.03 11:33:40.
