data_PCOD9064431
_publ_section_title
;
Structure prediction by ZEFSAII (Michael W. Deem and Ramdas Pophale) SiO2 
 PCOD9064431
Probable space group: P -1
;
_chemical_formula_sum "Si O2"
_cell_formula_units_Z 16
_cell_length_a 21.127662
_cell_length_b 12.600994
_cell_length_c 9.503807
_cell_angle_alpha 139.130040
_cell_angle_beta 145.494961
_cell_angle_gamma 27.525609
_cell_volume 659.267438
_symmetry_space_group_name_H-M "P -1"
_symmetry_group_IT_number 2
_symmetry_cell_setting 'triclinic'
loop_
_space_group_symop_operation_xyz
x,y,z
-x,-y,-z
loop_
_atom_site_type_symbol
_atom_site_label
_atom_site_fract_x
_atom_site_fract_y
_atom_site_fract_z
Si Si1 0.111722 0.268716 0.878536
Si Si2 0.142116 0.368579 0.739459
Si Si3 0.680894 0.800599 0.602484
Si Si4 0.190499 0.815042 0.159903
Si Si5 0.353195 0.508355 0.891010
Si Si6 0.657059 0.011638 0.484756
Si Si7 0.280996 0.783925 0.778156
Si Si8 0.704341 0.485304 0.693245
O O1 0.097897 0.295336 0.713993
O O2 0.140128 0.055871 0.765418
O O3 0.266420 0.200591 0.147378
O O4 0.000000 0.500000 0.000000
O O5 0.000000 0.500000 0.500000
O O6 0.299568 0.161772 0.731635
O O7 0.175490 0.504622 0.014530
O O8 0.713474 0.585382 0.396585
O O9 0.500000 0.000000 0.500000
O O10 0.712730 0.885118 0.611947
O O11 0.239316 0.940915 0.321907
O O12 0.276139 0.684048 0.331740
O O13 0.270982 0.608405 0.990425
O O14 0.000000 0.000000 0.000000
O O15 0.302623 0.713974 0.909619
O O16 0.546485 0.320513 0.059543
O O17 0.472975 0.257853 0.389505
O O18 0.254282 0.643854 0.506490
#
# Coordination Sequence:
#
# PCOD9064431 Si02
#       8
#     2   2   2   2   2   2   2   2
#     4  12  27  46  74 111 152 202 255 319 385 463
#     4  12  27  48  71 108 158 206 260 315 390 460
#     4  12  24  45  77 111 150 198 257 319 389 456
#     4  12  27  46  72 108 156 207 258 317 392 458
#     4  11  24  45  75 110 149 200 255 318 386 449
#     4  12  25  46  75 110 155 202 263 323 379 467
#     4  11  24  46  76 110 150 197 261 320 378 459
#     4  12  26  45  74 111 146 207 262 319 387 456
#
# _framework density 24.269362000000001
#
# number of rings (size 3 to 8) (size 9 to 14) (size 15 to 20)
#    0.000    0.250    2.500    6.750    1.750    3.000 
#    0.000    1.875    0.000    0.000    0.000    0.000 
#    0.000    0.000    0.000    0.000    0.000    0.000 
#
# Total GULP energy -89473.248547 kJ/mol
# GULP energy per Si atom -5592.078034 kJ/mol
# Density = 2.421412 g / cm^3
# Si number density = 24.269362 Si / 1000 Ang^3
#
#
#
# Elastic Constant Matrix: (Units=GPa)
#
#
# Indices 1 2 3 4 5 6 
#
# 1 96.9978 33.2241 7.3023 -15.7086 -16.2789 22.0611
# 2 33.2241 123.3656 22.2044 -5.0289 -7.2996 8.5272
# 3 7.3023 22.2044 103.4968 0.1627 -5.7200 11.6041
# 4 -15.7086 -5.0289 0.1627 47.7357 6.1392 -1.5944
# 5 -16.2789 -7.2996 -5.7200 6.1392 49.2163 2.3052
# 6 22.0611 8.5272 11.6041 -1.5944 2.3052 37.5367
#
#
#
# Elastic Compliance Matrix: (Units=1/GPa)
#
#
# Indices 1 2 3 4 5 6 
#
# 1 0.014474 -0.003071 0.000788 0.003604 0.004357 -0.008168
# 2 -0.003071 0.009244 -0.001786 -0.000041 0.000141 0.000247
# 3 0.000788 -0.001786 0.010447 -0.000258 0.001401 -0.003384
# 4 0.003604 -0.000041 -0.000258 0.022302 -0.001580 -0.000985
# 5 0.004357 0.000141 0.001401 -0.001580 0.022349 -0.004465
# 6 -0.008168 0.000247 -0.003384 -0.000985 -0.004465 0.032663
#
#
# Mechanical properties :
#
#
# Convention : Reuss Voigt Hill
#
# Bulk Modulus (GPa) = 38.42007 49.92466 44.17236
# Shear Modulus (GPa) = 38.97313 44.30635 41.63974
#
# Velocity S-wave (km/s) = 4.01166 4.27735 4.14663
# Velocity P-wave (km/s) = 6.10925 6.70895 6.41611
#
# Compressibility (1/GPa) = 0.02602807
#
# Stress axis : x y z
#
# Youngs Moduli (GPa) = 69.08738 108.17605 95.72125
#
# Poissons Ratio (x) = 0.33219 -0.07547
# Poissons Ratio (y) = 0.21216 0.17100
# Poissons Ratio (z) = -0.05447 0.19324
#
# Static dielectric constant tensor:
#      x y z
#    x 1.961520 0.013870 0.045400 
#    y 0.013870 1.973260 0.074880 
#    z 0.045400 0.074880 1.896850 
# 
# From -- ./inp_files/346394.got.cif
#   From: 2010.05.17/outbox.cif.g08.bks.cpg/sg2_174_cif.got.tgz:346394.got - 2010.06.03 11:33:40.
