data_PCOD9064136
_publ_section_title
;
Structure prediction by ZEFSAII (Michael W. Deem and Ramdas Pophale) SiO2 
 PCOD9064136
Probable space group: P -1
;
_chemical_formula_sum "Si O2"
_cell_formula_units_Z 16
_cell_length_a 9.289445
_cell_length_b 9.338589
_cell_length_c 15.878873
_cell_angle_alpha 36.037313
_cell_angle_beta 108.126035
_cell_angle_gamma 108.425240
_cell_volume 765.040587
_symmetry_space_group_name_H-M "P -1"
_symmetry_group_IT_number 2
_symmetry_cell_setting 'triclinic'
loop_
_space_group_symop_operation_xyz
x,y,z
-x,-y,-z
loop_
_atom_site_type_symbol
_atom_site_label
_atom_site_fract_x
_atom_site_fract_y
_atom_site_fract_z
Si Si1 0.116310 0.731380 0.435688
Si Si2 0.855108 0.035576 0.850793
Si Si3 0.583439 0.244119 0.938300
Si Si4 0.920786 0.348970 0.877690
Si Si5 0.590765 0.349932 0.368034
Si Si6 0.472304 0.216339 0.105360
Si Si7 0.049199 0.918011 0.639256
Si Si8 0.608774 0.970889 0.399489
O O1 0.163308 0.858229 0.295448
O O2 0.252222 0.629857 0.561313
O O3 0.000000 0.500000 0.500000
O O4 0.039273 0.932769 0.380472
O O5 0.900752 0.253187 0.822835
O O6 0.693973 0.876968 0.917891
O O7 0.982868 0.849145 0.967013
O O8 0.751051 0.328699 0.893881
O O9 0.470100 0.440476 0.798322
O O10 0.591124 0.195456 0.062093
O O11 0.500000 0.000000 0.000000
O O12 0.004629 0.623657 0.774887
O O13 0.614694 0.146895 0.398287
O O14 0.461569 0.279561 0.449867
O O15 0.497498 0.060824 0.266610
O O16 0.500000 0.500000 0.000000
O O17 0.229601 0.003844 0.629611
O O18 0.000000 0.000000 0.500000
#
# Coordination Sequence:
#
# PCOD9064136 Si02
#       8
#     2   2   2   2   2   2   2   2
#     4  12  28  46  74 106 144 185 238 301 359 423
#     4  11  26  49  69 106 146 190 235 297 360 414
#     4  12  27  45  71 107 141 187 237 293 356 423
#     4  11  27  47  73 101 148 188 236 294 357 431
#     4  11  25  47  73  99 146 187 233 292 363 419
#     4  12  24  43  71 105 143 186 239 287 353 421
#     4  12  25  45  73 104 140 189 241 285 358 432
#     4  11  24  45  71 105 139 188 236 293 346 425
#
# _framework density 20.913924000000002
#
# number of rings (size 3 to 8) (size 9 to 14) (size 15 to 20)
#    0.000    0.500    5.000    2.250    7.000    0.500 
#    0.000    1.875    0.000    0.000    0.000    0.000 
#    0.000    0.000    0.000    0.000    0.000    0.000 
#
# Total GULP energy -89373.048197 kJ/mol
# GULP energy per Si atom -5585.815512 kJ/mol
# Density = 2.086632 g / cm^3
# Si number density = 20.913924 Si / 1000 Ang^3
#
#
#
# Elastic Constant Matrix: (Units=GPa)
#
#
# Indices 1 2 3 4 5 6 
#
# 1 107.3173 24.8194 13.9515 1.1857 -3.0079 17.1297
# 2 24.8194 83.3612 13.6631 3.5436 -4.4374 6.3875
# 3 13.9515 13.6631 64.3806 19.4610 -10.2880 8.5791
# 4 1.1857 3.5436 19.4610 42.0059 3.8110 -1.6871
# 5 -3.0079 -4.4374 -10.2880 3.8110 34.2349 11.1694
# 6 17.1297 6.3875 8.5791 -1.6871 11.1694 28.5266
#
#
#
# Elastic Compliance Matrix: (Units=1/GPa)
#
#
# Indices 1 2 3 4 5 6 
#
# 1 0.011195 -0.002548 -0.000271 -0.000541 0.003007 -0.007280
# 2 -0.002548 0.013251 -0.001651 -0.000487 0.001568 -0.001583
# 3 -0.000271 -0.001651 0.023062 -0.012088 0.011878 -0.011769
# 4 -0.000541 -0.000487 -0.012088 0.030809 -0.010427 0.009973
# 5 0.003007 0.001568 0.011878 -0.010427 0.041820 -0.022720
# 6 -0.007280 -0.001583 -0.011769 0.009973 -0.022720 0.052806
#
#
# Mechanical properties :
#
#
# Convention : Reuss Voigt Hill
#
# Bulk Modulus (GPa) = 25.92897 39.99190 32.96043
# Shear Modulus (GPa) = 25.67540 34.46183 30.06861
#
# Velocity S-wave (km/s) = 3.50761 4.06371 3.79586
# Velocity P-wave (km/s) = 5.36930 6.41731 5.91656
#
# Compressibility (1/GPa) = 0.03856690
#
# Stress axis : x y z
#
# Youngs Moduli (GPa) = 89.32670 75.46779 43.36128
#
# Poissons Ratio (x) = 0.19227 0.01176
# Poissons Ratio (y) = 0.22758 0.07160
# Poissons Ratio (z) = 0.02423 0.12462
#
# Static dielectric constant tensor:
#      x y z
#    x 1.938230 0.045920 0.000600 
#    y 0.045920 1.760100 0.000930 
#    z 0.000600 0.000930 1.710850 
# 
# From -- ./inp_files/263046.got.cif
#   From: 2010.05.17/outbox.cif.g08.bks.cpg/sg2_132_cif.got.tgz:263046.got - 2010.06.03 11:33:40.
