data_PCOD9064425
_publ_section_title
;
Structure prediction by ZEFSAII (Michael W. Deem and Ramdas Pophale) SiO2 
 PCOD9064425
Probable space group: P -1
;
_chemical_formula_sum "Si O2"
_cell_formula_units_Z 16
_cell_length_a 10.313007
_cell_length_b 8.240472
_cell_length_c 14.204629
_cell_angle_alpha 137.808223
_cell_angle_beta 119.584818
_cell_angle_gamma 74.482181
_cell_volume 695.001391
_symmetry_space_group_name_H-M "P -1"
_symmetry_group_IT_number 2
_symmetry_cell_setting 'triclinic'
loop_
_space_group_symop_operation_xyz
x,y,z
-x,-y,-z
loop_
_atom_site_type_symbol
_atom_site_label
_atom_site_fract_x
_atom_site_fract_y
_atom_site_fract_z
Si Si1 0.674958 0.255135 0.943707
Si Si2 0.947768 0.881679 0.672101
Si Si3 0.490821 0.531882 0.851267
Si Si4 0.659213 0.939458 0.498184
Si Si5 0.748146 0.419606 0.645766
Si Si6 0.466556 0.250735 0.235669
Si Si7 0.993971 0.684871 0.989752
Si Si8 0.180706 0.660939 0.564382
O O1 0.604130 0.378368 0.880708
O O2 0.853965 0.304275 0.012499
O O3 0.622458 0.968689 0.826833
O O4 0.605358 0.367255 0.058571
O O5 0.797159 0.993315 0.643114
O O6 0.878463 0.594268 0.514755
O O7 0.087560 0.878072 0.648830
O O8 0.012465 0.042507 0.854645
O O9 0.375789 0.334303 0.667444
O O10 0.559440 0.726368 0.877859
O O11 0.500000 0.000000 0.500000
O O12 0.715233 0.128168 0.517620
O O13 0.588632 0.511245 0.637700
O O14 0.834198 0.451096 0.593212
O O15 0.851257 0.567723 0.826121
O O16 0.643385 0.249261 0.312739
O O17 0.000000 0.500000 0.000000
#
# Coordination Sequence:
#
# PCOD9064425 Si02
#       8
#     2   2   2   2   2   2   2   2
#     4  11  27  45  72 111 148 190 248 299 369 441
#     4  11  25  46  71 100 146 191 235 295 370 429
#     4  11  24  45  75 108 144 193 242 303 365 437
#     4  12  22  45  73  99 137 189 242 291 356 431
#     4  12  26  43  75 106 138 192 243 298 366 433
#     4  12  24  48  74 107 149 191 246 305 366 435
#     4  12  26  47  70 102 150 191 239 303 368 439
#     4  11  26  45  70 108 142 184 247 303 355 436
#
# _framework density 23.021536000000001
#
# number of rings (size 3 to 8) (size 9 to 14) (size 15 to 20)
#    0.000    0.500    3.750    3.750    1.750    7.500 
#    0.000    0.000    0.000    0.000    0.000    0.000 
#    0.000    0.000    0.000    0.000    0.000    0.000 
#
# Total GULP energy -89238.927617 kJ/mol
# GULP energy per Si atom -5577.432976 kJ/mol
# Density = 2.296914 g / cm^3
# Si number density = 23.021536 Si / 1000 Ang^3
#
#
#
# Elastic Constant Matrix: (Units=GPa)
#
#
# Indices 1 2 3 4 5 6 
#
# 1 114.8216 23.4285 8.5428 -11.5480 4.1420 -13.2245
# 2 23.4285 64.5855 7.9542 -7.5243 10.8709 -3.1964
# 3 8.5428 7.9542 28.2671 -16.7330 -3.0599 -11.2769
# 4 -11.5480 -7.5243 -16.7330 36.6717 7.9296 3.0926
# 5 4.1420 10.8709 -3.0599 7.9296 36.6813 9.6550
# 6 -13.2245 -3.1964 -11.2769 3.0926 9.6550 14.2373
#
#
#
# Elastic Compliance Matrix: (Units=1/GPa)
#
#
# Indices 1 2 3 4 5 6 
#
# 1 0.011836 -0.002406 0.008534 0.006874 -0.006738 0.020290
# 2 -0.002406 0.018447 -0.000791 0.003830 -0.007556 0.005573
# 3 0.008534 -0.000791 0.089285 0.041377 -0.024971 0.086415
# 4 0.006874 0.003830 0.041377 0.049917 -0.020608 0.043151
# 5 -0.006738 -0.007556 -0.024971 -0.020608 0.047177 -0.055250
# 6 0.020290 0.005573 0.086415 0.043151 -0.055250 0.186877
#
#
# Mechanical properties :
#
#
# Convention : Reuss Voigt Hill
#
# Bulk Modulus (GPa) = 7.67799 31.94725 19.81262
# Shear Modulus (GPa) = 11.46054 28.70131 20.08092
#
# Velocity S-wave (km/s) = 2.23360 3.53472 2.95662
# Velocity P-wave (km/s) = 3.16139 5.52867 4.50336
#
# Compressibility (1/GPa) = 0.13024245
#
# Stress axis : x y z
#
# Youngs Moduli (GPa) = 84.48559 54.20836 11.20004
#
# Poissons Ratio (x) = 0.13040 -0.09558
# Poissons Ratio (y) = 0.20323 0.00886
# Poissons Ratio (z) = -0.72097 0.04290
#
# Static dielectric constant tensor:
#      x y z
#    x 1.910110 0.021070 -0.016320 
#    y 0.021070 2.025480 0.013250 
#    z -0.016320 0.013250 1.858660 
# 
# From -- ./inp_files/495925.got.cif
#   From: 2010.05.17/outbox.cif.g08.bks.cpg/sg2_248_cif.got.tgz:495925.got - 2010.06.03 11:33:40.
