data_PCOD9064140
_publ_section_title
;
Structure prediction by ZEFSAII (Michael W. Deem and Ramdas Pophale) SiO2 
 PCOD9064140
Probable space group: P -1
;
_chemical_formula_sum "Si O2"
_cell_formula_units_Z 12
_cell_length_a 8.547025
_cell_length_b 13.052869
_cell_length_c 15.874633
_cell_angle_alpha 23.893350
_cell_angle_beta 48.836905
_cell_angle_gamma 61.291396
_cell_volume 495.355433
_symmetry_space_group_name_H-M "P -1"
_symmetry_group_IT_number 2
_symmetry_cell_setting 'triclinic'
loop_
_space_group_symop_operation_xyz
x,y,z
-x,-y,-z
loop_
_atom_site_type_symbol
_atom_site_label
_atom_site_fract_x
_atom_site_fract_y
_atom_site_fract_z
Si Si1 0.558432 0.298290 0.295515
Si Si2 0.963244 0.213797 0.791571
Si Si3 0.396646 0.695862 0.228689
Si Si4 0.829441 0.921817 0.699541
Si Si5 0.939170 0.001523 0.254976
Si Si6 0.228666 0.569328 0.713482
O O1 0.748553 0.335198 0.269849
O O2 0.500000 0.000000 0.500000
O O3 0.315014 0.220860 0.482470
O O4 0.653509 0.601906 0.991637
O O5 0.735050 0.268719 0.835691
O O6 0.189598 0.488347 0.513186
O O7 0.962924 0.100702 0.782213
O O8 0.000000 0.000000 0.000000
O O9 0.588044 0.570009 0.254517
O O10 0.500000 0.000000 0.000000
O O11 0.949188 0.964888 0.716928
O O12 0.725399 0.155231 0.561081
O O13 0.000000 0.000000 0.500000
O O14 0.985433 0.318606 0.975473
#
# Coordination Sequence:
#
# PCOD9064140 Si02
#       6
#     2   2   2   2   2   2
#     4  11  24  45  73 104 148 185 243 303 358 435
#     4  11  26  47  72 104 144 192 246 300 360 426
#     4  11  24  49  69 105 147 188 248 303 350 435
#     4  11  26  46  74 109 145 191 241 297 370 433
#     4  11  24  47  68 106 146 186 241 301 354 434
#     4  11  24  45  71 105 145 193 238 298 366 426
#
# _framework density 24.225031000000001
#
# number of rings (size 3 to 8) (size 9 to 14) (size 15 to 20)
#    0.000    1.000    3.333    2.000    0.000   12.667 
#    0.000    0.000    0.000    0.000    0.000    0.000 
#    0.000    0.000    0.000    0.000    0.000    0.000 
#
# Total GULP energy -66929.397223 kJ/mol
# GULP energy per Si atom -5577.449769 kJ/mol
# Density = 2.416989 g / cm^3
# Si number density = 24.225031 Si / 1000 Ang^3
#
#
#
# Elastic Constant Matrix: (Units=GPa)
#
#
# Indices 1 2 3 4 5 6 
#
# 1 65.1788 34.0352 61.6705 -3.4006 8.1900 -18.8181
# 2 34.0352 110.6378 46.3697 -20.7243 2.1264 -2.9360
# 3 61.6705 46.3697 249.4925 -28.3332 -10.9678 -11.4706
# 4 -3.4006 -20.7243 -28.3332 45.7840 -1.6570 -1.5970
# 5 8.1900 2.1264 -10.9678 -1.6570 53.3698 -12.9382
# 6 -18.8181 -2.9360 -11.4706 -1.5970 -12.9382 36.2082
#
#
#
# Elastic Compliance Matrix: (Units=1/GPa)
#
#
# Indices 1 2 3 4 5 6 
#
# 1 0.027250 -0.006459 -0.005621 -0.004097 -0.002601 0.010748
# 2 -0.006459 0.011927 -0.000180 0.004734 0.000091 -0.002205
# 3 -0.005621 -0.000180 0.005882 0.003213 0.002138 -0.000167
# 4 -0.004097 0.004734 0.003213 0.025789 0.002190 0.001192
# 5 -0.002601 0.000091 0.002138 0.002190 0.021351 0.007059
# 6 0.010748 -0.002205 -0.000167 0.001192 0.007059 0.035547
#
#
# Mechanical properties :
#
#
# Convention : Reuss Voigt Hill
#
# Bulk Modulus (GPa) = 48.68711 78.82889 63.75800
# Shear Modulus (GPa) = 31.42421 45.95465 38.68943
#
# Velocity S-wave (km/s) = 3.60554 4.36017 4.00069
# Velocity P-wave (km/s) = 6.12166 7.61308 6.90774
#
# Compressibility (1/GPa) = 0.02053932
#
# Stress axis : x y z
#
# Youngs Moduli (GPa) = 36.69790 83.84001 170.00796
#
# Poissons Ratio (x) = 0.54155 0.95556
# Poissons Ratio (y) = 0.23704 0.03058
# Poissons Ratio (z) = 0.20627 0.01508
#
# Static dielectric constant tensor:
#      x y z
#    x 1.959450 -0.074180 0.020610 
#    y -0.074180 2.157160 -0.013910 
#    z 0.020610 -0.013910 1.952280 
# 
# From -- ./inp_files/560243.got.cif
#   From: 2010.05.17/outbox.cif.g08.bks.cpg/sg2_281_cif.got.tgz:560243.got - 2010.06.03 11:33:40.
