data_PCOD9064605
_publ_section_title
;
Structure prediction by ZEFSAII (Michael W. Deem and Ramdas Pophale) SiO2 
 PCOD9064605
Probable space group: P -1
;
_chemical_formula_sum "Si O2"
_cell_formula_units_Z 14
_cell_length_a 9.742865
_cell_length_b 13.802426
_cell_length_c 19.996007
_cell_angle_alpha 151.918045
_cell_angle_beta 136.985093
_cell_angle_gamma 33.613330
_cell_volume 700.655706
_symmetry_space_group_name_H-M "P -1"
_symmetry_group_IT_number 2
_symmetry_cell_setting 'triclinic'
loop_
_space_group_symop_operation_xyz
x,y,z
-x,-y,-z
loop_
_atom_site_type_symbol
_atom_site_label
_atom_site_fract_x
_atom_site_fract_y
_atom_site_fract_z
Si Si1 0.551452 0.708701 0.137854
Si Si2 0.653059 0.510046 0.388890
Si Si3 0.519777 0.837520 0.844506
Si Si4 0.822378 0.744033 0.130811
Si Si5 0.013018 0.457408 0.710069
Si Si6 0.890153 0.715544 0.685512
Si Si7 0.096498 0.951087 0.428505
O O1 0.699344 0.681104 0.106623
O O2 0.724125 0.672209 0.239036
O O3 0.295757 0.985945 0.211887
O O4 0.500000 0.500000 0.000000
O O5 0.609387 0.302206 0.269570
O O6 0.743423 0.601680 0.537310
O O7 0.392017 0.749064 0.413285
O O8 0.864266 0.400618 0.341535
O O9 0.799448 0.619613 0.788149
O O10 0.385350 0.029209 0.851738
O O11 0.500000 0.000000 0.000000
O O12 0.975831 0.837017 0.275805
O O13 0.000000 0.500000 0.000000
O O14 0.962739 0.640366 0.742477
O O15 0.011175 0.225677 0.540312
O O16 0.000000 0.000000 0.500000
#
# Coordination Sequence:
#
# PCOD9064605 Si02
#       7
#     2   2   2   2   2   2   2
#     4  12  27  47  69 101 146 185 234 290 359 425
#     4  11  24  46  70 103 142 182 235 294 350 424
#     4  12  26  44  73 105 144 182 243 293 353 420
#     4  12  26  46  71 107 142 185 238 299 355 414
#     4  12  25  46  76 103 136 190 238 292 355 421
#     4  11  26  47  69 102 143 186 234 288 358 426
#     4  12  22  44  78 102 138 181 242 293 348 420
#
# _framework density 19.981282
#
# number of rings (size 3 to 8) (size 9 to 14) (size 15 to 20)
#    0.000    0.286    5.714    2.571    4.000    4.571 
#    0.000    0.000    0.000    0.000    0.000    0.000 
#    0.000    0.000    0.000    0.000    0.000    0.000 
#
# Total GULP energy -78366.953727 kJ/mol
# GULP energy per Si atom -5597.639552 kJ/mol
# Density = 1.993580 g / cm^3
# Si number density = 19.981282 Si / 1000 Ang^3
#
#
#
# Elastic Constant Matrix: (Units=GPa)
#
#
# Indices 1 2 3 4 5 6 
#
# 1 81.0902 60.4348 57.0865 5.0186 4.1831 -5.0906
# 2 60.4348 148.0765 55.4238 14.2705 -2.5744 2.4981
# 3 57.0865 55.4238 142.1608 17.0271 3.6407 4.4231
# 4 5.0186 14.2705 17.0271 34.5448 4.5018 -7.2632
# 5 4.1831 -2.5744 3.6407 4.5018 34.1547 9.5200
# 6 -5.0906 2.4981 4.4231 -7.2632 9.5200 33.8721
#
#
#
# Elastic Compliance Matrix: (Units=1/GPa)
#
#
# Indices 1 2 3 4 5 6 
#
# 1 0.023623 -0.007704 -0.007269 0.005728 -0.005651 0.007884
# 2 -0.007704 0.010619 -0.000509 -0.004247 0.003401 -0.003741
# 3 -0.007269 -0.000509 0.010850 -0.005112 0.001480 -0.003984
# 4 0.005728 -0.004247 -0.005112 0.036023 -0.008562 0.011972
# 5 -0.005651 0.003401 0.001480 -0.008562 0.034796 -0.012909
# 6 0.007884 -0.003741 -0.003984 0.011972 -0.012909 0.037699
#
#
# Mechanical properties :
#
#
# Convention : Reuss Voigt Hill
#
# Bulk Modulus (GPa) = 70.77661 79.69086 75.23374
# Shear Modulus (GPa) = 26.41557 33.73983 30.07770
#
# Velocity S-wave (km/s) = 3.63990 4.11368 3.88402
# Velocity P-wave (km/s) = 7.29133 7.90775 7.60579
#
# Compressibility (1/GPa) = 0.01412896
#
# Stress axis : x y z
#
# Youngs Moduli (GPa) = 42.33209 94.16863 92.16593
#
# Poissons Ratio (x) = 0.72544 0.66997
# Poissons Ratio (y) = 0.32611 0.04688
# Poissons Ratio (z) = 0.30772 0.04790
#
# Static dielectric constant tensor:
#      x y z
#    x 1.610980 -0.009840 0.003400 
#    y -0.009840 1.698430 0.002530 
#    z 0.003400 0.002530 1.700170 
# 
# From -- ./inp_files/262224.got.cif
#   From: 2010.05.17/outbox.cif.g08.bks.cpg/sg2_132_cif.got.tgz:262224.got - 2010.06.03 11:33:40.
