data_PCOD9064460
_publ_section_title
;
Structure prediction by ZEFSAII (Michael W. Deem and Ramdas Pophale) SiO2 
 PCOD9064460
Probable space group: P -1
;
_chemical_formula_sum "Si O2"
_cell_formula_units_Z 10
_cell_length_a 8.925702
_cell_length_b 8.141077
_cell_length_c 9.576835
_cell_angle_alpha 90.609281
_cell_angle_beta 134.516425
_cell_angle_gamma 114.273894
_cell_volume 401.693647
_symmetry_space_group_name_H-M "P -1"
_symmetry_group_IT_number 2
_symmetry_cell_setting 'triclinic'
loop_
_space_group_symop_operation_xyz
x,y,z
-x,-y,-z
loop_
_atom_site_type_symbol
_atom_site_label
_atom_site_fract_x
_atom_site_fract_y
_atom_site_fract_z
Si Si1 0.135312 0.405128 0.660682
Si Si2 0.651827 0.168940 0.483763
Si Si3 0.788526 0.570828 0.717999
Si Si4 0.649637 0.066580 0.951700
Si Si5 0.590787 0.404775 0.869170
O O1 0.321646 0.380740 0.686744
O O2 0.000000 0.500000 0.500000
O O3 0.897419 0.194997 0.570293
O O4 0.310207 0.539986 0.906911
O O5 0.777252 0.386808 0.638479
O O6 0.500000 0.000000 0.500000
O O7 0.455122 0.117665 0.226269
O O8 0.500000 0.500000 0.500000
O O9 0.793459 0.565126 0.889705
O O10 0.039413 0.784608 0.831073
O O11 0.573496 0.203455 0.828567
O O12 0.500000 0.000000 0.000000
#
# Coordination Sequence:
#
# PCOD9064460 Si02
#       5
#     2   2   2   2   2
#     4  11  24  45  76 110 148 200 252 309 381 452
#     4  12  25  45  75 105 152 196 253 308 382 447
#     4  12  27  49  77 109 156 203 252 318 384 446
#     4  12  27  46  77 113 153 197 261 314 377 459
#     4  11  24  46  75 107 152 200 250 311 378 452
#
# _framework density 24.894591999999999
#
# number of rings (size 3 to 8) (size 9 to 14) (size 15 to 20)
#    0.000    0.400    4.000    4.200    2.800    4.800 
#    0.000    0.000    0.000    0.000    0.000    0.000 
#    0.000    0.000    0.000    0.000    0.000    0.000 
#
# Total GULP energy -55953.692401 kJ/mol
# GULP energy per Si atom -5595.369240 kJ/mol
# Density = 2.483793 g / cm^3
# Si number density = 24.894592 Si / 1000 Ang^3
#
#
#
# Elastic Constant Matrix: (Units=GPa)
#
#
# Indices 1 2 3 4 5 6 
#
# 1 149.3143 33.1957 54.8306 -6.0193 26.6595 42.3936
# 2 33.1957 46.6208 20.9171 -1.1907 17.5514 36.1563
# 3 54.8306 20.9171 145.5603 1.2608 6.3531 7.5495
# 4 -6.0193 -1.1907 1.2608 45.0937 5.3590 3.9847
# 5 26.6595 17.5514 6.3531 5.3590 58.8609 -4.7461
# 6 42.3936 36.1563 7.5495 3.9847 -4.7461 55.1503
#
#
#
# Elastic Compliance Matrix: (Units=1/GPa)
#
#
# Indices 1 2 3 4 5 6 
#
# 1 0.013474 0.011072 -0.005298 0.005126 -0.010765 -0.018187
# 2 0.011072 0.082738 -0.011270 0.013900 -0.034994 -0.065227
# 3 -0.005298 -0.011270 0.009692 -0.002930 0.005856 0.010850
# 4 0.005126 0.013900 -0.002930 0.025824 -0.009739 -0.015356
# 5 -0.010765 -0.034994 0.005856 -0.009739 0.035309 0.034158
# 6 -0.018187 -0.065227 0.010850 -0.015356 0.034158 0.077439
#
#
# Mechanical properties :
#
#
# Convention : Reuss Voigt Hill
#
# Bulk Modulus (GPa) = 10.53609 62.15357 36.34483
# Shear Modulus (GPa) = 17.41530 47.32443 32.36987
#
# Velocity S-wave (km/s) = 2.64779 4.36477 3.60985
# Velocity P-wave (km/s) = 3.68635 7.10088 5.65737
#
# Compressibility (1/GPa) = 0.09491188
#
# Stress axis : x y z
#
# Youngs Moduli (GPa) = 74.21863 12.08639 103.17600
#
# Poissons Ratio (x) = -0.13382 0.54659
# Poissons Ratio (y) = -0.82175 1.16281
# Poissons Ratio (z) = 0.39318 0.13622
#
# Static dielectric constant tensor:
#      x y z
#    x 2.108820 -0.052820 0.002800 
#    y -0.052820 2.026560 -0.024680 
#    z 0.002800 -0.024680 2.044500 
# 
# From -- ./inp_files/143956.got.cif
#   From: 2010.05.17/outbox.cif.g08.bks.cpg/sg2_72_cif.got.tgz:143956.got - 2010.06.03 11:33:40.
