data_PCOD9064283
_publ_section_title
;
Structure prediction by ZEFSAII (Michael W. Deem and Ramdas Pophale) SiO2 
 PCOD9064283
Probable space group: P -1
;
_chemical_formula_sum "Si O2"
_cell_formula_units_Z 14
_cell_length_a 13.884014
_cell_length_b 6.600673
_cell_length_c 13.741961
_cell_angle_alpha 108.251020
_cell_angle_beta 147.441569
_cell_angle_gamma 87.509248
_cell_volume 580.658443
_symmetry_space_group_name_H-M "P -1"
_symmetry_group_IT_number 2
_symmetry_cell_setting 'triclinic'
loop_
_space_group_symop_operation_xyz
x,y,z
-x,-y,-z
loop_
_atom_site_type_symbol
_atom_site_label
_atom_site_fract_x
_atom_site_fract_y
_atom_site_fract_z
Si Si1 0.781029 0.013973 0.907756
Si Si2 0.887209 0.967016 0.189576
Si Si3 0.752261 0.670548 0.674646
Si Si4 0.130474 0.503909 0.519667
Si Si5 0.833776 0.254654 0.617314
Si Si6 0.491494 0.757086 0.298368
Si Si7 0.555108 0.615768 0.959148
O O1 0.703200 0.768408 0.746927
O O2 0.685810 0.179653 0.808134
O O3 0.741925 0.980957 0.984542
O O4 0.019550 0.145176 0.125065
O O5 0.984120 0.800925 0.204806
O O6 0.756545 0.853168 0.156461
O O7 0.059501 0.225974 0.395259
O O8 0.768985 0.424349 0.651149
O O9 0.605744 0.685968 0.469293
O O10 0.103798 0.623586 0.416662
O O11 0.360295 0.639515 0.762110
O O12 0.000000 0.500000 0.500000
O O13 0.648307 0.001552 0.421637
O O14 0.420709 0.561678 0.124964
O O15 0.500000 0.500000 0.000000
#
# Coordination Sequence:
#
# PCOD9064283 Si02
#       7
#     2   2   2   2   2   2   2
#     4  11  24  45  73 104 143 193 244 297 358 435
#     4  12  26  49  73 107 149 188 239 302 363 427
#     4  11  24  48  69 105 146 190 246 295 363 425
#     4  12  27  47  72 105 145 191 240 302 366 425
#     4  12  22  47  73  97 151 188 232 307 355 425
#     4  12  25  48  70 105 150 186 243 304 358 430
#     4  12  27  46  73 108 139 190 247 290 366 439
#
# _framework density 24.11056
#
# number of rings (size 3 to 8) (size 9 to 14) (size 15 to 20)
#    0.000    0.286    5.714    3.000    4.000    2.857 
#    2.571    0.000    0.000    0.000    0.000    0.000 
#    0.000    0.000    0.000    0.000    0.000    0.000 
#
# Total GULP energy -78394.562904 kJ/mol
# GULP energy per Si atom -5599.611636 kJ/mol
# Density = 2.405568 g / cm^3
# Si number density = 24.110560 Si / 1000 Ang^3
#
#
#
# Elastic Constant Matrix: (Units=GPa)
#
#
# Indices 1 2 3 4 5 6 
#
# 1 49.1627 -6.3517 8.5413 -8.0433 13.8556 -7.0624
# 2 -6.3517 85.6443 26.6229 -19.8880 14.6250 -11.7089
# 3 8.5413 26.6229 76.0031 -23.7673 11.1105 0.7490
# 4 -8.0433 -19.8880 -23.7673 28.3526 -2.6129 14.8822
# 5 13.8556 14.6250 11.1105 -2.6129 33.1744 8.6687
# 6 -7.0624 -11.7089 0.7490 14.8822 8.6687 49.4997
#
#
#
# Elastic Compliance Matrix: (Units=1/GPa)
#
#
# Indices 1 2 3 4 5 6 
#
# 1 0.028219 0.007846 -0.001278 0.007617 -0.015887 0.006393
# 2 0.007846 0.017612 -0.002752 0.008937 -0.010590 0.004495
# 3 -0.001278 -0.002752 0.020113 0.017564 -0.002021 -0.006064
# 4 0.007617 0.008937 0.017564 0.066794 -0.003419 -0.016548
# 5 -0.015887 -0.010590 -0.002021 -0.003419 0.044879 -0.011573
# 6 0.006393 0.004495 -0.006064 -0.016548 -0.011573 0.029271
#
#
# Mechanical properties :
#
#
# Convention : Reuss Voigt Hill
#
# Bulk Modulus (GPa) = 13.59164 29.82613 21.70889
# Shear Modulus (GPa) = 22.34322 34.33852 28.34087
#
# Velocity S-wave (km/s) = 3.04747 3.77797 3.43221
# Velocity P-wave (km/s) = 4.24644 5.60608 4.97295
#
# Compressibility (1/GPa) = 0.07357463
#
# Stress axis : x y z
#
# Youngs Moduli (GPa) = 35.43758 56.77962 49.71984
#
# Poissons Ratio (x) = -0.44550 0.06354
# Poissons Ratio (y) = -0.27805 0.13685
# Poissons Ratio (z) = 0.04529 0.15628
#
# Static dielectric constant tensor:
#      x y z
#    x 1.945280 -0.010100 0.025480 
#    y -0.010100 1.926780 -0.010130 
#    z 0.025480 -0.010130 1.929750 
# 
# From -- ./inp_files/36053.got.cif
#   From: 2010.05.17/outbox.cif.g08.bks.cpg/sg2_19_cif.got.tgz:36053.got - 2010.06.03 11:33:40.
