data_PCOD9064547
_publ_section_title
;
Structure prediction by ZEFSAII (Michael W. Deem and Ramdas Pophale) SiO2 
 PCOD9064547
Probable space group: P -1
;
_chemical_formula_sum "Si O2"
_cell_formula_units_Z 14
_cell_length_a 12.783503
_cell_length_b 11.795771
_cell_length_c 9.519834
_cell_angle_alpha 58.061446
_cell_angle_beta 141.465294
_cell_angle_gamma 132.422502
_cell_volume 660.164705
_symmetry_space_group_name_H-M "P -1"
_symmetry_group_IT_number 2
_symmetry_cell_setting 'triclinic'
loop_
_space_group_symop_operation_xyz
x,y,z
-x,-y,-z
loop_
_atom_site_type_symbol
_atom_site_label
_atom_site_fract_x
_atom_site_fract_y
_atom_site_fract_z
Si Si1 0.833571 0.343639 0.999523
Si Si2 0.650006 0.220004 0.416663
Si Si3 0.923699 0.262600 0.443856
Si Si4 0.352669 0.481465 0.738417
Si Si5 0.244871 0.918304 0.131179
Si Si6 0.544501 0.638095 0.353395
Si Si7 0.918534 0.955146 0.603862
O O1 0.921379 0.303243 0.252175
O O2 0.754443 0.201956 0.901510
O O3 0.652114 0.355097 0.859189
O O4 0.000000 0.500000 0.000000
O O5 0.775286 0.287581 0.364238
O O6 0.627618 0.353348 0.382782
O O7 0.763077 0.160358 0.675438
O O8 0.443537 0.079292 0.246319
O O9 0.140520 0.372152 0.646681
O O10 0.874233 0.087548 0.519487
O O11 0.392436 0.401509 0.701300
O O12 0.500000 0.500000 0.000000
O O13 0.072534 0.945283 0.876411
O O14 0.500000 0.500000 0.500000
O O15 0.722907 0.794325 0.495287
O O16 0.000000 0.000000 0.500000
#
# Coordination Sequence:
#
# PCOD9064547 Si02
#       7
#     2   2   2   2   2   2   2
#     4  12  25  45  73 100 138 179 239 295 343 410
#     4  11  26  43  68 101 141 187 228 278 355 417
#     4  12  25  43  70 101 134 184 237 285 347 411
#     4  12  25  43  65  99 141 179 228 283 343 418
#     4  11  24  46  68  98 142 179 228 293 344 417
#     4  12  26  44  71 102 134 183 230 287 351 403
#     4  12  24  44  74 102 139 176 239 291 342 407
#
# _framework density 21.206828999999999
#
# number of rings (size 3 to 8) (size 9 to 14) (size 15 to 20)
#    0.000    0.286    2.857    6.429    2.000    5.143 
#    0.000    0.000    0.000    0.000    0.000    0.000 
#    0.000    0.000    0.000    0.000    0.000    0.000 
#
# Total GULP energy -78352.381947 kJ/mol
# GULP energy per Si atom -5596.598711 kJ/mol
# Density = 2.115856 g / cm^3
# Si number density = 21.206829 Si / 1000 Ang^3
#
#
#
# Elastic Constant Matrix: (Units=GPa)
#
#
# Indices 1 2 3 4 5 6 
#
# 1 67.0818 35.2830 21.8342 5.2100 9.7985 -4.6958
# 2 35.2830 154.9894 61.1294 15.0636 12.5950 -0.1685
# 3 21.8342 61.1294 148.0661 2.7770 2.4622 6.1127
# 4 5.2100 15.0636 2.7770 36.9688 -0.6595 3.1481
# 5 9.7985 12.5950 2.4622 -0.6595 31.1605 -3.3072
# 6 -4.6958 -0.1685 6.1127 3.1481 -3.3072 40.4560
#
#
#
# Elastic Compliance Matrix: (Units=1/GPa)
#
#
# Indices 1 2 3 4 5 6 
#
# 1 0.017798 -0.003046 -0.001357 -0.001411 -0.004072 0.002035
# 2 -0.003046 0.008867 -0.003123 -0.003008 -0.002423 0.000191
# 3 -0.001357 -0.003123 0.008268 0.000980 0.000905 -0.001422
# 4 -0.001411 -0.003008 0.000980 0.028639 0.001934 -0.002395
# 5 -0.004072 -0.002423 0.000905 0.001934 0.034539 0.002053
# 6 0.002035 0.000191 -0.001422 -0.002395 0.002053 0.025524
#
#
# Mechanical properties :
#
#
# Convention : Reuss Voigt Hill
#
# Bulk Modulus (GPa) = 50.29786 67.40339 58.85062
# Shear Modulus (GPa) = 34.40837 38.50978 36.45907
#
# Velocity S-wave (km/s) = 4.03241 4.26598 4.15084
# Velocity P-wave (km/s) = 6.74164 7.49117 7.12626
#
# Compressibility (1/GPa) = 0.01988156
#
# Stress axis : x y z
#
# Youngs Moduli (GPa) = 56.18663 112.78303 120.94480
#
# Poissons Ratio (x) = 0.34357 0.16408
# Poissons Ratio (y) = 0.17116 0.37766
# Poissons Ratio (z) = 0.07623 0.35217
#
# Static dielectric constant tensor:
#      x y z
#    x 1.663750 -0.027570 -0.075130 
#    y -0.027570 1.765890 0.045980 
#    z -0.075130 0.045980 2.067920 
# 
# From -- ./inp_files/157595.got.cif
#   From: 2010.05.17/outbox.cif.g08.bks.cpg/sg2_79_cif.got.tgz:157595.got - 2010.06.03 11:33:40.
