data_PCOD9064352
_publ_section_title
;
Structure prediction by ZEFSAII (Michael W. Deem and Ramdas Pophale) SiO2 
 PCOD9064352
Probable space group: P -1
;
_chemical_formula_sum "Si O2"
_cell_formula_units_Z 16
_cell_length_a 6.613355
_cell_length_b 8.255683
_cell_length_c 13.903146
_cell_angle_alpha 106.105778
_cell_angle_beta 81.487783
_cell_angle_gamma 90.200626
_cell_volume 720.690280
_symmetry_space_group_name_H-M "P -1"
_symmetry_group_IT_number 2
_symmetry_cell_setting 'triclinic'
loop_
_space_group_symop_operation_xyz
x,y,z
-x,-y,-z
loop_
_atom_site_type_symbol
_atom_site_label
_atom_site_fract_x
_atom_site_fract_y
_atom_site_fract_z
Si Si1 0.263416 0.909780 0.659690
Si Si2 0.099987 0.244802 0.222500
Si Si3 0.295880 0.592318 0.291575
Si Si4 0.531003 0.670699 0.468627
Si Si5 0.380036 0.665274 0.075704
Si Si6 0.501101 0.026826 0.154519
Si Si7 0.927326 0.837602 0.421711
Si Si8 0.871340 0.178752 0.044220
O O1 0.373963 0.809433 0.548504
O O2 0.424730 0.942544 0.737413
O O3 0.078355 0.807335 0.701151
O O4 0.173493 0.085854 0.655125
O O5 0.225864 0.401547 0.274490
O O6 0.266906 0.091914 0.172741
O O7 0.990941 0.281665 0.133687
O O8 0.484338 0.630035 0.354075
O O9 0.329931 0.631478 0.184454
O O10 0.113309 0.712714 0.363166
O O11 0.500000 0.500000 0.500000
O O12 0.755350 0.740464 0.474601
O O13 0.516879 0.830789 0.093640
O O14 0.500000 0.500000 0.000000
O O15 0.183257 0.719516 0.032263
O O16 0.650902 0.132466 0.095574
O O17 0.000000 0.000000 0.500000
O O18 0.000000 0.000000 0.000000
#
# Coordination Sequence:
#
# PCOD9064352 Si02
#       8
#     2   2   2   2   2   2   2   2
#     4  11  25  43  76 105 143 194 244 300 372 453
#     4  11  25  46  74 107 145 195 248 306 373 448
#     4  12  28  46  71 108 150 188 248 307 370 443
#     4  12  27  47  74 107 149 195 245 304 373 446
#     4  12  27  46  74 106 150 195 242 317 378 434
#     4  11  24  45  74 103 146 191 251 304 370 450
#     4  12  27  45  73 106 148 194 248 301 372 442
#     4  11  25  46  73 104 140 198 258 302 377 448
#
# _framework density 22.200937
#
# number of rings (size 3 to 8) (size 9 to 14) (size 15 to 20)
#    0.000    0.500    2.500    4.500    8.750    5.500 
#    0.000    0.000    0.000    0.000    0.000    0.000 
#    0.000    0.000    0.000    0.000    0.000    0.000 
#
# Total GULP energy -89605.291388 kJ/mol
# GULP energy per Si atom -5600.330712 kJ/mol
# Density = 2.215041 g / cm^3
# Si number density = 22.200937 Si / 1000 Ang^3
#
#
#
# Elastic Constant Matrix: (Units=GPa)
#
#
# Indices 1 2 3 4 5 6 
#
# 1 95.3105 30.9460 44.1148 1.3293 7.4418 11.0521
# 2 30.9460 93.3509 31.3962 12.7848 14.7440 -0.8980
# 3 44.1148 31.3962 112.5012 2.4705 9.2983 1.3067
# 4 1.3293 12.7848 2.4705 46.6231 -7.9781 5.0247
# 5 7.4418 14.7440 9.2983 -7.9781 32.3806 6.3186
# 6 11.0521 -0.8980 1.3067 5.0247 6.3186 37.7343
#
#
#
# Elastic Compliance Matrix: (Units=1/GPa)
#
#
# Indices 1 2 3 4 5 6 
#
# 1 0.014210 -0.003530 -0.004641 0.001439 0.000893 -0.004426
# 2 -0.003530 0.014444 -0.001976 -0.005344 -0.007170 0.003358
# 3 -0.004641 -0.001976 0.011388 -0.000341 -0.001629 0.001236
# 4 0.001439 -0.005344 -0.000341 0.025097 0.009450 -0.005461
# 5 0.000893 -0.007170 -0.001629 0.009450 0.038309 -0.008049
# 6 -0.004426 0.003358 0.001236 -0.005461 -0.008049 0.029910
#
#
# Mechanical properties :
#
#
# Convention : Reuss Voigt Hill
#
# Bulk Modulus (GPa) = 50.63844 57.11964 53.87904
# Shear Modulus (GPa) = 31.20458 36.32795 33.76627
#
# Velocity S-wave (km/s) = 3.75314 4.04954 3.90415
# Velocity P-wave (km/s) = 6.45291 6.90285 6.68167
#
# Compressibility (1/GPa) = 0.01974784
#
# Stress axis : x y z
#
# Youngs Moduli (GPa) = 70.37396 69.23427 87.81408
#
# Poissons Ratio (x) = 0.24442 0.40753
# Poissons Ratio (y) = 0.24844 0.17348
# Poissons Ratio (z) = 0.32659 0.13678
#
# Static dielectric constant tensor:
#      x y z
#    x 1.820440 -0.026440 0.006580 
#    y -0.026440 1.766870 -0.087040 
#    z 0.006580 -0.087040 1.677440 
# 
# From -- ./inp_files/53752.got.cif
#   From: 2010.05.17/outbox.cif.g08.bks.cpg/sg2_27_cif.got.tgz:53752.got - 2010.06.03 11:33:40.
