data_PCOD9064347
_publ_section_title
;
Structure prediction by ZEFSAII (Michael W. Deem and Ramdas Pophale) SiO2 
 PCOD9064347
Probable space group: P -1
;
_chemical_formula_sum "Si O2"
_cell_formula_units_Z 14
_cell_length_a 20.370272
_cell_length_b 11.777653
_cell_length_c 20.450554
_cell_angle_alpha 157.585585
_cell_angle_beta 20.136588
_cell_angle_gamma 151.405060
_cell_volume 642.142870
_symmetry_space_group_name_H-M "P -1"
_symmetry_group_IT_number 2
_symmetry_cell_setting 'triclinic'
loop_
_space_group_symop_operation_xyz
x,y,z
-x,-y,-z
loop_
_atom_site_type_symbol
_atom_site_label
_atom_site_fract_x
_atom_site_fract_y
_atom_site_fract_z
Si Si1 0.016546 0.381478 0.515527
Si Si2 0.521046 0.652094 0.786736
Si Si3 0.956709 0.652603 0.372909
Si Si4 0.412761 0.709579 0.342568
Si Si5 0.659904 0.749709 0.010212
Si Si6 0.804232 0.738694 0.152378
Si Si7 0.049641 0.830331 0.101199
O O1 0.000837 0.368096 0.601155
O O2 0.235414 0.513798 0.370212
O O3 0.854372 0.584232 0.749998
O O4 0.989431 0.064404 0.336493
O O5 0.732782 0.588978 0.535244
O O6 0.494526 0.491526 0.796800
O O7 0.364262 0.514991 0.810407
O O8 0.500000 0.000000 0.000000
O O9 0.000000 0.000000 0.500000
O O10 0.068672 0.418427 0.102844
O O11 0.304783 0.978202 0.618657
O O12 0.567662 0.830681 0.209171
O O13 0.734106 0.042155 0.054342
O O14 0.500000 0.500000 0.000000
O O15 0.925320 0.833983 0.153209
O O16 0.000000 0.500000 0.000000
#
# Coordination Sequence:
#
# PCOD9064347 Si02
#       7
#     2   2   2   2   2   2   2
#     4  11  24  49  74 101 147 195 244 302 368 444
#     4  11  25  43  71 104 151 191 242 301 373 436
#     4  11  24  45  74 103 143 195 240 300 377 434
#     4  11  25  45  73 109 145 190 252 303 365 444
#     4  12  24  45  77 101 144 202 246 289 377 447
#     4  12  25  46  71 106 149 184 249 309 360 442
#     4  12  27  48  73 108 149 189 248 314 368 430
#
# _framework density 21.802001000000001
#
# number of rings (size 3 to 8) (size 9 to 14) (size 15 to 20)
#    0.000    0.571    4.286    3.429    4.000    2.286 
#    0.000    1.429    0.000    0.000    0.000    0.000 
#    0.000    0.000    0.000    0.000    0.000    0.000 
#
# Total GULP energy -78256.050119 kJ/mol
# GULP energy per Si atom -5589.717866 kJ/mol
# Density = 2.175238 g / cm^3
# Si number density = 21.802001 Si / 1000 Ang^3
#
#
#
# Elastic Constant Matrix: (Units=GPa)
#
#
# Indices 1 2 3 4 5 6 
#
# 1 85.1669 45.3062 43.5868 3.0417 11.4883 17.4124
# 2 45.3062 150.0371 49.1622 10.8435 4.4710 10.5489
# 3 43.5868 49.1622 144.4745 17.0599 22.6051 -0.0441
# 4 3.0417 10.8435 17.0599 40.9424 4.4156 -2.3691
# 5 11.4883 4.4710 22.6051 4.4156 32.6465 3.0779
# 6 17.4124 10.5489 -0.0441 -2.3691 3.0779 49.8706
#
#
#
# Elastic Compliance Matrix: (Units=1/GPa)
#
#
# Indices 1 2 3 4 5 6 
#
# 1 0.016780 -0.003557 -0.003581 0.001189 -0.002638 -0.004890
# 2 -0.003557 0.008465 -0.001902 -0.001407 0.001668 -0.000720
# 3 -0.003581 -0.001902 0.009752 -0.002642 -0.005048 0.001847
# 4 0.001189 -0.001407 -0.002642 0.026102 -0.002044 0.001246
# 5 -0.002638 0.001668 -0.005048 -0.002044 0.035264 -0.001710
# 6 -0.004890 -0.000720 0.001847 0.001246 -0.001710 0.022078
#
#
# Mechanical properties :
#
#
# Convention : Reuss Voigt Hill
#
# Bulk Modulus (GPa) = 59.11756 72.86545 65.99151
# Shear Modulus (GPa) = 35.17136 40.80011 37.98574
#
# Velocity S-wave (km/s) = 4.02084 4.33065 4.17862
# Velocity P-wave (km/s) = 6.98074 7.64853 7.32226
#
# Compressibility (1/GPa) = 0.01691545
#
# Stress axis : x y z
#
# Youngs Moduli (GPa) = 59.59554 118.13226 102.54437
#
# Poissons Ratio (x) = 0.42020 0.36722
# Poissons Ratio (y) = 0.21198 0.19509
# Poissons Ratio (z) = 0.21342 0.22475
#
# Static dielectric constant tensor:
#      x y z
#    x 1.845570 -0.001140 0.035060 
#    y -0.001140 1.878110 0.019960 
#    z 0.035060 0.019960 1.824100 
# 
# From -- ./inp_files/601464.got.cif
#   From: 2010.05.17/outbox.cif.g08.bks.cpg/sg2_301_cif.got.tgz:601464.got - 2010.06.03 11:33:40.
