data_PCOD9064072
_publ_section_title
;
Structure prediction by ZEFSAII (Michael W. Deem and Ramdas Pophale) SiO2 
 PCOD9064072
Probable space group: P -1
;
_chemical_formula_sum "Si O2"
_cell_formula_units_Z 14
_cell_length_a 12.148832
_cell_length_b 19.077604
_cell_length_c 8.701605
_cell_angle_alpha 38.125239
_cell_angle_beta 141.869971
_cell_angle_gamma 150.434710
_cell_volume 578.628167
_symmetry_space_group_name_H-M "P -1"
_symmetry_group_IT_number 2
_symmetry_cell_setting 'triclinic'
loop_
_space_group_symop_operation_xyz
x,y,z
-x,-y,-z
loop_
_atom_site_type_symbol
_atom_site_label
_atom_site_fract_x
_atom_site_fract_y
_atom_site_fract_z
Si Si1 0.172047 0.141756 0.053509
Si Si2 0.380457 0.637027 0.384477
Si Si3 0.098333 0.164004 0.270064
Si Si4 0.547420 0.397810 0.810193
Si Si5 0.727920 0.154155 0.057441
Si Si6 0.490756 0.060272 0.547986
Si Si7 0.087495 0.593541 0.594694
O O1 0.062295 0.148094 0.074917
O O2 0.351007 0.117022 0.339230
O O3 0.321278 0.287392 0.860084
O O4 0.000000 0.000000 0.000000
O O5 0.623298 0.704084 0.617739
O O6 0.436141 0.671122 0.206343
O O7 0.146451 0.468302 0.459344
O O8 0.302404 0.726861 0.202735
O O9 0.956884 0.196347 0.158699
O O10 0.000000 0.000000 0.500000
O O11 0.500000 0.500000 0.500000
O O12 0.762530 0.438041 0.084487
O O13 0.673855 0.098659 0.267503
O O14 0.500000 0.000000 0.000000
O O15 0.752086 0.226874 0.568762
O O16 0.500000 0.000000 0.500000
O O17 0.000000 0.500000 0.500000
#
# Coordination Sequence:
#
# PCOD9064072 Si02
#       7
#     2   2   2   2   2   2   2
#     4  11  24  45  70 106 153 198 263 330 391 474
#     4  12  26  48  75 111 156 208 264 332 400 487
#     4  12  24  46  75 114 156 202 273 334 400 486
#     4  11  27  49  73 112 158 211 260 328 406 476
#     4  12  24  43  78 109 151 206 261 328 407 468
#     4  11  25  45  74 113 149 202 265 326 396 477
#     4  11  25  51  77 111 164 207 267 328 404 486
#
# _framework density 24.195159
#
# number of rings (size 3 to 8) (size 9 to 14) (size 15 to 20)
#    0.000    0.571    2.857    5.571    4.000    1.143 
#    2.571    1.429    0.000    0.000    0.000    0.000 
#    0.000    0.000    0.000    0.000    0.000    0.000 
#
# Total GULP energy -78145.232667 kJ/mol
# GULP energy per Si atom -5581.802333 kJ/mol
# Density = 2.414009 g / cm^3
# Si number density = 24.195159 Si / 1000 Ang^3
#
#
#
# Elastic Constant Matrix: (Units=GPa)
#
#
# Indices 1 2 3 4 5 6 
#
# 1 199.9551 49.4167 57.5937 7.9471 -10.0805 12.1923
# 2 49.4167 130.0290 40.8809 15.3487 2.2215 22.0994
# 3 57.5937 40.8809 109.3369 8.6337 3.4877 11.5603
# 4 7.9471 15.3487 8.6337 30.2275 0.0951 -8.4302
# 5 -10.0805 2.2215 3.4877 0.0951 57.4275 2.3273
# 6 12.1923 22.0994 11.5603 -8.4302 2.3273 50.7628
#
#
#
# Elastic Compliance Matrix: (Units=1/GPa)
#
#
# Indices 1 2 3 4 5 6 
#
# 1 0.006245 -0.001451 -0.002735 -0.000224 0.001333 -0.000343
# 2 -0.001451 0.010363 -0.002180 -0.005531 -0.000329 -0.004570
# 3 -0.002735 -0.002180 0.011725 -0.001891 -0.001051 -0.001330
# 4 -0.000224 -0.005531 -0.001891 0.039110 -0.000156 0.009395
# 5 0.001333 -0.000329 -0.001051 -0.000156 0.017755 -0.000778
# 6 -0.000343 -0.004570 -0.001330 0.009395 -0.000778 0.023670
#
#
# Mechanical properties :
#
#
# Convention : Reuss Voigt Hill
#
# Bulk Modulus (GPa) = 64.10227 81.67819 72.89023
# Shear Modulus (GPa) = 39.43178 47.11222 43.27200
#
# Velocity S-wave (km/s) = 4.04138 4.41747 4.23360
# Velocity P-wave (km/s) = 6.95186 7.73628 7.35454
#
# Compressibility (1/GPa) = 0.01560007
#
# Stress axis : x y z
#
# Youngs Moduli (GPa) = 160.13669 96.50055 85.28550
#
# Poissons Ratio (x) = 0.14005 0.23328
# Poissons Ratio (y) = 0.23241 0.18589
# Poissons Ratio (z) = 0.43803 0.21034
#
# Static dielectric constant tensor:
#      x y z
#    x 1.924740 -0.121760 0.232710 
#    y -0.121760 2.168960 -0.263540 
#    z 0.232710 -0.263540 2.368170 
# 
# From -- ./inp_files/281559.got.cif
#   From: 2010.05.17/outbox.cif.g08.bks.cpg/sg2_141_cif.got.tgz:281559.got - 2010.06.03 11:33:40.
