data_PCOD9064806
_publ_section_title
;
Structure prediction by ZEFSAII (Michael W. Deem and Ramdas Pophale) SiO2 
 PCOD9064806
Probable space group: P -1
;
_chemical_formula_sum "Si O2"
_cell_formula_units_Z 11
_cell_length_a 9.708044
_cell_length_b 8.105432
_cell_length_c 6.460547
_cell_angle_alpha 93.608339
_cell_angle_beta 80.470758
_cell_angle_gamma 107.212390
_cell_volume 478.846142
_symmetry_space_group_name_H-M "P -1"
_symmetry_group_IT_number 2
_symmetry_cell_setting 'triclinic'
loop_
_space_group_symop_operation_xyz
x,y,z
-x,-y,-z
loop_
_atom_site_type_symbol
_atom_site_label
_atom_site_fract_x
_atom_site_fract_y
_atom_site_fract_z
Si Si1 0.055182 0.248808 0.410138
Si Si2 0.464116 0.798342 0.530841
Si Si3 0.740653 0.743727 0.273475
Si Si4 0.392226 0.597423 0.927812
Si Si5 0.808877 0.349702 0.672678
Si Si6 0.000000 0.000000 0.000000
O O1 0.183866 0.223040 0.518238
O O2 0.107196 0.446738 0.332706
O O3 0.925375 0.243404 0.608230
O O4 0.010654 0.119428 0.221345
O O5 0.575496 0.741590 0.350809
O O6 0.480698 0.737504 0.753714
O O7 0.298951 0.704202 0.498636
O O8 0.500000 0.000000 0.500000
O O9 0.727550 0.554296 0.175041
O O10 0.836385 0.881239 0.102656
O O11 0.500000 0.500000 0.000000
O O12 0.300205 0.683151 0.109490
#
# Coordination Sequence:
#
# PCOD9064806 Si02
#       6
#     2   2   2   2   2   1
#     4  11  25  45  73 107 151 197 246 312 366 455
#     4  12  27  46  75 113 152 190 255 318 363 442
#     4  12  25  46  75 106 148 200 252 300 376 451
#     4  12  24  47  81 109 148 203 250 300 381 450
#     4  11  24  46  73 111 149 194 250 306 378 439
#     4  12  26  44  70 106 144 190 252 300 378 424
#
# _framework density 22.971888
#
# number of rings (size 3 to 8) (size 9 to 14) (size 15 to 20)
#    0.000    0.364    5.455    3.273    0.000    4.364 
#    0.000    0.000    0.000    0.000    0.000    0.000 
#    0.000    0.000    0.000    0.000    0.000    0.000 
#
# Total GULP energy -61262.304095 kJ/mol
# GULP energy per Si atom -5569.300372 kJ/mol
# Density = 2.291960 g / cm^3
# Si number density = 22.971888 Si / 1000 Ang^3
#
#
#
# Elastic Constant Matrix: (Units=GPa)
#
#
# Indices 1 2 3 4 5 6 
#
# 1 65.0364 19.7487 6.8135 7.6995 -8.4984 12.2456
# 2 19.7487 94.0267 52.8434 4.9600 15.5322 8.9094
# 3 6.8135 52.8434 102.1981 11.3143 -20.4996 -0.0811
# 4 7.6995 4.9600 11.3143 49.9350 11.6176 -2.8292
# 5 -8.4984 15.5322 -20.4996 11.6176 33.8822 -0.8779
# 6 12.2456 8.9094 -0.0811 -2.8292 -0.8779 21.3161
#
#
#
# Elastic Compliance Matrix: (Units=1/GPa)
#
#
# Indices 1 2 3 4 5 6 
#
# 1 0.024181 -0.013680 0.011142 -0.010615 0.022494 -0.008614
# 2 -0.013680 0.035603 -0.027324 0.013967 -0.041254 -0.006971
# 3 0.011142 -0.027324 0.033118 -0.015750 0.040881 0.004739
# 4 -0.010615 0.013967 -0.015750 0.030782 -0.029069 0.003089
# 5 0.022494 -0.041254 0.040881 -0.029069 0.088880 0.004278
# 6 -0.008614 -0.006971 0.004739 0.003089 0.004278 0.055379
#
#
# Mechanical properties :
#
#
# Convention : Reuss Voigt Hill
#
# Bulk Modulus (GPa) = 30.14091 46.67471 38.40781
# Shear Modulus (GPa) = 14.76115 33.15037 23.95576
#
# Velocity S-wave (km/s) = 2.53766 3.80292 3.23279
# Velocity P-wave (km/s) = 4.66214 6.29644 5.53989
#
# Compressibility (1/GPa) = 0.03317750
#
# Stress axis : x y z
#
# Youngs Moduli (GPa) = 41.35530 28.08735 30.19494
#
# Poissons Ratio (x) = 0.38424 -0.33643
# Poissons Ratio (y) = 0.56575 0.82505
# Poissons Ratio (z) = -0.46077 0.76746
#
# Static dielectric constant tensor:
#      x y z
#    x 1.902790 -0.159750 -0.111830 
#    y -0.159750 2.158810 0.281220 
#    z -0.111830 0.281220 2.148440 
# 
# From -- ./inp_files/17513.got.cif
#   From: 2010.05.17/outbox.cif.g08.bks.cpg/sg2_9_cif.got.tgz:17513.got - 2010.06.03 11:33:40.
