data_PCOD9064145
_publ_section_title
;
Structure prediction by ZEFSAII (Michael W. Deem and Ramdas Pophale) SiO2 
 PCOD9064145
Probable space group: P -1
;
_chemical_formula_sum "Si O2"
_cell_formula_units_Z 13
_cell_length_a 8.371793
_cell_length_b 7.632920
_cell_length_c 10.837802
_cell_angle_alpha 64.818801
_cell_angle_beta 51.166073
_cell_angle_gamma 81.016724
_cell_volume 482.152087
_symmetry_space_group_name_H-M "P -1"
_symmetry_group_IT_number 2
_symmetry_cell_setting 'triclinic'
loop_
_space_group_symop_operation_xyz
x,y,z
-x,-y,-z
loop_
_atom_site_type_symbol
_atom_site_label
_atom_site_fract_x
_atom_site_fract_y
_atom_site_fract_z
Si Si1 0.295481 0.509553 0.949239
Si Si2 0.806058 0.273115 0.570072
Si Si3 0.267370 0.030348 0.637233
Si Si4 0.727330 0.947153 0.891080
Si Si5 0.000000 0.000000 0.000000
Si Si6 0.855619 0.393652 0.266440
Si Si7 0.262450 0.369266 0.345655
O O1 0.267976 0.532319 0.809410
O O2 0.520707 0.632801 0.827813
O O3 0.075888 0.546302 0.104289
O O4 0.299359 0.284647 0.037644
O O5 0.789580 0.059460 0.698043
O O6 0.712716 0.353419 0.468301
O O7 0.748370 0.413079 0.663715
O O8 0.045995 0.321145 0.394294
O O9 0.128208 0.829567 0.715395
O O10 0.500000 0.000000 0.500000
O O11 0.236183 0.220436 0.517799
O O12 0.216290 0.042007 0.802412
O O13 0.500000 0.000000 0.000000
O O14 0.868774 0.012345 0.924756
#
# Coordination Sequence:
#
# PCOD9064145 Si02
#       7
#     2   2   2   2   1   2   2
#     4  11  24  45  71 106 145 191 254 303 385 451
#     4  11  26  47  73 106 151 194 255 317 378 459
#     4  12  26  47  76 113 145 208 253 308 396 451
#     4  12  26  47  76 113 145 208 253 308 396 451
#     4  12  28  52  80 104 172 198 256 326 370 476
#     4  11  26  47  73 106 151 194 255 317 378 459
#     4  11  24  45  71 106 145 191 254 303 385 451
#
# _framework density 26.962447000000001
#
# number of rings (size 3 to 8) (size 9 to 14) (size 15 to 20)
#    0.000    0.615    6.154    0.000    4.308    3.692 
#    0.000    0.000    0.000    0.000    0.000    0.000 
#    0.000    0.000    0.000    0.000    0.000    0.000 
#
# Total GULP energy -72426.247648 kJ/mol
# GULP energy per Si atom -5571.249819 kJ/mol
# Density = 2.690108 g / cm^3
# Si number density = 26.962447 Si / 1000 Ang^3
#
#
#
# Elastic Constant Matrix: (Units=GPa)
#
#
# Indices 1 2 3 4 5 6 
#
# 1 78.0923 4.3488 54.1070 11.6602 -3.1839 -4.8147
# 2 4.3488 47.9451 3.2530 -12.9713 5.5252 0.2989
# 3 54.1070 3.2530 196.6763 -3.9879 20.8634 10.3024
# 4 11.6602 -12.9713 -3.9879 47.5721 -11.4673 -0.7566
# 5 -3.1839 5.5252 20.8634 -11.4673 67.2983 3.3339
# 6 -4.8147 0.2989 10.3024 -0.7566 3.3339 24.4742
#
#
#
# Elastic Compliance Matrix: (Units=1/GPa)
#
#
# Indices 1 2 3 4 5 6 
#
# 1 0.017908 -0.002869 -0.005442 -0.005150 0.001621 0.005469
# 2 -0.002869 0.023029 0.000698 0.006776 -0.001049 -0.000787
# 3 -0.005442 0.000698 0.007012 0.001562 -0.002039 -0.003705
# 4 -0.005150 0.006776 0.001562 0.024972 0.003040 -0.001395
# 5 0.001621 -0.001049 -0.002039 0.003040 0.016218 -0.000925
# 6 0.005469 -0.000787 -0.003705 -0.001395 -0.000925 0.043587
#
#
# Mechanical properties :
#
#
# Convention : Reuss Voigt Hill
#
# Bulk Modulus (GPa) = 30.55943 49.57017 40.06480
# Shear Modulus (GPa) = 31.47421 45.26923 38.37172
#
# Velocity S-wave (km/s) = 3.42033 4.10197 3.77656
# Velocity P-wave (km/s) = 5.19201 6.39216 5.82309
#
# Compressibility (1/GPa) = 0.03272313
#
# Stress axis : x y z
#
# Youngs Moduli (GPa) = 55.84100 43.42354 142.61016
#
# Poissons Ratio (x) = 0.12460 0.77609
# Poissons Ratio (y) = 0.16023 -0.09960
# Poissons Ratio (z) = 0.30389 -0.03033
#
# Static dielectric constant tensor:
#      x y z
#    x 2.215150 0.005870 -0.022080 
#    y 0.005870 2.152670 -0.009240 
#    z -0.022080 -0.009240 2.157160 
# 
# From -- ./inp_files/151780.got.cif
#   From: 2010.05.17/outbox.cif.g08.bks.cpg/sg2_76_cif.got.tgz:151780.got - 2010.06.03 11:33:40.
