data_PCOD9064187
_publ_section_title
;
Structure prediction by ZEFSAII (Michael W. Deem and Ramdas Pophale) SiO2 
 PCOD9064187
Probable space group: P -1
;
_chemical_formula_sum "Si O2"
_cell_formula_units_Z 13
_cell_length_a 7.476175
_cell_length_b 13.558958
_cell_length_c 7.638108
_cell_angle_alpha 134.664434
_cell_angle_beta 78.851128
_cell_angle_gamma 107.377923
_cell_volume 525.394627
_symmetry_space_group_name_H-M "P -1"
_symmetry_group_IT_number 2
_symmetry_cell_setting 'triclinic'
loop_
_space_group_symop_operation_xyz
x,y,z
-x,-y,-z
loop_
_atom_site_type_symbol
_atom_site_label
_atom_site_fract_x
_atom_site_fract_y
_atom_site_fract_z
Si Si1 0.301866 0.857844 0.467735
Si Si2 0.671690 0.901268 0.940652
Si Si3 0.000000 0.500000 0.500000
Si Si4 0.277866 0.875033 0.082606
Si Si5 0.596129 0.665224 0.219550
Si Si6 0.941744 0.620696 0.285205
Si Si7 0.147378 0.284419 0.092276
O O1 0.441363 0.757783 0.369179
O O2 0.322918 0.902801 0.314382
O O3 0.092551 0.764152 0.396957
O O4 0.315777 0.977743 0.760984
O O5 0.450944 0.823412 0.896122
O O6 0.801410 0.804716 0.868964
O O7 0.728080 0.983063 0.849731
O O8 0.963531 0.572373 0.415044
O O9 0.814677 0.547965 0.677813
O O10 0.079677 0.760548 0.950687
O O11 0.739301 0.652101 0.329893
O O12 0.500000 0.500000 0.000000
O O13 0.734050 0.737104 0.124789
O O14 0.000000 0.500000 0.000000
#
# Coordination Sequence:
#
# PCOD9064187 Si02
#       7
#     2   2   1   2   2   2   2
#     4  12  24  46  73 104 142 188 237 286 360 420
#     4  11  27  45  70 107 141 184 238 292 350 425
#     4  12  26  46  74 104 134 188 240 286 362 420
#     4  11  24  45  72 101 147 182 233 294 347 423
#     4  12  25  44  73 104 141 187 235 292 354 421
#     4  12  24  47  74 103 145 188 237 297 351 420
#     4  12  25  47  71 102 144 182 235 296 353 421
#
# _framework density 24.743309
#
# number of rings (size 3 to 8) (size 9 to 14) (size 15 to 20)
#    0.000    0.308    6.154    1.846    0.000    4.308 
#    0.000    2.308    0.000    0.000    0.000    0.000 
#    0.000    0.000    0.000    0.000    0.000    0.000 
#
# Total GULP energy -72560.632709 kJ/mol
# GULP energy per Si atom -5581.587131 kJ/mol
# Density = 2.468699 g / cm^3
# Si number density = 24.743309 Si / 1000 Ang^3
#
#
#
# Elastic Constant Matrix: (Units=GPa)
#
#
# Indices 1 2 3 4 5 6 
#
# 1 99.5695 53.9581 23.3377 12.2168 -6.6231 -11.5007
# 2 53.9581 155.3883 37.9672 -27.8284 14.3861 -43.5583
# 3 23.3377 37.9672 69.8499 -9.2419 -5.8219 -24.6572
# 4 12.2168 -27.8284 -9.2419 43.1238 -19.3347 1.4869
# 5 -6.6231 14.3861 -5.8219 -19.3347 31.1851 8.4963
# 6 -11.5007 -43.5583 -24.6572 1.4869 8.4963 72.9194
#
#
#
# Elastic Compliance Matrix: (Units=1/GPa)
#
#
# Indices 1 2 3 4 5 6 
#
# 1 0.015575 -0.007110 -0.003494 -0.009187 0.001031 -0.002905
# 2 -0.007110 0.012953 -0.001802 0.007582 -0.004870 0.006420
# 3 -0.003494 -0.001802 0.019361 0.006946 0.006928 0.003971
# 4 -0.009187 0.007582 0.006946 0.041518 0.021008 0.002135
# 5 0.001031 -0.004870 0.006928 0.021008 0.050686 -0.006738
# 6 -0.002905 0.006420 0.003971 0.002135 -0.006738 0.019175
#
#
# Mechanical properties :
#
#
# Convention : Reuss Voigt Hill
#
# Bulk Modulus (GPa) = 43.33157 61.70375 52.51766
# Shear Modulus (GPa) = 26.07255 43.41531 34.74393
#
# Velocity S-wave (km/s) = 3.24963 4.19337 3.75130
# Velocity P-wave (km/s) = 5.62411 6.95971 6.32725
#
# Compressibility (1/GPa) = 0.02307786
#
# Stress axis : x y z
#
# Youngs Moduli (GPa) = 64.20381 77.20370 51.64907
#
# Poissons Ratio (x) = 0.54889 0.18049
# Poissons Ratio (y) = 0.45647 0.09306
# Poissons Ratio (z) = 0.22436 0.13910
#
# Static dielectric constant tensor:
#      x y z
#    x 2.187870 0.426100 0.322430 
#    y 0.426100 2.654610 0.583390 
#    z 0.322430 0.583390 2.585340 
# 
# From -- ./inp_files/166007.got.cif
#   From: 2010.05.17/outbox.cif.g08.bks.cpg/sg2_84_cif.got.tgz:166007.got - 2010.06.03 11:33:40.
