data_PCOD9064725
_publ_section_title
;
Structure prediction by ZEFSAII (Michael W. Deem and Ramdas Pophale) SiO2 
 PCOD9064725
Probable space group: P -1
;
_chemical_formula_sum "Si O2"
_cell_formula_units_Z 14
_cell_length_a 7.705482
_cell_length_b 9.322228
_cell_length_c 11.781124
_cell_angle_alpha 96.926910
_cell_angle_beta 48.073701
_cell_angle_gamma 114.751741
_cell_volume 555.692548
_symmetry_space_group_name_H-M "P -1"
_symmetry_group_IT_number 2
_symmetry_cell_setting 'triclinic'
loop_
_space_group_symop_operation_xyz
x,y,z
-x,-y,-z
loop_
_atom_site_type_symbol
_atom_site_label
_atom_site_fract_x
_atom_site_fract_y
_atom_site_fract_z
Si Si1 0.137854 0.334703 0.412082
Si Si2 0.756460 0.371556 0.758202
Si Si3 0.106547 0.992666 0.634597
Si Si4 0.079680 0.878008 0.891351
Si Si5 0.072868 0.457811 0.085521
Si Si6 0.563943 0.011985 0.839622
Si Si7 0.481160 0.654087 0.580629
O O1 0.256264 0.476463 0.280820
O O2 0.384068 0.321778 0.353790
O O3 0.013725 0.385377 0.577622
O O4 0.924253 0.160608 0.442255
O O5 0.579790 0.180606 0.802319
O O6 0.743403 0.394108 0.901748
O O7 0.116188 0.935175 0.751796
O O8 0.350380 0.171431 0.534188
O O9 0.846366 0.012032 0.716249
O O10 0.860128 0.690563 0.973058
O O11 0.330354 0.884797 0.851113
O O12 0.000000 0.000000 0.000000
O O13 0.817209 0.387570 0.273307
O O14 0.000000 0.500000 0.000000
O O15 0.500000 0.000000 0.000000
O O16 0.500000 0.500000 0.500000
#
# Coordination Sequence:
#
# PCOD9064725 Si02
#       7
#     2   2   2   2   2   2   2
#     4  11  24  46  72 105 148 189 247 310 373 439
#     4  11  25  46  71 108 149 190 247 307 373 444
#     4  12  26  49  75 110 153 195 256 306 381 456
#     4  12  28  47  76 111 150 202 254 310 378 444
#     4  12  27  50  75 109 151 197 251 309 379 454
#     4  12  25  47  76 107 151 200 246 313 374 445
#     4  12  26  46  79 112 148 198 247 319 381 443
#
# _framework density 25.193788000000001
#
# number of rings (size 3 to 8) (size 9 to 14) (size 15 to 20)
#    0.000    0.286    5.714    2.143    6.000    0.571 
#    0.000    2.143    0.000    0.000    0.000    0.000 
#    0.000    0.000    0.000    0.000    0.000    0.000 
#
# Total GULP energy -78285.808040 kJ/mol
# GULP energy per Si atom -5591.843431 kJ/mol
# Density = 2.513645 g / cm^3
# Si number density = 25.193788 Si / 1000 Ang^3
#
#
#
# Elastic Constant Matrix: (Units=GPa)
#
#
# Indices 1 2 3 4 5 6 
#
# 1 90.4977 15.5428 30.8495 1.9791 29.9296 -0.6881
# 2 15.5428 171.7054 51.2915 4.0806 21.4764 -3.9517
# 3 30.8495 51.2915 73.3043 7.8365 22.7499 -5.4120
# 4 1.9791 4.0806 7.8365 49.8003 3.0393 8.2363
# 5 29.9296 21.4764 22.7499 3.0393 48.1633 -1.5355
# 6 -0.6881 -3.9517 -5.4120 8.2363 -1.5355 45.1431
#
#
#
# Elastic Compliance Matrix: (Units=1/GPa)
#
#
# Indices 1 2 3 4 5 6 
#
# 1 0.014987 0.000982 -0.004762 0.000639 -0.007562 -0.000630
# 2 0.000982 0.007471 -0.005208 0.000269 -0.001500 -0.000056
# 3 -0.004762 -0.005208 0.021150 -0.002833 -0.004454 0.002372
# 4 0.000639 0.000269 -0.002833 0.021213 -0.000652 -0.004199
# 5 -0.007562 -0.001500 -0.004454 -0.000652 0.028286 0.000300
# 6 -0.000630 -0.000056 0.002372 -0.004199 0.000300 0.023198
#
#
# Mechanical properties :
#
#
# Convention : Reuss Voigt Hill
#
# Bulk Modulus (GPa) = 39.01398 58.98611 49.00004
# Shear Modulus (GPa) = 35.00810 44.47626 39.74218
#
# Velocity S-wave (km/s) = 3.73171 4.20618 3.97603
# Velocity P-wave (km/s) = 5.83839 6.85953 6.36945
#
# Compressibility (1/GPa) = 0.02563184
#
# Stress axis : x y z
#
# Youngs Moduli (GPa) = 66.72502 133.85641 47.28067
#
# Poissons Ratio (x) = -0.13146 0.22516
# Poissons Ratio (y) = -0.06553 0.24623
# Poissons Ratio (z) = 0.31776 0.69710
#
# Static dielectric constant tensor:
#      x y z
#    x 1.991580 0.003540 -0.069300 
#    y 0.003540 2.055650 0.006280 
#    z -0.069300 0.006280 2.015150 
# 
# From -- ./inp_files/160131.got.cif
#   From: 2010.05.17/outbox.cif.g08.bks.cpg/sg2_81_cif.got.tgz:160131.got - 2010.06.03 11:33:40.
