data_PCOD9064884
_publ_section_title
;
Structure prediction by ZEFSAII (Michael W. Deem and Ramdas Pophale) SiO2 
 PCOD9064884
Probable space group: P -1
;
_chemical_formula_sum "Si O2"
_cell_formula_units_Z 12
_cell_length_a 11.149320
_cell_length_b 18.926818
_cell_length_c 6.076518
_cell_angle_alpha 78.579492
_cell_angle_beta 102.088442
_cell_angle_gamma 156.536345
_cell_volume 499.180664
_symmetry_space_group_name_H-M "P -1"
_symmetry_group_IT_number 2
_symmetry_cell_setting 'triclinic'
loop_
_space_group_symop_operation_xyz
x,y,z
-x,-y,-z
loop_
_atom_site_type_symbol
_atom_site_label
_atom_site_fract_x
_atom_site_fract_y
_atom_site_fract_z
Si Si1 0.163271 0.483725 0.120058
Si Si2 0.215615 0.650458 0.307312
Si Si3 0.332948 0.357879 0.694898
Si Si4 0.333071 0.869390 0.710656
Si Si5 0.907428 0.145480 0.023219
Si Si6 0.904421 0.031805 0.430088
O O1 0.282059 0.623868 0.166651
O O2 0.428662 0.569249 0.155943
O O3 0.931579 0.328963 0.312354
O O4 0.972741 0.391937 0.879209
O O5 0.000000 0.500000 0.500000
O O6 0.540585 0.846150 0.411142
O O7 0.500000 0.500000 0.500000
O O8 0.081107 0.173671 0.590722
O O9 0.159020 0.306765 0.850970
O O10 0.170295 0.840768 0.821451
O O11 0.500000 0.000000 0.500000
O O12 0.594458 0.969991 0.882819
O O13 0.000172 0.119909 0.182181
O O14 0.000000 0.000000 0.500000
#
# Coordination Sequence:
#
# PCOD9064884 Si02
#       6
#     2   2   2   2   2   2
#     4  11  25  47  71 106 145 190 250 302 368 437
#     4  11  27  46  74 105 143 196 248 304 363 443
#     4  12  28  48  75 113 151 194 247 309 371 440
#     4  11  24  46  75 106 142 193 246 309 367 442
#     4  11  26  45  76 106 147 192 250 299 376 438
#     4  12  26  49  72 109 146 198 244 308 371 437
#
# _framework density 24.039393
#
# number of rings (size 3 to 8) (size 9 to 14) (size 15 to 20)
#    0.000    0.667    3.333    3.000    7.000    4.667 
#    0.000    0.000    0.000    0.000    0.000    0.000 
#    0.000    0.000    0.000    0.000    0.000    0.000 
#
# Total GULP energy -67219.470273 kJ/mol
# GULP energy per Si atom -5601.622523 kJ/mol
# Density = 2.398468 g / cm^3
# Si number density = 24.039393 Si / 1000 Ang^3
#
#
#
# Elastic Constant Matrix: (Units=GPa)
#
#
# Indices 1 2 3 4 5 6 
#
# 1 128.5847 47.3011 62.2859 4.2049 14.5108 13.9908
# 2 47.3011 174.0947 68.2346 8.4132 -3.1763 8.4930
# 3 62.2859 68.2346 127.0783 -16.5655 15.5389 15.0141
# 4 4.2049 8.4132 -16.5655 57.6648 9.8151 -0.9241
# 5 14.5108 -3.1763 15.5389 9.8151 43.7273 3.8848
# 6 13.9908 8.4930 15.0141 -0.9241 3.8848 43.2008
#
#
#
# Elastic Compliance Matrix: (Units=1/GPa)
#
#
# Indices 1 2 3 4 5 6 
#
# 1 0.010768 -0.000985 -0.004606 -0.001739 -0.001476 -0.001597
# 2 -0.000985 0.008017 -0.004600 -0.002966 0.003210 -0.000011
# 3 -0.004606 -0.004600 0.014212 0.005911 -0.005008 -0.001966
# 4 -0.001739 -0.002966 0.005911 0.020689 -0.006392 0.000110
# 5 -0.001476 0.003210 -0.005008 -0.006392 0.026892 -0.000968
# 6 -0.001597 -0.000011 -0.001966 0.000110 -0.000968 0.024440
#
#
# Mechanical properties :
#
#
# Convention : Reuss Voigt Hill
#
# Bulk Modulus (GPa) = 79.27578 87.26674 83.27126
# Shear Modulus (GPa) = 38.57887 45.71433 42.14660
#
# Velocity S-wave (km/s) = 4.01036 4.36551 4.19170
# Velocity P-wave (km/s) = 7.38194 7.86070 7.62508
#
# Compressibility (1/GPa) = 0.01261419
#
# Stress axis : x y z
#
# Youngs Moduli (GPa) = 92.86914 124.73661 70.36379
#
# Poissons Ratio (x) = 0.12289 0.32412
# Poissons Ratio (y) = 0.09149 0.32365
# Poissons Ratio (z) = 0.42778 0.57375
#
# Static dielectric constant tensor:
#      x y z
#    x 1.920040 -0.033780 -0.022260 
#    y -0.033780 1.918530 0.012960 
#    z -0.022260 0.012960 1.959970 
# 
# From -- ./inp_files/39382.got.cif
#   From: 2010.05.17/outbox.cif.g08.bks.cpg/sg2_20_cif.got.tgz:39382.got - 2010.06.03 11:33:40.
