data_PCOD9064220
_publ_section_title
;
Structure prediction by ZEFSAII (Michael W. Deem and Ramdas Pophale) SiO2 
 PCOD9064220
Probable space group: P -1
;
_chemical_formula_sum "Si O2"
_cell_formula_units_Z 16
_cell_length_a 11.888889
_cell_length_b 7.807825
_cell_length_c 18.105086
_cell_angle_alpha 54.888006
_cell_angle_beta 30.940286
_cell_angle_gamma 50.372463
_cell_volume 663.842856
_symmetry_space_group_name_H-M "P -1"
_symmetry_group_IT_number 2
_symmetry_cell_setting 'triclinic'
loop_
_space_group_symop_operation_xyz
x,y,z
-x,-y,-z
loop_
_atom_site_type_symbol
_atom_site_label
_atom_site_fract_x
_atom_site_fract_y
_atom_site_fract_z
Si Si1 0.505689 0.432981 0.631122
Si Si2 0.941671 0.707808 0.649776
Si Si3 0.620887 0.963055 0.641435
Si Si4 0.217188 0.906280 0.954668
Si Si5 0.288120 0.945922 0.592847
Si Si6 0.757141 0.672149 0.069837
Si Si7 0.643188 0.757305 0.949369
Si Si8 0.172754 0.719532 0.168483
O O1 0.459500 0.225704 0.669190
O O2 0.365253 0.677130 0.618798
O O3 0.438441 0.404353 0.760671
O O4 0.781578 0.368014 0.482841
O O5 0.818228 0.773820 0.782498
O O6 0.890145 0.484719 0.714043
O O7 0.815154 0.891232 0.613990
O O8 0.445611 0.834298 0.792781
O O9 0.731265 0.942396 0.504360
O O10 0.256881 0.087849 0.946070
O O11 0.173689 0.724943 0.077516
O O12 0.000000 0.000000 0.000000
O O13 0.500000 0.000000 0.500000
O O14 0.037925 0.058793 0.743769
O O15 0.755227 0.646555 0.989742
O O16 0.000000 0.500000 0.000000
O O17 0.432676 0.688873 0.053266
O O18 0.500000 0.000000 0.000000
#
# Coordination Sequence:
#
# PCOD9064220 Si02
#       8
#     2   2   2   2   2   2   2   2
#     4  11  26  48  74 109 148 194 248 306 377 441
#     4  12  27  48  75 111 151 197 247 308 383 451
#     4  11  26  46  73 106 146 197 248 304 376 445
#     4  11  24  45  72 105 150 190 247 301 369 443
#     4  12  26  48  72 109 152 192 250 311 372 449
#     4  11  26  46  74 111 143 196 248 306 372 439
#     4  12  26  48  75 107 151 193 254 313 369 449
#     4  12  26  47  74 112 152 201 249 308 383 442
#
# _framework density 24.10209
#
# number of rings (size 3 to 8) (size 9 to 14) (size 15 to 20)
#    0.000    0.500    3.750    3.375    5.250    2.500 
#    0.000    0.000    0.000    0.000    0.000    0.000 
#    0.000    0.000    0.000    0.000    0.000    0.000 
#
# Total GULP energy -89542.462550 kJ/mol
# GULP energy per Si atom -5596.403909 kJ/mol
# Density = 2.404723 g / cm^3
# Si number density = 24.102090 Si / 1000 Ang^3
#
#
#
# Elastic Constant Matrix: (Units=GPa)
#
#
# Indices 1 2 3 4 5 6 
#
# 1 139.8442 15.7560 66.7827 9.7636 26.1592 -33.7088
# 2 15.7560 102.9306 38.5608 14.8326 7.4859 -20.9596
# 3 66.7827 38.5608 177.6366 24.7510 22.9015 -20.2555
# 4 9.7636 14.8326 24.7510 44.4298 -2.1338 -2.1596
# 5 26.1592 7.4859 22.9015 -2.1338 42.7776 -2.6756
# 6 -33.7088 -20.9596 -20.2555 -2.1596 -2.6756 38.5221
#
#
#
# Elastic Compliance Matrix: (Units=1/GPa)
#
#
# Indices 1 2 3 4 5 6 
#
# 1 0.011615 0.001735 -0.002808 -0.001380 -0.005398 0.009179
# 2 0.001735 0.012122 -0.001809 -0.003181 -0.001944 0.006849
# 3 -0.002808 -0.001809 0.007871 -0.003258 -0.002321 0.000353
# 4 -0.001380 -0.003181 -0.003258 0.025750 0.004247 -0.002913
# 5 -0.005398 -0.001944 -0.002321 0.004247 0.028171 -0.004806
# 6 0.009179 0.006849 0.000353 -0.002913 -0.004806 0.037406
#
#
# Mechanical properties :
#
#
# Convention : Reuss Voigt Hill
#
# Bulk Modulus (GPa) = 38.69516 73.62338 56.15927
# Shear Modulus (GPa) = 36.41272 45.10004 40.75638
#
# Velocity S-wave (km/s) = 3.89108 4.33044 4.11663
# Velocity P-wave (km/s) = 6.02303 7.45764 6.77839
#
# Compressibility (1/GPa) = 0.02584303
#
# Stress axis : x y z
#
# Youngs Moduli (GPa) = 86.09540 82.49664 127.04219
#
# Poissons Ratio (x) = -0.14310 0.35679
# Poissons Ratio (y) = -0.14934 0.22978
# Poissons Ratio (z) = 0.24180 0.14921
#
# Static dielectric constant tensor:
#      x y z
#    x 0.223740 -0.406530 0.761890 
#    y -0.406530 1.838540 0.181080 
#    z 0.761890 0.181080 1.535040 
# 
# From -- ./inp_files/262965.got.cif
#   From: 2010.05.17/outbox.cif.g08.bks.cpg/sg2_132_cif.got.tgz:262965.got - 2010.06.03 11:33:40.
