data_PCOD9064206
_publ_section_title
;
Structure prediction by ZEFSAII (Michael W. Deem and Ramdas Pophale) SiO2 
 PCOD9064206
Probable space group: P -1
;
_chemical_formula_sum "Si O2"
_cell_formula_units_Z 16
_cell_length_a 23.803795
_cell_length_b 8.191982
_cell_length_c 14.905236
_cell_angle_alpha 46.406269
_cell_angle_beta 162.007151
_cell_angle_gamma 135.199358
_cell_volume 631.202032
_symmetry_space_group_name_H-M "P -1"
_symmetry_group_IT_number 2
_symmetry_cell_setting 'triclinic'
loop_
_space_group_symop_operation_xyz
x,y,z
-x,-y,-z
loop_
_atom_site_type_symbol
_atom_site_label
_atom_site_fract_x
_atom_site_fract_y
_atom_site_fract_z
Si Si1 0.672522 0.217506 0.193770
Si Si2 0.605436 0.482992 0.758947
Si Si3 0.230509 0.113702 0.860766
Si Si4 0.288858 0.018207 0.176463
Si Si5 0.252820 0.099276 0.418082
Si Si6 0.569021 0.455507 0.220653
Si Si7 0.112588 0.749057 0.178442
Si Si8 0.105825 0.748825 0.667148
O O1 0.816448 0.259712 0.311809
O O2 0.770701 0.114612 0.465708
O O3 0.542997 0.399580 0.944604
O O4 0.500000 0.000000 0.000000
O O5 0.500000 0.500000 0.500000
O O6 0.678966 0.718074 0.837714
O O7 0.459410 0.270729 0.666968
O O8 0.794256 0.400631 0.061396
O O9 0.115039 0.310454 0.628995
O O10 0.169933 0.002119 0.714608
O O11 0.192925 0.977565 0.948664
O O12 0.453259 0.194897 0.164843
O O13 0.500000 0.000000 0.500000
O O14 0.174482 0.832311 0.141354
O O15 0.202557 0.965725 0.298450
O O16 0.108148 0.264184 0.147643
O O17 0.785187 0.456220 0.562187
O O18 0.500000 0.500000 0.000000
#
# Coordination Sequence:
#
# PCOD9064206 Si02
#       8
#     2   2   2   2   2   2   2   2
#     4  12  24  43  73  99 138 184 229 285 348 413
#     4  12  24  43  71 103 141 181 228 284 352 417
#     4  11  25  45  69 100 137 180 233 289 343 409
#     4  12  24  43  73  99 138 184 229 285 348 413
#     4  11  24  45  72 104 141 184 232 286 348 420
#     4  12  24  43  71 103 141 181 228 284 352 417
#     4  11  24  45  72 104 141 184 232 286 348 420
#     4  11  25  45  69 100 137 180 233 289 343 409
#
# _framework density 25.348459999999999
#
# number of rings (size 3 to 8) (size 9 to 14) (size 15 to 20)
#    0.000    0.500    5.000    3.750    0.000    4.000 
#    0.000    3.750    0.000    0.000    0.000    0.000 
#    0.000    0.000    0.000    0.000    0.000    0.000 
#
# Total GULP energy -89359.423568 kJ/mol
# GULP energy per Si atom -5584.963973 kJ/mol
# Density = 2.529077 g / cm^3
# Si number density = 25.348460 Si / 1000 Ang^3
#
#
#
# Elastic Constant Matrix: (Units=GPa)
#
#
# Indices 1 2 3 4 5 6 
#
# 1 111.4302 3.4962 21.2615 -24.2338 -19.0547 -12.6523
# 2 3.4962 31.2600 5.6940 -8.3600 5.1747 -11.4258
# 3 21.2615 5.6940 143.9293 -38.6788 15.6945 -7.7537
# 4 -24.2338 -8.3600 -38.6788 40.6343 -2.8813 -2.5744
# 5 -19.0547 5.1747 15.6945 -2.8813 56.9170 -15.3369
# 6 -12.6523 -11.4258 -7.7537 -2.5744 -15.3369 31.1148
#
#
#
# Elastic Compliance Matrix: (Units=1/GPa)
#
#
# Indices 1 2 3 4 5 6 
#
# 1 0.013889 0.004468 0.000534 0.011052 0.007959 0.012259
# 2 0.004468 0.042200 0.002550 0.015334 0.003357 0.020872
# 3 0.000534 0.002550 0.009916 0.010443 -0.001210 0.003892
# 4 0.011052 0.015334 0.010443 0.046076 0.007167 0.020072
# 5 0.007959 0.003357 -0.001210 0.007167 0.025263 0.017213
# 6 0.012259 0.020872 0.003892 0.020072 0.017213 0.055904
#
#
# Mechanical properties :
#
#
# Convention : Reuss Voigt Hill
#
# Bulk Modulus (GPa) = 12.32919 38.61365 25.47142
# Shear Modulus (GPa) = 24.36894 42.81106 33.59000
#
# Velocity S-wave (km/s) = 3.10394 4.11408 3.64418
# Velocity P-wave (km/s) = 4.20956 6.15092 5.27040
#
# Compressibility (1/GPa) = 0.08110833
#
# Stress axis : x y z
#
# Youngs Moduli (GPa) = 72.00188 23.69679 100.84703
#
# Poissons Ratio (x) = -0.10588 -0.05386
# Poissons Ratio (y) = -0.32172 -0.25713
# Poissons Ratio (z) = -0.03846 -0.06042
#
# Static dielectric constant tensor:
#      x y z
#    x 2.134530 -0.261100 -0.064740 
#    y -0.261100 2.717790 0.040840 
#    z -0.064740 0.040840 1.981320 
# 
# From -- ./inp_files/542658.got.cif
#   From: 2010.05.17/outbox.cif.g08.bks.cpg/sg2_272_cif.got.tgz:542658.got - 2010.06.03 11:33:40.
