data_PCOD9064569
_publ_section_title
;
Structure prediction by ZEFSAII (Michael W. Deem and Ramdas Pophale) SiO2 
 PCOD9064569
Probable space group: P -1
;
_chemical_formula_sum "Si O2"
_cell_formula_units_Z 14
_cell_length_a 12.276578
_cell_length_b 9.046828
_cell_length_c 11.502689
_cell_angle_alpha 153.420248
_cell_angle_beta 79.419995
_cell_angle_gamma 95.816883
_cell_volume 556.139594
_symmetry_space_group_name_H-M "P -1"
_symmetry_group_IT_number 2
_symmetry_cell_setting 'triclinic'
loop_
_space_group_symop_operation_xyz
x,y,z
-x,-y,-z
loop_
_atom_site_type_symbol
_atom_site_label
_atom_site_fract_x
_atom_site_fract_y
_atom_site_fract_z
Si Si1 0.015878 0.523994 0.374569
Si Si2 0.192173 0.660452 0.833163
Si Si3 0.529453 0.597947 0.692405
Si Si4 0.371987 0.148671 0.530297
Si Si5 0.319974 0.450471 0.004276
Si Si6 0.725867 0.751758 0.884150
Si Si7 0.088735 0.761646 0.172536
O O1 0.144622 0.397969 0.238045
O O2 0.000000 0.500000 0.500000
O O3 0.922534 0.320782 0.199499
O O4 0.984038 0.873824 0.556704
O O5 0.261495 0.298054 0.583217
O O6 0.157153 0.782333 0.053834
O O7 0.271805 0.886105 0.915144
O O8 0.500000 0.500000 0.500000
O O9 0.464983 0.370849 0.629061
O O10 0.660331 0.541409 0.660964
O O11 0.500000 0.000000 0.000000
O O12 0.390207 0.759927 0.222454
O O13 0.347619 0.231856 0.729333
O O14 0.331312 0.248034 0.979297
O O15 0.188707 0.619697 0.139809
O O16 0.000000 0.500000 0.000000
#
# Coordination Sequence:
#
# PCOD9064569 Si02
#       7
#     2   2   2   2   2   2   2
#     4  12  26  41  73 108 150 194 250 311 371 449
#     4  11  24  46  69 105 147 196 249 304 373 455
#     4  12  28  50  81 111 148 200 257 315 374 449
#     4  11  25  50  78 104 153 199 249 304 382 443
#     4  11  27  47  76 112 150 197 247 313 379 449
#     4  12  28  46  74 115 144 199 259 315 374 449
#     4  11  25  44  69 104 153 201 238 301 384 449
#
# _framework density 25.173535000000001
#
# number of rings (size 3 to 8) (size 9 to 14) (size 15 to 20)
#    0.000    0.571    4.286    2.143   10.000    3.429 
#    0.000    0.000    0.000    0.000    0.000    0.000 
#    0.000    0.000    0.000    0.000    0.000    0.000 
#
# Total GULP energy -78452.107165 kJ/mol
# GULP energy per Si atom -5603.721940 kJ/mol
# Density = 2.511624 g / cm^3
# Si number density = 25.173535 Si / 1000 Ang^3
#
#
#
# Elastic Constant Matrix: (Units=GPa)
#
#
# Indices 1 2 3 4 5 6 
#
# 1 139.5739 31.6796 38.9321 1.5337 25.5285 -5.3662
# 2 31.6796 165.9787 46.2050 -8.0264 21.1379 0.0845
# 3 38.9321 46.2050 109.1301 6.6428 17.4168 1.4867
# 4 1.5337 -8.0264 6.6428 40.9531 -3.8274 9.9287
# 5 25.5285 21.1379 17.4168 -3.8274 43.7010 0.3643
# 6 -5.3662 0.0845 1.4867 9.9287 0.3643 41.9324
#
#
#
# Elastic Compliance Matrix: (Units=1/GPa)
#
#
# Indices 1 2 3 4 5 6 
#
# 1 0.008705 -0.000580 -0.002189 -0.000803 -0.004014 0.001418
# 2 -0.000580 0.007202 -0.002636 0.001777 -0.001935 -0.000399
# 3 -0.002189 -0.002636 0.011578 -0.002508 -0.002279 -0.000072
# 4 -0.000803 0.001777 -0.002508 0.027050 0.003032 -0.006449
# 5 -0.004014 -0.001935 -0.002279 0.003032 0.027349 -0.001385
# 6 0.001418 -0.000399 -0.000072 -0.006449 -0.001385 0.025572
#
#
# Mechanical properties :
#
#
# Convention : Reuss Voigt Hill
#
# Bulk Modulus (GPa) = 59.97813 72.03513 66.00663
# Shear Modulus (GPa) = 40.37959 45.17505 42.77732
#
# Velocity S-wave (km/s) = 4.00940 4.24080 4.12673
# Velocity P-wave (km/s) = 6.73137 7.25650 6.99886
#
# Compressibility (1/GPa) = 0.01667274
#
# Stress axis : x y z
#
# Youngs Moduli (GPa) = 114.88211 138.84953 86.37041
#
# Poissons Ratio (x) = 0.08057 0.18911
# Poissons Ratio (y) = 0.06667 0.22769
# Poissons Ratio (z) = 0.25153 0.36603
#
# Static dielectric constant tensor:
#      x y z
#    x 1.998960 0.009150 -0.056310 
#    y 0.009150 1.875030 0.031840 
#    z -0.056310 0.031840 2.010410 
# 
# From -- ./inp_files/46715.got.cif
#   From: 2010.05.17/outbox.cif.g08.bks.cpg/sg2_24_cif.got.tgz:46715.got - 2010.06.03 11:33:40.
