data_PCOD9064264
_publ_section_title
;
Structure prediction by ZEFSAII (Michael W. Deem and Ramdas Pophale) SiO2 
 PCOD9064264
Probable space group: P -1
;
_chemical_formula_sum "Si O2"
_cell_formula_units_Z 14
_cell_length_a 12.441750
_cell_length_b 22.662551
_cell_length_c 9.480450
_cell_angle_alpha 141.392002
_cell_angle_beta 125.880390
_cell_angle_gamma 25.805722
_cell_volume 654.782712
_symmetry_space_group_name_H-M "P -1"
_symmetry_group_IT_number 2
_symmetry_cell_setting 'triclinic'
loop_
_space_group_symop_operation_xyz
x,y,z
-x,-y,-z
loop_
_atom_site_type_symbol
_atom_site_label
_atom_site_fract_x
_atom_site_fract_y
_atom_site_fract_z
Si Si1 0.379318 0.990595 0.792687
Si Si2 0.023430 0.969280 0.795024
Si Si3 0.857857 0.542319 0.338041
Si Si4 0.231870 0.075669 0.516434
Si Si5 0.476569 0.632523 0.339854
Si Si6 0.175572 0.760067 0.073470
Si Si7 0.164345 0.319556 0.876037
O O1 0.299063 0.065278 0.709358
O O2 0.114912 0.110965 0.890789
O O3 0.605229 0.768018 0.528525
O O4 0.500000 0.000000 0.000000
O O5 0.844411 0.152821 0.905787
O O6 0.939000 0.913705 0.594890
O O7 0.334769 0.784367 0.633070
O O8 0.000000 0.000000 0.000000
O O9 0.730676 0.522641 0.252441
O O10 0.000000 0.500000 0.500000
O O11 0.074320 0.397724 0.110979
O O12 0.090050 0.255393 0.672068
O O13 0.515072 0.876733 0.281347
O O14 0.252350 0.760040 0.281899
O O15 0.585945 0.466983 0.180295
O O16 0.000000 0.500000 0.000000
#
# Coordination Sequence:
#
# PCOD9064264 Si02
#       7
#     2   2   2   2   2   2   2
#     4  12  23  44  75 105 143 183 237 299 352 422
#     4  12  27  45  70 102 145 187 233 294 356 423
#     4  12  25  43  69 106 141 180 240 293 347 423
#     4  11  25  46  68 102 142 186 238 290 356 419
#     4  11  24  45  74 101 135 186 238 290 351 422
#     4  11  24  45  73 102 137 185 239 290 353 419
#     4  11  25  44  68  98 138 187 226 287 353 415
#
# _framework density 21.381139000000001
#
# number of rings (size 3 to 8) (size 9 to 14) (size 15 to 20)
#    0.000    0.571    4.286    3.857    4.000    2.857 
#    2.571    0.000    0.000    0.000    0.000    0.000 
#    0.000    0.000    0.000    0.000    0.000    0.000 
#
# Total GULP energy -78278.486370 kJ/mol
# GULP energy per Si atom -5591.320455 kJ/mol
# Density = 2.133247 g / cm^3
# Si number density = 21.381139 Si / 1000 Ang^3
#
#
#
# Elastic Constant Matrix: (Units=GPa)
#
#
# Indices 1 2 3 4 5 6 
#
# 1 122.7837 55.3171 49.7816 -6.2141 3.8447 17.4500
# 2 55.3171 89.3061 52.8596 -0.0879 5.4157 17.6190
# 3 49.7816 52.8596 121.5730 1.0978 -12.4464 30.0119
# 4 -6.2141 -0.0879 1.0978 39.1400 11.9287 17.2478
# 5 3.8447 5.4157 -12.4464 11.9287 48.2624 5.1293
# 6 17.4500 17.6190 30.0119 17.2478 5.1293 46.7645
#
#
#
# Elastic Compliance Matrix: (Units=1/GPa)
#
#
# Indices 1 2 3 4 5 6 
#
# 1 0.012099 -0.005732 -0.002138 0.003319 -0.001475 -0.002045
# 2 -0.005732 0.018589 -0.005808 0.000735 -0.003196 -0.001058
# 3 -0.002138 -0.005808 0.013761 0.000692 0.004905 -0.006639
# 4 0.003319 0.000735 0.000692 0.034347 -0.007187 -0.013839
# 5 -0.001475 -0.003196 0.004905 -0.007187 0.024388 -0.001418
# 6 -0.002045 -0.001058 -0.006639 -0.013839 -0.001418 0.032066
#
#
# Mechanical properties :
#
#
# Convention : Reuss Voigt Hill
#
# Bulk Modulus (GPa) = 58.50592 72.17550 65.34071
# Shear Modulus (GPa) = 29.70829 38.54701 34.12765
#
# Velocity S-wave (km/s) = 3.73159 4.25061 3.99953
# Velocity P-wave (km/s) = 6.78153 7.61053 7.20795
#
# Compressibility (1/GPa) = 0.01709229
#
# Stress axis : x y z
#
# Youngs Moduli (GPa) = 82.65476 53.79508 72.66951
#
# Poissons Ratio (x) = 0.30838 0.15535
# Poissons Ratio (y) = 0.47382 0.42206
# Poissons Ratio (z) = 0.17669 0.31244
#
# Static dielectric constant tensor:
#      x y z
#    x 1.794860 0.020020 0.055850 
#    y 0.020020 1.785410 0.051330 
#    z 0.055850 0.051330 1.766360 
# 
# From -- ./inp_files/270423.got.cif
#   From: 2010.05.17/outbox.cif.g08.bks.cpg/sg2_136_cif.got.tgz:270423.got - 2010.06.03 11:33:40.
