data_PCOD9064741
_publ_section_title
;
Structure prediction by ZEFSAII (Michael W. Deem and Ramdas Pophale) SiO2 
 PCOD9064741
Probable space group: P -1
;
_chemical_formula_sum "Si O2"
_cell_formula_units_Z 13
_cell_length_a 9.824171
_cell_length_b 9.244881
_cell_length_c 13.210060
_cell_angle_alpha 49.981600
_cell_angle_beta 53.716273
_cell_angle_gamma 88.763513
_cell_volume 602.592196
_symmetry_space_group_name_H-M "P -1"
_symmetry_group_IT_number 2
_symmetry_cell_setting 'triclinic'
loop_
_space_group_symop_operation_xyz
x,y,z
-x,-y,-z
loop_
_atom_site_type_symbol
_atom_site_label
_atom_site_fract_x
_atom_site_fract_y
_atom_site_fract_z
Si Si1 0.853665 0.647501 0.439606
Si Si2 0.279973 0.766161 0.176310
Si Si3 0.500000 0.500000 0.500000
Si Si4 0.507186 0.727408 0.920803
Si Si5 0.963481 0.976946 0.645959
Si Si6 0.854223 0.259034 0.229141
Si Si7 0.508631 0.923343 0.375245
O O1 0.783282 0.399837 0.624770
O O2 0.688178 0.616647 0.447975
O O3 0.085387 0.775151 0.234944
O O4 0.879674 0.794251 0.461499
O O5 0.323382 0.663622 0.105925
O O6 0.500000 0.000000 0.000000
O O7 0.515632 0.746958 0.379503
O O8 0.730025 0.895558 0.801295
O O9 0.505821 0.882029 0.761913
O O10 0.500000 0.500000 0.000000
O O11 0.997531 0.791158 0.757232
O O12 0.000000 0.000000 0.500000
O O13 0.694872 0.237878 0.391851
O O14 0.706478 0.065226 0.298218
O O15 0.000000 0.500000 0.000000
#
# Coordination Sequence:
#
# PCOD9064741 Si02
#       7
#     2   2   1   2   2   2   2
#     4  11  26  46  73 106 151 202 246 319 377 458
#     4  11  24  46  72 108 147 192 258 309 385 450
#     4  12  26  48  76 102 158 208 244 308 396 448
#     4  12  25  44  77 110 147 198 257 318 383 459
#     4  12  23  45  76 109 147 198 250 320 384 448
#     4  11  25  47  74 106 150 198 255 312 385 454
#     4  11  26  48  70 109 151 199 251 312 379 459
#
# _framework density 21.573461999999999
#
# number of rings (size 3 to 8) (size 9 to 14) (size 15 to 20)
#    0.000    0.615    4.615    2.769    2.154    3.692 
#    2.769    3.846    0.000    0.000    0.000    0.000 
#    0.000    0.000    0.000    0.000    0.000    0.000 
#
# Total GULP energy -72408.072818 kJ/mol
# GULP energy per Si atom -5569.851755 kJ/mol
# Density = 2.152436 g / cm^3
# Si number density = 21.573462 Si / 1000 Ang^3
#
#
#
# Elastic Constant Matrix: (Units=GPa)
#
#
# Indices 1 2 3 4 5 6 
#
# 1 179.4398 46.9218 52.7350 -0.7324 16.4665 18.6077
# 2 46.9218 106.4360 30.5827 -8.8298 5.5051 1.9494
# 3 52.7350 30.5827 114.8661 -4.2145 4.8074 -8.1132
# 4 -0.7324 -8.8298 -4.2145 32.1879 -8.7223 2.1876
# 5 16.4665 5.5051 4.8074 -8.7223 27.8262 -13.2373
# 6 18.6077 1.9494 -8.1132 2.1876 -13.2373 25.8377
#
#
#
# Elastic Compliance Matrix: (Units=1/GPa)
#
#
# Indices 1 2 3 4 5 6 
#
# 1 0.010435 -0.002566 -0.004767 -0.003646 -0.013269 -0.015308
# 2 -0.002566 0.011202 -0.001684 0.002976 0.000836 0.000650
# 3 -0.004767 -0.001684 0.011884 0.002109 0.006804 0.010599
# 4 -0.003646 0.002976 0.002109 0.035976 0.016514 0.008478
# 5 -0.013269 0.000836 0.006804 0.016514 0.069408 0.045791
# 6 -0.015308 0.000650 0.010599 0.008478 0.045791 0.075748
#
#
# Mechanical properties :
#
#
# Convention : Reuss Voigt Hill
#
# Bulk Modulus (GPa) = 64.57375 73.46900 69.02137
# Shear Modulus (GPa) = 21.02149 35.20383 28.11266
#
# Velocity S-wave (km/s) = 3.12495 4.04395 3.61378
# Velocity P-wave (km/s) = 6.55877 7.47890 7.03389
#
# Compressibility (1/GPa) = 0.01548617
#
# Stress axis : x y z
#
# Youngs Moduli (GPa) = 95.83053 89.26670 84.14639
#
# Poissons Ratio (x) = 0.22909 0.40114
# Poissons Ratio (y) = 0.24593 0.14172
# Poissons Ratio (z) = 0.45684 0.15035
#
# Static dielectric constant tensor:
#      x y z
#    x 1.744640 -0.003890 0.000350 
#    y -0.003890 1.831550 -0.022900 
#    z 0.000350 -0.022900 1.760350 
# 
# From -- ./inp_files/377580.got.cif
#   From: 2010.05.17/outbox.cif.g08.bks.cpg/sg2_189_cif.got.tgz:377580.got - 2010.06.03 11:33:40.
