data_PCOD9064179
_publ_section_title
;
Structure prediction by ZEFSAII (Michael W. Deem and Ramdas Pophale) SiO2 
 PCOD9064179
Probable space group: P -1
;
_chemical_formula_sum "Si O2"
_cell_formula_units_Z 16
_cell_length_a 5.002775
_cell_length_b 22.727862
_cell_length_c 8.347200
_cell_angle_alpha 62.627142
_cell_angle_beta 116.555139
_cell_angle_gamma 76.908814
_cell_volume 632.645677
_symmetry_space_group_name_H-M "P -1"
_symmetry_group_IT_number 2
_symmetry_cell_setting 'triclinic'
loop_
_space_group_symop_operation_xyz
x,y,z
-x,-y,-z
loop_
_atom_site_type_symbol
_atom_site_label
_atom_site_fract_x
_atom_site_fract_y
_atom_site_fract_z
Si Si1 0.737700 0.854008 0.717931
Si Si2 0.832896 0.361731 0.391164
Si Si3 0.621782 0.032461 0.269824
Si Si4 0.362230 0.926373 0.248675
Si Si5 0.330720 0.426965 0.481567
Si Si6 0.389828 0.405563 0.892071
Si Si7 0.376964 0.188748 0.799518
Si Si8 0.534405 0.239810 0.076977
O O1 0.696635 0.921484 0.739515
O O2 0.370851 0.901954 0.462809
O O3 0.713212 0.788493 0.888512
O O4 0.044285 0.815592 0.714869
O O5 0.591880 0.406470 0.427128
O O6 0.148667 0.377363 0.465222
O O7 0.987014 0.268183 0.570609
O O8 0.637381 0.393674 0.126418
O O9 0.604365 0.963520 0.269338
O O10 0.486077 0.107055 0.021135
O O11 0.000000 0.000000 0.500000
O O12 0.463244 0.847791 0.281356
O O13 0.000000 0.000000 0.000000
O O14 0.488687 0.412197 0.724261
O O15 0.997915 0.517346 0.277527
O O16 0.386239 0.326751 0.982794
O O17 0.555901 0.223597 0.912245
#
# Coordination Sequence:
#
# PCOD9064179 Si02
#       8
#     2   2   2   2   2   2   2   2
#     4  11  25  44  70 100 139 192 240 300 373 449
#     4  12  27  49  76 116 155 199 259 318 381 461
#     4  11  24  45  71  99 142 196 248 308 380 458
#     4  12  24  41  68 105 141 188 248 316 382 447
#     4  11  28  49  78 115 156 201 258 311 380 470
#     4  11  26  49  81 111 158 206 250 316 388 451
#     4  11  25  44  69 106 146 189 249 316 367 457
#     4  11  25  46  70 103 146 189 245 297 374 446
#
# _framework density 25.290617999999998
#
# number of rings (size 3 to 8) (size 9 to 14) (size 15 to 20)
#    0.000    0.750    1.250    5.250    3.500    9.000 
#    0.000    0.000    0.000    0.000    0.000    0.000 
#    0.000    0.000    0.000    0.000    0.000    0.000 
#
# Total GULP energy -89342.888977 kJ/mol
# GULP energy per Si atom -5583.930561 kJ/mol
# Density = 2.523306 g / cm^3
# Si number density = 25.290618 Si / 1000 Ang^3
#
#
#
# Elastic Constant Matrix: (Units=GPa)
#
#
# Indices 1 2 3 4 5 6 
#
# 1 57.6552 6.1431 6.5610 -5.7659 4.1576 15.0209
# 2 6.1431 128.9412 40.0967 -8.7667 -4.8648 1.0443
# 3 6.5610 40.0967 138.6910 -2.4541 -0.6327 0.2432
# 4 -5.7659 -8.7667 -2.4541 56.8408 -3.1045 -4.4068
# 5 4.1576 -4.8648 -0.6327 -3.1045 20.9786 0.6132
# 6 15.0209 1.0443 0.2432 -4.4068 0.6132 36.5074
#
#
#
# Elastic Compliance Matrix: (Units=1/GPa)
#
#
# Indices 1 2 3 4 5 6 
#
# 1 0.019965 -0.000733 -0.000717 0.001056 -0.003758 -0.007998
# 2 -0.000733 0.008727 -0.002455 0.001305 0.002283 0.000188
# 3 -0.000717 -0.002455 0.007951 -0.000096 -0.000211 0.000304
# 4 0.001056 0.001305 -0.000096 0.018176 0.002731 0.001677
# 5 -0.003758 0.002283 -0.000211 0.002731 0.049311 0.000984
# 6 -0.007998 0.000188 0.000304 0.001677 0.000984 0.030861
#
#
# Mechanical properties :
#
#
# Convention : Reuss Voigt Hill
#
# Bulk Modulus (GPa) = 34.68429 47.87655 41.28042
# Shear Modulus (GPa) = 32.80570 41.03113 36.91842
#
# Velocity S-wave (km/s) = 3.60550 4.03225 3.82483
# Velocity P-wave (km/s) = 5.57467 6.37577 5.98863
#
# Compressibility (1/GPa) = 0.02883150
#
# Stress axis : x y z
#
# Youngs Moduli (GPa) = 50.08871 114.58371 125.77322
#
# Poissons Ratio (x) = 0.08405 0.09016
# Poissons Ratio (y) = 0.03674 0.30880
# Poissons Ratio (z) = 0.03591 0.28133
#
# Static dielectric constant tensor:
#      x y z
#    x 1.315810 -0.361360 -0.574780 
#    y -0.361360 1.825380 -0.281350 
#    z -0.574780 -0.281350 1.679660 
# 
# From -- ./inp_files/142284.got.cif
#   From: 2010.05.17/outbox.cif.g08.bks.cpg/sg2_72_cif.got.tgz:142284.got - 2010.06.03 11:33:40.
