data_PCOD9064582
_publ_section_title
;
Structure prediction by ZEFSAII (Michael W. Deem and Ramdas Pophale) SiO2 
 PCOD9064582
Probable space group: P -1
;
_chemical_formula_sum "Si O2"
_cell_formula_units_Z 14
_cell_length_a 15.577994
_cell_length_b 9.762722
_cell_length_c 15.549582
_cell_angle_alpha 34.031175
_cell_angle_beta 30.301291
_cell_angle_gamma 41.241513
_cell_volume 662.172735
_symmetry_space_group_name_H-M "P -1"
_symmetry_group_IT_number 2
_symmetry_cell_setting 'triclinic'
loop_
_space_group_symop_operation_xyz
x,y,z
-x,-y,-z
loop_
_atom_site_type_symbol
_atom_site_label
_atom_site_fract_x
_atom_site_fract_y
_atom_site_fract_z
Si Si1 0.409622 0.279024 0.936918
Si Si2 0.981531 0.806752 0.692907
Si Si3 0.642252 0.567341 0.908397
Si Si4 0.523148 0.363611 0.459066
Si Si5 0.174813 0.038336 0.548944
Si Si6 0.008711 0.809045 0.209273
Si Si7 0.164362 0.271170 0.777198
O O1 0.475893 0.439055 0.720517
O O2 0.207896 0.267599 0.105101
O O3 0.431181 0.396994 0.950489
O O4 0.500000 0.000000 0.000000
O O5 0.109269 0.556027 0.699834
O O6 0.000000 0.000000 0.500000
O O7 0.030292 0.932754 0.672816
O O8 0.709478 0.819815 0.688217
O O9 0.812865 0.367994 0.863943
O O10 0.500000 0.500000 0.000000
O O11 0.500000 0.500000 0.500000
O O12 0.363879 0.212842 0.657487
O O13 0.699992 0.182665 0.401575
O O14 0.086294 0.216919 0.605660
O O15 0.883880 0.764562 0.261758
O O16 0.055810 0.087663 0.017220
#
# Coordination Sequence:
#
# PCOD9064582 Si02
#       7
#     2   2   2   2   2   2   2
#     4  12  27  45  73 102 138 189 229 286 352 407
#     4  12  23  46  72  99 140 180 234 286 338 412
#     4  12  27  48  68 103 147 179 232 285 349 419
#     4  12  26  44  70 105 139 175 234 292 345 403
#     4  12  26  44  74 104 134 184 234 285 346 407
#     4  11  26  45  70 100 138 186 228 279 349 415
#     4  11  24  46  69  97 143 180 230 283 346 411
#
# _framework density 21.142520000000001
#
# number of rings (size 3 to 8) (size 9 to 14) (size 15 to 20)
#    0.000    0.286    4.286    3.857    8.000    1.714 
#    0.000    0.000    0.000    0.000    0.000    0.000 
#    0.000    0.000    0.000    0.000    0.000    0.000 
#
# Total GULP energy -78400.987224 kJ/mol
# GULP energy per Si atom -5600.070516 kJ/mol
# Density = 2.109440 g / cm^3
# Si number density = 21.142520 Si / 1000 Ang^3
#
#
#
# Elastic Constant Matrix: (Units=GPa)
#
#
# Indices 1 2 3 4 5 6 
#
# 1 151.4501 20.8770 36.6655 16.7074 -10.5786 14.4331
# 2 20.8770 85.5740 -6.3470 9.8230 21.0330 -5.9487
# 3 36.6655 -6.3470 58.2248 2.9358 10.5995 18.0810
# 4 16.7074 9.8230 2.9358 36.5918 -3.4989 3.3238
# 5 -10.5786 21.0330 10.5995 -3.4989 51.7211 0.6986
# 6 14.4331 -5.9487 18.0810 3.3238 0.6986 31.0426
#
#
#
# Elastic Compliance Matrix: (Units=1/GPa)
#
#
# Indices 1 2 3 4 5 6 
#
# 1 0.009439 -0.003786 -0.006785 -0.002203 0.004726 -0.001033
# 2 -0.003786 0.015694 0.005090 -0.003924 -0.008498 0.002414
# 3 -0.006785 0.005090 0.027202 -0.000258 -0.008895 -0.011486
# 4 -0.002203 -0.003924 -0.000258 0.029981 0.003265 -0.002861
# 5 0.004726 -0.008498 -0.008895 0.003265 0.025795 0.000425
# 6 -0.001033 0.002414 -0.011486 -0.002861 0.000425 0.040143
#
#
# Mechanical properties :
#
#
# Convention : Reuss Voigt Hill
#
# Bulk Modulus (GPa) = 24.17104 44.18219 34.17662
# Shear Modulus (GPa) = 28.90054 40.14135 34.52094
#
# Velocity S-wave (km/s) = 3.70122 4.36203 4.04514
# Velocity P-wave (km/s) = 5.45185 6.80532 6.16584
#
# Compressibility (1/GPa) = 0.04137182
#
# Stress axis : x y z
#
# Youngs Moduli (GPa) = 105.94298 63.71809 36.76252
#
# Poissons Ratio (x) = 0.24127 0.24945
# Poissons Ratio (y) = 0.40115 -0.18713
# Poissons Ratio (z) = 0.71886 -0.32435
#
# Static dielectric constant tensor:
#      x y z
#    x 1.756530 -0.030850 -0.000760 
#    y -0.030850 1.786070 0.026110 
#    z -0.000760 0.026110 1.773010 
# 
# From -- ./inp_files/154305.got.cif
#   From: 2010.05.17/outbox.cif.g08.bks.cpg/sg2_78_cif.got.tgz:154305.got - 2010.06.03 11:33:40.
