data_PCOD9064626
_publ_section_title
;
Structure prediction by ZEFSAII (Michael W. Deem and Ramdas Pophale) SiO2 
 PCOD9064626
Probable space group: P -1
;
_chemical_formula_sum "Si O2"
_cell_formula_units_Z 14
_cell_length_a 13.815438
_cell_length_b 8.425815
_cell_length_c 10.913715
_cell_angle_alpha 59.768466
_cell_angle_beta 35.042781
_cell_angle_gamma 51.950367
_cell_volume 574.433624
_symmetry_space_group_name_H-M "P -1"
_symmetry_group_IT_number 2
_symmetry_cell_setting 'triclinic'
loop_
_space_group_symop_operation_xyz
x,y,z
-x,-y,-z
loop_
_atom_site_type_symbol
_atom_site_label
_atom_site_fract_x
_atom_site_fract_y
_atom_site_fract_z
Si Si1 0.339692 0.189443 0.666694
Si Si2 0.937952 0.196272 0.073244
Si Si3 0.854153 0.914784 0.432670
Si Si4 0.266293 0.716323 0.125132
Si Si5 0.628925 0.668866 0.661346
Si Si6 0.410102 0.405508 0.728835
Si Si7 0.642933 0.101717 0.802899
O O1 0.314213 0.367572 0.525610
O O2 0.395456 0.228445 0.729134
O O3 0.500000 0.000000 0.500000
O O4 0.136449 0.197068 0.892386
O O5 0.789235 0.415782 0.101277
O O6 0.838013 0.125737 0.311756
O O7 0.000000 0.000000 0.000000
O O8 0.723319 0.817627 0.549084
O O9 0.067976 0.772481 0.251252
O O10 0.809124 0.953361 0.606371
O O11 0.313344 0.506112 0.228443
O O12 0.281767 0.856551 0.164334
O O13 0.408222 0.737027 0.871497
O O14 0.500000 0.500000 0.500000
O O15 0.528823 0.306152 0.764734
O O16 0.500000 0.000000 0.000000
#
# Coordination Sequence:
#
# PCOD9064626 Si02
#       7
#     2   2   2   2   2   2   2
#     4  12  25  46  75 107 151 193 249 313 373 448
#     4  12  26  46  75 110 144 199 250 308 384 448
#     4  12  24  47  72 105 147 191 252 307 378 448
#     4  11  26  45  73 105 147 194 250 301 385 448
#     4  11  24  46  70 109 144 194 246 307 379 448
#     4  12  26  48  75 105 154 196 248 312 375 448
#     4  12  26  47  73 105 148 199 246 307 380 443
#
# _framework density 24.371829999999999
#
# number of rings (size 3 to 8) (size 9 to 14) (size 15 to 20)
#    0.000    0.286    4.286    4.714    2.000    3.429 
#    0.000    0.000    0.000    0.000    0.000    0.000 
#    0.000    0.000    0.000    0.000    0.000    0.000 
#
# Total GULP energy -78257.923356 kJ/mol
# GULP energy per Si atom -5589.851668 kJ/mol
# Density = 2.431636 g / cm^3
# Si number density = 24.371830 Si / 1000 Ang^3
#
#
#
# Elastic Constant Matrix: (Units=GPa)
#
#
# Indices 1 2 3 4 5 6 
#
# 1 70.7266 16.6474 24.1806 -3.1138 -7.3775 14.2456
# 2 16.6474 78.2287 35.6289 0.3356 -19.7563 -6.8274
# 3 24.1806 35.6289 140.9215 -19.2893 -22.9004 11.8224
# 4 -3.1138 0.3356 -19.2893 52.7423 -3.3476 -0.2882
# 5 -7.3775 -19.7563 -22.9004 -3.3476 48.3572 1.6095
# 6 14.2456 -6.8274 11.8224 -0.2882 1.6095 41.7536
#
#
#
# Elastic Compliance Matrix: (Units=1/GPa)
#
#
# Indices 1 2 3 4 5 6 
#
# 1 0.016648 -0.003240 -0.001341 0.000533 0.000813 -0.005858
# 2 -0.003240 0.016576 -0.003483 -0.001267 0.004386 0.004624
# 3 -0.001341 -0.003483 0.009460 0.003590 0.003197 -0.002889
# 4 0.000533 -0.001267 0.003590 0.020478 0.002727 -0.001369
# 5 0.000813 0.004386 0.003197 0.002727 0.024344 -0.001385
# 6 -0.005858 0.004624 -0.002889 -0.001369 -0.001385 0.027567
#
#
# Mechanical properties :
#
#
# Convention : Reuss Voigt Hill
#
# Bulk Modulus (GPa) = 37.65774 49.19896 43.42835
# Shear Modulus (GPa) = 35.70027 42.79860 39.24944
#
# Velocity S-wave (km/s) = 3.83145 4.19509 4.01739
# Velocity P-wave (km/s) = 5.92099 6.61027 6.27511
#
# Compressibility (1/GPa) = 0.02655496
#
# Stress axis : x y z
#
# Youngs Moduli (GPa) = 60.06644 60.32852 105.70518
#
# Poissons Ratio (x) = 0.19548 0.14175
# Poissons Ratio (y) = 0.19463 0.36822
# Poissons Ratio (z) = 0.08055 0.21015
#
# Static dielectric constant tensor:
#      x y z
#    x 1.921940 -0.047430 0.083110 
#    y -0.047430 2.029410 0.117980 
#    z 0.083110 0.117980 1.668020 
# 
# From -- ./inp_files/446899.got.cif
#   From: 2010.05.17/outbox.cif.g08.bks.cpg/sg2_224_cif.got.tgz:446899.got - 2010.06.03 11:33:40.
