data_PCOD9064289
_publ_section_title
;
Structure prediction by ZEFSAII (Michael W. Deem and Ramdas Pophale) SiO2 
 PCOD9064289
Probable space group: P -1
;
_chemical_formula_sum "Si O2"
_cell_formula_units_Z 16
_cell_length_a 19.896361
_cell_length_b 6.031732
_cell_length_c 19.660096
_cell_angle_alpha 73.276139
_cell_angle_beta 160.149937
_cell_angle_gamma 113.566891
_cell_volume 704.159880
_symmetry_space_group_name_H-M "P -1"
_symmetry_group_IT_number 2
_symmetry_cell_setting 'triclinic'
loop_
_space_group_symop_operation_xyz
x,y,z
-x,-y,-z
loop_
_atom_site_type_symbol
_atom_site_label
_atom_site_fract_x
_atom_site_fract_y
_atom_site_fract_z
Si Si1 0.000146 0.626044 0.915686
Si Si2 0.043819 0.107043 0.836651
Si Si3 0.679687 0.525359 0.833281
Si Si4 0.474251 0.709594 0.512518
Si Si5 0.304628 0.133702 0.581004
Si Si6 0.715574 0.987568 0.178466
Si Si7 0.572761 0.837864 0.906566
Si Si8 0.163665 0.313367 0.562317
O O1 0.987972 0.889281 0.860076
O O2 0.774101 0.427480 0.687918
O O3 0.000000 0.500000 0.000000
O O4 0.233990 0.657320 0.107755
O O5 0.843430 0.052444 0.600804
O O6 0.139121 0.360949 0.947316
O O7 0.242972 0.124587 0.976429
O O8 0.652268 0.721026 0.736842
O O9 0.446626 0.391723 0.656091
O O10 0.500000 0.500000 0.500000
O O11 0.500000 0.000000 0.500000
O O12 0.166837 0.169916 0.508142
O O13 0.482894 0.052163 0.790819
O O14 0.780195 0.820705 0.308163
O O15 0.667211 0.860794 0.069822
O O16 0.913247 0.263559 0.338051
O O17 0.500000 0.000000 0.000000
O O18 0.356972 0.584031 0.716432
#
# Coordination Sequence:
#
# PCOD9064289 Si02
#       8
#     2   2   2   2   2   2   2   2
#     4  12  26  47  76 107 150 191 252 314 387 451
#     4  12  27  44  72 107 144 196 249 304 375 454
#     4  12  27  46  76 107 147 195 251 315 380 459
#     4  12  28  49  78 111 154 200 257 322 394 474
#     4  12  25  45  69 105 144 192 246 298 367 452
#     4  11  24  45  73 105 144 183 241 301 364 443
#     4  12  25  44  73 102 146 190 245 299 370 443
#     4  11  25  45  70 104 143 189 238 298 364 438
#
# _framework density 22.722113
#
# number of rings (size 3 to 8) (size 9 to 14) (size 15 to 20)
#    0.000    0.250    7.500    1.125    1.750    5.500 
#    0.000    0.000    0.000    0.000    0.000    0.000 
#    0.000    0.000    0.000    0.000    0.000    0.000 
#
# Total GULP energy -89249.892205 kJ/mol
# GULP energy per Si atom -5578.118263 kJ/mol
# Density = 2.267040 g / cm^3
# Si number density = 22.722113 Si / 1000 Ang^3
#
#
#
# Elastic Constant Matrix: (Units=GPa)
#
#
# Indices 1 2 3 4 5 6 
#
# 1 98.3998 10.0174 24.5193 -2.3631 -10.3405 8.4665
# 2 10.0174 43.0760 0.9186 1.5863 -2.8824 8.3083
# 3 24.5193 0.9186 107.4175 9.2520 -6.3726 1.5427
# 4 -2.3631 1.5863 9.2520 36.3628 -2.1409 3.5407
# 5 -10.3405 -2.8824 -6.3726 -2.1409 44.9722 -2.1751
# 6 8.4665 8.3083 1.5427 3.5407 -2.1751 21.0255
#
#
#
# Elastic Compliance Matrix: (Units=1/GPa)
#
#
# Indices 1 2 3 4 5 6 
#
# 1 0.011604 -0.001829 -0.002626 0.002003 0.002087 -0.003879
# 2 -0.001829 0.025476 0.000413 -0.000391 0.000807 -0.009212
# 3 -0.002626 0.000413 0.010182 -0.002802 0.000766 0.000698
# 4 0.002003 -0.000391 -0.002802 0.028936 0.001164 -0.005199
# 5 0.002087 0.000807 0.000766 0.001164 0.022978 0.000966
# 6 -0.003879 -0.009212 0.000698 -0.005199 0.000966 0.053687
#
#
# Mechanical properties :
#
#
# Convention : Reuss Voigt Hill
#
# Bulk Modulus (GPa) = 25.52325 35.53378 30.52852
# Shear Modulus (GPa) = 28.73454 34.70129 31.71791
#
# Velocity S-wave (km/s) = 3.55999 3.91218 3.74023
# Velocity P-wave (km/s) = 5.30615 6.00660 5.66721
#
# Compressibility (1/GPa) = 0.03917996
#
# Stress axis : x y z
#
# Youngs Moduli (GPa) = 86.17506 39.25213 98.21094
#
# Poissons Ratio (x) = 0.07178 0.25792
# Poissons Ratio (y) = 0.15758 -0.04060
# Poissons Ratio (z) = 0.22631 -0.01622
#
# Static dielectric constant tensor:
#      x y z
#    x 1.747230 -0.011910 0.027760 
#    y -0.011910 1.908140 0.021390 
#    z 0.027760 0.021390 1.822280 
# 
# From -- ./inp_files/120426.got.cif
#   From: 2010.05.17/outbox.cif.g08.bks.cpg/sg2_61_cif.got.tgz:120426.got - 2010.06.03 11:33:40.
