data_PCOD9064161
_publ_section_title
;
Structure prediction by ZEFSAII (Michael W. Deem and Ramdas Pophale) SiO2 
 PCOD9064161
Probable space group: P -1
;
_chemical_formula_sum "Si O2"
_cell_formula_units_Z 16
_cell_length_a 6.398790
_cell_length_b 23.271217
_cell_length_c 14.784958
_cell_angle_alpha 18.973634
_cell_angle_beta 76.125781
_cell_angle_gamma 79.268723
_cell_volume 689.165357
_symmetry_space_group_name_H-M "P -1"
_symmetry_group_IT_number 2
_symmetry_cell_setting 'triclinic'
loop_
_space_group_symop_operation_xyz
x,y,z
-x,-y,-z
loop_
_atom_site_type_symbol
_atom_site_label
_atom_site_fract_x
_atom_site_fract_y
_atom_site_fract_z
Si Si1 0.160540 0.806368 0.879414
Si Si2 0.647938 0.164666 0.790152
Si Si3 0.731570 0.128214 0.493883
Si Si4 0.459286 0.506201 0.250631
Si Si5 0.319349 0.509469 0.077882
Si Si6 0.830564 0.820830 0.737214
Si Si7 0.725859 0.052895 0.151312
Si Si8 0.962286 0.240214 0.481363
O O1 0.147057 0.840720 0.937535
O O2 0.936252 0.779274 0.885183
O O3 0.267929 0.992133 0.542474
O O4 0.290725 0.635230 0.112448
O O5 0.527752 0.342563 0.543806
O O6 0.853766 0.202484 0.645821
O O7 0.720084 0.127440 0.939783
O O8 0.500000 0.000000 0.000000
O O9 0.778611 0.194713 0.492691
O O10 0.969412 0.127990 0.428480
O O11 0.526068 0.979202 0.741732
O O12 0.657133 0.283871 0.209465
O O13 0.362213 0.410764 0.311641
O O14 0.670519 0.644338 0.996558
O O15 0.080897 0.440540 0.171059
O O16 0.500000 0.500000 0.000000
O O17 0.842550 0.875148 0.390624
#
# Coordination Sequence:
#
# PCOD9064161 Si02
#       8
#     2   2   2   2   2   2   2   2
#     4  11  26  44  75 103 146 185 233 300 360 429
#     4  12  27  51  72  99 144 194 246 297 341 419
#     4  12  22  41  69 105 143 177 231 290 367 436
#     4  12  26  46  71 103 146 188 240 289 360 419
#     4  12  22  40  68 107 144 175 227 296 364 431
#     4  11  24  45  71 111 142 182 227 295 370 429
#     4  12  26  45  70 102 135 197 239 286 354 415
#     4  12  24  45  71 102 141 187 234 296 366 418
#
# _framework density 23.216491000000001
#
# number of rings (size 3 to 8) (size 9 to 14) (size 15 to 20)
#    0.000    0.250    5.000    4.875    3.500    0.500 
#    0.000    0.625    0.000    0.000    0.000    0.000 
#    0.000    0.000    0.000    0.000    0.000    0.000 
#
# Total GULP energy -89288.765584 kJ/mol
# GULP energy per Si atom -5580.547849 kJ/mol
# Density = 2.316365 g / cm^3
# Si number density = 23.216491 Si / 1000 Ang^3
#
#
#
# Elastic Constant Matrix: (Units=GPa)
#
#
# Indices 1 2 3 4 5 6 
#
# 1 84.3908 38.7127 25.8308 4.4591 0.5097 8.5841
# 2 38.7127 136.9533 31.6792 15.9409 9.1421 16.1661
# 3 25.8308 31.6792 86.7881 -2.0707 20.1342 2.3687
# 4 4.4591 15.9409 -2.0707 40.0259 -0.1233 16.4804
# 5 0.5097 9.1421 20.1342 -0.1233 40.2447 3.5090
# 6 8.5841 16.1661 2.3687 16.4804 3.5090 45.3828
#
#
#
# Elastic Compliance Matrix: (Units=1/GPa)
#
#
# Indices 1 2 3 4 5 6 
#
# 1 0.014630 -0.003273 -0.003703 0.000178 0.002557 -0.001670
# 2 -0.003273 0.009312 -0.002262 -0.002854 -0.000822 -0.001480
# 3 -0.003703 -0.002262 0.015112 0.001827 -0.007046 0.000599
# 4 0.000178 -0.002854 0.001827 0.030400 0.000715 -0.010207
# 5 0.002557 -0.000822 -0.007046 0.000715 0.028731 -0.002304
# 6 -0.001670 -0.001480 0.000599 -0.010207 -0.002304 0.026731
#
#
# Mechanical properties :
#
#
# Convention : Reuss Voigt Hill
#
# Bulk Modulus (GPa) = 48.59580 55.61973 52.10777
# Shear Modulus (GPa) = 33.27776 39.25798 36.26787
#
# Velocity S-wave (km/s) = 3.79009 4.11658 3.95670
# Velocity P-wave (km/s) = 6.33483 6.82671 6.58536
#
# Compressibility (1/GPa) = 0.02057791
#
# Stress axis : x y z
#
# Youngs Moduli (GPa) = 68.35491 107.38915 66.17266
#
# Poissons Ratio (x) = 0.35149 0.24503
# Poissons Ratio (y) = 0.22373 0.14967
# Poissons Ratio (z) = 0.25311 0.24290
#
# Static dielectric constant tensor:
#      x y z
#    x 1.928950 -0.106060 0.070140 
#    y -0.106060 2.093610 -0.095290 
#    z 0.070140 -0.095290 1.875410 
# 
# From -- ./inp_files/485925.got.cif
#   From: 2010.05.17/outbox.cif.g08.bks.cpg/sg2_243_cif.got.tgz:485925.got - 2010.06.03 11:33:40.
