data_PCOD9064897
_publ_section_title
;
Structure prediction by ZEFSAII (Michael W. Deem and Ramdas Pophale) SiO2 
 PCOD9064897
Probable space group: P -1
;
_chemical_formula_sum "Si O2"
_cell_formula_units_Z 13
_cell_length_a 10.966630
_cell_length_b 5.374597
_cell_length_c 11.703336
_cell_angle_alpha 109.599790
_cell_angle_beta 100.598767
_cell_angle_gamma 115.125157
_cell_volume 543.579532
_symmetry_space_group_name_H-M "P -1"
_symmetry_group_IT_number 2
_symmetry_cell_setting 'triclinic'
loop_
_space_group_symop_operation_xyz
x,y,z
-x,-y,-z
loop_
_atom_site_type_symbol
_atom_site_label
_atom_site_fract_x
_atom_site_fract_y
_atom_site_fract_z
Si Si1 0.565516 0.961904 0.124283
Si Si2 0.727660 0.645720 0.021052
Si Si3 0.114651 0.289145 0.166372
Si Si4 0.000000 0.000000 0.500000
Si Si5 0.595514 0.355022 0.602983
Si Si6 0.968728 0.683950 0.208826
Si Si7 0.657753 0.554673 0.385371
O O1 0.687058 0.878376 0.105780
O O2 0.624878 0.244963 0.265853
O O3 0.421902 0.647522 0.095082
O O4 0.500000 0.000000 0.000000
O O5 0.805152 0.550640 0.114864
O O6 0.839012 0.788010 0.957149
O O7 0.265215 0.563383 0.287741
O O8 0.018957 0.443654 0.156808
O O9 0.056728 0.004750 0.200911
O O10 0.818638 0.840352 0.428445
O O11 0.994002 0.780210 0.359960
O O12 0.653806 0.527025 0.518160
O O13 0.484992 0.428148 0.658932
O O14 0.500000 0.000000 0.500000
#
# Coordination Sequence:
#
# PCOD9064897 Si02
#       7
#     2   2   2   1   2   2   2
#     4  11  25  45  75 109 144 205 249 322 383 462
#     4  11  27  47  74 109 153 195 262 315 386 456
#     4  12  27  49  77 110 153 204 260 313 391 465
#     4  12  26  50  74 116 158 194 258 322 394 458
#     4  11  24  46  75 108 147 208 253 319 377 468
#     4  12  29  48  77 113 153 205 252 324 391 460
#     4  11  25  46  77 107 154 194 260 312 392 458
#
# _framework density 23.915545999999999
#
# number of rings (size 3 to 8) (size 9 to 14) (size 15 to 20)
#    0.000    0.615    1.538    4.615   10.769    5.538 
#    0.000    0.000    0.000    0.000    0.000    0.000 
#    0.000    0.000    0.000    0.000    0.000    0.000 
#
# Total GULP energy -72531.131671 kJ/mol
# GULP energy per Si atom -5579.317821 kJ/mol
# Density = 2.386111 g / cm^3
# Si number density = 23.915546 Si / 1000 Ang^3
#
#
#
# Elastic Constant Matrix: (Units=GPa)
#
#
# Indices 1 2 3 4 5 6 
#
# 1 203.7564 48.2519 75.8780 16.4035 -12.7552 -25.9310
# 2 48.2519 61.9929 14.6415 14.4185 -13.1239 -13.6049
# 3 75.8780 14.6415 136.6353 29.1957 2.5571 -13.2584
# 4 16.4035 14.4185 29.1957 33.2235 0.9533 0.7428
# 5 -12.7552 -13.1239 2.5571 0.9533 46.7779 -0.3750
# 6 -25.9310 -13.6049 -13.2584 0.7428 -0.3750 39.8547
#
#
#
# Elastic Compliance Matrix: (Units=1/GPa)
#
#
# Indices 1 2 3 4 5 6 
#
# 1 0.007694 -0.004800 -0.003935 0.001670 0.000949 0.002036
# 2 -0.004800 0.024357 0.002944 -0.011094 0.005642 0.006431
# 3 -0.003935 0.002944 0.011452 -0.009434 -0.000661 0.002424
# 4 0.001670 -0.011094 -0.009434 0.042616 -0.003063 -0.006662
# 5 0.000949 0.005642 -0.000661 -0.003063 0.023339 0.002600
# 6 0.002036 0.006431 0.002424 -0.006662 0.002600 0.029566
#
#
# Mechanical properties :
#
#
# Convention : Reuss Voigt Hill
#
# Bulk Modulus (GPa) = 31.32654 75.54747 53.43701
# Shear Modulus (GPa) = 31.00835 41.54543 36.27689
#
# Velocity S-wave (km/s) = 3.60471 4.17246 3.89893
# Velocity P-wave (km/s) = 5.51838 7.40746 6.53157
#
# Compressibility (1/GPa) = 0.03192182
#
# Stress axis : x y z
#
# Youngs Moduli (GPa) = 129.96935 41.05532 87.32077
#
# Poissons Ratio (x) = 0.19706 0.34364
# Poissons Ratio (y) = 0.62383 -0.25711
# Poissons Ratio (z) = 0.51148 -0.12088
#
# Static dielectric constant tensor:
#      x y z
#    x 1.932160 0.065570 0.011550 
#    y 0.065570 2.000630 -0.046200 
#    z 0.011550 -0.046200 1.890820 
# 
# From -- ./inp_files/26350.got.cif
#   From: 2010.05.17/outbox.cif.g08.bks.cpg/sg2_14_cif.got.tgz:26350.got - 2010.06.03 11:33:40.
