data_PCOD9064906
_publ_section_title
;
Structure prediction by ZEFSAII (Michael W. Deem and Ramdas Pophale) SiO2 
 PCOD9064906
Probable space group: P -1
;
_chemical_formula_sum "Si O2"
_cell_formula_units_Z 14
_cell_length_a 11.148180
_cell_length_b 5.685268
_cell_length_c 13.387947
_cell_angle_alpha 106.345220
_cell_angle_beta 44.881707
_cell_angle_gamma 101.904933
_cell_volume 574.534005
_symmetry_space_group_name_H-M "P -1"
_symmetry_group_IT_number 2
_symmetry_cell_setting 'triclinic'
loop_
_space_group_symop_operation_xyz
x,y,z
-x,-y,-z
loop_
_atom_site_type_symbol
_atom_site_label
_atom_site_fract_x
_atom_site_fract_y
_atom_site_fract_z
Si Si1 0.670270 0.036512 0.969117
Si Si2 0.930253 0.478649 0.314465
Si Si3 0.103401 0.238852 0.350860
Si Si4 0.849919 0.517667 0.009684
Si Si5 0.599387 0.240828 0.423858
Si Si6 0.778657 0.932759 0.541503
Si Si7 0.401247 0.087785 0.785540
O O1 0.735799 0.292901 0.006953
O O2 0.816463 0.942611 0.799171
O O3 0.500000 0.000000 0.000000
O O4 0.637088 0.888341 0.072107
O O5 0.770857 0.292109 0.390552
O O6 0.838042 0.741542 0.399184
O O7 0.050959 0.466238 0.339564
O O8 0.042773 0.411938 0.144960
O O9 0.227130 0.231994 0.372555
O O10 0.926966 0.131128 0.481952
O O11 0.712331 0.695781 0.162837
O O12 0.000000 0.500000 0.000000
O O13 0.500000 0.500000 0.500000
O O14 0.500000 0.000000 0.500000
O O15 0.654667 0.155953 0.269917
O O16 0.602675 0.071418 0.653464
#
# Coordination Sequence:
#
# PCOD9064906 Si02
#       7
#     2   2   2   2   2   2   2
#     4  12  26  50  77 116 159 205 270 340 414 493
#     4  12  25  47  76 108 152 210 263 333 410 485
#     4  11  24  46  75 110 153 201 258 333 410 491
#     4  12  30  49  79 111 161 214 273 335 418 495
#     4  12  29  49  79 118 162 213 277 344 411 490
#     4  11  24  47  76 110 150 199 263 329 410 489
#     4  12  27  48  78 114 153 209 270 338 406 495
#
# _framework density 24.367571999999999
#
# number of rings (size 3 to 8) (size 9 to 14) (size 15 to 20)
#    0.000    0.286    5.714    2.143    6.000    2.857 
#    5.143    0.000    0.000    0.000    0.000    0.000 
#    0.000    0.000    0.000    0.000    0.000    0.000 
#
# Total GULP energy -78132.989834 kJ/mol
# GULP energy per Si atom -5580.927845 kJ/mol
# Density = 2.431211 g / cm^3
# Si number density = 24.367572 Si / 1000 Ang^3
#
#
#
# Elastic Constant Matrix: (Units=GPa)
#
#
# Indices 1 2 3 4 5 6 
#
# 1 155.0225 40.7265 60.1907 7.2672 -15.7241 1.4795
# 2 40.7265 78.3311 51.5529 18.3718 -21.0765 7.8200
# 3 60.1907 51.5529 155.3555 39.6267 -22.4330 -7.3594
# 4 7.2672 18.3718 39.6267 55.7049 -4.0956 3.7479
# 5 -15.7241 -21.0765 -22.4330 -4.0956 54.2690 0.0590
# 6 1.4795 7.8200 -7.3594 3.7479 0.0590 40.9063
#
#
#
# Elastic Compliance Matrix: (Units=1/GPa)
#
#
# Indices 1 2 3 4 5 6 
#
# 1 0.008173 -0.002785 -0.002677 0.001808 0.000317 -0.000411
# 2 -0.002785 0.019227 -0.004210 -0.002357 0.004746 -0.004123
# 3 -0.002677 -0.004210 0.010809 -0.006063 0.001596 0.003399
# 4 0.001808 -0.002357 -0.006063 0.022909 -0.001166 -0.002803
# 5 0.000317 0.004746 0.001596 -0.001166 0.020934 -0.000555
# 6 -0.000411 -0.004123 0.003399 -0.002803 -0.000555 0.026118
#
#
# Mechanical properties :
#
#
# Convention : Reuss Voigt Hill
#
# Bulk Modulus (GPa) = 53.01037 77.07216 65.04126
# Shear Modulus (GPa) = 37.36833 45.92531 41.64682
#
# Velocity S-wave (km/s) = 3.92028 4.34601 4.13862
# Velocity P-wave (km/s) = 6.50332 7.54198 7.04182
#
# Compressibility (1/GPa) = 0.01886423
#
# Stress axis : x y z
#
# Youngs Moduli (GPa) = 122.35151 52.01128 92.51487
#
# Poissons Ratio (x) = 0.14487 0.24768
# Poissons Ratio (y) = 0.34078 0.38947
# Poissons Ratio (z) = 0.32756 0.21896
#
# Static dielectric constant tensor:
#      x y z
#    x 2.255270 -0.062860 -0.026340 
#    y -0.062860 2.033970 -0.033590 
#    z -0.026340 -0.033590 1.935090 
# 
# From -- ./inp_files/511122.got.cif
#   From: 2010.05.17/outbox.cif.g08.bks.cpg/sg2_256_cif.got.tgz:511122.got - 2010.06.03 11:33:40.
