data_PCOD9064782
_publ_section_title
;
Structure prediction by ZEFSAII (Michael W. Deem and Ramdas Pophale) SiO2 
 PCOD9064782
Probable space group: P -1
;
_chemical_formula_sum "Si O2"
_cell_formula_units_Z 14
_cell_length_a 18.457698
_cell_length_b 7.785578
_cell_length_c 4.786212
_cell_angle_alpha 69.988727
_cell_angle_beta 101.030383
_cell_angle_gamma 122.488770
_cell_volume 545.103406
_symmetry_space_group_name_H-M "P -1"
_symmetry_group_IT_number 2
_symmetry_cell_setting 'triclinic'
loop_
_space_group_symop_operation_xyz
x,y,z
-x,-y,-z
loop_
_atom_site_type_symbol
_atom_site_label
_atom_site_fract_x
_atom_site_fract_y
_atom_site_fract_z
Si Si1 0.795340 0.003198 0.634016
Si Si2 0.231142 0.388128 0.535387
Si Si3 0.666234 0.358504 0.014497
Si Si4 0.616686 0.934076 0.545601
Si Si5 0.511755 0.692618 0.094467
Si Si6 0.951586 0.341444 0.303977
Si Si7 0.074974 0.038708 0.828432
O O1 0.770112 0.805972 0.519004
O O2 0.706251 0.966084 0.701545
O O3 0.850291 0.222031 0.376884
O O4 0.859137 0.004427 0.916070
O O5 0.289399 0.464987 0.808981
O O6 0.133185 0.279509 0.627351
O O7 0.268198 0.575677 0.231638
O O8 0.579870 0.347148 0.856726
O O9 0.639736 0.142394 0.272850
O O10 0.555968 0.885946 0.794423
O O11 0.570734 0.749506 0.379558
O O12 0.500000 0.500000 0.000000
O O13 0.000000 0.500000 0.500000
O O14 0.957740 0.133267 0.348438
O O15 0.000000 0.500000 0.000000
O O16 0.000000 0.000000 0.000000
#
# Coordination Sequence:
#
# PCOD9064782 Si02
#       7
#     2   2   2   2   2   2   2
#     4  11  25  48  70 103 149 190 247 300 371 443
#     4  11  24  46  74 102 147 189 246 300 366 441
#     4  12  24  47  71 109 145 189 243 301 367 435
#     4  12  27  44  72 108 146 188 236 304 364 428
#     4  12  25  45  75 105 145 192 241 290 361 444
#     4  11  24  46  73 104 144 187 243 305 375 437
#     4  11  26  49  77 108 145 200 255 311 366 448
#
# _framework density 25.683198999999998
#
# number of rings (size 3 to 8) (size 9 to 14) (size 15 to 20)
#    0.000    0.571    2.857    4.714    4.000    3.429 
#    5.143    0.000    0.000    0.000    0.000    0.000 
#    0.000    0.000    0.000    0.000    0.000    0.000 
#
# Total GULP energy -78446.610205 kJ/mol
# GULP energy per Si atom -5603.329300 kJ/mol
# Density = 2.562474 g / cm^3
# Si number density = 25.683199 Si / 1000 Ang^3
#
#
#
# Elastic Constant Matrix: (Units=GPa)
#
#
# Indices 1 2 3 4 5 6 
#
# 1 83.8280 49.2875 35.9078 11.7550 -4.7332 24.1581
# 2 49.2875 138.9610 39.4144 9.0693 -8.9364 13.1343
# 3 35.9078 39.4144 155.6483 -0.3998 -32.1240 20.8302
# 4 11.7550 9.0693 -0.3998 57.9185 6.6502 -9.0992
# 5 -4.7332 -8.9364 -32.1240 6.6502 49.2971 -1.0881
# 6 24.1581 13.1343 20.8302 -9.0992 -1.0881 41.0974
#
#
#
# Elastic Compliance Matrix: (Units=1/GPa)
#
#
# Indices 1 2 3 4 5 6 
#
# 1 0.019140 -0.005039 -0.001815 -0.004657 0.000155 -0.009748
# 2 -0.005039 0.009327 -0.001158 -0.000429 0.000521 0.000487
# 3 -0.001815 -0.001158 0.008597 -0.000442 0.005214 -0.002880
# 4 -0.004657 -0.000429 -0.000442 0.019819 -0.003323 0.007399
# 5 0.000155 0.000521 0.005214 -0.003323 0.024174 -0.002996
# 6 -0.009748 0.000487 -0.002880 0.007399 -0.002996 0.032926
#
#
# Mechanical properties :
#
#
# Convention : Reuss Voigt Hill
#
# Bulk Modulus (GPa) = 47.52703 69.73965 58.63334
# Shear Modulus (GPa) = 36.49050 46.58444 41.53747
#
# Velocity S-wave (km/s) = 3.77343 4.26351 4.02593
# Velocity P-wave (km/s) = 6.12620 7.17282 6.67007
#
# Compressibility (1/GPa) = 0.02104066
#
# Stress axis : x y z
#
# Youngs Moduli (GPa) = 52.24578 107.21043 116.31610
#
# Poissons Ratio (x) = 0.54020 0.21114
# Poissons Ratio (y) = 0.26325 0.13473
# Poissons Ratio (z) = 0.09484 0.12418
#
# Static dielectric constant tensor:
#      x y z
#    x 2.005900 0.022240 0.018090 
#    y 0.022240 2.059600 -0.076670 
#    z 0.018090 -0.076670 2.051540 
# 
# From -- ./inp_files/106366.got.cif
#   From: 2010.05.17/outbox.cif.g08.bks.cpg/sg2_54_cif.got.tgz:106366.got - 2010.06.03 11:33:40.
