data_PCOD9064502
_publ_section_title
;
Structure prediction by ZEFSAII (Michael W. Deem and Ramdas Pophale) SiO2 
 PCOD9064502
Probable space group: P -1
;
_chemical_formula_sum "Si O2"
_cell_formula_units_Z 16
_cell_length_a 18.001935
_cell_length_b 12.021019
_cell_length_c 9.400152
_cell_angle_alpha 102.326391
_cell_angle_beta 37.237265
_cell_angle_gamma 130.794902
_cell_volume 692.257239
_symmetry_space_group_name_H-M "P -1"
_symmetry_group_IT_number 2
_symmetry_cell_setting 'triclinic'
loop_
_space_group_symop_operation_xyz
x,y,z
-x,-y,-z
loop_
_atom_site_type_symbol
_atom_site_label
_atom_site_fract_x
_atom_site_fract_y
_atom_site_fract_z
Si Si1 0.878522 0.440338 0.810974
Si Si2 0.314450 0.924048 0.848872
Si Si3 0.003757 0.865067 0.147599
Si Si4 0.789224 0.765360 0.729745
Si Si5 0.392221 0.296052 0.590549
Si Si6 0.801932 0.533135 0.194808
Si Si7 0.543719 0.286468 0.776082
Si Si8 0.397705 0.603956 0.965350
O O1 0.000000 0.500000 0.500000
O O2 0.812967 0.272988 0.935844
O O3 0.948299 0.571533 0.875143
O O4 0.703611 0.386778 0.988580
O O5 0.500000 0.000000 0.500000
O O6 0.410620 0.079130 0.865477
O O7 0.163930 0.889168 0.972106
O O8 0.825814 0.754094 0.508083
O O9 0.900766 0.731622 0.128048
O O10 0.158468 0.089571 0.947268
O O11 0.592938 0.701484 0.034804
O O12 0.744117 0.616942 0.848429
O O13 0.000000 0.000000 0.500000
O O14 0.500000 0.500000 0.500000
O O15 0.563343 0.354306 0.442210
O O16 0.397076 0.275550 0.407754
O O17 0.755388 0.449163 0.400553
O O18 0.577797 0.314860 0.900202
#
# Coordination Sequence:
#
# PCOD9064502 Si02
#       8
#     2   2   2   2   2   2   2   2
#     4  11  26  45  69 103 142 182 238 309 346 409
#     4  12  24  47  75  97 141 193 243 287 354 426
#     4  12  25  43  75 108 136 194 243 282 356 434
#     4  12  23  42  73 104 141 185 238 286 346 440
#     4  11  24  46  65 102 152 182 220 293 357 416
#     4  11  24  46  71 102 141 187 238 285 359 421
#     4  12  24  43  74 105 140 189 237 292 354 423
#     4  11  25  44  68 102 145 179 230 298 362 405
#
# _framework density 23.112795999999999
#
# number of rings (size 3 to 8) (size 9 to 14) (size 15 to 20)
#    0.000    0.500    5.000    3.375    1.750    3.500 
#    2.250    0.000    0.000    0.000    0.000    0.000 
#    0.000    0.000    0.000    0.000    0.000    0.000 
#
# Total GULP energy -89357.137813 kJ/mol
# GULP energy per Si atom -5584.821113 kJ/mol
# Density = 2.306019 g / cm^3
# Si number density = 23.112796 Si / 1000 Ang^3
#
#
#
# Elastic Constant Matrix: (Units=GPa)
#
#
# Indices 1 2 3 4 5 6 
#
# 1 58.4220 -53.3536 -60.3920 27.2987 -84.9596 56.8377
# 2 -53.3536 -132.2563 -223.2523 92.6424 -350.6617 217.6897
# 3 -60.3920 -223.2523 -128.4354 97.6337 -301.4050 199.5492
# 4 27.2987 92.6424 97.6337 34.0839 106.0352 -46.4173
# 5 -84.9596 -350.6617 -301.4050 106.0352 -426.0526 263.5842
# 6 56.8377 217.6897 199.5492 -46.4173 263.5842 -101.7517
#
#
#
# Elastic Compliance Matrix: (Units=1/GPa)
#
#
# Indices 1 2 3 4 5 6 
#
# 1 0.013772 -0.001565 0.000990 -0.001407 -0.002950 -0.000712
# 2 -0.001565 0.006893 -0.002145 0.000218 -0.003533 0.000414
# 3 0.000990 -0.002145 0.013897 -0.004612 -0.010379 -0.001564
# 4 -0.001407 0.000218 -0.004612 0.020031 0.005140 -0.005187
# 5 -0.002950 -0.003533 -0.010379 0.005140 0.016541 0.010944
# 6 -0.000712 0.000414 -0.001564 -0.005187 0.010944 0.018309
#
#
# Mechanical properties :
#
#
# Convention : Reuss Voigt Hill
#
# Bulk Modulus (GPa) = 34.33824 -97.36284 -31.51230
# Shear Modulus (GPa) = 47.80580 -89.76220 -20.97820
#
# Velocity S-wave (km/s) = 4.55287 -6.23866 -3.01598
# Velocity P-wave (km/s) = 6.52129 9.70109 5.07858
#
# Compressibility (1/GPa) = 0.02912206
#
# Stress axis : x y z
#
# Youngs Moduli (GPa) = 72.60988 145.08331 71.95816
#
# Poissons Ratio (x) = 0.22708 -0.07126
# Poissons Ratio (y) = 0.11365 0.15435
# Poissons Ratio (z) = -0.07190 0.31120
#
# Static dielectric constant tensor:
#      x y z
#    x 1.926870 0.020470 -0.028930 
#    y 0.020470 1.925760 0.093140 
#    z -0.028930 0.093140 1.997130 
# 
# From -- ./inp_files/333326.got.cif
#   From: 2010.05.17/outbox.cif.g08.bks.cpg/sg2_167_cif.got.tgz:333326.got - 2010.06.03 11:33:40.
