data_PCOD9064835
_publ_section_title
;
Structure prediction by ZEFSAII (Michael W. Deem and Ramdas Pophale) SiO2 
 PCOD9064835
Probable space group: P -1
;
_chemical_formula_sum "Si O2"
_cell_formula_units_Z 16
_cell_length_a 7.789634
_cell_length_b 6.971519
_cell_length_c 21.095839
_cell_angle_alpha 130.686578
_cell_angle_beta 50.030224
_cell_angle_gamma 109.705276
_cell_volume 659.169088
_symmetry_space_group_name_H-M "P -1"
_symmetry_group_IT_number 2
_symmetry_cell_setting 'triclinic'
loop_
_space_group_symop_operation_xyz
x,y,z
-x,-y,-z
loop_
_atom_site_type_symbol
_atom_site_label
_atom_site_fract_x
_atom_site_fract_y
_atom_site_fract_z
Si Si1 0.493473 0.688660 0.982372
Si Si2 0.219354 0.813553 0.432124
Si Si3 0.016066 0.136070 0.903110
Si Si4 0.215550 0.227931 0.309890
Si Si5 0.885832 0.633335 0.779323
Si Si6 0.329844 0.937878 0.884345
Si Si7 0.849869 0.890211 0.371550
Si Si8 0.322260 0.335352 0.766854
O O1 0.672916 0.592684 0.864777
O O2 0.416765 0.063184 0.954279
O O3 0.500000 0.500000 0.000000
O O4 0.239998 0.742300 0.026523
O O5 0.187539 0.526347 0.398928
O O6 0.300212 0.948865 0.504890
O O7 0.410910 0.771025 0.323208
O O8 0.000000 0.000000 0.500000
O O9 0.119722 0.129973 0.947541
O O10 0.020576 0.834945 0.825017
O O11 0.180720 0.252960 0.841160
O O12 0.174500 0.243195 0.247441
O O13 0.471191 0.084232 0.221022
O O14 0.040082 0.069162 0.349042
O O15 0.039923 0.367765 0.676176
O O16 0.299749 0.642554 0.836561
O O17 0.768402 0.787762 0.301991
#
# Coordination Sequence:
#
# PCOD9064835 Si02
#       8
#     2   2   2   2   2   2   2   2
#     4  12  28  50  75 109 149 200 239 299 369 430
#     4  11  25  43  72 109 142 191 243 299 368 440
#     4  12  26  50  73 107 147 195 244 299 358 435
#     4  11  24  46  74 105 148 193 237 302 369 432
#     4  12  24  47  74 103 148 191 243 298 361 433
#     4  11  26  46  73 105 145 192 243 300 357 434
#     4  12  23  48  73 102 148 192 241 302 372 428
#     4  11  25  47  72 107 144 190 244 302 364 429
#
# _framework density 24.272981999999999
#
# number of rings (size 3 to 8) (size 9 to 14) (size 15 to 20)
#    0.000    0.500    5.000    2.625    1.750    3.000 
#    0.000    1.250    0.000    0.000    0.000    0.000 
#    0.000    0.000    0.000    0.000    0.000    0.000 
#
# Total GULP energy -89607.996506 kJ/mol
# GULP energy per Si atom -5600.499782 kJ/mol
# Density = 2.421774 g / cm^3
# Si number density = 24.272982 Si / 1000 Ang^3
#
#
#
# Elastic Constant Matrix: (Units=GPa)
#
#
# Indices 1 2 3 4 5 6 
#
# 1 108.9380 13.6576 24.5782 4.8886 -9.4259 -4.3741
# 2 13.6576 102.9167 26.6132 -14.7236 -14.9914 13.1207
# 3 24.5782 26.6132 104.9384 2.6059 2.9336 12.9083
# 4 4.8886 -14.7236 2.6059 46.7084 3.5737 4.7390
# 5 -9.4259 -14.9914 2.9336 3.5737 34.6332 1.3920
# 6 -4.3741 13.1207 12.9083 4.7390 1.3920 40.0547
#
#
#
# Elastic Compliance Matrix: (Units=1/GPa)
#
#
# Indices 1 2 3 4 5 6 
#
# 1 0.010252 -0.000846 -0.002505 -0.001641 0.002713 0.002304
# 2 -0.000846 0.012362 -0.002697 0.004147 0.005080 -0.003940
# 3 -0.002505 -0.002697 0.011240 -0.000728 -0.002612 -0.002835
# 4 -0.001641 0.004147 -0.000728 0.023404 -0.000842 -0.004043
# 5 0.002713 0.005080 -0.002612 -0.000842 0.032181 -0.001545
# 6 0.002304 -0.003940 -0.002835 -0.004043 -0.001545 0.027954
#
#
# Mechanical properties :
#
#
# Convention : Reuss Voigt Hill
#
# Bulk Modulus (GPa) = 45.96244 49.61013 47.78628
# Shear Modulus (GPa) = 36.56545 41.07554 38.82049
#
# Velocity S-wave (km/s) = 3.88548 4.11814 4.00350
# Velocity P-wave (km/s) = 6.25348 6.56467 6.41096
#
# Compressibility (1/GPa) = 0.02175689
#
# Stress axis : x y z
#
# Youngs Moduli (GPa) = 97.54529 80.89439 88.96769
#
# Poissons Ratio (x) = 0.06844 0.22286
# Poissons Ratio (y) = 0.08253 0.23997
# Poissons Ratio (z) = 0.24435 0.21819
#
# Static dielectric constant tensor:
#      x y z
#    x 2.087080 0.015370 -0.015430 
#    y 0.015370 1.885350 -0.001870 
#    z -0.015430 -0.001870 1.920840 
# 
# From -- ./inp_files/585829.got.cif
#   From: 2010.05.17/outbox.cif.g08.bks.cpg/sg2_293_cif.got.tgz:585829.got - 2010.06.03 11:33:40.
