data_PCOD9064386
_publ_section_title
;
Structure prediction by ZEFSAII (Michael W. Deem and Ramdas Pophale) SiO2 
 PCOD9064386
Probable space group: P -1
;
_chemical_formula_sum "Si O2"
_cell_formula_units_Z 8
_cell_length_a 6.292778
_cell_length_b 10.342944
_cell_length_c 8.193995
_cell_angle_alpha 138.301051
_cell_angle_beta 83.878764
_cell_angle_gamma 111.054084
_cell_volume 319.671148
_symmetry_space_group_name_H-M "P -1"
_symmetry_group_IT_number 2
_symmetry_cell_setting 'triclinic'
loop_
_space_group_symop_operation_xyz
x,y,z
-x,-y,-z
loop_
_atom_site_type_symbol
_atom_site_label
_atom_site_fract_x
_atom_site_fract_y
_atom_site_fract_z
Si Si1 0.747779 0.875275 0.307058
Si Si2 0.871107 0.138768 0.222171
Si Si3 0.315174 0.572390 0.671759
Si Si4 0.276572 0.570211 0.055823
O O1 0.736389 0.640852 0.052731
O O2 0.760348 0.008426 0.271185
O O3 0.481851 0.782032 0.320595
O O4 0.000000 0.000000 0.500000
O O5 0.706161 0.217149 0.200509
O O6 0.070865 0.365947 0.474369
O O7 0.000000 0.000000 0.000000
O O8 0.500000 0.500000 0.500000
O O9 0.348352 0.595274 0.883489
O O10 0.000000 0.500000 0.000000
#
# Coordination Sequence:
#
# PCOD9064386 Si02
#       4
#     2   2   2   2
#     4  11  24  46  70 107 146 194 246 310 379 446
#     4  11  24  45  74 109 149 198 254 311 380 449
#     4  11  25  46  73 110 150 197 254 314 374 457
#     4  11  25  46  74 107 149 194 254 314 373 454
#
# _framework density 25.025718000000001
#
# number of rings (size 3 to 8) (size 9 to 14) (size 15 to 20)
#    0.000    1.000    2.500    3.000    0.000   13.000 
#    0.000    0.000    0.000    0.000    0.000    0.000 
#    0.000    0.000    0.000    0.000    0.000    0.000 
#
# Total GULP energy -44601.883146 kJ/mol
# GULP energy per Si atom -5575.235393 kJ/mol
# Density = 2.496876 g / cm^3
# Si number density = 25.025718 Si / 1000 Ang^3
#
#
#
# Elastic Constant Matrix: (Units=GPa)
#
#
# Indices 1 2 3 4 5 6 
#
# 1 203.6439 115.0603 74.5668 4.8108 9.0877 -11.2730
# 2 115.0603 196.9429 58.5511 39.2189 -4.4464 -25.8557
# 3 74.5668 58.5511 103.4170 39.2553 19.0056 -1.2516
# 4 4.8108 39.2189 39.2553 59.3985 10.2121 4.0311
# 5 9.0877 -4.4464 19.0056 10.2121 68.0441 20.3963
# 6 -11.2730 -25.8557 -1.2516 4.0311 20.3963 61.8021
#
#
#
# Elastic Compliance Matrix: (Units=1/GPa)
#
#
# Indices 1 2 3 4 5 6 
#
# 1 0.010631 -0.005755 -0.007312 0.007949 -0.000673 -0.000913
# 2 -0.005755 0.010033 0.001041 -0.007282 0.001259 0.003228
# 3 -0.007312 0.001041 0.019739 -0.012722 -0.002951 0.001305
# 4 0.007949 -0.007282 -0.012722 0.029886 -0.001475 -0.003317
# 5 -0.000673 0.001259 -0.002951 -0.001475 0.017515 -0.005340
# 6 -0.000913 0.003228 0.001305 -0.003317 -0.005340 0.019370
#
#
# Mechanical properties :
#
#
# Convention : Reuss Voigt Hill
#
# Bulk Modulus (GPa) = 61.15485 111.15112 86.15298
# Shear Modulus (GPa) = 36.58309 54.90400 45.74354
#
# Velocity S-wave (km/s) = 3.82752 4.68899 4.27999
# Velocity P-wave (km/s) = 6.63499 8.59225 7.67626
#
# Compressibility (1/GPa) = 0.01635193
#
# Stress axis : x y z
#
# Youngs Moduli (GPa) = 94.06188 99.67283 50.66148
#
# Poissons Ratio (x) = 0.57366 0.37042
# Poissons Ratio (y) = 0.54136 -0.05276
# Poissons Ratio (z) = 0.68774 -0.10380
#
# Static dielectric constant tensor:
#      x y z
#    x 2.390530 0.058560 -0.030620 
#    y 0.058560 1.892820 -0.019070 
#    z -0.030620 -0.019070 2.055100 
# 
# From -- ./inp_files/63258.got.cif
#   From: 2010.05.17/outbox.cif.g08.bks.cpg/sg2_32_cif.got.tgz:63258.got - 2010.06.03 11:33:40.
