data_PCOD9064323
_publ_section_title
;
Structure prediction by ZEFSAII (Michael W. Deem and Ramdas Pophale) SiO2 
 PCOD9064323
Probable space group: P -1
;
_chemical_formula_sum "Si O2"
_cell_formula_units_Z 16
_cell_length_a 12.137493
_cell_length_b 21.300665
_cell_length_c 9.460590
_cell_angle_alpha 28.102454
_cell_angle_beta 130.803957
_cell_angle_gamma 140.018362
_cell_volume 738.263770
_symmetry_space_group_name_H-M "P -1"
_symmetry_group_IT_number 2
_symmetry_cell_setting 'triclinic'
loop_
_space_group_symop_operation_xyz
x,y,z
-x,-y,-z
loop_
_atom_site_type_symbol
_atom_site_label
_atom_site_fract_x
_atom_site_fract_y
_atom_site_fract_z
Si Si1 0.392202 0.964373 0.839798
Si Si2 0.033550 0.654939 0.138173
Si Si3 0.315174 0.402982 0.620872
Si Si4 0.455106 0.307268 0.182161
Si Si5 0.275156 0.342580 0.221633
Si Si6 0.134818 0.573910 0.095541
Si Si7 0.486983 0.858193 0.852321
Si Si8 0.174339 0.149976 0.796334
O O1 0.446718 0.882761 0.929875
O O2 0.433831 0.137364 0.483374
O O3 0.195518 0.824428 0.983312
O O4 0.500000 0.000000 0.000000
O O5 0.061367 0.633304 0.038037
O O6 0.000000 0.500000 0.500000
O O7 0.866054 0.663561 0.986106
O O8 0.500000 0.500000 0.500000
O O9 0.210863 0.482139 0.424980
O O10 0.188404 0.290080 0.619265
O O11 0.341280 0.318444 0.941880
O O12 0.398126 0.315773 0.277469
O O13 0.629140 0.483482 0.970542
O O14 0.193616 0.204076 0.543737
O O15 0.322784 0.713095 0.925810
O O16 0.000000 0.500000 0.000000
O O17 0.500000 0.000000 0.500000
O O18 0.659092 0.855405 0.007601
O O19 0.000000 0.000000 0.000000
#
# Coordination Sequence:
#
# PCOD9064323 Si02
#       8
#     2   2   2   2   2   2   2   2
#     4  11  25  44  69  99 135 180 230 279 345 410
#     4  11  25  44  67 100 141 177 223 286 342 412
#     4  12  23  44  70  99 134 180 231 282 337 409
#     4  11  24  45  73  98 132 184 232 284 346 407
#     4  11  24  46  71  98 137 180 231 287 345 407
#     4  11  25  43  69 101 134 179 231 277 344 408
#     4  11  25  44  67  98 140 178 224 286 339 404
#     4  12  27  44  68 100 142 182 228 281 347 411
#
# _framework density 21.672469
#
# number of rings (size 3 to 8) (size 9 to 14) (size 15 to 20)
#    0.000    0.750    2.500    3.750    7.000    5.500 
#    4.500    0.000    0.000    0.000    0.000    0.000 
#    0.000    0.000    0.000    0.000    0.000    0.000 
#
# Total GULP energy -89209.259013 kJ/mol
# GULP energy per Si atom -5575.578688 kJ/mol
# Density = 2.162314 g / cm^3
# Si number density = 21.672469 Si / 1000 Ang^3
#
#
#
# Elastic Constant Matrix: (Units=GPa)
#
#
# Indices 1 2 3 4 5 6 
#
# 1 47.2681 25.9597 16.7865 -11.3551 -1.7445 13.3893
# 2 25.9597 127.4551 34.3998 -0.7699 -10.5476 10.7665
# 3 16.7865 34.3998 128.0919 10.7961 -9.7797 16.8186
# 4 -11.3551 -0.7699 10.7961 38.1088 -0.2310 -2.2269
# 5 -1.7445 -10.5476 -9.7797 -0.2310 38.7504 2.6123
# 6 13.3893 10.7665 16.8186 -2.2269 2.6123 31.7488
#
#
#
# Elastic Compliance Matrix: (Units=1/GPa)
#
#
# Indices 1 2 3 4 5 6 
#
# 1 0.029014 -0.004508 -0.002123 0.008631 0.000201 -0.008994
# 2 -0.004508 0.009422 -0.001644 -0.000712 0.001985 -0.000636
# 3 -0.002123 -0.001644 0.009517 -0.003584 0.002108 -0.004013
# 4 0.008631 -0.000712 -0.003584 0.029847 -0.000575 0.000641
# 5 0.000201 0.001985 0.002108 -0.000575 0.027164 -0.004150
# 6 -0.008994 -0.000636 -0.004013 0.000641 -0.004150 0.038018
#
#
# Mechanical properties :
#
#
# Convention : Reuss Voigt Hill
#
# Bulk Modulus (GPa) = 31.84520 50.78967 41.31744
# Shear Modulus (GPa) = 29.41186 36.76622 33.08904
#
# Velocity S-wave (km/s) = 3.68789 4.12326 3.91164
# Velocity P-wave (km/s) = 5.73235 6.79370 6.28547
#
# Compressibility (1/GPa) = 0.03140191
#
# Stress axis : x y z
#
# Youngs Moduli (GPa) = 34.46592 106.13912 105.07969
#
# Poissons Ratio (x) = 0.47848 0.22307
# Poissons Ratio (y) = 0.15537 0.17279
# Poissons Ratio (z) = 0.07317 0.17453
#
# Static dielectric constant tensor:
#      x y z
#    x 1.731810 0.011250 0.045210 
#    y 0.011250 1.772670 0.031830 
#    z 0.045210 0.031830 1.525810 
# 
# From -- ./inp_files/282661.got.cif
#   From: 2010.05.17/outbox.cif.g08.bks.cpg/sg2_142_cif.got.tgz:282661.got - 2010.06.03 11:33:40.
