data_PCOD9064843
_publ_section_title
;
Structure prediction by ZEFSAII (Michael W. Deem and Ramdas Pophale) SiO2 
 PCOD9064843
Probable space group: P -1
;
_chemical_formula_sum "Si O2"
_cell_formula_units_Z 10
_cell_length_a 20.794827
_cell_length_b 14.909617
_cell_length_c 11.099201
_cell_angle_alpha 151.456886
_cell_angle_beta 22.480257
_cell_angle_gamma 162.304604
_cell_volume 399.897821
_symmetry_space_group_name_H-M "P -1"
_symmetry_group_IT_number 2
_symmetry_cell_setting 'triclinic'
loop_
_space_group_symop_operation_xyz
x,y,z
-x,-y,-z
loop_
_atom_site_type_symbol
_atom_site_label
_atom_site_fract_x
_atom_site_fract_y
_atom_site_fract_z
Si Si1 0.699818 0.910176 0.673489
Si Si2 0.256091 0.094192 0.683199
Si Si3 0.883153 0.426180 0.285809
Si Si4 0.638797 0.157087 0.638740
Si Si5 0.198442 0.310929 0.590345
O O1 0.956241 0.259016 0.669501
O O2 0.661369 0.903319 0.590389
O O3 0.754834 0.746791 0.428797
O O4 0.464351 0.787795 0.017816
O O5 0.520309 0.435342 0.665196
O O6 0.215340 0.887252 0.599524
O O7 0.000000 0.000000 0.000000
O O8 0.801411 0.386599 0.519306
O O9 0.621915 0.155775 0.342898
O O10 0.069253 0.403494 0.932566
O O11 0.000000 0.000000 0.500000
#
# Coordination Sequence:
#
# PCOD9064843 Si02
#       5
#     2   2   2   2   2
#     4  12  25  46  75 106 147 190 239 304 362 429
#     4  12  28  47  72 112 150 192 238 302 371 429
#     4  11  25  47  75 108 142 192 249 296 360 430
#     4  11  24  46  74 107 145 192 243 297 360 436
#     4  12  25  48  77 104 146 192 245 298 358 433
#
# _framework density 25.006388999999999
#
# number of rings (size 3 to 8) (size 9 to 14) (size 15 to 20)
#    0.000    0.400    4.000    4.200    2.800    0.800 
#    0.000    5.000    0.000    0.000    0.000    0.000 
#    0.000    0.000    0.000    0.000    0.000    0.000 
#
# Total GULP energy -56133.633695 kJ/mol
# GULP energy per Si atom -5613.363370 kJ/mol
# Density = 2.494947 g / cm^3
# Si number density = 25.006389 Si / 1000 Ang^3
#
#
#
# Elastic Constant Matrix: (Units=GPa)
#
#
# Indices 1 2 3 4 5 6 
#
# 1 129.9184 -1.3444 52.5107 -0.7869 -1.3217 -16.4425
# 2 -1.3444 86.2882 27.6400 -9.2625 1.1569 -6.2855
# 3 52.5107 27.6400 138.8257 -16.0624 -4.7955 -10.1774
# 4 -0.7869 -9.2625 -16.0624 34.1302 -6.6502 -7.2725
# 5 -1.3217 1.1569 -4.7955 -6.6502 53.4530 -1.8191
# 6 -16.4425 -6.2855 -10.1774 -7.2725 -1.8191 50.8269
#
#
#
# Elastic Compliance Matrix: (Units=1/GPa)
#
#
# Indices 1 2 3 4 5 6 
#
# 1 0.009553 0.001474 -0.003815 -0.000691 -0.000142 0.002405
# 2 0.001474 0.012897 -0.002680 0.002664 -0.000087 0.001913
# 3 -0.003815 -0.002680 0.009805 0.004301 0.001415 0.001064
# 4 -0.000691 0.002664 0.004301 0.034248 0.004778 0.006039
# 5 -0.000142 -0.000087 0.001415 0.004778 0.019482 0.001607
# 6 0.002405 0.001913 0.001064 0.006039 0.001607 0.021824
#
#
# Mechanical properties :
#
#
# Convention : Reuss Voigt Hill
#
# Bulk Modulus (GPa) = 45.02074 56.96054 50.99064
# Shear Modulus (GPa) = 39.91828 46.09708 43.00768
#
# Velocity S-wave (km/s) = 3.99974 4.29816 4.15163
# Velocity P-wave (km/s) = 6.27481 6.88912 6.58913
#
# Compressibility (1/GPa) = 0.02221199
#
# Stress axis : x y z
#
# Youngs Moduli (GPa) = 104.67616 77.53805 101.99354
#
# Poissons Ratio (x) = -0.11429 0.38916
# Poissons Ratio (y) = -0.15429 0.27333
# Poissons Ratio (z) = 0.39939 0.20779
#
# Static dielectric constant tensor:
#      x y z
#    x 1.985300 0.086610 0.003790 
#    y 0.086610 2.031610 -0.017990 
#    z 0.003790 -0.017990 1.911050 
# 
# From -- ./inp_files/160396.got.cif
#   From: 2010.05.17/outbox.cif.g08.bks.cpg/sg2_81_cif.got.tgz:160396.got - 2010.06.03 11:33:40.
