data_PCOD9064815
_publ_section_title
;
Structure prediction by ZEFSAII (Michael W. Deem and Ramdas Pophale) SiO2 
 PCOD9064815
Probable space group: P -1
;
_chemical_formula_sum "Si O2"
_cell_formula_units_Z 10
_cell_length_a 6.042501
_cell_length_b 15.157815
_cell_length_c 8.044059
_cell_angle_alpha 138.665278
_cell_angle_beta 69.715603
_cell_angle_gamma 125.533305
_cell_volume 390.430831
_symmetry_space_group_name_H-M "P -1"
_symmetry_group_IT_number 2
_symmetry_cell_setting 'triclinic'
loop_
_space_group_symop_operation_xyz
x,y,z
-x,-y,-z
loop_
_atom_site_type_symbol
_atom_site_label
_atom_site_fract_x
_atom_site_fract_y
_atom_site_fract_z
Si Si1 0.962208 0.812681 0.579336
Si Si2 0.199473 0.184606 0.730572
Si Si3 0.444909 0.103273 0.025657
Si Si4 0.958653 0.620867 0.791203
Si Si5 0.199357 0.618855 0.252473
O O1 0.900728 0.764070 0.335184
O O2 0.034828 0.695139 0.484563
O O3 0.710948 0.823143 0.733865
O O4 0.232103 0.982845 0.776429
O O5 0.517191 0.243717 0.700874
O O6 0.170809 0.267004 0.019831
O O7 0.000000 0.000000 0.500000
O O8 0.724229 0.240032 0.066303
O O9 0.500000 0.000000 0.000000
O O10 0.000000 0.500000 0.500000
O O11 0.754651 0.490091 0.791012
O O12 0.000000 0.500000 0.000000
#
# Coordination Sequence:
#
# PCOD9064815 Si02
#       5
#     2   2   2   2   2
#     4  11  24  46  74 101 149 193 242 297 367 438
#     4  12  27  47  75 104 147 199 248 295 364 444
#     4  11  25  47  73 110 146 192 242 304 363 443
#     4  12  26  45  74 106 150 189 243 307 370 423
#     4  12  27  46  72 107 149 189 244 303 365 431
#
# _framework density 25.612731
#
# number of rings (size 3 to 8) (size 9 to 14) (size 15 to 20)
#    0.000    0.400    2.000    6.600    5.600    4.000 
#    0.000    0.000    0.000    0.000    0.000    0.000 
#    0.000    0.000    0.000    0.000    0.000    0.000 
#
# Total GULP energy -55833.772470 kJ/mol
# GULP energy per Si atom -5583.377247 kJ/mol
# Density = 2.555444 g / cm^3
# Si number density = 25.612731 Si / 1000 Ang^3
#
#
#
# Elastic Constant Matrix: (Units=GPa)
#
#
# Indices 1 2 3 4 5 6 
#
# 1 101.0784 37.8805 36.6815 14.4540 -33.2270 17.8199
# 2 37.8805 110.4532 25.2098 33.0160 -11.8744 27.9195
# 3 36.6815 25.2098 141.0570 4.0432 -37.3549 5.9584
# 4 14.4540 33.0160 4.0432 38.5041 1.9365 -3.9254
# 5 -33.2270 -11.8744 -37.3549 1.9365 63.4903 1.6230
# 6 17.8199 27.9195 5.9584 -3.9254 1.6230 42.7882
#
#
#
# Elastic Compliance Matrix: (Units=1/GPa)
#
#
# Indices 1 2 3 4 5 6 
#
# 1 0.015028 -0.000621 -0.001430 -0.005984 0.007255 -0.006478
# 2 -0.000621 0.018211 -0.001207 -0.016755 0.003217 -0.013115
# 3 -0.001430 -0.001207 0.008766 0.000446 0.004169 0.000045
# 4 -0.005984 -0.016755 0.000446 0.044741 -0.007821 0.017763
# 5 0.007255 0.003217 0.004169 -0.007821 0.023026 -0.007292
# 6 -0.006478 -0.013115 0.000045 0.017763 -0.007292 0.036527
#
#
# Mechanical properties :
#
#
# Convention : Reuss Voigt Hill
#
# Bulk Modulus (GPa) = 28.17871 61.34802 44.76337
# Shear Modulus (GPa) = 30.36804 45.81097 38.08950
#
# Velocity S-wave (km/s) = 3.44708 4.23377 3.86052
# Velocity P-wave (km/s) = 5.18352 6.92127 6.11444
#
# Compressibility (1/GPa) = 0.03548779
#
# Stress axis : x y z
#
# Youngs Moduli (GPa) = 66.54279 54.91081 114.07394
#
# Poissons Ratio (x) = 0.03412 0.16318
# Poissons Ratio (y) = 0.04135 0.13769
# Poissons Ratio (z) = 0.09519 0.06628
#
# Static dielectric constant tensor:
#      x y z
#    x 2.047700 -0.090800 -0.013620 
#    y -0.090800 2.136720 -0.094660 
#    z -0.013620 -0.094660 2.056450 
# 
# From -- ./inp_files/138318.got.cif
#   From: 2010.05.17/outbox.cif.g08.bks.cpg/sg2_70_cif.got.tgz:138318.got - 2010.06.03 11:33:40.
