data_PCOD9064964
_publ_section_title
;
Structure prediction by ZEFSAII (Michael W. Deem and Ramdas Pophale) SiO2 
 PCOD9064964
Probable space group: P -1
;
_chemical_formula_sum "Si O2"
_cell_formula_units_Z 16
_cell_length_a 8.417233
_cell_length_b 14.144012
_cell_length_c 7.182071
_cell_angle_alpha 98.940334
_cell_angle_beta 57.821462
_cell_angle_gamma 124.902193
_cell_volume 579.641383
_symmetry_space_group_name_H-M "P -1"
_symmetry_group_IT_number 2
_symmetry_cell_setting 'triclinic'
loop_
_space_group_symop_operation_xyz
x,y,z
-x,-y,-z
loop_
_atom_site_type_symbol
_atom_site_label
_atom_site_fract_x
_atom_site_fract_y
_atom_site_fract_z
Si Si1 0.467606 0.844910 0.397210
Si Si2 0.818778 0.501568 0.749627
Si Si3 0.317728 0.798652 0.043823
Si Si4 0.036267 0.246955 0.252757
Si Si5 0.173353 0.100396 0.284766
Si Si6 0.518624 0.646828 0.372736
Si Si7 0.162105 0.932844 0.949550
Si Si8 0.835752 0.555351 0.186187
O O1 0.559860 0.772425 0.396876
O O2 0.226499 0.795605 0.633619
O O3 0.667136 0.983895 0.300859
O O4 0.372563 0.814870 0.234245
O O5 0.307411 0.555355 0.618527
O O6 0.000000 0.500000 0.500000
O O7 0.574328 0.392279 0.794050
O O8 0.843234 0.512132 0.960806
O O9 0.555830 0.829691 0.819056
O O10 0.271164 0.890066 0.015534
O O11 0.092932 0.666225 0.115039
O O12 0.097241 0.187466 0.349876
O O13 0.167464 0.381464 0.264957
O O14 0.057948 0.187868 0.036210
O O15 0.000000 0.000000 0.500000
O O16 0.131793 0.023522 0.102584
O O17 0.696659 0.614510 0.287254
#
# Coordination Sequence:
#
# PCOD9064964 Si02
#       8
#     2   2   2   2   2   2   2   2
#     4  11  24  47  78 115 166 205 269 339 425 488
#     4  12  26  52  80 117 166 216 277 349 415 488
#     4  11  24  47  80 118 161 213 267 346 414 496
#     4  12  24  46  77 114 154 214 266 337 410 498
#     4  11  25  46  77 117 167 212 265 336 420 503
#     4  11  27  53  82 122 155 228 273 357 410 492
#     4  11  24  46  77 117 157 211 268 336 418 501
#     4  11  27  52  85 117 165 211 293 337 420 501
#
# _framework density 27.603273999999999
#
# number of rings (size 3 to 8) (size 9 to 14) (size 15 to 20)
#    0.000    0.750    2.500    4.875    3.500    1.500 
#    2.250    7.500    0.000    0.000    0.000    0.000 
#    0.000    0.000    0.000    0.000    0.000    0.000 
#
# Total GULP energy -89655.117133 kJ/mol
# GULP energy per Si atom -5603.444821 kJ/mol
# Density = 2.754045 g / cm^3
# Si number density = 27.603274 Si / 1000 Ang^3
#
#
#
# Elastic Constant Matrix: (Units=GPa)
#
#
# Indices 1 2 3 4 5 6 
#
# 1 118.1705 30.9962 25.5526 6.8509 -14.7307 -27.6081
# 2 30.9962 134.9449 19.3784 5.4303 -1.1691 -18.1028
# 3 25.5526 19.3784 121.5354 8.1977 -17.3344 0.4980
# 4 6.8509 5.4303 8.1977 44.1473 2.4024 0.8298
# 5 -14.7307 -1.1691 -17.3344 2.4024 54.2057 2.4293
# 6 -27.6081 -18.1028 0.4980 0.8298 2.4293 80.9507
#
#
#
# Elastic Compliance Matrix: (Units=1/GPa)
#
#
# Indices 1 2 3 4 5 6 
#
# 1 0.010297 -0.001662 -0.001512 -0.001291 0.002197 0.003097
# 2 -0.001662 0.008125 -0.001005 -0.000545 -0.000631 0.001281
# 3 -0.001512 -0.001005 0.009181 -0.001472 0.002607 -0.000860
# 4 -0.001291 -0.000545 -0.001472 0.023306 -0.001833 -0.000737
# 5 0.002197 -0.000631 0.002607 -0.001833 0.019946 0.000013
# 6 0.003097 0.001281 -0.000860 -0.000737 0.000013 0.013708
#
#
# Mechanical properties :
#
#
# Convention : Reuss Voigt Hill
#
# Bulk Modulus (GPa) = 51.95921 58.50058 55.22990
# Shear Modulus (GPa) = 50.33438 55.77563 53.05500
#
# Velocity S-wave (km/s) = 4.27487 4.50000 4.38888
# Velocity P-wave (km/s) = 6.57499 6.94546 6.76276
#
# Compressibility (1/GPa) = 0.01924587
#
# Stress axis : x y z
#
# Youngs Moduli (GPa) = 97.11100 123.08215 108.92215
#
# Poissons Ratio (x) = 0.20452 0.16472
# Poissons Ratio (y) = 0.16137 0.10942
# Poissons Ratio (z) = 0.14686 0.12364
#
# Static dielectric constant tensor:
#      x y z
#    x 2.167690 0.013360 0.030210 
#    y 0.013360 2.124380 0.010540 
#    z 0.030210 0.010540 2.419400 
# 
# From -- ./inp_files/207553.got.cif
#   From: 2010.05.17/outbox.cif.g08.bks.cpg/sg2_104_cif.got.tgz:207553.got - 2010.06.03 11:33:40.
