data_PCOD9064116
_publ_section_title
;
Structure prediction by ZEFSAII (Michael W. Deem and Ramdas Pophale) SiO2 
 PCOD9064116
Probable space group: P -1
;
_chemical_formula_sum "Si O2"
_cell_formula_units_Z 16
_cell_length_a 12.688202
_cell_length_b 9.819161
_cell_length_c 17.760855
_cell_angle_alpha 99.171727
_cell_angle_beta 42.590606
_cell_angle_gamma 133.544958
_cell_volume 765.449591
_symmetry_space_group_name_H-M "P -1"
_symmetry_group_IT_number 2
_symmetry_cell_setting 'triclinic'
loop_
_space_group_symop_operation_xyz
x,y,z
-x,-y,-z
loop_
_atom_site_type_symbol
_atom_site_label
_atom_site_fract_x
_atom_site_fract_y
_atom_site_fract_z
Si Si1 0.919763 0.579651 0.091763
Si Si2 0.788653 0.357900 0.404779
Si Si3 0.818946 0.486726 0.556715
Si Si4 0.231207 0.187469 0.106688
Si Si5 0.799471 0.973034 0.571113
Si Si6 0.818790 0.081440 0.396790
Si Si7 0.190447 0.845445 0.138931
Si Si8 0.242289 0.093189 0.922369
O O1 0.557059 0.323499 0.257215
O O2 0.033558 0.682139 0.127620
O O3 0.000000 0.500000 0.000000
O O4 0.110469 0.839890 0.971019
O O5 0.668020 0.314004 0.545333
O O6 0.956546 0.338241 0.329075
O O7 0.992050 0.634529 0.291621
O O8 0.526817 0.149234 0.462367
O O9 0.561899 0.343609 0.735564
O O10 0.000000 0.500000 0.500000
O O11 0.065386 0.790615 0.437696
O O12 0.946167 0.059847 0.273444
O O13 0.237327 0.045954 0.134787
O O14 0.500000 0.500000 0.000000
O O15 0.243842 0.149438 0.010966
O O16 0.848537 0.049057 0.463381
O O17 0.000000 0.000000 0.500000
O O18 0.500000 0.000000 0.000000
O O19 0.000000 0.000000 0.000000
#
# Coordination Sequence:
#
# PCOD9064116 Si02
#       8
#     2   2   2   2   2   2   2   2
#     4  11  26  46  71 103 145 184 242 298 360 430
#     4  11  25  45  72 103 142 186 248 293 362 431
#     4  12  25  43  74 102 141 187 239 296 358 433
#     4  11  25  44  70 102 143 181 235 296 360 432
#     4  12  26  45  69 108 146 188 243 298 366 434
#     4  11  24  45  71 102 140 193 240 298 363 433
#     4  11  26  44  72 106 142 187 243 298 365 435
#     4  11  25  47  68 100 137 186 233 288 360 425
#
# _framework density 20.902747999999999
#
# number of rings (size 3 to 8) (size 9 to 14) (size 15 to 20)
#    0.000    0.750    2.500    3.750    7.000    3.500 
#    0.000    0.000    0.000    0.000    0.000    0.000 
#    0.000    0.000    0.000    0.000    0.000    0.000 
#
# Total GULP energy -89360.446998 kJ/mol
# GULP energy per Si atom -5585.027937 kJ/mol
# Density = 2.085517 g / cm^3
# Si number density = 20.902748 Si / 1000 Ang^3
#
#
#
# Elastic Constant Matrix: (Units=GPa)
#
#
# Indices 1 2 3 4 5 6 
#
# 1 136.0551 45.5424 29.2877 -0.6712 -9.7447 -12.4980
# 2 45.5424 130.8592 12.2935 -2.6015 -3.9161 -19.0201
# 3 29.2877 12.2935 73.5581 -3.2865 -10.5584 3.1687
# 4 -0.6712 -2.6015 -3.2865 40.3025 0.4729 0.1199
# 5 -9.7447 -3.9161 -10.5584 0.4729 37.7075 -1.6588
# 6 -12.4980 -19.0201 3.1687 0.1199 -1.6588 33.1519
#
#
#
# Elastic Compliance Matrix: (Units=1/GPa)
#
#
# Indices 1 2 3 4 5 6 
#
# 1 0.009187 -0.002519 -0.003161 -0.000290 0.001336 0.002388
# 2 -0.002519 0.009244 -0.000667 0.000484 0.000311 0.004431
# 3 -0.003161 -0.000667 0.015621 0.001148 0.003346 -0.002904
# 4 -0.000290 0.000484 0.001148 0.024933 -0.000018 -0.000033
# 5 0.001336 0.000311 0.003346 -0.000018 0.027912 0.001759
# 6 0.002388 0.004431 -0.002904 -0.000033 0.001759 0.033973
#
#
# Mechanical properties :
#
#
# Convention : Reuss Voigt Hill
#
# Bulk Modulus (GPa) = 46.81780 57.19107 52.00444
# Shear Modulus (GPa) = 35.54081 39.12230 37.33155
#
# Velocity S-wave (km/s) = 4.12794 4.33093 4.23065
# Velocity P-wave (km/s) = 6.72059 7.24080 6.98554
#
# Compressibility (1/GPa) = 0.02135940
#
# Stress axis : x y z
#
# Youngs Moduli (GPa) = 108.84573 108.17636 64.01509
#
# Poissons Ratio (x) = 0.27251 0.20235
# Poissons Ratio (y) = 0.27419 0.04267
# Poissons Ratio (z) = 0.34407 0.07211
#
# Static dielectric constant tensor:
#      x y z
#    x 1.811050 0.084330 0.122270 
#    y 0.084330 1.951620 0.181460 
#    z 0.122270 0.181460 1.986910 
# 
# From -- ./inp_files/559679.got.cif
#   From: 2010.05.17/outbox.cif.g08.bks.cpg/sg2_280_cif.got.tgz:559679.got - 2010.06.03 11:33:40.
