data_PCOD9064177
_publ_section_title
;
Structure prediction by ZEFSAII (Michael W. Deem and Ramdas Pophale) SiO2 
 PCOD9064177
Probable space group: P -1
;
_chemical_formula_sum "Si O2"
_cell_formula_units_Z 16
_cell_length_a 11.584992
_cell_length_b 9.411786
_cell_length_c 7.960307
_cell_angle_alpha 93.352744
_cell_angle_beta 115.498517
_cell_angle_gamma 64.360718
_cell_volume 697.511994
_symmetry_space_group_name_H-M "P -1"
_symmetry_group_IT_number 2
_symmetry_cell_setting 'triclinic'
loop_
_space_group_symop_operation_xyz
x,y,z
-x,-y,-z
loop_
_atom_site_type_symbol
_atom_site_label
_atom_site_fract_x
_atom_site_fract_y
_atom_site_fract_z
Si Si1 0.827614 0.265481 0.279521
Si Si2 0.382441 0.847559 0.050298
Si Si3 0.874057 0.935912 0.726861
Si Si4 0.885180 0.245779 0.698175
Si Si5 0.433015 0.880523 0.468675
Si Si6 0.390633 0.462810 0.321405
Si Si7 0.670174 0.597937 0.055850
Si Si8 0.814990 0.796944 0.022334
O O1 0.836496 0.229917 0.479477
O O2 0.762365 0.455482 0.227983
O O3 0.986771 0.177836 0.296842
O O4 0.727840 0.205165 0.111387
O O5 0.396710 0.829776 0.260575
O O6 0.540320 0.744015 0.071417
O O7 0.315501 0.036676 0.990476
O O8 0.896308 0.092202 0.797818
O O9 0.722433 0.017637 0.538851
O O10 0.850132 0.837424 0.858660
O O11 0.767414 0.410893 0.712949
O O12 0.039971 0.239923 0.790216
O O13 0.549327 0.725161 0.621482
O O14 0.500000 0.000000 0.500000
O O15 0.500000 0.500000 0.500000
O O16 0.398504 0.475947 0.127998
O O17 0.769328 0.658399 0.018739
#
# Coordination Sequence:
#
# PCOD9064177 Si02
#       8
#     2   2   2   2   2   2   2   2
#     4  12  26  44  73 103 136 185 229 288 343 406
#     4  11  24  46  71  99 142 182 227 283 343 414
#     4  11  24  45  71  99 139 175 236 282 336 416
#     4  12  25  44  72 102 137 182 239 281 338 417
#     4  11  25  43  70 103 135 182 226 279 347 404
#     4  12  23  41  70  96 134 182 227 283 332 406
#     4  12  27  45  68 106 143 177 230 289 349 407
#     4  11  26  44  72 100 137 186 223 289 352 399
#
# _framework density 22.938675
#
# number of rings (size 3 to 8) (size 9 to 14) (size 15 to 20)
#    0.000    0.500    2.500    6.000    3.500    4.500 
#    0.000    0.000    0.000    0.000    0.000    0.000 
#    0.000    0.000    0.000    0.000    0.000    0.000 
#
# Total GULP energy -89531.182276 kJ/mol
# GULP energy per Si atom -5595.698892 kJ/mol
# Density = 2.288647 g / cm^3
# Si number density = 22.938675 Si / 1000 Ang^3
#
#
#
# Elastic Constant Matrix: (Units=GPa)
#
#
# Indices 1 2 3 4 5 6 
#
# 1 97.9447 40.8279 16.7166 -15.3836 4.1924 -10.6097
# 2 40.8279 97.8058 14.5999 -28.7637 2.4218 -15.3713
# 3 16.7166 14.5999 94.2975 -18.3517 -6.7159 -3.1359
# 4 -15.3836 -28.7637 -18.3517 32.3016 -3.9901 2.3438
# 5 4.1924 2.4218 -6.7159 -3.9901 34.1065 -4.5652
# 6 -10.6097 -15.3713 -3.1359 2.3438 -4.5652 49.5103
#
#
#
# Elastic Compliance Matrix: (Units=1/GPa)
#
#
# Indices 1 2 3 4 5 6 
#
# 1 0.012687 -0.004632 -0.001416 0.000881 -0.001268 0.001032
# 2 -0.004632 0.016320 0.001031 0.012844 0.001609 0.003680
# 3 -0.001416 0.001031 0.012477 0.007717 0.003564 0.000770
# 4 0.000881 0.012844 0.007717 0.047783 0.006491 0.003002
# 5 -0.001268 0.001609 0.003564 0.006491 0.031228 0.003026
# 6 0.001032 0.003680 0.000770 0.003002 0.003026 0.021747
#
#
# Mechanical properties :
#
#
# Convention : Reuss Voigt Hill
#
# Bulk Modulus (GPa) = 31.79703 48.25963 40.02833
# Shear Modulus (GPa) = 30.72021 37.71060 34.21540
#
# Velocity S-wave (km/s) = 3.66352 4.05899 3.86632
# Velocity P-wave (km/s) = 5.63800 6.56136 6.11713
#
# Compressibility (1/GPa) = 0.03144948
#
# Stress axis : x y z
#
# Youngs Moduli (GPa) = 78.82184 61.27603 80.14481
#
# Poissons Ratio (x) = 0.28381 0.11352
# Poissons Ratio (y) = 0.36508 -0.08262
# Poissons Ratio (z) = 0.11164 -0.06317
#
# Static dielectric constant tensor:
#      x y z
#    x 1.851060 0.015030 0.005010 
#    y 0.015030 1.889790 -0.011150 
#    z 0.005010 -0.011150 1.889140 
# 
# From -- ./inp_files/244714.got.cif
#   From: 2010.05.17/outbox.cif.g08.bks.cpg/sg2_123_cif.got.tgz:244714.got - 2010.06.03 11:33:40.
