data_PCOD9064711
_publ_section_title
;
Structure prediction by ZEFSAII (Michael W. Deem and Ramdas Pophale) SiO2 
 PCOD9064711
Probable space group: P -1
;
_chemical_formula_sum "Si O2"
_cell_formula_units_Z 14
_cell_length_a 14.084396
_cell_length_b 6.601899
_cell_length_c 16.685312
_cell_angle_alpha 60.824368
_cell_angle_beta 29.990887
_cell_angle_gamma 49.669252
_cell_volume 580.227403
_symmetry_space_group_name_H-M "P -1"
_symmetry_group_IT_number 2
_symmetry_cell_setting 'triclinic'
loop_
_space_group_symop_operation_xyz
x,y,z
-x,-y,-z
loop_
_atom_site_type_symbol
_atom_site_label
_atom_site_fract_x
_atom_site_fract_y
_atom_site_fract_z
Si Si1 0.660769 0.115812 0.388603
Si Si2 0.429448 0.281656 0.098230
Si Si3 0.850084 0.728128 0.843625
Si Si4 0.506877 0.720544 0.343659
Si Si5 0.085800 0.775066 0.049900
Si Si6 0.466950 0.249195 0.253695
Si Si7 0.162462 0.748224 0.485673
O O1 0.618944 0.396115 0.325272
O O2 0.623077 0.181792 0.496469
O O3 0.500000 0.000000 0.500000
O O4 0.913378 0.905613 0.223574
O O5 0.258687 0.323162 0.145802
O O6 0.350106 0.301937 0.243126
O O7 0.500000 0.500000 0.000000
O O8 0.654793 0.999528 0.971984
O O9 0.921556 0.497992 0.903215
O O10 0.047385 0.743709 0.653999
O O11 0.356772 0.797118 0.360388
O O12 0.598704 0.924891 0.235790
O O13 0.337303 0.685055 0.902760
O O14 0.000000 0.000000 0.000000
O O15 0.281093 0.454321 0.412565
O O16 0.000000 0.000000 0.500000
#
# Coordination Sequence:
#
# PCOD9064711 Si02
#       7
#     2   2   2   2   2   2   2
#     4  11  25  49  73 105 142 194 244 297 361 434
#     4  11  24  46  72 103 144 188 238 301 366 422
#     4  11  26  45  73 103 146 191 242 301 362 433
#     4  11  25  45  74 101 146 190 241 300 360 431
#     4  12  26  44  72 104 150 188 239 301 360 428
#     4  12  27  44  71 107 146 185 246 296 359 436
#     4  12  27  46  74 107 146 193 245 301 364 436
#
# _framework density 24.128468999999999
#
# number of rings (size 3 to 8) (size 9 to 14) (size 15 to 20)
#    0.000    0.571    1.429    6.000    8.000    6.286 
#    0.000    0.000    0.000    0.000    0.000    0.000 
#    0.000    0.000    0.000    0.000    0.000    0.000 
#
# Total GULP energy -78216.721644 kJ/mol
# GULP energy per Si atom -5586.908689 kJ/mol
# Density = 2.407355 g / cm^3
# Si number density = 24.128469 Si / 1000 Ang^3
#
#
#
# Elastic Constant Matrix: (Units=GPa)
#
#
# Indices 1 2 3 4 5 6 
#
# 1 71.6524 19.5284 -5.4909 13.0839 13.4087 6.1572
# 2 19.5284 129.5057 12.9594 -9.2887 -4.3257 -10.1137
# 3 -5.4909 12.9594 68.0381 6.2618 -0.3398 4.9052
# 4 13.0839 -9.2887 6.2618 45.6994 -2.6209 4.5262
# 5 13.4087 -4.3257 -0.3398 -2.6209 21.3905 -5.3804
# 6 6.1572 -10.1137 4.9052 4.5262 -5.3804 34.8709
#
#
#
# Elastic Compliance Matrix: (Units=1/GPa)
#
#
# Indices 1 2 3 4 5 6 
#
# 1 0.020900 -0.005235 0.003848 -0.007817 -0.016904 -0.007344
# 2 -0.005235 0.009671 -0.002918 0.003791 0.006839 0.004703
# 3 0.003848 -0.002918 0.016175 -0.003760 -0.004203 -0.003962
# 4 -0.007817 0.003791 -0.003760 0.025820 0.009035 0.001051
# 5 -0.016904 0.006839 -0.004203 0.009035 0.063330 0.014158
# 6 -0.007344 0.004703 -0.003962 0.001051 0.014158 0.033943
#
#
# Mechanical properties :
#
#
# Convention : Reuss Voigt Hill
#
# Bulk Modulus (GPa) = 26.22293 35.91000 31.06647
# Shear Modulus (GPa) = 26.15591 36.53879 31.34735
#
# Velocity S-wave (km/s) = 3.29603 3.89568 3.60833
# Velocity P-wave (km/s) = 5.03753 5.92876 5.50122
#
# Compressibility (1/GPa) = 0.03813456
#
# Stress axis : x y z
#
# Youngs Moduli (GPa) = 47.84718 103.40464 61.82486
#
# Poissons Ratio (x) = 0.54137 -0.23792
# Poissons Ratio (y) = 0.25050 0.18042
# Poissons Ratio (z) = -0.18413 0.30177
#
# Static dielectric constant tensor:
#      x y z
#    x 1.878280 0.050810 -0.165990 
#    y 0.050810 1.592780 0.826990 
#    z -0.165990 0.826990 0.170580 
# 
# From -- ./inp_files/26816.got.cif
#   From: 2010.05.17/outbox.cif.g08.bks.cpg/sg2_14_cif.got.tgz:26816.got - 2010.06.03 11:33:40.
