data_PCOD9064857
_publ_section_title
;
Structure prediction by ZEFSAII (Michael W. Deem and Ramdas Pophale) SiO2 
 PCOD9064857
Probable space group: P -1
;
_chemical_formula_sum "Si O2"
_cell_formula_units_Z 14
_cell_length_a 9.021699
_cell_length_b 11.325167
_cell_length_c 8.727393
_cell_angle_alpha 121.489799
_cell_angle_beta 50.346262
_cell_angle_gamma 114.297919
_cell_volume 581.265888
_symmetry_space_group_name_H-M "P -1"
_symmetry_group_IT_number 2
_symmetry_cell_setting 'triclinic'
loop_
_space_group_symop_operation_xyz
x,y,z
-x,-y,-z
loop_
_atom_site_type_symbol
_atom_site_label
_atom_site_fract_x
_atom_site_fract_y
_atom_site_fract_z
Si Si1 0.612207 0.875688 0.397502
Si Si2 0.459447 0.592808 0.273477
Si Si3 0.245323 0.593063 0.105155
Si Si4 0.255148 0.828340 0.000315
Si Si5 0.958377 0.832188 0.934515
Si Si6 0.877832 0.643568 0.559645
Si Si7 0.287305 0.110867 0.333608
O O1 0.467456 0.740608 0.449907
O O2 0.738621 0.922472 0.493283
O O3 0.500000 0.000000 0.500000
O O4 0.745318 0.822214 0.142233
O O5 0.404507 0.626414 0.157217
O O6 0.297437 0.472432 0.357235
O O7 0.668404 0.536962 0.117305
O O8 0.236767 0.713349 0.068355
O O9 0.045840 0.571891 0.315811
O O10 0.207387 0.976253 0.198131
O O11 0.481935 0.858150 0.828094
O O12 0.111667 0.788938 0.927619
O O13 0.953104 0.737364 0.721430
O O14 0.000000 0.000000 0.000000
O O15 0.805438 0.754038 0.565136
#
# Coordination Sequence:
#
# PCOD9064857 Si02
#       7
#     2   2   2   2   2   2   2
#     4  12  28  47  78 109 147 198 248 317 386 436
#     4  11  26  50  73 111 154 195 256 305 374 462
#     4  11  24  46  78 103 151 204 242 309 377 437
#     4  11  24  46  74 110 155 193 253 314 365 446
#     4  12  26  45  74 120 149 189 258 313 365 456
#     4  12  26  49  78 112 150 204 249 306 382 440
#     4  11  25  45  74 110 148 203 248 307 379 439
#
# _framework density 24.085360000000001
#
# number of rings (size 3 to 8) (size 9 to 14) (size 15 to 20)
#    0.000    0.571    2.857    4.714    8.000    1.714 
#    0.000    3.571    0.000    0.000    0.000    0.000 
#    0.000    0.000    0.000    0.000    0.000    0.000 
#
# Total GULP energy -78432.741253 kJ/mol
# GULP energy per Si atom -5602.338661 kJ/mol
# Density = 2.403054 g / cm^3
# Si number density = 24.085360 Si / 1000 Ang^3
#
#
#
# Elastic Constant Matrix: (Units=GPa)
#
#
# Indices 1 2 3 4 5 6 
#
# 1 126.7121 55.6539 50.4563 3.0966 -14.9548 -21.2973
# 2 55.6539 146.8580 71.6962 10.7430 -14.0737 -7.3648
# 3 50.4563 71.6962 108.5720 -4.0097 -21.8337 -2.2058
# 4 3.0966 10.7430 -4.0097 26.5037 -4.7264 2.4568
# 5 -14.9548 -14.0737 -21.8337 -4.7264 39.5088 4.5171
# 6 -21.2973 -7.3648 -2.2058 2.4568 4.5171 41.0988
#
#
#
# Elastic Compliance Matrix: (Units=1/GPa)
#
#
# Indices 1 2 3 4 5 6 
#
# 1 0.011260 -0.002026 -0.003694 -0.001413 0.000727 0.005278
# 2 -0.002026 0.011353 -0.007034 -0.005787 -0.001429 0.001110
# 3 -0.003694 -0.007034 0.017155 0.007421 0.006859 -0.003451
# 4 -0.001413 -0.005787 0.007421 0.043087 0.007201 -0.004738
# 5 0.000727 -0.001429 0.006859 0.007201 0.030100 -0.003250
# 6 0.005278 0.001110 -0.003451 -0.004738 -0.003250 0.027721
#
#
# Mechanical properties :
#
#
# Convention : Reuss Voigt Hill
#
# Bulk Modulus (GPa) = 70.12277 81.97276 76.04777
# Shear Modulus (GPa) = 29.25016 35.04463 32.14739
#
# Velocity S-wave (km/s) = 3.48866 3.81861 3.65736
# Velocity P-wave (km/s) = 6.73833 7.31782 7.03405
#
# Compressibility (1/GPa) = 0.01426070
#
# Stress axis : x y z
#
# Youngs Moduli (GPa) = 88.80926 88.08000 58.29075
#
# Poissons Ratio (x) = 0.17847 0.21530
# Poissons Ratio (y) = 0.17995 0.41003
# Poissons Ratio (z) = 0.32803 0.61957
#
# Static dielectric constant tensor:
#      x y z
#    x 1.875300 0.039110 0.007380 
#    y 0.039110 1.962190 -0.030810 
#    z 0.007380 -0.030810 2.006910 
# 
# From -- ./inp_files/189686.got.cif
#   From: 2010.05.17/outbox.cif.g08.bks.cpg/sg2_95_cif.got.tgz:189686.got - 2010.06.03 11:33:40.
