data_PCOD9064995
_publ_section_title
;
Structure prediction by ZEFSAII (Michael W. Deem and Ramdas Pophale) SiO2 
 PCOD9064995
Probable space group: P -1
;
_chemical_formula_sum "Si O2"
_cell_formula_units_Z 16
_cell_length_a 12.833300
_cell_length_b 8.425957
_cell_length_c 9.060900
_cell_angle_alpha 92.805565
_cell_angle_beta 37.973667
_cell_angle_gamma 92.762431
_cell_volume 602.062160
_symmetry_space_group_name_H-M "P -1"
_symmetry_group_IT_number 2
_symmetry_cell_setting 'triclinic'
loop_
_space_group_symop_operation_xyz
x,y,z
-x,-y,-z
loop_
_atom_site_type_symbol
_atom_site_label
_atom_site_fract_x
_atom_site_fract_y
_atom_site_fract_z
Si Si1 0.113989 0.815725 0.609844
Si Si2 0.844920 0.726853 0.123970
Si Si3 0.232792 0.106046 0.158651
Si Si4 0.606845 0.581620 0.169852
Si Si5 0.691900 0.056531 0.324784
Si Si6 0.262432 0.768326 0.002389
Si Si7 0.335976 0.563182 0.272436
Si Si8 0.871792 0.735391 0.445682
O O1 0.240822 0.724832 0.355348
O O2 0.960872 0.889992 0.689169
O O3 0.236040 0.912641 0.590638
O O4 0.008576 0.696938 0.836837
O O5 0.688100 0.620075 0.238326
O O6 0.805898 0.910369 0.138784
O O7 0.854944 0.725616 0.288138
O O8 0.227114 0.133911 0.342360
O O9 0.320933 0.940793 0.009679
O O10 0.321602 0.264742 0.996588
O O11 0.409032 0.585374 0.357929
O O12 0.659074 0.402380 0.061328
O O13 0.500000 0.000000 0.500000
O O14 0.723903 0.203717 0.188057
O O15 0.067401 0.754488 0.258000
O O16 0.195833 0.427929 0.418603
O O17 0.500000 0.500000 0.000000
#
# Coordination Sequence:
#
# PCOD9064995 Si02
#       8
#     2   2   2   2   2   2   2   2
#     4  11  24  46  81 104 155 216 253 322 393 465
#     4  11  24  49  77 116 154 206 266 321 392 472
#     4  11  25  52  77 113 157 211 261 328 388 475
#     4  11  26  49  78 110 163 204 258 329 397 462
#     4  12  25  45  76 120 160 202 258 336 397 462
#     4  12  26  47  79 115 155 206 270 316 393 481
#     4  12  28  49  74 119 161 210 263 329 404 465
#     4  12  26  45  79 113 155 203 267 320 388 477
#
# _framework density 26.575330999999998
#
# number of rings (size 3 to 8) (size 9 to 14) (size 15 to 20)
#    0.000    0.500    5.000    3.750    5.250    2.500 
#    0.000    0.625    0.000    0.000    0.000    0.000 
#    0.000    0.000    0.000    0.000    0.000    0.000 
#
# Total GULP energy -89463.511419 kJ/mol
# GULP energy per Si atom -5591.469464 kJ/mol
# Density = 2.651484 g / cm^3
# Si number density = 26.575331 Si / 1000 Ang^3
#
#
#
# Elastic Constant Matrix: (Units=GPa)
#
#
# Indices 1 2 3 4 5 6 
#
# 1 91.0187 38.9440 14.5413 7.2786 26.5245 21.1239
# 2 38.9440 161.6227 26.1228 8.8258 5.6630 -11.5116
# 3 14.5413 26.1228 75.3687 0.7654 16.0248 -5.5579
# 4 7.2786 8.8258 0.7654 53.0997 8.1014 5.1775
# 5 26.5245 5.6630 16.0248 8.1014 40.1133 -0.9313
# 6 21.1239 -11.5116 -5.5579 5.1775 -0.9313 52.2732
#
#
#
# Elastic Compliance Matrix: (Units=1/GPa)
#
#
# Indices 1 2 3 4 5 6 
#
# 1 0.018439 -0.004693 -0.000059 0.000926 -0.011897 -0.008795
# 2 -0.004693 0.007905 -0.002249 -0.001488 0.003270 0.003604
# 3 -0.000059 -0.002249 0.015388 0.000976 -0.005966 0.000962
# 4 0.000926 -0.001488 0.000976 0.019943 -0.004882 -0.002661
# 5 -0.011897 0.003270 -0.005966 -0.004882 0.035844 0.006016
# 6 -0.008795 0.003604 0.000962 -0.002661 0.006016 0.023951
#
#
# Mechanical properties :
#
#
# Convention : Reuss Voigt Hill
#
# Bulk Modulus (GPa) = 36.06279 54.13625 45.09952
# Shear Modulus (GPa) = 34.55060 45.65736 40.10398
#
# Velocity S-wave (km/s) = 3.60960 4.14942 3.88889
# Velocity P-wave (km/s) = 5.56523 6.58574 6.09687
#
# Compressibility (1/GPa) = 0.02772941
#
# Stress axis : x y z
#
# Youngs Moduli (GPa) = 54.23430 126.50166 64.98409
#
# Poissons Ratio (x) = 0.59373 0.00384
# Poissons Ratio (y) = 0.25455 0.14613
# Poissons Ratio (z) = 0.00320 0.28447
#
# Static dielectric constant tensor:
#      x y z
#    x 2.113960 0.030200 0.076090 
#    y 0.030200 2.153080 0.034650 
#    z 0.076090 0.034650 2.096290 
# 
# From -- ./inp_files/267763.got.cif
#   From: 2010.05.17/outbox.cif.g08.bks.cpg/sg2_134_cif.got.tgz:267763.got - 2010.06.03 11:33:40.
