data_PCOD9064974
_publ_section_title
;
Structure prediction by ZEFSAII (Michael W. Deem and Ramdas Pophale) SiO2 
 PCOD9064974
Probable space group: P -1
;
_chemical_formula_sum "Si O2"
_cell_formula_units_Z 13
_cell_length_a 11.860129
_cell_length_b 12.016063
_cell_length_c 6.018088
_cell_angle_alpha 115.079766
_cell_angle_beta 97.716303
_cell_angle_gamma 128.007835
_cell_volume 509.587954
_symmetry_space_group_name_H-M "P -1"
_symmetry_group_IT_number 2
_symmetry_cell_setting 'triclinic'
loop_
_space_group_symop_operation_xyz
x,y,z
-x,-y,-z
loop_
_atom_site_type_symbol
_atom_site_label
_atom_site_fract_x
_atom_site_fract_y
_atom_site_fract_z
Si Si1 0.430866 0.553596 0.675273
Si Si2 0.390482 0.189649 0.674999
Si Si3 0.786943 0.232919 0.154474
Si Si4 0.121988 0.149409 0.349777
Si Si5 0.435279 0.805858 0.625738
Si Si6 0.000000 0.500000 0.000000
Si Si7 0.082020 0.818523 0.493900
O O1 0.500000 0.500000 0.500000
O O2 0.234827 0.359043 0.488173
O O3 0.458092 0.709611 0.713492
O O4 0.535314 0.647056 0.007991
O O5 0.258933 0.154134 0.448382
O O6 0.548445 0.246160 0.651079
O O7 0.274624 0.996537 0.606080
O O8 0.741468 0.276427 0.405812
O O9 0.895166 0.210129 0.271177
O O10 0.880761 0.373763 0.095325
O O11 0.598102 0.029216 0.865014
O O12 0.007204 0.121102 0.484542
O O13 0.000000 0.000000 0.000000
O O14 0.995297 0.643806 0.176821
#
# Coordination Sequence:
#
# PCOD9064974 Si02
#       7
#     2   2   2   2   2   1   2
#     4  12  25  47  77 112 155 206 268 322 388 474
#     4  12  25  50  78 113 158 212 264 325 395 468
#     4  11  25  48  74 110 152 209 260 329 379 478
#     4  12  27  48  78 114 159 206 258 334 397 468
#     4  11  24  46  78 108 154 203 270 320 387 467
#     4  12  26  46  72 108 154 202 256 320 404 456
#     4  12  26  47  73 111 158 204 262 318 404 468
#
# _framework density 25.510808000000001
#
# number of rings (size 3 to 8) (size 9 to 14) (size 15 to 20)
#    0.000    0.308    4.615    4.154    0.000    3.077 
#    0.000    0.000    0.000    0.000    0.000    0.000 
#    0.000    0.000    0.000    0.000    0.000    0.000 
#
# Total GULP energy -72521.805964 kJ/mol
# GULP energy per Si atom -5578.600459 kJ/mol
# Density = 2.545274 g / cm^3
# Si number density = 25.510808 Si / 1000 Ang^3
#
#
#
# Elastic Constant Matrix: (Units=GPa)
#
#
# Indices 1 2 3 4 5 6 
#
# 1 126.8433 33.1719 41.3254 -9.7521 -6.1257 -3.3290
# 2 33.1719 183.4373 27.8788 11.1955 4.3673 -1.9690
# 3 41.3254 27.8788 117.3024 23.1189 -14.5017 3.0628
# 4 -9.7521 11.1955 23.1189 34.0514 6.8005 -8.5158
# 5 -6.1257 4.3673 -14.5017 6.8005 42.0979 4.0349
# 6 -3.3290 -1.9690 3.0628 -8.5158 4.0349 35.6261
#
#
#
# Elastic Compliance Matrix: (Units=1/GPa)
#
#
# Indices 1 2 3 4 5 6 
#
# 1 0.010715 -0.001552 -0.005415 0.008539 -0.001873 0.003634
# 2 -0.001552 0.005952 -0.000579 -0.001898 -0.000723 -0.000138
# 3 -0.005415 -0.000579 0.014353 -0.013991 0.007043 -0.005914
# 4 0.008539 -0.001898 -0.013991 0.048158 -0.012581 0.014832
# 5 -0.001873 -0.000723 0.007043 -0.012581 0.028694 -0.007078
# 6 0.003634 -0.000138 -0.005914 0.014832 -0.007078 0.033257
#
#
# Mechanical properties :
#
#
# Convention : Reuss Voigt Hill
#
# Bulk Modulus (GPa) = 62.78923 70.25947 66.52435
# Shear Modulus (GPa) = 30.95362 44.03552 37.49457
#
# Velocity S-wave (km/s) = 3.48710 4.15921 3.83789
# Velocity P-wave (km/s) = 6.39370 7.11802 6.76556
#
# Compressibility (1/GPa) = 0.01592630
#
# Stress axis : x y z
#
# Youngs Moduli (GPa) = 93.32299 168.01685 69.67085
#
# Poissons Ratio (x) = 0.26080 0.37730
# Poissons Ratio (y) = 0.14486 0.04036
# Poissons Ratio (z) = 0.50539 0.09734
#
# Static dielectric constant tensor:
#      x y z
#    x 1.827710 -0.077740 0.012560 
#    y -0.077740 1.951240 -0.084830 
#    z 0.012560 -0.084830 2.133040 
# 
# From -- ./inp_files/72342.got.cif
#   From: 2010.05.17/outbox.cif.g08.bks.cpg/sg2_37_cif.got.tgz:72342.got - 2010.06.03 11:33:40.
