data_PCOD9064915
_publ_section_title
;
Structure prediction by ZEFSAII (Michael W. Deem and Ramdas Pophale) SiO2 
 PCOD9064915
Probable space group: P -1
;
_chemical_formula_sum "Si O2"
_cell_formula_units_Z 16
_cell_length_a 8.439893
_cell_length_b 25.263215
_cell_length_c 8.968730
_cell_angle_alpha 143.119732
_cell_angle_beta 140.956634
_cell_angle_gamma 37.560566
_cell_volume 644.288306
_symmetry_space_group_name_H-M "P -1"
_symmetry_group_IT_number 2
_symmetry_cell_setting 'triclinic'
loop_
_space_group_symop_operation_xyz
x,y,z
-x,-y,-z
loop_
_atom_site_type_symbol
_atom_site_label
_atom_site_fract_x
_atom_site_fract_y
_atom_site_fract_z
Si Si1 0.945709 0.022847 0.684200
Si Si2 0.913502 0.280418 0.941560
Si Si3 0.650965 0.904587 0.571430
Si Si4 0.695827 0.491089 0.265442
Si Si5 0.807048 0.144085 0.316496
Si Si6 0.938240 0.798818 0.815157
Si Si7 0.409013 0.604738 0.594373
Si Si8 0.656872 0.731287 0.987659
O O1 0.664797 0.010908 0.490366
O O2 0.197904 0.946748 0.800336
O O3 0.000000 0.000000 0.500000
O O4 0.891337 0.135494 0.918736
O O5 0.097467 0.216518 0.071372
O O6 0.063721 0.319199 0.018929
O O7 0.725205 0.386445 0.119102
O O8 0.813885 0.215094 0.617980
O O9 0.921540 0.910913 0.718670
O O10 0.675851 0.867211 0.675624
O O11 0.677454 0.814019 0.286255
O O12 0.486284 0.579013 0.419125
O O13 0.000000 0.500000 0.500000
O O14 0.500000 0.500000 0.000000
O O15 0.574775 0.211877 0.181688
O O16 0.105485 0.693343 0.616149
O O17 0.500000 0.500000 0.500000
O O18 0.609855 0.656054 0.889893
#
# Coordination Sequence:
#
# PCOD9064915 Si02
#       8
#     2   2   2   2   2   2   2   2
#     4  12  26  45  70 105 143 187 244 301 371 441
#     4  11  25  44  72 104 147 192 243 305 370 443
#     4  11  25  44  72 100 146 180 242 299 370 442
#     4  12  27  48  78 112 152 200 260 314 378 456
#     4  11  24  46  75  99 142 193 239 304 366 449
#     4  12  26  47  67 108 147 184 246 305 368 443
#     4  12  24  48  73 105 146 190 245 307 375 447
#     4  11  24  47  72 104 141 190 242 295 376 444
#
# _framework density 24.833603
#
# number of rings (size 3 to 8) (size 9 to 14) (size 15 to 20)
#    0.000    0.500    6.250    1.125    3.500    4.500 
#    2.250    1.250    0.000    0.000    0.000    0.000 
#    0.000    0.000    0.000    0.000    0.000    0.000 
#
# Total GULP energy -89183.640318 kJ/mol
# GULP energy per Si atom -5573.977520 kJ/mol
# Density = 2.477708 g / cm^3
# Si number density = 24.833603 Si / 1000 Ang^3
#
#
#
# Elastic Constant Matrix: (Units=GPa)
#
#
# Indices 1 2 3 4 5 6 
#
# 1 63.4963 15.7033 22.1993 0.0952 -5.3201 6.0913
# 2 15.7033 121.7893 37.9827 3.4219 7.9722 26.0738
# 3 22.1993 37.9827 112.0998 5.5032 -26.3573 6.1301
# 4 0.0952 3.4219 5.5032 50.8064 6.0126 -3.0455
# 5 -5.3201 7.9722 -26.3573 6.0126 32.9877 1.3185
# 6 6.0913 26.0738 6.1301 -3.0455 1.3185 42.4105
#
#
#
# Elastic Compliance Matrix: (Units=1/GPa)
#
#
# Indices 1 2 3 4 5 6 
#
# 1 0.017195 -0.001121 -0.002751 0.000154 0.000874 -0.001399
# 2 -0.001121 0.011649 -0.004999 0.000199 -0.006785 -0.006053
# 3 -0.002751 -0.004999 0.014194 -0.002631 0.012551 0.000838
# 4 0.000154 0.000199 -0.002631 0.020777 -0.005989 0.001914
# 5 0.000874 -0.006785 0.012551 -0.005989 0.043197 0.000458
# 6 -0.001399 -0.006053 0.000838 0.001914 0.000458 0.027503
#
#
# Mechanical properties :
#
#
# Convention : Reuss Voigt Hill
#
# Bulk Modulus (GPa) = 39.53256 49.90623 44.71940
# Shear Modulus (GPa) = 31.11604 40.00759 35.56182
#
# Velocity S-wave (km/s) = 3.54359 4.01811 3.78829
# Velocity P-wave (km/s) = 5.71806 6.45499 6.09767
#
# Compressibility (1/GPa) = 0.02529560
#
# Stress axis : x y z
#
# Youngs Moduli (GPa) = 58.15585 85.84530 70.45443
#
# Poissons Ratio (x) = 0.09626 0.19381
# Poissons Ratio (y) = 0.06521 0.35220
# Poissons Ratio (z) = 0.15998 0.42913
#
# Static dielectric constant tensor:
#      x y z
#    x 2.108480 -0.055170 0.014130 
#    y -0.055170 2.007790 0.022010 
#    z 0.014130 0.022010 2.093930 
# 
# From -- ./inp_files/117188.got.cif
#   From: 2010.05.17/outbox.cif.g08.bks.cpg/sg2_59_cif.got.tgz:117188.got - 2010.06.03 11:33:40.
