data_PCOD9064491
_publ_section_title
;
Structure prediction by ZEFSAII (Michael W. Deem and Ramdas Pophale) SiO2 
 PCOD9064491
Probable space group: P -1
;
_chemical_formula_sum "Si O2"
_cell_formula_units_Z 15
_cell_length_a 9.386481
_cell_length_b 15.444144
_cell_length_c 8.522487
_cell_angle_alpha 76.776337
_cell_angle_beta 60.500854
_cell_angle_gamma 36.329966
_cell_volume 602.313952
_symmetry_space_group_name_H-M "P -1"
_symmetry_group_IT_number 2
_symmetry_cell_setting 'triclinic'
loop_
_space_group_symop_operation_xyz
x,y,z
-x,-y,-z
loop_
_atom_site_type_symbol
_atom_site_label
_atom_site_fract_x
_atom_site_fract_y
_atom_site_fract_z
Si Si1 0.500000 0.000000 0.000000
Si Si2 0.663917 0.835150 0.497012
Si Si3 0.492169 0.289131 0.372183
Si Si4 0.006598 0.228406 0.909598
Si Si5 0.110196 0.605422 0.583438
Si Si6 0.073467 0.036805 0.303578
Si Si7 0.588942 0.515592 0.218362
Si Si8 0.692892 0.213269 0.947277
O O1 0.749144 0.886317 0.046378
O O2 0.298217 0.016450 0.207906
O O3 0.510051 0.813633 0.540882
O O4 0.923081 0.731135 0.278563
O O5 0.794690 0.765390 0.628881
O O6 0.500000 0.000000 0.500000
O O7 0.222726 0.464379 0.503678
O O8 0.525282 0.274828 0.173571
O O9 0.766822 0.209125 0.341728
O O10 0.958472 0.156682 0.877887
O O11 0.714780 0.389867 0.079443
O O12 0.316064 0.592731 0.416632
O O13 0.164227 0.575896 0.750806
O O14 0.199255 0.922123 0.140079
O O15 0.000000 0.000000 0.500000
O O16 0.492445 0.647651 0.131244
#
# Coordination Sequence:
#
# PCOD9064491 Si02
#       8
#     1   2   2   2   2   2   2   2
#     4  12  28  46  76 110 152 196 264 316 392 454
#     4  12  28  46  75 112 155 201 262 320 394 474
#     4  12  25  48  74 110 153 205 260 318 390 466
#     4  12  25  47  75 108 151 200 259 314 387 467
#     4  11  24  46  75 113 152 200 260 319 390 464
#     4  12  27  49  75 112 160 202 260 327 393 464
#     4  11  24  45  79 107 152 202 257 321 389 459
#     4  12  24  47  79 108 151 206 256 314 391 464
#
# _framework density 24.903956999999998
#
# number of rings (size 3 to 8) (size 9 to 14) (size 15 to 20)
#    0.000    0.267    4.000    4.400    3.733    1.067 
#    0.000    2.000    0.000    0.000    0.000    0.000 
#    0.000    0.000    0.000    0.000    0.000    0.000 
#
# Total GULP energy -83864.930238 kJ/mol
# GULP energy per Si atom -5590.995349 kJ/mol
# Density = 2.484727 g / cm^3
# Si number density = 24.903957 Si / 1000 Ang^3
#
#
#
# Elastic Constant Matrix: (Units=GPa)
#
#
# Indices 1 2 3 4 5 6 
#
# 1 117.7906 41.6093 24.1777 2.1828 -14.4110 -9.6803
# 2 41.6093 129.5303 15.4178 -7.1350 -0.0561 -11.6331
# 3 24.1777 15.4178 85.1796 -18.1605 -3.4173 14.2349
# 4 2.1828 -7.1350 -18.1605 45.3042 5.7320 10.5924
# 5 -14.4110 -0.0561 -3.4173 5.7320 42.0687 -6.4215
# 6 -9.6803 -11.6331 14.2349 10.5924 -6.4215 53.4139
#
#
#
# Elastic Compliance Matrix: (Units=1/GPa)
#
#
# Indices 1 2 3 4 5 6 
#
# 1 0.011359 -0.003052 -0.004006 -0.004129 0.004712 0.003847
# 2 -0.003052 0.008966 -0.000779 0.001084 -0.001051 0.001266
# 3 -0.004006 -0.000779 0.015896 0.008387 -0.002304 -0.007072
# 4 -0.004129 0.001084 0.008387 0.028713 -0.006043 -0.009168
# 5 0.004712 -0.001051 -0.002304 -0.006043 0.026885 0.005670
# 6 0.003847 0.001266 -0.007072 -0.009168 0.005670 0.024079
#
#
# Mechanical properties :
#
#
# Convention : Reuss Voigt Hill
#
# Bulk Modulus (GPa) = 48.67037 54.99000 51.83018
# Shear Modulus (GPa) = 36.12150 44.91041 40.51595
#
# Velocity S-wave (km/s) = 3.81259 4.25119 4.03785
# Velocity P-wave (km/s) = 6.24233 6.79894 6.52657
#
# Compressibility (1/GPa) = 0.02054638
#
# Stress axis : x y z
#
# Youngs Moduli (GPa) = 88.03487 111.52847 62.91011
#
# Poissons Ratio (x) = 0.34039 0.25202
# Poissons Ratio (y) = 0.26868 0.04903
# Poissons Ratio (z) = 0.35267 0.08692
#
# Static dielectric constant tensor:
#      x y z
#    x 1.979410 -0.013660 0.003510 
#    y -0.013660 1.995320 0.000830 
#    z 0.003510 0.000830 2.031250 
# 
# From -- ./inp_files/206759.got.cif
#   From: 2010.05.17/outbox.cif.g08.bks.cpg/sg2_104_cif.got.tgz:206759.got - 2010.06.03 11:33:40.
