data_PCOD9064528
_publ_section_title
;
Structure prediction by ZEFSAII (Michael W. Deem and Ramdas Pophale) SiO2 
 PCOD9064528
Probable space group: P -1
;
_chemical_formula_sum "Si O2"
_cell_formula_units_Z 13
_cell_length_a 16.015499
_cell_length_b 5.513304
_cell_length_c 8.195065
_cell_angle_alpha 115.881185
_cell_angle_beta 122.389460
_cell_angle_gamma 86.133559
_cell_volume 536.402450
_symmetry_space_group_name_H-M "P -1"
_symmetry_group_IT_number 2
_symmetry_cell_setting 'triclinic'
loop_
_space_group_symop_operation_xyz
x,y,z
-x,-y,-z
loop_
_atom_site_type_symbol
_atom_site_label
_atom_site_fract_x
_atom_site_fract_y
_atom_site_fract_z
Si Si1 0.723254 0.003136 0.085415
Si Si2 0.229559 0.451079 0.208309
Si Si3 0.551876 0.232223 0.492310
Si Si4 0.755960 0.570249 0.400134
Si Si5 0.000000 0.500000 0.000000
Si Si6 0.580925 0.787594 0.153572
Si Si7 0.091648 0.999560 0.478381
O O1 0.628387 0.833480 0.036925
O O2 0.713327 0.317325 0.159439
O O3 0.816833 0.029830 0.317014
O O4 0.751077 0.848669 0.911661
O O5 0.329676 0.656707 0.304601
O O6 0.237689 0.496057 0.424043
O O7 0.116206 0.465499 0.043169
O O8 0.500000 0.500000 0.500000
O O9 0.500000 0.000000 0.500000
O O10 0.548107 0.058250 0.268277
O O11 0.676508 0.763975 0.359849
O O12 0.866186 0.722406 0.497726
O O13 0.056695 0.759407 0.242537
O O14 0.500000 0.500000 0.000000
O O15 0.000000 0.000000 0.500000
#
# Coordination Sequence:
#
# PCOD9064528 Si02
#       7
#     2   2   2   2   1   2   2
#     4  11  24  46  72 106 147 201 255 321 388 485
#     4  12  25  48  76 113 153 204 264 323 408 467
#     4  12  27  49  80 117 159 209 269 335 405 487
#     4  11  25  47  73 104 153 196 260 325 389 486
#     4  12  24  46  76 104 160 190 256 332 396 470
#     4  11  25  48  75 110 156 204 259 332 401 474
#     4  11  24  46  68 102 144 194 252 319 393 470
#
# _framework density 24.235533
#
# number of rings (size 3 to 8) (size 9 to 14) (size 15 to 20)
#    0.000    0.615    4.615    2.769    2.154    3.077 
#    5.538    0.000    0.000    0.000    0.000    0.000 
#    0.000    0.000    0.000    0.000    0.000    0.000 
#
# Total GULP energy -72469.604605 kJ/mol
# GULP energy per Si atom -5574.584970 kJ/mol
# Density = 2.418037 g / cm^3
# Si number density = 24.235533 Si / 1000 Ang^3
#
#
#
# Elastic Constant Matrix: (Units=GPa)
#
#
# Indices 1 2 3 4 5 6 
#
# 1 180.5669 71.3062 52.6130 24.6237 10.5978 -5.4197
# 2 71.3062 85.9774 32.3383 26.5793 11.2707 -8.9870
# 3 52.6130 32.3383 100.0935 37.1901 8.2262 -1.9582
# 4 24.6237 26.5793 37.1901 35.5820 -19.1179 -7.7635
# 5 10.5978 11.2707 8.2262 -19.1179 69.5653 13.1334
# 6 -5.4197 -8.9870 -1.9582 -7.7635 13.1334 38.1049
#
#
#
# Elastic Compliance Matrix: (Units=1/GPa)
#
#
# Indices 1 2 3 4 5 6 
#
# 1 0.009002 -0.007580 -0.004117 0.004549 0.001663 -0.000365
# 2 -0.007580 0.025393 0.006343 -0.025672 -0.011515 0.003975
# 3 -0.004117 0.006343 0.023282 -0.032810 -0.012093 -0.000410
# 4 0.004549 -0.025672 -0.032810 0.096778 0.033756 0.000989
# 5 0.001663 -0.011515 -0.012093 0.033756 0.027789 -0.005801
# 6 -0.000365 0.003975 -0.000410 0.000989 -0.005801 0.029309
#
#
# Mechanical properties :
#
#
# Convention : Reuss Voigt Hill
#
# Bulk Modulus (GPa) = 21.29049 75.46143 48.37596
# Shear Modulus (GPa) = 21.01564 42.67579 31.84571
#
# Velocity S-wave (km/s) = 2.94792 4.20083 3.62886
# Velocity P-wave (km/s) = 4.51563 7.39822 6.12880
#
# Compressibility (1/GPa) = 0.04696934
#
# Stress axis : x y z
#
# Youngs Moduli (GPa) = 111.08473 39.38092 42.95166
#
# Poissons Ratio (x) = 0.29850 0.17683
# Poissons Ratio (y) = 0.84201 -0.27244
# Poissons Ratio (z) = 0.45733 -0.24979
#
# Static dielectric constant tensor:
#      x y z
#    x 1.948460 -0.043350 0.020370 
#    y -0.043350 2.156920 0.008290 
#    z 0.020370 0.008290 1.900530 
# 
# From -- ./inp_files/51435.got.cif
#   From: 2010.05.17/outbox.cif.g08.bks.cpg/sg2_26_cif.got.tgz:51435.got - 2010.06.03 11:33:40.
