data_PCOD9064764
_publ_section_title
;
Structure prediction by ZEFSAII (Michael W. Deem and Ramdas Pophale) SiO2 
 PCOD9064764
Probable space group: P -1
;
_chemical_formula_sum "Si O2"
_cell_formula_units_Z 10
_cell_length_a 14.083002
_cell_length_b 7.124133
_cell_length_c 7.369011
_cell_angle_alpha 56.316558
_cell_angle_beta 122.604677
_cell_angle_gamma 143.366294
_cell_volume 360.482354
_symmetry_space_group_name_H-M "P -1"
_symmetry_group_IT_number 2
_symmetry_cell_setting 'triclinic'
loop_
_space_group_symop_operation_xyz
x,y,z
-x,-y,-z
loop_
_atom_site_type_symbol
_atom_site_label
_atom_site_fract_x
_atom_site_fract_y
_atom_site_fract_z
Si Si1 0.076830 0.754915 0.193849
Si Si2 0.441363 0.186895 0.006089
Si Si3 0.784746 0.593242 0.158928
Si Si4 0.310119 0.195709 0.514619
Si Si5 0.224874 0.548817 0.359860
O O1 0.074031 0.503936 0.237553
O O2 0.914304 0.613186 0.192487
O O3 0.213870 0.933954 0.396962
O O4 0.142691 0.051831 0.978156
O O5 0.610042 0.332166 0.023959
O O6 0.362206 0.900314 0.219835
O O7 0.500000 0.500000 0.000000
O O8 0.321020 0.085527 0.776732
O O9 0.749044 0.490052 0.386343
O O10 0.500000 0.500000 0.500000
O O11 0.219100 0.305365 0.378920
#
# Coordination Sequence:
#
# PCOD9064764 Si02
#       5
#     2   2   2   2   2
#     4  11  26  48  71 102 143 180 229 286 344 409
#     4  12  23  45  73 101 138 184 230 286 343 405
#     4  11  24  46  73 101 142 184 224 287 349 403
#     4  12  26  44  72 107 134 181 237 284 337 414
#     4  12  25  46  75  99 141 186 229 281 349 409
#
# _framework density 27.740608999999999
#
# number of rings (size 3 to 8) (size 9 to 14) (size 15 to 20)
#    0.000    0.400    6.000    1.200    2.800    3.200 
#    0.000    5.000    0.000    0.000    0.000    0.000 
#    0.000    0.000    0.000    0.000    0.000    0.000 
#
# Total GULP energy -56194.204643 kJ/mol
# GULP energy per Si atom -5619.420464 kJ/mol
# Density = 2.767747 g / cm^3
# Si number density = 27.740609 Si / 1000 Ang^3
#
#
#
# Elastic Constant Matrix: (Units=GPa)
#
#
# Indices 1 2 3 4 5 6 
#
# 1 150.5818 48.0976 43.4586 -1.0170 18.5398 10.8120
# 2 48.0976 126.3204 72.1281 -1.7966 -8.4398 2.2511
# 3 43.4586 72.1281 202.2963 -20.7352 -17.5549 4.9994
# 4 -1.0170 -1.7966 -20.7352 58.3206 14.4048 9.4459
# 5 18.5398 -8.4398 -17.5549 14.4048 44.7550 -11.0300
# 6 10.8120 2.2511 4.9994 9.4459 -11.0300 55.0917
#
#
#
# Elastic Compliance Matrix: (Units=1/GPa)
#
#
# Indices 1 2 3 4 5 6 
#
# 1 0.008901 -0.003091 -0.001086 0.001631 -0.005959 -0.002995
# 2 -0.003091 0.011103 -0.003254 -0.001838 0.003027 0.001369
# 3 -0.001086 -0.003254 0.006689 0.001846 0.001813 -0.000214
# 4 0.001631 -0.001838 0.001846 0.020757 -0.008371 -0.005647
# 5 -0.005959 0.003027 0.001813 -0.008371 0.030883 0.008500
# 6 -0.002995 0.001369 -0.000214 -0.005647 0.008500 0.021373
#
#
# Mechanical properties :
#
#
# Convention : Reuss Voigt Hill
#
# Bulk Modulus (GPa) = 84.52664 89.61856 87.07260
# Shear Modulus (GPa) = 42.18969 52.66775 47.42872
#
# Velocity S-wave (km/s) = 3.90406 4.36200 4.13936
# Velocity P-wave (km/s) = 7.13153 7.59904 7.36899
#
# Compressibility (1/GPa) = 0.01183059
#
# Stress axis : x y z
#
# Youngs Moduli (GPa) = 112.34272 90.06510 149.50400
#
# Poissons Ratio (x) = 0.27835 0.16240
# Poissons Ratio (y) = 0.34721 0.48655
# Poissons Ratio (z) = 0.12204 0.29311
#
# Static dielectric constant tensor:
#      x y z
#    x 2.175200 0.005840 0.008050 
#    y 0.005840 2.087380 -0.012920 
#    z 0.008050 -0.012920 2.160280 
# 
# From -- ./inp_files/294355.got.cif
#   From: 2010.05.17/outbox.cif.g08.bks.cpg/sg2_148_cif.got.tgz:294355.got - 2010.06.03 11:33:40.
