data_PCOD9064793
_publ_section_title
;
Structure prediction by ZEFSAII (Michael W. Deem and Ramdas Pophale) SiO2 
 PCOD9064793
Probable space group: P -1
;
_chemical_formula_sum "Si O2"
_cell_formula_units_Z 15
_cell_length_a 12.104765
_cell_length_b 8.365000
_cell_length_c 9.078298
_cell_angle_alpha 115.476249
_cell_angle_beta 49.872533
_cell_angle_gamma 98.831840
_cell_volume 624.246264
_symmetry_space_group_name_H-M "P -1"
_symmetry_group_IT_number 2
_symmetry_cell_setting 'triclinic'
loop_
_space_group_symop_operation_xyz
x,y,z
-x,-y,-z
loop_
_atom_site_type_symbol
_atom_site_label
_atom_site_fract_x
_atom_site_fract_y
_atom_site_fract_z
Si Si1 0.781732 0.138437 0.207822
Si Si2 0.215148 0.363141 0.314969
Si Si3 0.374778 0.810605 0.915417
Si Si4 0.009750 0.354318 0.205897
Si Si5 0.489475 0.389990 0.658553
Si Si6 0.772031 0.793326 0.260629
Si Si7 0.337307 0.039543 0.290063
Si Si8 0.500000 0.500000 0.000000
O O1 0.769273 0.145486 0.044196
O O2 0.922653 0.191090 0.186037
O O3 0.645892 0.291717 0.431687
O O4 0.752600 0.949619 0.217139
O O5 0.110239 0.475229 0.573664
O O6 0.281722 0.175775 0.259340
O O7 0.120864 0.334681 0.240470
O O8 0.345255 0.468467 0.202513
O O9 0.449443 0.603408 0.753784
O O10 0.497447 0.927595 0.808531
O O11 0.345389 0.844735 0.129607
O O12 0.097429 0.355214 0.977090
O O13 0.367037 0.302260 0.648082
O O14 0.471942 0.364060 0.836976
O O15 0.769711 0.902802 0.458684
#
# Coordination Sequence:
#
# PCOD9064793 Si02
#       8
#     2   2   2   2   2   2   2   1
#     4  12  25  46  72 100 144 189 238 291 349 423
#     4  11  24  46  73 106 142 188 232 297 348 427
#     4  11  25  43  72 103 146 178 235 305 357 401
#     4  11  25  46  70 102 145 193 234 280 360 427
#     4  12  25  42  74 107 137 184 241 293 350 419
#     4  12  27  44  72 106 142 188 241 286 354 421
#     4  11  25  44  69 106 146 178 239 301 354 408
#     4  12  22  42  78 104 136 176 242 288 348 406
#
# _framework density 24.028981000000002
#
# number of rings (size 3 to 8) (size 9 to 14) (size 15 to 20)
#    0.000    0.533    5.333    2.000    3.733    0.533 
#    0.000    1.333    0.000    0.000    0.000    0.000 
#    0.000    0.000    0.000    0.000    0.000    0.000 
#
# Total GULP energy -83673.811792 kJ/mol
# GULP energy per Si atom -5578.254119 kJ/mol
# Density = 2.397429 g / cm^3
# Si number density = 24.028981 Si / 1000 Ang^3
#
#
#
# Elastic Constant Matrix: (Units=GPa)
#
#
# Indices 1 2 3 4 5 6 
#
# 1 64.2846 37.8018 30.3232 -1.0498 -7.1432 9.3872
# 2 37.8018 52.0362 6.1787 14.5008 -4.7307 8.7653
# 3 30.3232 6.1787 191.1953 2.2891 19.7755 3.5088
# 4 -1.0498 14.5008 2.2891 31.4011 5.3301 3.8039
# 5 -7.1432 -4.7307 19.7755 5.3301 36.3972 2.1576
# 6 9.3872 8.7653 3.5088 3.8039 2.1576 28.0791
#
#
#
# Elastic Compliance Matrix: (Units=1/GPa)
#
#
# Indices 1 2 3 4 5 6 
#
# 1 0.036416 -0.028673 -0.005400 0.014681 0.004494 -0.004883
# 2 -0.028673 0.046646 0.003128 -0.022808 0.002221 -0.002447
# 3 -0.005400 0.003128 0.006402 -0.001487 -0.003945 0.000533
# 4 0.014681 -0.022808 -0.001487 0.044309 -0.005576 -0.003177
# 5 0.004494 0.002221 -0.003945 -0.005576 0.031806 -0.003391
# 6 -0.004883 -0.002447 0.000533 -0.003177 -0.003391 0.038634
#
#
# Mechanical properties :
#
#
# Convention : Reuss Voigt Hill
#
# Bulk Modulus (GPa) = 36.26649 50.68037 43.47343
# Shear Modulus (GPa) = 18.16243 34.72299 26.44271
#
# Velocity S-wave (km/s) = 2.75226 3.80550 3.32090
# Velocity P-wave (km/s) = 5.02250 6.35974 5.73026
#
# Compressibility (1/GPa) = 0.02757366
#
# Stress axis : x y z
#
# Youngs Moduli (GPa) = 27.46040 21.43822 156.21036
#
# Poissons Ratio (x) = 0.61471 0.84351
# Poissons Ratio (y) = 0.78738 -0.48869
# Poissons Ratio (z) = 0.14828 -0.06707
#
# Static dielectric constant tensor:
#      x y z
#    x 2.032010 -0.125400 0.051030 
#    y -0.125400 2.025740 0.011510 
#    z 0.051030 0.011510 1.976350 
# 
# From -- ./inp_files/245287.got.cif
#   From: 2010.05.17/outbox.cif.g08.bks.cpg/sg2_123_cif.got.tgz:245287.got - 2010.06.03 11:33:40.
