data_PCOD9064751
_publ_section_title
;
Structure prediction by ZEFSAII (Michael W. Deem and Ramdas Pophale) SiO2 
 PCOD9064751
Probable space group: P -1
;
_chemical_formula_sum "Si O2"
_cell_formula_units_Z 15
_cell_length_a 11.479603
_cell_length_b 6.501855
_cell_length_c 9.207905
_cell_angle_alpha 101.313195
_cell_angle_beta 96.939285
_cell_angle_gamma 96.837111
_cell_volume 661.742917
_symmetry_space_group_name_H-M "P -1"
_symmetry_group_IT_number 2
_symmetry_cell_setting 'triclinic'
loop_
_space_group_symop_operation_xyz
x,y,z
-x,-y,-z
loop_
_atom_site_type_symbol
_atom_site_label
_atom_site_fract_x
_atom_site_fract_y
_atom_site_fract_z
Si Si1 0.877349 0.601947 0.825029
Si Si2 0.688190 0.887859 0.897488
Si Si3 0.402950 0.905800 0.355620
Si Si4 0.559164 0.708371 0.120270
Si Si5 0.813629 0.336595 0.522577
Si Si6 0.000000 0.000000 0.500000
Si Si7 0.118812 0.709622 0.972556
Si Si8 0.801114 0.614742 0.287674
O O1 0.761367 0.691095 0.873014
O O2 0.872288 0.544620 0.648868
O O3 0.994392 0.763214 0.902613
O O4 0.892558 0.386871 0.881516
O O5 0.640720 0.919342 0.732774
O O6 0.596076 0.861936 0.011046
O O7 0.780435 0.093490 0.980227
O O8 0.465347 0.770005 0.229997
O O9 0.294421 0.775258 0.409392
O O10 0.500000 0.000000 0.500000
O O11 0.680163 0.688236 0.222135
O O12 0.500000 0.500000 0.000000
O O13 0.772371 0.434482 0.382192
O O14 0.906507 0.173627 0.494663
O O15 0.102947 0.190238 0.615702
O O16 0.148887 0.515728 0.852917
#
# Coordination Sequence:
#
# PCOD9064751 Si02
#       8
#     2   2   2   2   2   1   2   2
#     4  11  24  46  72 115 150 193 241 314 375 461
#     4  12  26  47  81 105 153 202 251 317 378 447
#     4  12  29  49  73 113 147 202 263 312 376 444
#     4  12  28  53  77 108 154 208 261 314 379 449
#     4  12  28  48  76 112 156 192 250 308 386 459
#     4  12  28  52  74 116 156 198 244 308 398 452
#     4  11  24  46  72 117 150 191 250 303 384 463
#     4  12  28  47  80 112 154 201 250 311 382 461
#
# _framework density 22.667411000000001
#
# number of rings (size 3 to 8) (size 9 to 14) (size 15 to 20)
#    0.000    0.267    4.000    3.600    9.333    0.533 
#    0.000    0.000    0.000    0.000    0.000    0.000 
#    0.000    0.000    0.000    0.000    0.000    0.000 
#
# Total GULP energy -83686.962018 kJ/mol
# GULP energy per Si atom -5579.130801 kJ/mol
# Density = 2.261582 g / cm^3
# Si number density = 22.667411 Si / 1000 Ang^3
#
#
#
# Elastic Constant Matrix: (Units=GPa)
#
#
# Indices 1 2 3 4 5 6 
#
# 1 91.9932 37.2133 24.5447 -12.7272 14.9050 2.4555
# 2 37.2133 69.8924 38.7803 0.0734 6.7106 11.1239
# 3 24.5447 38.7803 102.4544 -13.4302 14.0453 9.6928
# 4 -12.7272 0.0734 -13.4302 44.0351 1.8060 -1.1397
# 5 14.9050 6.7106 14.0453 1.8060 44.0201 7.5946
# 6 2.4555 11.1239 9.6928 -1.1397 7.5946 43.5550
#
#
#
# Elastic Compliance Matrix: (Units=1/GPa)
#
#
# Indices 1 2 3 4 5 6 
#
# 1 0.015538 -0.008484 0.000583 0.004931 -0.004720 0.002113
# 2 -0.008484 0.023400 -0.007419 -0.004977 0.002643 -0.004438
# 3 0.000583 -0.007419 0.013530 0.004440 -0.003492 -0.000424
# 4 0.004931 -0.004977 0.004440 0.025678 -0.003606 0.001306
# 5 -0.004720 0.002643 -0.003492 -0.003606 0.025907 -0.004243
# 6 0.002113 -0.004438 -0.000424 0.001306 -0.004243 0.024842
#
#
# Mechanical properties :
#
#
# Convention : Reuss Voigt Hill
#
# Bulk Modulus (GPa) = 45.81893 51.71293 48.76593
# Shear Modulus (GPa) = 29.97395 37.24213 33.60804
#
# Velocity S-wave (km/s) = 3.64034 4.05777 3.85471
# Velocity P-wave (km/s) = 6.15848 6.69457 6.43211
#
# Compressibility (1/GPa) = 0.02182504
#
# Stress axis : x y z
#
# Youngs Moduli (GPa) = 64.35985 42.73574 73.91012
#
# Poissons Ratio (x) = 0.36259 -0.04307
# Poissons Ratio (y) = 0.54606 0.54836
# Poissons Ratio (z) = -0.03750 0.31707
#
# Static dielectric constant tensor:
#      x y z
#    x 2.340990 0.279810 -0.788150 
#    y 0.279810 1.981630 -0.463810 
#    z -0.788150 -0.463810 3.208690 
# 
# From -- ./inp_files/60442.got.cif
#   From: 2010.05.17/outbox.cif.g08.bks.cpg/sg2_31_cif.got.tgz:60442.got - 2010.06.03 11:33:40.
