data_PCOD9064191
_publ_section_title
;
Structure prediction by ZEFSAII (Michael W. Deem and Ramdas Pophale) SiO2 
 PCOD9064191
Probable space group: P -1
;
_chemical_formula_sum "Si O2"
_cell_formula_units_Z 16
_cell_length_a 14.622676
_cell_length_b 8.561233
_cell_length_c 8.435983
_cell_angle_alpha 137.064731
_cell_angle_beta 83.488793
_cell_angle_gamma 108.513796
_cell_volume 670.453848
_symmetry_space_group_name_H-M "P -1"
_symmetry_group_IT_number 2
_symmetry_cell_setting 'triclinic'
loop_
_space_group_symop_operation_xyz
x,y,z
-x,-y,-z
loop_
_atom_site_type_symbol
_atom_site_label
_atom_site_fract_x
_atom_site_fract_y
_atom_site_fract_z
Si Si1 0.315975 0.871645 0.452015
Si Si2 0.356069 0.740952 0.988995
Si Si3 0.047632 0.385164 0.041780
Si Si4 0.449091 0.256466 0.930884
Si Si5 0.266792 0.045849 0.008159
Si Si6 0.148282 0.622955 0.495164
Si Si7 0.804112 0.766757 0.305741
Si Si8 0.108087 0.133850 0.310288
O O1 0.252425 0.647665 0.408570
O O2 0.411368 0.030691 0.648436
O O3 0.245038 0.034340 0.577737
O O4 0.338369 0.815592 0.228114
O O5 0.323025 0.892229 0.976388
O O6 0.284214 0.463459 0.781400
O O7 0.468876 0.764489 0.981072
O O8 0.077637 0.575064 0.321659
O O9 0.142116 0.330874 0.914414
O O10 0.000000 0.500000 0.000000
O O11 0.973971 0.119884 0.910545
O O12 0.349930 0.239386 0.030150
O O13 0.500000 0.500000 0.000000
O O14 0.181758 0.860643 0.776609
O O15 0.210884 0.139441 0.220798
O O16 0.100408 0.382838 0.431445
O O17 0.883058 0.864673 0.501740
#
# Coordination Sequence:
#
# PCOD9064191 Si02
#       8
#     2   2   2   2   2   2   2   2
#     4  11  24  45  72 102 141 190 233 291 352 417
#     4  12  22  47  71 101 146 187 237 287 355 418
#     4  12  27  49  74 104 142 187 239 292 353 420
#     4  11  25  43  71 108 141 188 239 292 346 422
#     4  11  26  47  71 102 151 182 237 288 357 418
#     4  11  26  44  70 103 139 186 231 292 349 413
#     4  12  24  47  74 102 143 185 239 287 353 422
#     4  12  26  47  71 106 140 189 235 295 349 419
#
# _framework density 23.864429999999999
#
# number of rings (size 3 to 8) (size 9 to 14) (size 15 to 20)
#    0.000    0.500    5.000    3.000    5.250    0.500 
#    0.000    1.250    0.000    0.000    0.000    0.000 
#    0.000    0.000    0.000    0.000    0.000    0.000 
#
# Total GULP energy -89562.496680 kJ/mol
# GULP energy per Si atom -5597.656043 kJ/mol
# Density = 2.381011 g / cm^3
# Si number density = 23.864430 Si / 1000 Ang^3
#
#
#
# Elastic Constant Matrix: (Units=GPa)
#
#
# Indices 1 2 3 4 5 6 
#
# 1 93.1683 22.0584 36.1121 4.6975 6.8961 9.4010
# 2 22.0584 97.3020 13.4216 14.8243 7.5964 22.1897
# 3 36.1121 13.4216 72.1396 -10.0772 13.4985 13.3567
# 4 4.6975 14.8243 -10.0772 35.9688 5.0821 8.6481
# 5 6.8961 7.5964 13.4985 5.0821 48.3998 -0.0145
# 6 9.4010 22.1897 13.3567 8.6481 -0.0145 45.5838
#
#
#
# Elastic Compliance Matrix: (Units=1/GPa)
#
#
# Indices 1 2 3 4 5 6 
#
# 1 0.014122 -0.001892 -0.007503 -0.003480 0.000743 0.000868
# 2 -0.001892 0.012582 -0.000860 -0.003889 -0.001058 -0.004745
# 3 -0.007503 -0.000860 0.021324 0.009589 -0.005752 -0.006103
# 4 -0.003480 -0.003889 0.009589 0.034927 -0.005237 -0.006827
# 5 0.000743 -0.001058 -0.005752 -0.005237 0.022876 0.003048
# 6 0.000868 -0.004745 -0.006103 -0.006827 0.003048 0.027153
#
#
# Mechanical properties :
#
#
# Convention : Reuss Voigt Hill
#
# Bulk Modulus (GPa) = 36.34193 45.08825 40.71509
# Shear Modulus (GPa) = 30.73728 38.72499 34.73114
#
# Velocity S-wave (km/s) = 3.59276 4.03265 3.81905
# Velocity P-wave (km/s) = 5.69843 6.37319 6.04523
#
# Compressibility (1/GPa) = 0.02751642
#
# Stress axis : x y z
#
# Youngs Moduli (GPa) = 70.80904 79.47743 46.89602
#
# Poissons Ratio (x) = 0.15039 0.35188
# Poissons Ratio (y) = 0.13399 0.04035
# Poissons Ratio (z) = 0.53130 0.06839
#
# Static dielectric constant tensor:
#      x y z
#    x 1.902640 -0.005920 0.000180 
#    y -0.005920 1.930200 -0.000090 
#    z 0.000180 -0.000090 1.874270 
# 
# From -- ./inp_files/37853.got.cif
#   From: 2010.05.17/outbox.cif.g08.bks.cpg/sg2_19_cif.got.tgz:37853.got - 2010.06.03 11:33:40.
