data_PCOD9064039
_publ_section_title
;
Structure prediction by ZEFSAII (Michael W. Deem and Ramdas Pophale) SiO2 
 PCOD9064039
Probable space group: P -1
;
_chemical_formula_sum "Si O2"
_cell_formula_units_Z 16
_cell_length_a 8.629313
_cell_length_b 11.106886
_cell_length_c 8.785919
_cell_angle_alpha 89.572313
_cell_angle_beta 85.652900
_cell_angle_gamma 48.778055
_cell_volume 630.548268
_symmetry_space_group_name_H-M "P -1"
_symmetry_group_IT_number 2
_symmetry_cell_setting 'triclinic'
loop_
_space_group_symop_operation_xyz
x,y,z
-x,-y,-z
loop_
_atom_site_type_symbol
_atom_site_label
_atom_site_fract_x
_atom_site_fract_y
_atom_site_fract_z
Si Si1 0.613463 0.600028 0.276851
Si Si2 0.578860 0.796575 0.790117
Si Si3 0.505812 0.426751 0.164041
Si Si4 0.035629 0.855107 0.924042
Si Si5 0.164278 0.062424 0.644180
Si Si6 0.038840 0.349511 0.062842
Si Si7 0.781121 0.075998 0.693226
Si Si8 0.188688 0.316283 0.524748
O O1 0.496538 0.531739 0.295395
O O2 0.841613 0.451618 0.195685
O O3 0.429994 0.771898 0.209533
O O4 0.658165 0.666923 0.408624
O O5 0.620455 0.630442 0.805782
O O6 0.704596 0.779117 0.636095
O O7 0.716440 0.778905 0.916457
O O8 0.342691 0.948419 0.760331
O O9 0.736275 0.259222 0.155051
O O10 0.500000 0.500000 0.000000
O O11 0.008958 0.747915 0.025169
O O12 0.882027 0.923361 0.793050
O O13 0.000000 0.000000 0.000000
O O14 0.140523 0.218730 0.620834
O O15 0.948221 0.100798 0.683899
O O16 0.237559 0.965029 0.476833
O O17 0.000000 0.500000 0.000000
O O18 0.000000 0.500000 0.500000
#
# Coordination Sequence:
#
# PCOD9064039 Si02
#       8
#     2   2   2   2   2   2   2   2
#     4  11  25  42  71  99 137 183 236 287 352 424
#     4  12  23  46  73 102 143 186 226 299 362 418
#     4  11  25  47  70  99 139 184 243 291 348 423
#     4  11  24  45  71 100 138 187 241 293 356 421
#     4  11  26  44  69 104 146 183 233 293 360 429
#     4  11  26  47  72 103 144 189 242 297 360 427
#     4  11  24  45  70 101 138 187 238 289 354 430
#     4  12  26  43  68 108 141 183 229 289 365 433
#
# _framework density 25.374742000000001
#
# number of rings (size 3 to 8) (size 9 to 14) (size 15 to 20)
#    0.000    0.750    3.750    3.375    5.250    1.500 
#    0.000    1.250    0.000    0.000    0.000    0.000 
#    0.000    0.000    0.000    0.000    0.000    0.000 
#
# Total GULP energy -89190.747367 kJ/mol
# GULP energy per Si atom -5574.421710 kJ/mol
# Density = 2.531699 g / cm^3
# Si number density = 25.374742 Si / 1000 Ang^3
#
#
#
# Elastic Constant Matrix: (Units=GPa)
#
#
# Indices 1 2 3 4 5 6 
#
# 1 122.6199 45.2044 23.0330 -12.6770 14.6106 27.2609
# 2 45.2044 138.7446 14.6021 -16.1197 9.0448 -7.6431
# 3 23.0330 14.6021 36.7225 -3.1356 2.3238 7.3252
# 4 -12.6770 -16.1197 -3.1356 34.9708 6.9011 -0.0174
# 5 14.6106 9.0448 2.3238 6.9011 37.8529 -5.1012
# 6 27.2609 -7.6431 7.3252 -0.0174 -5.1012 69.0842
#
#
#
# Elastic Compliance Matrix: (Units=1/GPa)
#
#
# Indices 1 2 3 4 5 6 
#
# 1 0.012277 -0.003015 -0.004868 0.003620 -0.005058 -0.005035
# 2 -0.003015 0.008935 -0.001784 0.003087 -0.001117 0.002286
# 3 -0.004868 -0.001784 0.031319 0.000194 0.000133 -0.001587
# 4 0.003620 0.003087 0.000194 0.033004 -0.008396 -0.001719
# 5 -0.005058 -0.001117 0.000133 -0.008396 0.030715 0.004124
# 6 -0.005035 0.002286 -0.001587 -0.001719 0.004124 0.017187
#
#
# Mechanical properties :
#
#
# Convention : Reuss Voigt Hill
#
# Bulk Modulus (GPa) = 30.12266 51.52956 40.82611
# Shear Modulus (GPa) = 30.51823 42.73143 36.62483
#
# Velocity S-wave (km/s) = 3.47176 4.10813 3.80328
# Velocity P-wave (km/s) = 5.28845 6.54628 5.95069
#
# Compressibility (1/GPa) = 0.03319760
#
# Stress axis : x y z
#
# Youngs Moduli (GPa) = 81.45021 111.92184 31.92982
#
# Poissons Ratio (x) = 0.33742 0.15545
# Poissons Ratio (y) = 0.24555 0.05695
# Poissons Ratio (z) = 0.39653 0.19962
#
# Static dielectric constant tensor:
#      x y z
#    x 2.066560 -0.020080 0.060930 
#    y -0.020080 2.068230 -0.082040 
#    z 0.060930 -0.082040 2.109620 
# 
# From -- ./inp_files/187597.got.cif
#   From: 2010.05.17/outbox.cif.g08.bks.cpg/sg2_94_cif.got.tgz:187597.got - 2010.06.03 11:33:40.
