data_PCOD9064306
_publ_section_title
;
Structure prediction by ZEFSAII (Michael W. Deem and Ramdas Pophale) SiO2 
 PCOD9064306
Probable space group: P -1
;
_chemical_formula_sum "Si O2"
_cell_formula_units_Z 12
_cell_length_a 8.011432
_cell_length_b 8.148077
_cell_length_c 11.311912
_cell_angle_alpha 68.901530
_cell_angle_beta 39.919108
_cell_angle_gamma 68.155639
_cell_volume 436.359482
_symmetry_space_group_name_H-M "P -1"
_symmetry_group_IT_number 2
_symmetry_cell_setting 'triclinic'
loop_
_space_group_symop_operation_xyz
x,y,z
-x,-y,-z
loop_
_atom_site_type_symbol
_atom_site_label
_atom_site_fract_x
_atom_site_fract_y
_atom_site_fract_z
Si Si1 0.902886 0.823142 0.793107
Si Si2 0.755787 0.425766 0.516057
Si Si3 0.772426 0.700382 0.254501
Si Si4 0.336916 0.654876 0.968389
Si Si5 0.340291 0.912952 0.708832
Si Si6 0.321642 0.791395 0.182174
O O1 0.033209 0.696716 0.650367
O O2 0.117437 0.838533 0.772961
O O3 0.805576 0.021241 0.742314
O O4 0.637858 0.774325 0.008328
O O5 0.754235 0.623629 0.418058
O O6 0.470673 0.369923 0.656590
O O7 0.782590 0.368245 0.652009
O O8 0.744633 0.912517 0.208311
O O9 0.062425 0.612597 0.077325
O O10 0.467465 0.754935 0.768727
O O11 0.500000 0.500000 0.000000
O O12 0.243375 0.796878 0.086138
O O13 0.500000 0.000000 0.500000
#
# Coordination Sequence:
#
# PCOD9064306 Si02
#       6
#     2   2   2   2   2   2
#     4  11  24  45  73 108 141 197 242 296 361 437
#     4  11  25  46  73 106 147 192 245 295 361 434
#     4  11  25  47  72 104 143 193 243 293 359 431
#     4  12  28  47  74 110 147 189 242 304 365 428
#     4  12  26  47  78 102 143 194 245 294 362 433
#     4  11  26  43  74 107 152 186 238 307 366 422
#
# _framework density 27.500260999999998
#
# number of rings (size 3 to 8) (size 9 to 14) (size 15 to 20)
#    0.000    0.667    3.333    3.000    7.000    3.333 
#    0.000    4.167    0.000    0.000    0.000    0.000 
#    0.000    0.000    0.000    0.000    0.000    0.000 
#
# Total GULP energy -67219.033035 kJ/mol
# GULP energy per Si atom -5601.586086 kJ/mol
# Density = 2.743767 g / cm^3
# Si number density = 27.500261 Si / 1000 Ang^3
#
#
#
# Elastic Constant Matrix: (Units=GPa)
#
#
# Indices 1 2 3 4 5 6 
#
# 1 100.0199 9.0679 46.1907 -7.6467 -8.3040 -14.3119
# 2 9.0679 151.1041 58.9899 -10.7325 13.5819 -29.3421
# 3 46.1907 58.9899 162.9050 -43.0535 21.5802 -28.4408
# 4 -7.6467 -10.7325 -43.0535 50.5297 -10.5134 7.5710
# 5 -8.3040 13.5819 21.5802 -10.5134 52.0734 -7.0453
# 6 -14.3119 -29.3421 -28.4408 7.5710 -7.0453 39.0170
#
#
#
# Elastic Compliance Matrix: (Units=1/GPa)
#
#
# Indices 1 2 3 4 5 6 
#
# 1 0.012500 0.001097 -0.004159 -0.001150 0.003639 0.003259
# 2 0.001097 0.008567 -0.002818 -0.001256 -0.000476 0.004949
# 3 -0.004159 -0.002818 0.011051 0.007249 -0.002704 0.002516
# 4 -0.001150 -0.001256 0.007249 0.026117 0.002314 -0.000732
# 5 0.003639 -0.000476 -0.002704 0.002314 0.021834 0.002500
# 6 0.003259 0.004949 0.002516 -0.000732 0.002500 0.032974
#
#
# Mechanical properties :
#
#
# Convention : Reuss Voigt Hill
#
# Bulk Modulus (GPa) = 49.11819 71.39180 60.25500
# Shear Modulus (GPa) = 37.99722 48.30939 43.15331
#
# Velocity S-wave (km/s) = 3.72116 4.19583 3.96561
# Velocity P-wave (km/s) = 6.03013 7.03492 6.55182
#
# Compressibility (1/GPa) = 0.02035906
#
# Stress axis : x y z
#
# Youngs Moduli (GPa) = 80.00255 116.72938 90.48580
#
# Poissons Ratio (x) = -0.12811 0.37629
# Poissons Ratio (y) = -0.08780 0.25502
# Poissons Ratio (z) = 0.33269 0.32899
#
# Static dielectric constant tensor:
#      x y z
#    x 2.198760 0.019480 -0.025560 
#    y 0.019480 2.286760 0.021020 
#    z -0.025560 0.021020 2.163010 
# 
# From -- ./inp_files/173643.got.cif
#   From: 2010.05.17/outbox.cif.g08.bks.cpg/sg2_87_cif.got.tgz:173643.got - 2010.06.03 11:33:40.
