data_PCOD9064368
_publ_section_title
;
Structure prediction by ZEFSAII (Michael W. Deem and Ramdas Pophale) SiO2 
 PCOD9064368
Probable space group: P -1
;
_chemical_formula_sum "Si O2"
_cell_formula_units_Z 11
_cell_length_a 6.463772
_cell_length_b 8.109161
_cell_length_c 8.795328
_cell_angle_alpha 72.254747
_cell_angle_beta 87.225975
_cell_angle_gamma 109.849693
_cell_volume 407.012720
_symmetry_space_group_name_H-M "P -1"
_symmetry_group_IT_number 2
_symmetry_cell_setting 'triclinic'
loop_
_space_group_symop_operation_xyz
x,y,z
-x,-y,-z
loop_
_atom_site_type_symbol
_atom_site_label
_atom_site_fract_x
_atom_site_fract_y
_atom_site_fract_z
Si Si1 0.496242 0.146632 0.829718
Si Si2 0.000000 0.500000 0.000000
Si Si3 0.659506 0.524886 0.243820
Si Si4 0.832494 0.605292 0.743711
Si Si5 0.029957 0.937357 0.844760
Si Si6 0.062386 0.750935 0.390277
O O1 0.395301 0.294937 0.856256
O O2 0.700199 0.244665 0.678165
O O3 0.288047 0.014543 0.773238
O O4 0.500000 0.000000 0.000000
O O5 0.161503 0.583217 0.127337
O O6 0.774260 0.444358 0.137383
O O7 0.399823 0.389714 0.307784
O O8 0.838158 0.611528 0.349501
O O9 0.931446 0.717589 0.870182
O O10 0.008391 0.696814 0.581129
O O11 0.918536 0.040932 0.709246
O O12 0.000000 0.000000 0.000000
#
# Coordination Sequence:
#
# PCOD9064368 Si02
#       6
#     2   1   2   2   2   2
#     4  11  24  45  78 104 147 201 247 300 375 444
#     4  12  28  44  70 108 152 192 244 302 372 444
#     4  11  27  48  74 109 149 200 245 310 378 447
#     4  12  27  46  74 115 150 192 256 308 375 448
#     4  11  24  45  74 105 149 202 250 302 369 443
#     4  11  25  47  76 108 151 198 247 312 373 440
#
# _framework density 27.026181999999999
#
# number of rings (size 3 to 8) (size 9 to 14) (size 15 to 20)
#    0.000    0.727    1.818    4.909    2.545    9.455 
#    0.000    0.000    0.000    0.000    0.000    0.000 
#    0.000    0.000    0.000    0.000    0.000    0.000 
#
# Total GULP energy -61264.058684 kJ/mol
# GULP energy per Si atom -5569.459880 kJ/mol
# Density = 2.696467 g / cm^3
# Si number density = 27.026182 Si / 1000 Ang^3
#
#
#
# Elastic Constant Matrix: (Units=GPa)
#
#
# Indices 1 2 3 4 5 6 
#
# 1 164.5220 20.6594 53.9612 6.7134 -40.0719 11.5740
# 2 20.6594 92.1835 30.0425 0.7579 -13.5189 -8.8561
# 3 53.9612 30.0425 187.5094 -2.2674 -29.8413 0.6819
# 4 6.7134 0.7579 -2.2674 35.9264 -1.4175 9.7810
# 5 -40.0719 -13.5189 -29.8413 -1.4175 49.2071 -8.5377
# 6 11.5740 -8.8561 0.6819 9.7810 -8.5377 53.0081
#
#
#
# Elastic Compliance Matrix: (Units=1/GPa)
#
#
# Indices 1 2 3 4 5 6 
#
# 1 0.008010 -0.000629 -0.001363 -0.001151 0.005358 -0.000761
# 2 -0.000629 0.012063 -0.001389 -0.000870 0.002406 0.002719
# 3 -0.001363 -0.001389 0.006340 0.000714 0.002416 0.000241
# 4 -0.001151 -0.000870 0.000714 0.029576 -0.000845 -0.005497
# 5 0.005358 0.002406 0.002416 -0.000845 0.027443 0.003777
# 6 -0.000761 0.002719 0.000241 -0.005497 0.003777 0.021105
#
#
# Mechanical properties :
#
#
# Convention : Reuss Voigt Hill
#
# Bulk Modulus (GPa) = 50.88748 72.61568 61.75158
# Shear Modulus (GPa) = 42.42734 50.26511 46.34623
#
# Velocity S-wave (km/s) = 3.96645 4.31730 4.14558
# Velocity P-wave (km/s) = 6.31243 7.19577 6.76852
#
# Compressibility (1/GPa) = 0.01965120
#
# Stress axis : x y z
#
# Youngs Moduli (GPa) = 124.84804 82.89958 157.72804
#
# Poissons Ratio (x) = 0.05213 0.21493
# Poissons Ratio (y) = 0.07851 0.21912
# Poissons Ratio (z) = 0.17013 0.11516
#
# Static dielectric constant tensor:
#      x y z
#    x 2.501590 -0.144340 0.201220 
#    y -0.144340 3.020630 -0.183960 
#    z 0.201220 -0.183960 2.165340 
# 
# From -- ./inp_files/44192.got.cif
#   From: 2010.05.17/outbox.cif.g08.bks.cpg/sg2_23_cif.got.tgz:44192.got - 2010.06.03 11:33:40.
