data_PCOD9064918
_publ_section_title
;
Structure prediction by ZEFSAII (Michael W. Deem and Ramdas Pophale) SiO2 
 PCOD9064918
Probable space group: P -1
;
_chemical_formula_sum "Si O2"
_cell_formula_units_Z 14
_cell_length_a 8.581066
_cell_length_b 10.929748
_cell_length_c 16.079195
_cell_angle_alpha 125.705882
_cell_angle_beta 147.661498
_cell_angle_gamma 72.378533
_cell_volume 588.779648
_symmetry_space_group_name_H-M "P -1"
_symmetry_group_IT_number 2
_symmetry_cell_setting 'triclinic'
loop_
_space_group_symop_operation_xyz
x,y,z
-x,-y,-z
loop_
_atom_site_type_symbol
_atom_site_label
_atom_site_fract_x
_atom_site_fract_y
_atom_site_fract_z
Si Si1 0.766327 0.841083 0.389185
Si Si2 0.283240 0.090805 0.414926
Si Si3 0.774176 0.450426 0.740197
Si Si4 0.322083 0.025216 0.010503
Si Si5 0.619384 0.385290 0.280813
Si Si6 0.254115 0.735267 0.989351
Si Si7 0.477431 0.459575 0.077526
O O1 0.827636 0.878813 0.530223
O O2 0.741247 0.653309 0.289966
O O3 0.409397 0.806793 0.178294
O O4 0.000000 0.000000 0.500000
O O5 0.507583 0.262819 0.537530
O O6 0.007495 0.990390 0.185267
O O7 0.500000 0.000000 0.500000
O O8 0.601556 0.526163 0.754951
O O9 0.895107 0.585342 0.774148
O O10 0.112857 0.443948 0.914483
O O11 0.274332 0.882908 0.998872
O O12 0.500000 0.000000 0.000000
O O13 0.518652 0.209003 0.210073
O O14 0.530362 0.350646 0.130863
O O15 0.000000 0.500000 0.500000
O O16 0.460701 0.637020 0.010827
#
# Coordination Sequence:
#
# PCOD9064918 Si02
#       7
#     2   2   2   2   2   2   2
#     4  11  25  43  71 107 145 188 247 298 358 433
#     4  12  28  45  74 108 145 197 239 302 364 438
#     4  11  25  48  71 106 145 191 250 294 366 435
#     4  12  26  48  74 105 151 188 246 299 373 439
#     4  12  26  46  76 102 145 200 242 299 369 442
#     4  11  27  46  75 110 147 194 241 313 363 427
#     4  11  24  46  76 103 146 196 244 302 363 433
#
# _framework density 23.777995000000001
#
# number of rings (size 3 to 8) (size 9 to 14) (size 15 to 20)
#    0.000    0.571    2.857    4.714   12.000    1.143 
#    0.000    0.000    0.000    0.000    0.000    0.000 
#    0.000    0.000    0.000    0.000    0.000    0.000 
#
# Total GULP energy -78150.309577 kJ/mol
# GULP energy per Si atom -5582.164970 kJ/mol
# Density = 2.372388 g / cm^3
# Si number density = 23.777995 Si / 1000 Ang^3
#
#
#
# Elastic Constant Matrix: (Units=GPa)
#
#
# Indices 1 2 3 4 5 6 
#
# 1 54.5367 13.2544 32.4649 -5.3013 10.0589 -2.2869
# 2 13.2544 108.3587 53.1239 23.3184 4.5447 18.6754
# 3 32.4649 53.1239 119.8592 17.3781 22.9358 3.6534
# 4 -5.3013 23.3184 17.3781 49.5446 11.1686 12.7786
# 5 10.0589 4.5447 22.9358 11.1686 29.3506 9.1099
# 6 -2.2869 18.6754 3.6534 12.7786 9.1099 46.0033
#
#
#
# Elastic Compliance Matrix: (Units=1/GPa)
#
#
# Indices 1 2 3 4 5 6 
#
# 1 0.023880 -0.001647 -0.005430 0.006251 -0.006644 0.001866
# 2 -0.001647 0.014173 -0.006270 -0.004791 0.006751 -0.005344
# 3 -0.005430 -0.006270 0.014413 -0.001540 -0.008874 0.003316
# 4 0.006251 -0.004791 -0.001540 0.026564 -0.009326 -0.003154
# 5 -0.006644 0.006751 -0.008874 -0.009326 0.048710 -0.009422
# 6 0.001866 -0.005344 0.003316 -0.003154 -0.009422 0.026478
#
#
# Mechanical properties :
#
#
# Convention : Reuss Voigt Hill
#
# Bulk Modulus (GPa) = 38.80142 53.38234 46.09188
# Shear Modulus (GPa) = 26.38474 37.24047 31.81260
#
# Velocity S-wave (km/s) = 3.33472 3.96178 3.66170
# Velocity P-wave (km/s) = 5.58398 6.58989 6.10768
#
# Compressibility (1/GPa) = 0.02577225
#
# Stress axis : x y z
#
# Youngs Moduli (GPa) = 41.87539 70.55780 69.38060
#
# Poissons Ratio (x) = 0.11622 0.37674
# Poissons Ratio (y) = 0.06898 0.43501
# Poissons Ratio (z) = 0.22739 0.44239
#
# Static dielectric constant tensor:
#      x y z
#    x 1.966090 0.023770 0.014150 
#    y 0.023770 1.927740 0.011530 
#    z 0.014150 0.011530 1.942850 
# 
# From -- ./inp_files/559978.got.cif
#   From: 2010.05.17/outbox.cif.g08.bks.cpg/sg2_280_cif.got.tgz:559978.got - 2010.06.03 11:33:40.
