data_PCOD9064152
_publ_section_title
;
Structure prediction by ZEFSAII (Michael W. Deem and Ramdas Pophale) SiO2 
 PCOD9064152
Probable space group: P -1
;
_chemical_formula_sum "Si O2"
_cell_formula_units_Z 16
_cell_length_a 10.066692
_cell_length_b 5.613503
_cell_length_c 13.572295
_cell_angle_alpha 67.504988
_cell_angle_beta 99.074579
_cell_angle_gamma 72.543679
_cell_volume 642.853650
_symmetry_space_group_name_H-M "P -1"
_symmetry_group_IT_number 2
_symmetry_cell_setting 'triclinic'
loop_
_space_group_symop_operation_xyz
x,y,z
-x,-y,-z
loop_
_atom_site_type_symbol
_atom_site_label
_atom_site_fract_x
_atom_site_fract_y
_atom_site_fract_z
Si Si1 0.706840 0.602127 0.031161
Si Si2 0.660097 0.744467 0.554467
Si Si3 0.307779 0.772870 0.229365
Si Si4 0.497308 0.388122 0.158666
Si Si5 0.013887 0.902901 0.903739
Si Si6 0.965882 0.725448 0.555302
Si Si7 0.416822 0.159123 0.668204
Si Si8 0.174186 0.266341 0.787597
O O1 0.627102 0.432845 0.110316
O O2 0.747587 0.776345 0.090593
O O3 0.590944 0.725079 0.910781
O O4 0.864176 0.408349 0.037350
O O5 0.702065 0.500176 0.677864
O O6 0.795167 0.835215 0.545733
O O7 0.653794 0.630749 0.461747
O O8 0.500000 0.000000 0.500000
O O9 0.380665 0.671432 0.146747
O O10 0.150296 0.022607 0.164051
O O11 0.426408 0.837997 0.294723
O O12 0.558414 0.167880 0.289182
O O13 0.083431 0.071236 0.814888
O O14 0.000000 0.000000 0.000000
O O15 0.000000 0.500000 0.500000
O O16 0.056051 0.560810 0.687756
O O17 0.000000 0.000000 0.500000
O O18 0.306400 0.225741 0.735329
#
# Coordination Sequence:
#
# PCOD9064152 Si02
#       8
#     2   2   2   2   2   2   2   2
#     4  11  26  44  75 103 147 192 250 311 378 466
#     4  12  27  47  74 113 149 193 256 325 394 455
#     4  12  26  47  70 109 148 191 247 314 387 451
#     4  11  24  45  71 108 139 194 254 300 375 470
#     4  12  27  47  71 108 152 190 251 323 387 453
#     4  12  30  51  82 115 158 209 269 322 390 478
#     4  12  26  45  78 102 148 196 255 308 387 467
#     4  12  27  47  77 108 148 204 252 314 391 465
#
# _framework density 24.889023000000002
#
# number of rings (size 3 to 8) (size 9 to 14) (size 15 to 20)
#    0.000    0.250    7.500    0.375    7.000    4.000 
#    0.000    0.000    0.000    0.000    0.000    0.000 
#    0.000    0.000    0.000    0.000    0.000    0.000 
#
# Total GULP energy -89433.262149 kJ/mol
# GULP energy per Si atom -5589.578884 kJ/mol
# Density = 2.483237 g / cm^3
# Si number density = 24.889023 Si / 1000 Ang^3
#
#
#
# Elastic Constant Matrix: (Units=GPa)
#
#
# Indices 1 2 3 4 5 6 
#
# 1 193.8096 28.8635 27.9795 -20.7241 14.1646 -15.6902
# 2 28.8635 47.9733 12.3506 -12.5372 -9.5629 -8.9988
# 3 27.9795 12.3506 105.4325 -14.4191 0.9144 -5.2770
# 4 -20.7241 -12.5372 -14.4191 28.3458 -5.5633 -1.5579
# 5 14.1646 -9.5629 0.9144 -5.5633 43.6927 2.3852
# 6 -15.6902 -8.9988 -5.2770 -1.5579 2.3852 43.1909
#
#
#
# Elastic Compliance Matrix: (Units=1/GPa)
#
#
# Indices 1 2 3 4 5 6 
#
# 1 0.006336 -0.003125 -0.000875 0.002409 -0.002510 0.001769
# 2 -0.003125 0.028620 -0.000729 0.011940 0.008556 0.004697
# 3 -0.000875 -0.000729 0.010461 0.004494 0.000426 0.000947
# 4 0.002409 0.011940 0.004494 0.046335 0.007355 0.005177
# 5 -0.002510 0.008556 0.000426 0.007355 0.026516 -0.000276
# 6 0.001769 0.004697 0.000947 0.005177 -0.000276 0.025092
#
#
# Mechanical properties :
#
#
# Convention : Reuss Voigt Hill
#
# Bulk Modulus (GPa) = 27.81162 53.95582 40.88372
# Shear Modulus (GPa) = 30.33874 41.58066 35.95970
#
# Velocity S-wave (km/s) = 3.49515 4.09178 3.80518
# Velocity P-wave (km/s) = 5.24277 6.63696 5.98063
#
# Compressibility (1/GPa) = 0.03595619
#
# Stress axis : x y z
#
# Youngs Moduli (GPa) = 157.83382 34.94049 95.59455
#
# Poissons Ratio (x) = 0.10920 0.08369
# Poissons Ratio (y) = 0.49329 0.06973
# Poissons Ratio (z) = 0.13818 0.02549
#
# Static dielectric constant tensor:
#      x y z
#    x 1.997990 0.003230 -0.013320 
#    y 0.003230 2.116150 0.082550 
#    z -0.013320 0.082550 2.012670 
# 
# From -- ./inp_files/480778.got.cif
#   From: 2010.05.17/outbox.cif.g08.bks.cpg/sg2_241_cif.got.tgz:480778.got - 2010.06.03 11:33:40.
