data_PCOD9064229
_publ_section_title
;
Structure prediction by ZEFSAII (Michael W. Deem and Ramdas Pophale) SiO2 
 PCOD9064229
Probable space group: P -1
;
_chemical_formula_sum "Si O2"
_cell_formula_units_Z 12
_cell_length_a 13.740267
_cell_length_b 6.567010
_cell_length_c 9.448174
_cell_angle_alpha 47.573647
_cell_angle_beta 119.200668
_cell_angle_gamma 117.192763
_cell_volume 538.397852
_symmetry_space_group_name_H-M "P -1"
_symmetry_group_IT_number 2
_symmetry_cell_setting 'triclinic'
loop_
_space_group_symop_operation_xyz
x,y,z
-x,-y,-z
loop_
_atom_site_type_symbol
_atom_site_label
_atom_site_fract_x
_atom_site_fract_y
_atom_site_fract_z
Si Si1 0.187364 0.926024 0.284633
Si Si2 0.380881 0.451282 0.249580
Si Si3 0.289858 0.917856 0.850819
Si Si4 0.890683 0.977679 0.531655
Si Si5 0.624900 0.442609 0.464374
Si Si6 0.884223 0.361950 0.902147
O O1 0.098150 0.890962 0.366512
O O2 0.282078 0.730538 0.440477
O O3 0.116196 0.853467 0.125336
O O4 0.268640 0.231351 0.222127
O O5 0.495249 0.328917 0.376199
O O6 0.378793 0.538335 0.374244
O O7 0.381847 0.722803 0.024163
O O8 0.206086 0.882713 0.673614
O O9 0.343562 0.245411 0.726391
O O10 0.205278 0.809646 0.971436
O O11 0.852233 0.641872 0.679997
O O12 0.000000 0.000000 0.500000
O O13 0.000000 0.500000 0.000000
#
# Coordination Sequence:
#
# PCOD9064229 Si02
#       6
#     2   2   2   2   2   2
#     4  12  23  48  72 104 144 186 233 296 350 418
#     4  11  24  45  72 106 146 186 234 292 350 417
#     4  12  21  48  70  98 150 186 223 296 356 402
#     4  12  26  47  69 103 145 184 238 295 352 414
#     4  11  24  45  72 106 146 186 234 292 350 417
#     4  12  26  47  69 103 145 184 238 295 352 414
#
# _framework density 22.288350000000001
#
# number of rings (size 3 to 8) (size 9 to 14) (size 15 to 20)
#    0.000    0.333    8.333    1.000    0.000    2.667 
#    0.000    1.667    0.000    0.000    0.000    0.000 
#    0.000    0.000    0.000    0.000    0.000    0.000 
#
# Total GULP energy -66935.331129 kJ/mol
# GULP energy per Si atom -5577.944261 kJ/mol
# Density = 2.223762 g / cm^3
# Si number density = 22.288350 Si / 1000 Ang^3
#
#
#
# Elastic Constant Matrix: (Units=GPa)
#
#
# Indices 1 2 3 4 5 6 
#
# 1 61.0391 13.1424 2.3885 16.8411 13.9535 -4.6639
# 2 13.1424 94.9382 32.7588 18.0271 -2.9434 -5.4538
# 3 2.3885 32.7588 118.0168 -6.2159 2.3911 -2.6167
# 4 16.8411 18.0271 -6.2159 44.8212 -2.1350 3.8331
# 5 13.9535 -2.9434 2.3911 -2.1350 34.2803 2.3325
# 6 -4.6639 -5.4538 -2.6167 3.8331 2.3325 36.1938
#
#
#
# Elastic Compliance Matrix: (Units=1/GPa)
#
#
# Indices 1 2 3 4 5 6 
#
# 1 0.021514 -0.001386 -0.000205 -0.008362 -0.009659 0.004057
# 2 -0.001386 0.013283 -0.003933 -0.005468 0.001501 0.002021
# 3 -0.000205 -0.003933 0.009737 0.002990 -0.000734 -0.000184
# 4 -0.008362 -0.005468 0.002990 0.028729 0.004858 -0.005041
# 5 -0.009659 0.001501 -0.000734 0.004858 0.033842 -0.003767
# 6 0.004057 0.002021 -0.000184 -0.005041 -0.003767 0.029220
#
#
# Mechanical properties :
#
#
# Convention : Reuss Voigt Hill
#
# Bulk Modulus (GPa) = 29.86263 41.17484 35.51874
# Shear Modulus (GPa) = 31.53857 38.10601 34.82229
#
# Velocity S-wave (km/s) = 3.76576 4.13932 3.95695
# Velocity P-wave (km/s) = 5.68642 6.43110 6.07019
#
# Compressibility (1/GPa) = 0.03348666
#
# Stress axis : x y z
#
# Youngs Moduli (GPa) = 46.48032 75.28425 102.69666
#
# Poissons Ratio (x) = 0.10434 0.02110
# Poissons Ratio (y) = 0.06442 0.40387
# Poissons Ratio (z) = 0.00955 0.29606
#
# Static dielectric constant tensor:
#      x y z
#    x 1.900420 0.027120 0.051210 
#    y 0.027120 1.850210 0.043650 
#    z 0.051210 0.043650 1.877210 
# 
# From -- ./inp_files/40397.got.cif
#   From: 2010.05.17/outbox.cif.g08.bks.cpg/sg2_21_cif.got.tgz:40397.got - 2010.06.03 11:33:40.
