data_PCOD9064819
_publ_section_title
;
Structure prediction by ZEFSAII (Michael W. Deem and Ramdas Pophale) SiO2 
 PCOD9064819
Probable space group: P -1
;
_chemical_formula_sum "Si O2"
_cell_formula_units_Z 16
_cell_length_a 9.987888
_cell_length_b 11.505859
_cell_length_c 9.295821
_cell_angle_alpha 55.681056
_cell_angle_beta 122.580864
_cell_angle_gamma 103.977610
_cell_volume 740.489303
_symmetry_space_group_name_H-M "P -1"
_symmetry_group_IT_number 2
_symmetry_cell_setting 'triclinic'
loop_
_space_group_symop_operation_xyz
x,y,z
-x,-y,-z
loop_
_atom_site_type_symbol
_atom_site_label
_atom_site_fract_x
_atom_site_fract_y
_atom_site_fract_z
Si Si1 0.268772 0.909301 0.372412
Si Si2 0.992391 0.503254 0.320558
Si Si3 0.011205 0.036588 0.646807
Si Si4 0.250772 0.250465 0.576533
Si Si5 0.435934 0.629019 0.266535
Si Si6 0.341646 0.496693 0.005520
Si Si7 0.880035 0.206912 0.905459
Si Si8 0.627747 0.804432 0.638773
O O1 0.161860 0.890808 0.184014
O O2 0.434881 0.815532 0.514267
O O3 0.152362 0.877146 0.457711
O O4 0.320508 0.063557 0.333329
O O5 0.000000 0.500000 0.500000
O O6 0.131140 0.393206 0.411586
O O7 0.023416 0.661784 0.177942
O O8 0.822171 0.457081 0.202893
O O9 0.158665 0.130720 0.683081
O O10 0.000000 0.000000 0.500000
O O11 0.037084 0.894005 0.854625
O O12 0.412439 0.281997 0.727255
O O13 0.300096 0.203962 0.474641
O O14 0.500000 0.500000 0.500000
O O15 0.373507 0.575964 0.116508
O O16 0.289407 0.721815 0.187339
O O17 0.320050 0.337632 0.150362
O O18 0.500000 0.500000 0.000000
#
# Coordination Sequence:
#
# PCOD9064819 Si02
#       8
#     2   2   2   2   2   2   2   2
#     4  11  24  46  74 102 148 198 248 302 375 446
#     4  12  28  47  79 112 151 198 256 319 377 455
#     4  12  28  45  73 111 151 195 254 312 373 453
#     4  12  25  48  77 110 154 192 251 311 378 446
#     4  12  24  48  77 109 150 198 249 318 378 452
#     4  12  28  44  74 111 148 194 256 305 386 445
#     4  12  26  47  79 104 152 200 250 307 390 437
#     4  11  24  46  74 102 148 199 244 306 372 453
#
# _framework density 21.607334000000002
#
# number of rings (size 3 to 8) (size 9 to 14) (size 15 to 20)
#    0.000    0.250    5.000    2.625    5.250    3.500 
#    0.000    0.000    0.000    0.000    0.000    0.000 
#    0.000    0.000    0.000    0.000    0.000    0.000 
#
# Total GULP energy -89555.246899 kJ/mol
# GULP energy per Si atom -5597.202931 kJ/mol
# Density = 2.155815 g / cm^3
# Si number density = 21.607334 Si / 1000 Ang^3
#
#
#
# Elastic Constant Matrix: (Units=GPa)
#
#
# Indices 1 2 3 4 5 6 
#
# 1 158.3163 47.9684 46.7001 10.9645 11.0808 3.1324
# 2 47.9684 116.4837 61.5593 20.0072 -0.3786 0.6902
# 3 46.7001 61.5593 104.9505 16.1756 -1.8003 2.9729
# 4 10.9645 20.0072 16.1756 46.4698 7.6450 -6.4836
# 5 11.0808 -0.3786 -1.8003 7.6450 37.1372 4.3511
# 6 3.1324 0.6902 2.9729 -6.4836 4.3511 54.1312
#
#
#
# Elastic Compliance Matrix: (Units=1/GPa)
#
#
# Indices 1 2 3 4 5 6 
#
# 1 0.007781 -0.002005 -0.002367 0.000254 -0.002502 -0.000063
# 2 -0.002005 0.013369 -0.006424 -0.003256 0.001115 -0.000181
# 3 -0.002367 -0.006424 0.014762 -0.002277 0.001945 -0.001021
# 4 0.000254 -0.003256 -0.002277 0.025116 -0.005815 0.003628
# 5 -0.002502 0.001115 0.001945 -0.005815 0.029331 -0.003030
# 6 -0.000063 -0.000181 -0.001021 0.003628 -0.003030 0.019214
#
#
# Mechanical properties :
#
#
# Convention : Reuss Voigt Hill
#
# Bulk Modulus (GPa) = 69.82118 76.91179 73.36648
# Shear Modulus (GPa) = 36.78155 42.44916 39.61535
#
# Velocity S-wave (km/s) = 4.13034 4.43716 4.28649
# Velocity P-wave (km/s) = 7.42496 7.86916 7.65028
#
# Compressibility (1/GPa) = 0.01432230
#
# Stress axis : x y z
#
# Youngs Moduli (GPa) = 128.52228 74.79928 67.73988
#
# Poissons Ratio (x) = 0.14996 0.16031
# Poissons Ratio (y) = 0.25767 0.43513
# Poissons Ratio (z) = 0.30415 0.48048
#
# Static dielectric constant tensor:
#      x y z
#    x 1.784190 0.008570 0.014880 
#    y 0.008570 1.836190 0.026500 
#    z 0.014880 0.026500 1.806570 
# 
# From -- ./inp_files/185360.got.cif
#   From: 2010.05.17/outbox.cif.g08.bks.cpg/sg2_93_cif.got.tgz:185360.got - 2010.06.03 11:33:40.
