data_PCOD9064914
_publ_section_title
;
Structure prediction by ZEFSAII (Michael W. Deem and Ramdas Pophale) SiO2 
 PCOD9064914
Probable space group: P -1
;
_chemical_formula_sum "Si O2"
_cell_formula_units_Z 12
_cell_length_a 13.582729
_cell_length_b 18.673142
_cell_length_c 16.340260
_cell_angle_alpha 23.691256
_cell_angle_beta 163.697604
_cell_angle_gamma 151.964152
_cell_volume 467.191717
_symmetry_space_group_name_H-M "P -1"
_symmetry_group_IT_number 2
_symmetry_cell_setting 'triclinic'
loop_
_space_group_symop_operation_xyz
x,y,z
-x,-y,-z
loop_
_atom_site_type_symbol
_atom_site_label
_atom_site_fract_x
_atom_site_fract_y
_atom_site_fract_z
Si Si1 0.616413 0.853352 0.878807
Si Si2 0.166836 0.361636 0.876844
Si Si3 0.344381 0.086637 0.642279
Si Si4 0.437077 0.242709 0.377375
Si Si5 0.595047 0.545140 0.620289
Si Si6 0.162303 0.232013 0.681614
O O1 0.721834 0.787912 0.942386
O O2 0.219591 0.775491 0.655414
O O3 0.591795 0.065070 0.646096
O O4 0.853257 0.790388 0.209042
O O5 0.158464 0.301365 0.027376
O O6 0.500000 0.500000 0.000000
O O7 0.762365 0.386482 0.500097
O O8 0.287515 0.180324 0.410590
O O9 0.463286 0.248789 0.625032
O O10 0.000000 0.000000 0.500000
O O11 0.620232 0.933399 0.005971
O O12 0.500000 0.500000 0.500000
O O13 0.369114 0.413022 0.635727
O O14 0.000000 0.500000 0.000000
#
# Coordination Sequence:
#
# PCOD9064914 Si02
#       6
#     2   2   2   2   2   2
#     4  11  24  46  75  98 147 183 238 290 355 429
#     4  12  26  44  72 107 144 182 235 297 354 423
#     4  11  26  49  75 105 148 189 241 297 354 430
#     4  11  25  46  70 105 137 193 235 286 360 423
#     4  12  27  45  72 103 145 190 241 296 358 416
#     4  11  25  46  72 110 139 194 237 292 360 425
#
# _framework density 25.685388
#
# number of rings (size 3 to 8) (size 9 to 14) (size 15 to 20)
#    0.000    0.667    1.667    5.500    7.000    4.667 
#    0.000    0.000    0.000    0.000    0.000    0.000 
#    0.000    0.000    0.000    0.000    0.000    0.000 
#
# Total GULP energy -67324.320116 kJ/mol
# GULP energy per Si atom -5610.360010 kJ/mol
# Density = 2.562693 g / cm^3
# Si number density = 25.685388 Si / 1000 Ang^3
#
#
#
# Elastic Constant Matrix: (Units=GPa)
#
#
# Indices 1 2 3 4 5 6 
#
# 1 161.7455 49.1768 39.8062 3.2213 -4.6006 -25.6751
# 2 49.1768 176.2271 32.5484 15.6045 14.1669 -14.9587
# 3 39.8062 32.5484 85.2437 23.6339 -3.4587 -10.7320
# 4 3.2213 15.6045 23.6339 39.9432 -3.1346 8.3973
# 5 -4.6006 14.1669 -3.4587 -3.1346 45.5138 4.5398
# 6 -25.6751 -14.9587 -10.7320 8.3973 4.5398 55.1612
#
#
#
# Elastic Compliance Matrix: (Units=1/GPa)
#
#
# Indices 1 2 3 4 5 6 
#
# 1 0.007796 -0.001609 -0.003093 0.001419 0.000922 0.002299
# 2 -0.001609 0.006891 -0.001131 -0.002419 -0.002709 0.001491
# 3 -0.003093 -0.001131 0.016710 -0.009793 0.000339 0.002968
# 4 0.001419 -0.002419 -0.009793 0.033434 0.003178 -0.007252
# 5 0.000922 -0.002709 0.000339 0.003178 0.023417 -0.002650
# 6 0.002299 0.001491 0.002968 -0.007252 -0.002650 0.021502
#
#
# Mechanical properties :
#
#
# Convention : Reuss Voigt Hill
#
# Bulk Modulus (GPa) = 50.68304 74.03101 62.35702
# Shear Modulus (GPa) = 39.06487 48.23597 43.65042
#
# Velocity S-wave (km/s) = 3.90410 4.33824 4.12688
# Velocity P-wave (km/s) = 6.33228 7.34701 6.85844
#
# Compressibility (1/GPa) = 0.01973047
#
# Stress axis : x y z
#
# Youngs Moduli (GPa) = 128.27650 145.11841 59.84577
#
# Poissons Ratio (x) = 0.23348 0.18508
# Poissons Ratio (y) = 0.20638 0.06771
# Poissons Ratio (z) = 0.39670 0.16419
#
# Static dielectric constant tensor:
#      x y z
#    x 1.985440 0.039850 0.012720 
#    y 0.039850 2.021160 -0.004490 
#    z 0.012720 -0.004490 2.032680 
# 
# From -- ./inp_files/129669.got.cif
#   From: 2010.05.17/outbox.cif.g08.bks.cpg/sg2_65_cif.got.tgz:129669.got - 2010.06.03 11:33:40.
