data_PCOD9064941
_publ_section_title
;
Structure prediction by ZEFSAII (Michael W. Deem and Ramdas Pophale) SiO2 
 PCOD9064941
Probable space group: P -1
;
_chemical_formula_sum "Si O2"
_cell_formula_units_Z 16
_cell_length_a 9.974233
_cell_length_b 8.670921
_cell_length_c 11.595242
_cell_angle_alpha 126.815333
_cell_angle_beta 72.531476
_cell_angle_gamma 123.532082
_cell_volume 668.506643
_symmetry_space_group_name_H-M "P -1"
_symmetry_group_IT_number 2
_symmetry_cell_setting 'triclinic'
loop_
_space_group_symop_operation_xyz
x,y,z
-x,-y,-z
loop_
_atom_site_type_symbol
_atom_site_label
_atom_site_fract_x
_atom_site_fract_y
_atom_site_fract_z
Si Si1 0.401858 0.708636 0.315803
Si Si2 0.684444 0.030008 0.214973
Si Si3 0.285239 0.203897 0.125973
Si Si4 0.392878 0.679109 0.790229
Si Si5 0.038274 0.954232 0.715730
Si Si6 0.127819 0.833280 0.399249
Si Si7 0.103711 0.425337 0.865225
Si Si8 0.404985 0.296683 0.521546
O O1 0.347897 0.456612 0.188702
O O2 0.246274 0.741546 0.369616
O O3 0.482965 0.750299 0.441116
O O4 0.537250 0.858589 0.255162
O O5 0.639323 0.210186 0.260797
O O6 0.846537 0.123326 0.287718
O O7 0.722833 0.927871 0.046036
O O8 0.424154 0.200812 0.166446
O O9 0.128727 0.135650 0.213720
O O10 0.271792 0.652028 0.910429
O O11 0.334270 0.420193 0.673539
O O12 0.114205 0.219231 0.824349
O O13 0.041817 0.885076 0.551224
O O14 0.997046 0.669587 0.270065
O O15 0.258895 0.068428 0.414387
O O16 0.000000 0.500000 0.000000
O O17 0.500000 0.500000 0.500000
#
# Coordination Sequence:
#
# PCOD9064941 Si02
#       8
#     2   2   2   2   2   2   2   2
#     4  11  26  44  76 114 149 205 258 318 388 460
#     4  12  25  48  79 109 161 196 267 323 384 456
#     4  11  27  47  76 111 156 211 258 314 394 457
#     4  11  26  47  72 111 146 206 260 312 380 462
#     4  12  27  49  75 113 159 197 259 325 387 458
#     4  12  27  48  77 113 159 201 256 322 395 453
#     4  12  29  49  77 110 156 203 260 320 391 462
#     4  11  24  46  76 111 155 197 262 311 383 467
#
# _framework density 23.933941999999998
#
# number of rings (size 3 to 8) (size 9 to 14) (size 15 to 20)
#    0.000    0.500    2.500    4.125   12.250    0.500 
#    0.000    0.000    0.000    0.000    0.000    0.000 
#    0.000    0.000    0.000    0.000    0.000    0.000 
#
# Total GULP energy -89553.150961 kJ/mol
# GULP energy per Si atom -5597.071935 kJ/mol
# Density = 2.387947 g / cm^3
# Si number density = 23.933942 Si / 1000 Ang^3
#
#
#
# Elastic Constant Matrix: (Units=GPa)
#
#
# Indices 1 2 3 4 5 6 
#
# 1 167.6210 56.7302 20.9211 -17.2245 1.9512 1.2579
# 2 56.7302 114.8137 9.8696 -17.9257 -10.2058 8.8866
# 3 20.9211 9.8696 104.0049 -3.7318 -9.0490 4.2518
# 4 -17.2245 -17.9257 -3.7318 35.8772 6.9820 -9.7098
# 5 1.9512 -10.2058 -9.0490 6.9820 33.0829 -3.6228
# 6 1.2579 8.8866 4.2518 -9.7098 -3.6228 44.4345
#
#
#
# Elastic Compliance Matrix: (Units=1/GPa)
#
#
# Indices 1 2 3 4 5 6 
#
# 1 0.007604 -0.003539 -0.001347 0.002456 -0.002321 0.000969
# 2 -0.003539 0.011285 0.000056 0.003034 0.002927 -0.001260
# 3 -0.001347 0.000056 0.010149 -0.000331 0.002857 -0.000784
# 4 0.002456 0.003034 -0.000331 0.033304 -0.005652 0.006172
# 5 -0.002321 0.002927 0.002857 -0.005652 0.033317 0.000688
# 6 0.000969 -0.001260 -0.000784 0.006172 0.000688 0.024209
#
#
# Mechanical properties :
#
#
# Convention : Reuss Voigt Hill
#
# Bulk Modulus (GPa) = 51.60508 62.38682 56.99595
# Shear Modulus (GPa) = 36.76784 42.60684 39.68734
#
# Velocity S-wave (km/s) = 3.92372 4.22380 4.07652
# Velocity P-wave (km/s) = 6.49120 7.06471 6.78402
#
# Compressibility (1/GPa) = 0.01937794
#
# Stress axis : x y z
#
# Youngs Moduli (GPa) = 131.51105 88.61179 98.52888
#
# Poissons Ratio (x) = 0.31361 0.13273
# Poissons Ratio (y) = 0.46544 -0.00553
# Poissons Ratio (z) = 0.17716 -0.00497
#
# Static dielectric constant tensor:
#      x y z
#    x 1.952360 0.019120 -0.066120 
#    y 0.019120 1.923320 -0.068090 
#    z -0.066120 -0.068090 2.031290 
# 
# From -- ./inp_files/383219.got.cif
#   From: 2010.05.17/outbox.cif.g08.bks.cpg/sg2_192_cif.got.tgz:383219.got - 2010.06.03 11:33:40.
