data_PCOD9064978
_publ_section_title
;
Structure prediction by ZEFSAII (Michael W. Deem and Ramdas Pophale) SiO2 
 PCOD9064978
Probable space group: P -1
;
_chemical_formula_sum "Si O2"
_cell_formula_units_Z 14
_cell_length_a 15.668395
_cell_length_b 9.595211
_cell_length_c 4.926358
_cell_angle_alpha 70.710422
_cell_angle_beta 95.685310
_cell_angle_gamma 128.672516
_cell_volume 539.952618
_symmetry_space_group_name_H-M "P -1"
_symmetry_group_IT_number 2
_symmetry_cell_setting 'triclinic'
loop_
_space_group_symop_operation_xyz
x,y,z
-x,-y,-z
loop_
_atom_site_type_symbol
_atom_site_label
_atom_site_fract_x
_atom_site_fract_y
_atom_site_fract_z
Si Si1 0.108518 0.114997 0.648306
Si Si2 0.643220 0.586379 0.477388
Si Si3 0.837995 0.126536 0.866573
Si Si4 0.557011 0.216046 0.958542
Si Si5 0.922969 0.608113 0.426192
Si Si6 0.620538 0.764115 0.836937
Si Si7 0.796217 0.364027 0.051621
O O1 0.229943 0.279807 0.458907
O O2 0.092744 0.237831 0.760453
O O3 0.000000 0.000000 0.500000
O O4 0.126602 0.979547 0.885459
O O5 0.593269 0.369703 0.633909
O O6 0.639327 0.655383 0.136500
O O7 0.590957 0.649757 0.624556
O O8 0.796399 0.203810 0.015761
O O9 0.949819 0.290864 0.642356
O O10 0.737171 0.976096 0.734395
O O11 0.471832 0.220236 0.106246
O O12 0.674206 0.298240 0.069258
O O13 0.500000 0.000000 0.000000
O O14 0.880286 0.541804 0.761441
O O15 0.845772 0.429977 0.321619
#
# Coordination Sequence:
#
# PCOD9064978 Si02
#       7
#     2   2   2   2   2   2   2
#     4  11  24  46  78 113 149 192 245 302 364 442
#     4  11  26  47  77 105 150 187 250 299 372 425
#     4  11  25  46  73 110 151 189 245 297 375 436
#     4  12  26  52  76 108 150 192 257 301 365 435
#     4  12  26  47  76 106 151 192 248 297 372 437
#     4  11  26  49  75 110 143 197 239 310 359 440
#     4  12  28  48  72 109 149 199 237 309 368 435
#
# _framework density 25.928201999999999
#
# number of rings (size 3 to 8) (size 9 to 14) (size 15 to 20)
#    0.000    0.571    2.857    3.857    4.000    5.714 
#    0.000    5.000    0.000    0.000    0.000    0.000 
#    0.000    0.000    0.000    0.000    0.000    0.000 
#
# Total GULP energy -78533.392147 kJ/mol
# GULP energy per Si atom -5609.528010 kJ/mol
# Density = 2.586919 g / cm^3
# Si number density = 25.928202 Si / 1000 Ang^3
#
#
#
# Elastic Constant Matrix: (Units=GPa)
#
#
# Indices 1 2 3 4 5 6 
#
# 1 189.4712 44.0930 35.4556 -14.2369 10.9223 12.8302
# 2 44.0930 136.1153 31.5835 -20.0139 7.5626 -0.3793
# 3 35.4556 31.5835 68.7987 -6.1817 2.9792 -0.2759
# 4 -14.2369 -20.0139 -6.1817 40.4217 -2.9728 -7.7057
# 5 10.9223 7.5626 2.9792 -2.9728 37.1954 -14.6590
# 6 12.8302 -0.3793 -0.2759 -7.7057 -14.6590 63.8816
#
#
#
# Elastic Compliance Matrix: (Units=1/GPa)
#
#
# Indices 1 2 3 4 5 6 
#
# 1 0.006327 -0.001241 -0.002542 0.000763 -0.001993 -0.001654
# 2 -0.001241 0.009055 -0.003159 0.003618 -0.000713 0.000562
# 3 -0.002542 -0.003159 0.017316 0.000339 0.000295 0.000675
# 4 0.000763 0.003618 0.000339 0.027788 0.002753 0.003853
# 5 -0.001993 -0.000713 0.000295 0.002753 0.030893 0.007818
# 6 -0.001654 0.000562 0.000675 0.003853 0.007818 0.018251
#
#
# Mechanical properties :
#
#
# Convention : Reuss Voigt Hill
#
# Bulk Modulus (GPa) = 53.15677 68.51660 60.83669
# Shear Modulus (GPa) = 38.52499 47.18329 42.85414
#
# Velocity S-wave (km/s) = 3.85883 4.27050 4.06988
# Velocity P-wave (km/s) = 6.35611 7.12735 6.75275
#
# Compressibility (1/GPa) = 0.01881228
#
# Stress axis : x y z
#
# Youngs Moduli (GPa) = 158.06033 110.43727 57.75006
#
# Poissons Ratio (x) = 0.13708 0.14683
# Poissons Ratio (y) = 0.19619 0.18243
# Poissons Ratio (z) = 0.40186 0.34887
#
# Static dielectric constant tensor:
#      x y z
#    x 2.050710 0.007400 -0.025450 
#    y 0.007400 2.040130 -0.071450 
#    z -0.025450 -0.071450 2.046090 
# 
# From -- ./inp_files/89897.got.cif
#   From: 2010.05.17/outbox.cif.g08.bks.cpg/sg2_45_cif.got.tgz:89897.got - 2010.06.03 11:33:40.
