data_PCOD9064083
_publ_section_title
;
Structure prediction by ZEFSAII (Michael W. Deem and Ramdas Pophale) SiO2 
 PCOD9064083
Probable space group: P -1
;
_chemical_formula_sum "Si O2"
_cell_formula_units_Z 16
_cell_length_a 22.210216
_cell_length_b 27.917607
_cell_length_c 17.203420
_cell_angle_alpha 20.865229
_cell_angle_beta 157.394206
_cell_angle_gamma 168.850037
_cell_volume 731.533659
_symmetry_space_group_name_H-M "P -1"
_symmetry_group_IT_number 2
_symmetry_cell_setting 'triclinic'
loop_
_space_group_symop_operation_xyz
x,y,z
-x,-y,-z
loop_
_atom_site_type_symbol
_atom_site_label
_atom_site_fract_x
_atom_site_fract_y
_atom_site_fract_z
Si Si1 0.389910 0.816883 0.760573
Si Si2 0.677604 0.263467 0.786807
Si Si3 0.297903 0.025666 0.268578
Si Si4 0.364317 0.541519 0.428835
Si Si5 0.618589 0.539293 0.867844
Si Si6 0.648152 0.980806 0.387780
Si Si7 0.420164 0.546313 0.768798
Si Si8 0.663657 0.966021 0.022877
O O1 0.516183 0.866686 0.752500
O O2 0.032901 0.505531 0.817796
O O3 0.390293 0.981086 0.509970
O O4 0.585759 0.901577 0.936388
O O5 0.681056 0.372678 0.693541
O O6 0.470046 0.151820 0.636556
O O7 0.500000 0.000000 0.000000
O O8 0.384132 0.243297 0.058817
O O9 0.936413 0.729211 0.268038
O O10 0.518044 0.537213 0.670132
O O11 0.551508 0.751180 0.263213
O O12 0.017853 0.246606 0.434857
O O13 0.614440 0.640252 0.781757
O O14 0.968877 0.743927 0.965955
O O15 0.481468 0.732081 0.607272
O O16 0.524876 0.039532 0.166807
O O17 0.500000 0.500000 0.000000
#
# Coordination Sequence:
#
# PCOD9064083 Si02
#       8
#     2   2   2   2   2   2   2   2
#     4  11  24  45  70 110 142 183 247 304 354 423
#     4  12  22  43  74 104 145 186 241 299 354 426
#     4  11  25  45  71 100 148 189 238 301 360 432
#     4  12  25  47  71 108 147 194 241 299 364 439
#     4  12  27  47  70 104 153 190 236 305 376 423
#     4  12  24  44  76 104 139 191 247 290 359 427
#     4  12  26  45  70 103 143 195 241 292 369 441
#     4  12  26  44  73 110 143 190 246 301 359 430
#
# _framework density 21.871858
#
# number of rings (size 3 to 8) (size 9 to 14) (size 15 to 20)
#    0.000    0.250    5.000    4.125    3.500    0.500 
#    0.000    1.250    0.000    0.000    0.000    0.000 
#    0.000    0.000    0.000    0.000    0.000    0.000 
#
# Total GULP energy -89379.943778 kJ/mol
# GULP energy per Si atom -5586.246486 kJ/mol
# Density = 2.182208 g / cm^3
# Si number density = 21.871858 Si / 1000 Ang^3
#
#
#
# Elastic Constant Matrix: (Units=GPa)
#
#
# Indices 1 2 3 4 5 6 
#
# 1 1205.5687 210.9879 1106.8594 382.9597 -565.7994 -984.5622
# 2 210.9879 156.6061 212.6574 69.8528 -106.5836 -175.2258
# 3 1106.8594 212.6574 1138.1091 358.8327 -534.2892 -926.6486
# 4 382.9597 69.8528 358.8327 161.4901 -193.0124 -323.6440
# 5 -565.7994 -106.5836 -534.2892 -193.0124 293.9618 463.6168
# 6 -984.5622 -175.2258 -926.6486 -323.6440 463.6168 859.1161
#
#
#
# Elastic Compliance Matrix: (Units=1/GPa)
#
#
# Indices 1 2 3 4 5 6 
#
# 1 0.021237 0.000296 -0.003397 0.001124 0.014628 0.013264
# 2 0.000296 0.008645 -0.001142 0.000183 0.001792 -0.000027
# 3 -0.003397 -0.001142 0.009676 0.001100 0.005037 0.004006
# 4 0.001124 0.000183 0.001100 0.031631 0.015062 0.006299
# 5 0.014628 0.001792 0.005037 0.015062 0.045118 0.003889
# 6 0.013264 -0.000027 0.004006 0.006299 0.003889 0.020955
#
#
# Mechanical properties :
#
#
# Convention : Reuss Voigt Hill
#
# Bulk Modulus (GPa) = 32.18252 617.92147 325.05200
# Shear Modulus (GPa) = 32.02999 327.56553 179.79776
#
# Velocity S-wave (km/s) = 3.83095 12.25116 9.07654
# Velocity P-wave (km/s) = 5.85784 21.98303 16.08676
#
# Compressibility (1/GPa) = 0.03107277
#
# Stress axis : x y z
#
# Youngs Moduli (GPa) = 47.08689 115.68000 103.35061
#
# Poissons Ratio (x) = -0.03429 0.35110
# Poissons Ratio (y) = -0.01396 0.11800
# Poissons Ratio (z) = 0.15996 0.13207
#
# Static dielectric constant tensor:
#      x y z
#    x 1.804540 0.013210 0.039170 
#    y 0.013210 1.759120 0.001880 
#    z 0.039170 0.001880 1.717450 
# 
# From -- ./inp_files/579395.got.cif
#   From: 2010.05.17/outbox.cif.g08.bks.cpg/sg2_290_cif.got.tgz:579395.got - 2010.06.03 11:33:40.
