data_PCOD9064190
_publ_section_title
;
Structure prediction by ZEFSAII (Michael W. Deem and Ramdas Pophale) SiO2 
 PCOD9064190
Probable space group: P -1
;
_chemical_formula_sum "Si O2"
_cell_formula_units_Z 12
_cell_length_a 14.773689
_cell_length_b 12.345531
_cell_length_c 7.559229
_cell_angle_alpha 135.825649
_cell_angle_beta 121.216422
_cell_angle_gamma 30.131747
_cell_volume 461.315685
_symmetry_space_group_name_H-M "P -1"
_symmetry_group_IT_number 2
_symmetry_cell_setting 'triclinic'
loop_
_space_group_symop_operation_xyz
x,y,z
-x,-y,-z
loop_
_atom_site_type_symbol
_atom_site_label
_atom_site_fract_x
_atom_site_fract_y
_atom_site_fract_z
Si Si1 0.576319 0.375346 0.208098
Si Si2 0.203986 0.177445 0.110762
Si Si3 0.206785 0.418401 0.703638
Si Si4 0.691283 0.781134 0.052454
Si Si5 0.132169 0.757549 0.493548
Si Si6 0.223207 0.768126 0.111057
O O1 0.679414 0.375574 0.433225
O O2 0.358887 0.664253 0.283402
O O3 0.689918 0.258302 0.002966
O O4 0.624849 0.145675 0.055301
O O5 0.226304 0.302855 0.403628
O O6 0.201274 0.216167 0.945020
O O7 0.010824 0.333668 0.163861
O O8 0.321388 0.194537 0.718785
O O9 0.250290 0.548102 0.880036
O O10 0.807142 0.483580 0.789614
O O11 0.500000 0.000000 0.000000
O O12 0.000000 0.000000 0.500000
O O13 0.993070 0.924232 0.716652
#
# Coordination Sequence:
#
# PCOD9064190 Si02
#       6
#     2   2   2   2   2   2
#     4  11  25  45  74 107 135 190 242 290 356 425
#     4  11  25  44  75 103 144 190 238 296 358 428
#     4  11  24  47  71 103 142 192 238 292 361 422
#     4  12  27  47  71 107 146 188 237 298 358 428
#     4  12  25  47  72 102 145 186 234 298 351 424
#     4  11  24  45  72 102 140 184 243 292 351 422
#
# _framework density 26.012556
#
# number of rings (size 3 to 8) (size 9 to 14) (size 15 to 20)
#    0.000    0.667    3.333    3.000    4.667    6.000 
#    3.000    0.000    0.000    0.000    0.000    0.000 
#    0.000    0.000    0.000    0.000    0.000    0.000 
#
# Total GULP energy -67331.360413 kJ/mol
# GULP energy per Si atom -5610.946701 kJ/mol
# Density = 2.595335 g / cm^3
# Si number density = 26.012556 Si / 1000 Ang^3
#
#
#
# Elastic Constant Matrix: (Units=GPa)
#
#
# Indices 1 2 3 4 5 6 
#
# 1 84.6423 27.7351 23.3990 3.6862 0.8100 17.1823
# 2 27.7351 141.6908 22.7153 -7.1976 6.7987 2.8311
# 3 23.3990 22.7153 78.5274 -1.8754 6.4365 -2.2387
# 4 3.6862 -7.1976 -1.8754 41.2448 1.5526 1.0227
# 5 0.8100 6.7987 6.4365 1.5526 37.5008 -6.4119
# 6 17.1823 2.8311 -2.2387 1.0227 -6.4119 58.6537
#
#
#
# Elastic Compliance Matrix: (Units=1/GPa)
#
#
# Indices 1 2 3 4 5 6 
#
# 1 0.014557 -0.002240 -0.003861 -0.001765 0.000099 -0.004262
# 2 -0.002240 0.007866 -0.001473 0.001549 -0.001178 0.000064
# 3 -0.003861 -0.001473 0.014530 0.000783 -0.001914 0.001534
# 4 -0.001765 0.001549 0.000783 0.024766 -0.001422 -0.000115
# 5 0.000099 -0.001178 -0.001914 -0.001422 0.027781 0.003017
# 6 -0.004262 0.000064 0.001534 -0.000115 0.003017 0.018685
#
#
# Mechanical properties :
#
#
# Convention : Reuss Voigt Hill
#
# Bulk Modulus (GPa) = 45.85953 50.28439 48.07196
# Shear Modulus (GPa) = 38.28469 42.88059 40.58264
#
# Velocity S-wave (km/s) = 3.84054 4.06452 3.95412
# Velocity P-wave (km/s) = 6.11018 6.43428 6.27432
#
# Compressibility (1/GPa) = 0.02180572
#
# Stress axis : x y z
#
# Youngs Moduli (GPa) = 68.69574 127.12929 68.82171
#
# Poissons Ratio (x) = 0.28472 0.26575
# Poissons Ratio (y) = 0.15385 0.10135
# Poissons Ratio (z) = 0.26527 0.18722
#
# Static dielectric constant tensor:
#      x y z
#    x 2.144160 0.007070 -0.052140 
#    y 0.007070 2.057220 -0.094910 
#    z -0.052140 -0.094910 2.000880 
# 
# From -- ./inp_files/166308.got.cif
#   From: 2010.05.17/outbox.cif.g08.bks.cpg/sg2_84_cif.got.tgz:166308.got - 2010.06.03 11:33:40.
