data_PCOD9064030
_publ_section_title
;
Structure prediction by ZEFSAII (Michael W. Deem and Ramdas Pophale) SiO2 
 PCOD9064030
Probable space group: P -1
;
_chemical_formula_sum "Si O2"
_cell_formula_units_Z 14
_cell_length_a 12.265130
_cell_length_b 11.872186
_cell_length_c 9.294531
_cell_angle_alpha 46.689070
_cell_angle_beta 118.821688
_cell_angle_gamma 144.934848
_cell_volume 555.483751
_symmetry_space_group_name_H-M "P -1"
_symmetry_group_IT_number 2
_symmetry_cell_setting 'triclinic'
loop_
_space_group_symop_operation_xyz
x,y,z
-x,-y,-z
loop_
_atom_site_type_symbol
_atom_site_label
_atom_site_fract_x
_atom_site_fract_y
_atom_site_fract_z
Si Si1 0.318605 0.710869 0.643056
Si Si2 0.920127 0.292141 0.342306
Si Si3 0.696048 0.466390 0.518814
Si Si4 0.343810 0.964924 0.859342
Si Si5 0.851113 0.872127 0.654397
Si Si6 0.487695 0.609334 0.024382
Si Si7 0.173400 0.061351 0.860362
O O1 0.135787 0.640544 0.629671
O O2 0.285980 0.583136 0.588575
O O3 0.500000 0.000000 0.500000
O O4 0.380481 0.657040 0.857613
O O5 0.147988 0.475144 0.332969
O O6 0.808884 0.243728 0.171160
O O7 0.834372 0.037357 0.534426
O O8 0.483523 0.222143 0.646703
O O9 0.741153 0.691199 0.355220
O O10 0.221429 0.951581 0.901828
O O11 0.500000 0.000000 0.000000
O O12 0.645369 0.591392 0.757969
O O13 0.000000 0.000000 0.500000
O O14 0.950210 0.882797 0.846115
O O15 0.708606 0.851746 0.995815
O O16 0.500000 0.500000 0.000000
#
# Coordination Sequence:
#
# PCOD9064030 Si02
#       7
#     2   2   2   2   2   2   2
#     4  12  24  48  69 100 144 189 239 291 354 422
#     4  11  24  45  69  99 139 179 230 295 350 418
#     4  11  25  44  70  97 137 191 231 288 354 416
#     4  12  25  42  67 104 140 182 233 288 354 417
#     4  11  25  47  73 105 140 182 238 292 352 425
#     4  12  26  46  72 105 143 186 236 292 354 422
#     4  11  25  43  73 103 138 184 237 289 352 426
#
# _framework density 25.203258999999999
#
# number of rings (size 3 to 8) (size 9 to 14) (size 15 to 20)
#    0.000    0.571    4.286    3.429    4.000    2.286 
#    2.571    0.000    0.000    0.000    0.000    0.000 
#    0.000    0.000    0.000    0.000    0.000    0.000 
#
# Total GULP energy -78327.362542 kJ/mol
# GULP energy per Si atom -5594.811610 kJ/mol
# Density = 2.514590 g / cm^3
# Si number density = 25.203259 Si / 1000 Ang^3
#
#
#
# Elastic Constant Matrix: (Units=GPa)
#
#
# Indices 1 2 3 4 5 6 
#
# 1 78.2431 -5.2129 19.1243 -0.2432 24.3352 -9.7254
# 2 -5.2129 112.3469 21.3985 25.1332 2.1061 15.0721
# 3 19.1243 21.3985 85.1867 3.7858 23.6761 7.4062
# 4 -0.2432 25.1332 3.7858 49.0974 8.9088 4.0031
# 5 24.3352 2.1061 23.6761 8.9088 39.1970 10.5432
# 6 -9.7254 15.0721 7.4062 4.0031 10.5432 48.3619
#
#
#
# Elastic Compliance Matrix: (Units=1/GPa)
#
#
# Indices 1 2 3 4 5 6 
#
# 1 0.017717 0.000002 -0.001156 0.001918 -0.012429 0.006290
# 2 0.000002 0.011211 -0.003267 -0.005870 0.003589 -0.003289
# 3 -0.001156 -0.003267 0.015151 0.002076 -0.008787 0.000209
# 4 0.001918 -0.005870 0.002076 0.024568 -0.008155 0.001641
# 5 -0.012429 0.003589 -0.008787 -0.008155 0.043157 -0.011006
# 6 0.006290 -0.003289 0.000209 0.001641 -0.011006 0.025199
#
#
# Mechanical properties :
#
#
# Convention : Reuss Voigt Hill
#
# Bulk Modulus (GPa) = 28.37910 38.48849 33.43379
# Shear Modulus (GPa) = 31.72826 43.36239 37.54532
#
# Velocity S-wave (km/s) = 3.55194 4.15240 3.86385
# Velocity P-wave (km/s) = 5.30153 6.18824 5.76197
#
# Compressibility (1/GPa) = 0.03523720
#
# Stress axis : x y z
#
# Youngs Moduli (GPa) = 56.44343 89.20187 66.00396
#
# Poissons Ratio (x) = -0.00020 0.07627
# Poissons Ratio (y) = -0.00012 0.21564
# Poissons Ratio (z) = 0.06522 0.29143
#
# Static dielectric constant tensor:
#      x y z
#    x 2.005990 -0.022850 0.018670 
#    y -0.022850 1.980460 0.018630 
#    z 0.018670 0.018630 2.101890 
# 
# From -- ./inp_files/261789.got.cif
#   From: 2010.05.17/outbox.cif.g08.bks.cpg/sg2_131_cif.got.tgz:261789.got - 2010.06.03 11:33:40.
