data_PCOD9064079
_publ_section_title
;
Structure prediction by ZEFSAII (Michael W. Deem and Ramdas Pophale) SiO2 
 PCOD9064079
Probable space group: P -1
;
_chemical_formula_sum "Si O2"
_cell_formula_units_Z 14
_cell_length_a 14.152250
_cell_length_b 6.917979
_cell_length_c 13.216913
_cell_angle_alpha 39.946795
_cell_angle_beta 138.736735
_cell_angle_gamma 135.212042
_cell_volume 520.041263
_symmetry_space_group_name_H-M "P -1"
_symmetry_group_IT_number 2
_symmetry_cell_setting 'triclinic'
loop_
_space_group_symop_operation_xyz
x,y,z
-x,-y,-z
loop_
_atom_site_type_symbol
_atom_site_label
_atom_site_fract_x
_atom_site_fract_y
_atom_site_fract_z
Si Si1 0.916824 0.004042 0.569604
Si Si2 0.531978 0.218473 0.322926
Si Si3 0.051780 0.138331 0.117660
Si Si4 0.857292 0.458516 0.574839
Si Si5 0.719284 0.063690 0.890098
Si Si6 0.324094 0.665172 0.823900
Si Si7 0.652275 0.354347 0.924639
O O1 0.883064 0.708285 0.586022
O O2 0.897814 0.225384 0.956645
O O3 0.904439 0.879066 0.722681
O O4 0.074245 0.286465 0.563526
O O5 0.689803 0.243707 0.491943
O O6 0.573314 0.317493 0.199882
O O7 0.466307 0.450509 0.242090
O O8 0.387161 0.912659 0.299871
O O9 0.796049 0.177767 0.375695
O O10 0.182980 0.385963 0.061332
O O11 0.723981 0.704937 0.042647
O O12 0.949114 0.215775 0.771508
O O13 0.651365 0.152465 0.903735
O O14 0.363940 0.809634 0.911932
#
# Coordination Sequence:
#
# PCOD9064079 Si02
#       7
#     2   2   2   2   2   2   2
#     4  11  25  44  78 104 136 188 240 288 352 418
#     4  11  26  46  71 109 141 187 232 297 351 423
#     4  12  25  48  73 105 142 185 240 295 341 423
#     4  11  25  47  77 102 143 184 241 290 354 414
#     4  11  25  45  71 103 148 182 235 288 356 415
#     4  11  24  45  70 108 137 185 234 291 348 421
#     4  11  28  43  72 105 145 189 233 286 361 414
#
# _framework density 26.920940000000002
#
# number of rings (size 3 to 8) (size 9 to 14) (size 15 to 20)
#    0.000    0.857    2.857    3.429    8.000    6.286 
#    0.000    1.429    0.000    0.000    0.000    0.000 
#    0.000    0.000    0.000    0.000    0.000    0.000 
#
# Total GULP energy -78319.204540 kJ/mol
# GULP energy per Si atom -5594.228896 kJ/mol
# Density = 2.685967 g / cm^3
# Si number density = 26.920940 Si / 1000 Ang^3
#
#
#
# Elastic Constant Matrix: (Units=GPa)
#
#
# Indices 1 2 3 4 5 6 
#
# 1 202.3675 53.3329 59.4887 15.5899 -7.5646 -28.8424
# 2 53.3329 119.4395 49.8809 8.1078 6.6496 -32.3247
# 3 59.4887 49.8809 99.9841 24.7528 -3.2948 4.0120
# 4 15.5899 8.1078 24.7528 34.2930 0.6196 6.4490
# 5 -7.5646 6.6496 -3.2948 0.6196 56.8786 0.3383
# 6 -28.8424 -32.3247 4.0120 6.4490 0.3383 61.0405
#
#
#
# Elastic Compliance Matrix: (Units=1/GPa)
#
#
# Indices 1 2 3 4 5 6 
#
# 1 0.006700 -0.000639 -0.003534 -0.000951 0.000753 0.003156
# 2 -0.000639 0.013604 -0.006958 0.000764 -0.002130 0.007290
# 3 -0.003534 -0.006958 0.018009 -0.008717 0.001515 -0.005626
# 4 -0.000951 0.000764 -0.008717 0.036345 -0.001097 -0.003306
# 5 0.000753 -0.002130 0.001515 -0.001097 0.018035 -0.000856
# 6 0.003156 0.007290 -0.005626 -0.003306 -0.000856 0.022458
#
#
# Mechanical properties :
#
#
# Convention : Reuss Voigt Hill
#
# Bulk Modulus (GPa) = 62.30476 83.02179 72.66327
# Shear Modulus (GPa) = 35.02272 47.71500 41.36886
#
# Velocity S-wave (km/s) = 3.61078 4.21457 3.92430
# Velocity P-wave (km/s) = 6.37004 7.38847 6.89808
#
# Compressibility (1/GPa) = 0.01605014
#
# Stress axis : x y z
#
# Youngs Moduli (GPa) = 149.25414 73.51038 55.52677
#
# Poissons Ratio (x) = 0.04698 0.19623
# Poissons Ratio (y) = 0.09539 0.38637
# Poissons Ratio (z) = 0.52745 0.51151
#
# Static dielectric constant tensor:
#      x y z
#    x 2.147320 0.079060 -0.020120 
#    y 0.079060 2.255190 0.081870 
#    z -0.020120 0.081870 2.020970 
# 
# From -- ./inp_files/527181.got.cif
#   From: 2010.05.17/outbox.cif.g08.bks.cpg/sg2_264_cif.got.tgz:527181.got - 2010.06.03 11:33:40.
