data_PCOD9064041
_publ_section_title
;
Structure prediction by ZEFSAII (Michael W. Deem and Ramdas Pophale) SiO2 
 PCOD9064041
Probable space group: P -1
;
_chemical_formula_sum "Si O2"
_cell_formula_units_Z 16
_cell_length_a 15.612701
_cell_length_b 8.490516
_cell_length_c 13.239912
_cell_angle_alpha 81.100921
_cell_angle_beta 153.514078
_cell_angle_gamma 107.706941
_cell_volume 716.544939
_symmetry_space_group_name_H-M "P -1"
_symmetry_group_IT_number 2
_symmetry_cell_setting 'triclinic'
loop_
_space_group_symop_operation_xyz
x,y,z
-x,-y,-z
loop_
_atom_site_type_symbol
_atom_site_label
_atom_site_fract_x
_atom_site_fract_y
_atom_site_fract_z
Si Si1 0.002892 0.899490 0.115944
Si Si2 0.402977 0.393571 0.227090
Si Si3 0.124483 0.066921 0.432821
Si Si4 0.564415 0.258542 0.783172
Si Si5 0.427682 0.570789 0.816013
Si Si6 0.681048 0.155359 0.231139
Si Si7 0.548011 0.078465 0.431855
Si Si8 0.047671 0.677598 0.681793
O O1 0.010355 0.016726 0.209885
O O2 0.213702 0.870366 0.345043
O O3 0.000000 0.000000 0.000000
O O4 0.822133 0.717761 0.958288
O O5 0.471745 0.584457 0.328445
O O6 0.435412 0.429043 0.137108
O O7 0.506789 0.253338 0.366890
O O8 0.364487 0.191592 0.653256
O O9 0.001299 0.151991 0.363054
O O10 0.157049 0.906976 0.534479
O O11 0.558354 0.087637 0.735920
O O12 0.791381 0.338328 0.064357
O O13 0.438965 0.762130 0.830689
O O14 0.182442 0.466203 0.547664
O O15 0.500000 0.500000 0.000000
O O16 0.821224 0.294091 0.285163
O O17 0.500000 0.000000 0.000000
O O18 0.500000 0.000000 0.500000
#
# Coordination Sequence:
#
# PCOD9064041 Si02
#       8
#     2   2   2   2   2   2   2   2
#     4  11  25  45  75 107 141 190 245 301 366 432
#     4  12  26  47  75 104 147 193 239 302 372 427
#     4  11  24  45  70 101 146 186 244 303 359 434
#     4  11  25  46  70 108 144 186 245 299 354 449
#     4  12  27  46  69 105 149 191 243 297 358 441
#     4  12  25  43  70 105 140 192 246 295 366 435
#     4  11  25  50  74 106 148 186 244 311 364 429
#     4  12  25  45  69 101 149 190 238 299 364 429
#
# _framework density 22.329374000000001
#
# number of rings (size 3 to 8) (size 9 to 14) (size 15 to 20)
#    0.000    0.500    3.750    4.500    7.000    0.500 
#    0.000    0.625    0.000    0.000    0.000    0.000 
#    0.000    0.000    0.000    0.000    0.000    0.000 
#
# Total GULP energy -89374.115367 kJ/mol
# GULP energy per Si atom -5585.882210 kJ/mol
# Density = 2.227855 g / cm^3
# Si number density = 22.329374 Si / 1000 Ang^3
#
#
#
# Elastic Constant Matrix: (Units=GPa)
#
#
# Indices 1 2 3 4 5 6 
#
# 1 46.4862 -2.4367 -1.0669 -1.6260 7.5836 4.6238
# 2 -2.4367 110.5222 28.9340 -18.7237 0.4222 -7.2960
# 3 -1.0669 28.9340 68.5565 -0.3426 4.7920 2.2528
# 4 -1.6260 -18.7237 -0.3426 30.2575 11.8761 11.6701
# 5 7.5836 0.4222 4.7920 11.8761 31.5883 -4.1106
# 6 4.6238 -7.2960 2.2528 11.6701 -4.1106 48.7558
#
#
#
# Elastic Compliance Matrix: (Units=1/GPa)
#
#
# Indices 1 2 3 4 5 6 
#
# 1 0.023849 0.001373 0.000634 0.007601 -0.009308 -0.004690
# 2 0.001373 0.011753 -0.004661 0.008714 -0.003122 -0.000505
# 3 0.000634 -0.004661 0.016772 -0.001162 -0.002387 -0.001456
# 4 0.007601 0.008714 -0.001162 0.053655 -0.023787 -0.014211
# 5 -0.009308 -0.003122 -0.002387 -0.023787 0.044537 0.009974
# 6 -0.004690 -0.000505 -0.001456 -0.014211 0.009974 0.025189
#
#
# Mechanical properties :
#
#
# Convention : Reuss Voigt Hill
#
# Bulk Modulus (GPa) = 21.24557 30.71396 25.97977
# Shear Modulus (GPa) = 25.41271 35.46260 30.43766
#
# Velocity S-wave (km/s) = 3.37721 3.98949 3.69605
# Velocity P-wave (km/s) = 4.97420 5.91661 5.46575
#
# Compressibility (1/GPa) = 0.04706863
#
# Stress axis : x y z
#
# Youngs Moduli (GPa) = 41.93020 85.08290 59.62222
#
# Poissons Ratio (x) = -0.11686 -0.03781
# Poissons Ratio (y) = -0.05759 0.27788
# Poissons Ratio (z) = -0.02659 0.39654
#
# Static dielectric constant tensor:
#      x y z
#    x 1.949980 -0.053650 -0.032870 
#    y -0.053650 1.879000 0.007670 
#    z -0.032870 0.007670 1.855140 
# 
# From -- ./inp_files/307806.got.cif
#   From: 2010.05.17/outbox.cif.g08.bks.cpg/sg2_154_cif.got.tgz:307806.got - 2010.06.03 11:33:40.
