data_PCOD9064780
_publ_section_title
;
Structure prediction by ZEFSAII (Michael W. Deem and Ramdas Pophale) SiO2 
 PCOD9064780
Probable space group: P -1
;
_chemical_formula_sum "Si O2"
_cell_formula_units_Z 12
_cell_length_a 18.789878
_cell_length_b 6.863795
_cell_length_c 5.124018
_cell_angle_alpha 105.621824
_cell_angle_beta 103.121189
_cell_angle_gamma 57.489165
_cell_volume 533.935405
_symmetry_space_group_name_H-M "P -1"
_symmetry_group_IT_number 2
_symmetry_cell_setting 'triclinic'
loop_
_space_group_symop_operation_xyz
x,y,z
-x,-y,-z
loop_
_atom_site_type_symbol
_atom_site_label
_atom_site_fract_x
_atom_site_fract_y
_atom_site_fract_z
Si Si1 0.321488 0.334431 0.423633
Si Si2 0.543670 0.110329 0.907246
Si Si3 0.423278 0.563695 0.656118
Si Si4 0.212996 0.437622 0.870056
Si Si5 0.914416 0.012573 0.033346
Si Si6 0.913836 0.740507 0.444543
O O1 0.349610 0.527899 0.467083
O O2 0.288495 0.351163 0.693148
O O3 0.400596 0.077251 0.332672
O O4 0.249292 0.382417 0.172034
O O5 0.466935 0.353951 0.825822
O O6 0.600657 0.190248 0.145082
O O7 0.500000 0.000000 0.000000
O O8 0.500000 0.500000 0.500000
O O9 0.156859 0.321118 0.719624
O O10 0.154697 0.716762 0.885531
O O11 0.929263 0.869336 0.261020
O O12 0.887443 0.900356 0.737942
O O13 0.000000 0.000000 0.000000
O O14 0.000000 0.500000 0.500000
#
# Coordination Sequence:
#
# PCOD9064780 Si02
#       6
#     2   2   2   2   2   2
#     4  12  27  47  71 106 153 184 238 310 363 421
#     4  11  24  46  73 104 138 193 243 296 355 434
#     4  11  25  44  75 102 137 190 250 284 358 437
#     4  12  29  47  69 111 150 188 238 303 370 419
#     4  12  26  47  79 107 145 191 244 299 352 435
#     4  12  26  47  79 106 141 193 247 290 358 439
#
# _framework density 22.474633000000001
#
# number of rings (size 3 to 8) (size 9 to 14) (size 15 to 20)
#    0.000    0.333    3.333    4.500    7.000    4.000 
#    0.000    0.000    0.000    0.000    0.000    0.000 
#    0.000    0.000    0.000    0.000    0.000    0.000 
#
# Total GULP energy -67252.551301 kJ/mol
# GULP energy per Si atom -5604.379275 kJ/mol
# Density = 2.242348 g / cm^3
# Si number density = 22.474633 Si / 1000 Ang^3
#
#
#
# Elastic Constant Matrix: (Units=GPa)
#
#
# Indices 1 2 3 4 5 6 
#
# 1 78.2533 21.5382 4.6752 14.7222 10.7655 9.0663
# 2 21.5382 118.9279 29.9478 5.7894 -12.4880 13.7864
# 3 4.6752 29.9478 89.8974 18.2570 8.0152 9.6768
# 4 14.7222 5.7894 18.2570 54.3306 4.3213 -3.6488
# 5 10.7655 -12.4880 8.0152 4.3213 60.6782 3.1944
# 6 9.0663 13.7864 9.6768 -3.6488 3.1944 32.9120
#
#
#
# Elastic Compliance Matrix: (Units=1/GPa)
#
#
# Indices 1 2 3 4 5 6 
#
# 1 0.015120 -0.002844 0.001712 -0.004378 -0.002989 -0.003672
# 2 -0.002844 0.010427 -0.003375 0.000345 0.003223 -0.002867
# 3 0.001712 -0.003375 0.013693 -0.004751 -0.002290 -0.003389
# 4 -0.004378 0.000345 -0.004751 0.021504 -0.000313 0.004873
# 5 -0.002989 0.003223 -0.002290 -0.000313 0.018085 -0.001643
# 6 -0.003672 -0.002867 -0.003389 0.004873 -0.001643 0.034293
#
#
# Mechanical properties :
#
#
# Convention : Reuss Voigt Hill
#
# Bulk Modulus (GPa) = 33.08354 44.37788 38.73071
# Shear Modulus (GPa) = 37.81833 44.97865 41.39849
#
# Velocity S-wave (km/s) = 4.10654 4.47845 4.29652
# Velocity P-wave (km/s) = 6.10223 6.82134 6.47178
#
# Compressibility (1/GPa) = 0.03022651
#
# Stress axis : x y z
#
# Youngs Moduli (GPa) = 66.13750 95.90219 73.03150
#
# Poissons Ratio (x) = 0.27279 -0.12505
# Poissons Ratio (y) = 0.18813 0.24645
# Poissons Ratio (z) = -0.11324 0.32362
#
# Static dielectric constant tensor:
#      x y z
#    x 1.833940 -0.005370 0.053080 
#    y -0.005370 1.803330 -0.011810 
#    z 0.053080 -0.011810 1.863840 
# 
# From -- ./inp_files/8314.got.cif
#   From: 2010.05.17/outbox.cif.g08.bks.cpg/sg2_5_cif.got.tgz:8314.got - 2010.06.03 11:33:40.
