data_PCOD9064803
_publ_section_title
;
Structure prediction by ZEFSAII (Michael W. Deem and Ramdas Pophale) SiO2 
 PCOD9064803
Probable space group: P -1
;
_chemical_formula_sum "Si O2"
_cell_formula_units_Z 13
_cell_length_a 10.048420
_cell_length_b 8.716420
_cell_length_c 11.947849
_cell_angle_alpha 78.886819
_cell_angle_beta 40.458320
_cell_angle_gamma 56.161184
_cell_volume 509.615930
_symmetry_space_group_name_H-M "P -1"
_symmetry_group_IT_number 2
_symmetry_cell_setting 'triclinic'
loop_
_space_group_symop_operation_xyz
x,y,z
-x,-y,-z
loop_
_atom_site_type_symbol
_atom_site_label
_atom_site_fract_x
_atom_site_fract_y
_atom_site_fract_z
Si Si1 0.526012 0.159048 0.906503
Si Si2 0.997582 0.892390 0.349625
Si Si3 0.500000 0.500000 0.500000
Si Si4 0.134213 0.063629 0.824713
Si Si5 0.754017 0.548614 0.759629
Si Si6 0.349570 0.361607 0.426066
Si Si7 0.628727 0.749906 0.256856
O O1 0.364703 0.260171 0.880880
O O2 0.844287 0.037881 0.712183
O O3 0.423657 0.340019 0.034068
O O4 0.500000 0.000000 0.000000
O O5 0.016400 0.871469 0.205733
O O6 0.149182 0.663424 0.322801
O O7 0.685246 0.047686 0.554786
O O8 0.430420 0.480637 0.418256
O O9 0.656142 0.580520 0.337834
O O10 0.165821 0.217607 0.837629
O O11 0.438827 0.864315 0.627394
O O12 0.000000 0.000000 0.000000
O O13 0.602966 0.691241 0.729372
O O14 0.035101 0.489479 0.620467
#
# Coordination Sequence:
#
# PCOD9064803 Si02
#       7
#     2   2   1   2   2   2   2
#     4  12  28  46  74 117 150 191 256 322 376 438
#     4  12  24  47  75 104 147 202 253 300 382 453
#     4  12  26  44  76 110 154 194 254 304 380 448
#     4  12  25  48  77 110 151 196 251 312 382 456
#     4  11  25  46  76 101 151 197 257 302 372 459
#     4  11  24  46  73 109 146 204 243 305 386 453
#     4  12  26  48  76 112 153 202 249 311 380 453
#
# _framework density 25.509406999999999
#
# number of rings (size 3 to 8) (size 9 to 14) (size 15 to 20)
#    0.000    0.308    3.077    6.000    4.308    2.462 
#    0.000    2.308    0.000    0.000    0.000    0.000 
#    0.000    0.000    0.000    0.000    0.000    0.000 
#
# Total GULP energy -72491.720537 kJ/mol
# GULP energy per Si atom -5576.286195 kJ/mol
# Density = 2.545135 g / cm^3
# Si number density = 25.509407 Si / 1000 Ang^3
#
#
#
# Elastic Constant Matrix: (Units=GPa)
#
#
# Indices 1 2 3 4 5 6 
#
# 1 178.3914 14.4778 29.7964 -20.3117 -9.4869 -0.1369
# 2 14.4778 58.6155 19.6662 -23.2375 -16.3370 -4.4165
# 3 29.7964 19.6662 86.5930 -10.8125 -1.6350 8.2648
# 4 -20.3117 -23.2375 -10.8125 44.7399 5.4022 -6.5149
# 5 -9.4869 -16.3370 -1.6350 5.4022 44.7905 -17.1574
# 6 -0.1369 -4.4165 8.2648 -6.5149 -17.1574 38.5971
#
#
#
# Elastic Compliance Matrix: (Units=1/GPa)
#
#
# Indices 1 2 3 4 5 6 
#
# 1 0.006336 0.001081 -0.002213 0.002949 0.002083 0.002044
# 2 0.001081 0.029725 -0.006319 0.014656 0.014273 0.013577
# 3 -0.002213 -0.006319 0.014073 -0.001216 -0.004370 -0.005892
# 4 0.002949 0.014656 -0.001216 0.031742 0.005901 0.009929
# 5 0.002083 0.014273 -0.004370 0.005901 0.034314 0.018826
# 6 0.002044 0.013577 -0.005892 0.009929 0.018826 0.038776
#
#
# Mechanical properties :
#
#
# Convention : Reuss Voigt Hill
#
# Bulk Modulus (GPa) = 28.38370 50.16451 39.27410
# Shear Modulus (GPa) = 27.53141 42.93614 35.23377
#
# Velocity S-wave (km/s) = 3.28878 4.10707 3.72049
# Velocity P-wave (km/s) = 5.05691 6.49604 5.82112
#
# Compressibility (1/GPa) = 0.03523149
#
# Stress axis : x y z
#
# Youngs Moduli (GPa) = 157.83618 33.64180 71.05801
#
# Poissons Ratio (x) = -0.03638 0.15726
# Poissons Ratio (y) = -0.17067 0.44903
# Poissons Ratio (z) = 0.34931 0.21259
#
# Static dielectric constant tensor:
#      x y z
#    x 1.936790 -0.017590 0.005870 
#    y -0.017590 2.057040 -0.043930 
#    z 0.005870 -0.043930 2.032190 
# 
# From -- ./inp_files/154455.got.cif
#   From: 2010.05.17/outbox.cif.g08.bks.cpg/sg2_78_cif.got.tgz:154455.got - 2010.06.03 11:33:40.
