data_PCOD9064940
_publ_section_title
;
Structure prediction by ZEFSAII (Michael W. Deem and Ramdas Pophale) SiO2 
 PCOD9064940
Probable space group: P -1
;
_chemical_formula_sum "Si O2"
_cell_formula_units_Z 14
_cell_length_a 5.956018
_cell_length_b 8.878630
_cell_length_c 25.666660
_cell_angle_alpha 154.070544
_cell_angle_beta 68.664253
_cell_angle_gamma 107.589084
_cell_volume 551.773251
_symmetry_space_group_name_H-M "P -1"
_symmetry_group_IT_number 2
_symmetry_cell_setting 'triclinic'
loop_
_space_group_symop_operation_xyz
x,y,z
-x,-y,-z
loop_
_atom_site_type_symbol
_atom_site_label
_atom_site_fract_x
_atom_site_fract_y
_atom_site_fract_z
Si Si1 0.344839 0.754689 0.629831
Si Si2 0.682246 0.087706 0.967609
Si Si3 0.653472 0.256752 0.816041
Si Si4 0.142910 0.358217 0.993971
Si Si5 0.884348 0.797132 0.303637
Si Si6 0.076475 0.715238 0.448993
Si Si7 0.506981 0.296139 0.228930
O O1 0.500000 0.500000 0.500000
O O2 0.130988 0.557584 0.613369
O O3 0.530048 0.914270 0.703615
O O4 0.235258 0.048331 0.691191
O O5 0.950633 0.160095 0.983255
O O6 0.667336 0.817122 0.838237
O O7 0.558707 0.449134 0.071272
O O8 0.500000 0.000000 0.000000
O O9 0.786160 0.312725 0.876697
O O10 0.846994 0.330542 0.777187
O O11 0.351844 0.058325 0.873426
O O12 0.000000 0.500000 0.000000
O O13 0.712291 0.525293 0.258537
O O14 0.907465 0.094117 0.437455
O O15 0.332998 0.526968 0.353107
O O16 0.000000 0.000000 0.500000
#
# Coordination Sequence:
#
# PCOD9064940 Si02
#       7
#     2   2   2   2   2   2   2
#     4  12  26  51  81 113 158 211 273 324 395 481
#     4  11  24  46  76 111 151 203 264 324 393 472
#     4  11  25  47  83 111 153 206 272 327 391 474
#     4  11  27  52  75 120 161 209 266 328 406 472
#     4  12  26  52  78 118 155 213 271 325 399 480
#     4  12  29  52  79 122 163 209 266 335 406 475
#     4  11  27  48  80 115 164 208 262 331 402 468
#
# _framework density 25.372738999999999
#
# number of rings (size 3 to 8) (size 9 to 14) (size 15 to 20)
#    0.000    0.571    1.429    5.143    4.000    8.000 
#    5.143    2.143    0.000    0.000    0.000    0.000 
#    0.000    0.000    0.000    0.000    0.000    0.000 
#
# Total GULP energy -78519.845159 kJ/mol
# GULP energy per Si atom -5608.560368 kJ/mol
# Density = 2.531499 g / cm^3
# Si number density = 25.372739 Si / 1000 Ang^3
#
#
#
# Elastic Constant Matrix: (Units=GPa)
#
#
# Indices 1 2 3 4 5 6 
#
# 1 149.8126 80.0738 76.0878 -7.3959 23.9482 24.0536
# 2 80.0738 168.9677 49.6918 0.6704 -0.7806 26.7191
# 3 76.0878 49.6918 156.7321 -21.8138 4.8307 4.9516
# 4 -7.3959 0.6704 -21.8138 44.4436 5.5249 -4.4567
# 5 23.9482 -0.7806 4.8307 5.5249 64.8836 -2.1809
# 6 24.0536 26.7191 4.9516 -4.4567 -2.1809 67.2829
#
#
#
# Elastic Compliance Matrix: (Units=1/GPa)
#
#
# Indices 1 2 3 4 5 6 
#
# 1 0.012211 -0.004120 -0.004376 0.000232 -0.004336 -0.002532
# 2 -0.004120 0.008447 -0.000905 -0.001665 0.001769 -0.001868
# 3 -0.004376 -0.000905 0.009268 0.003908 0.000632 0.001521
# 4 0.000232 -0.001665 0.003908 0.024975 -0.002460 0.001865
# 5 -0.004336 0.001769 0.000632 -0.002460 0.017236 0.001197
# 6 -0.002532 -0.001868 0.001521 0.001865 0.001197 0.016560
#
#
# Mechanical properties :
#
#
# Convention : Reuss Voigt Hill
#
# Bulk Modulus (GPa) = 89.89836 98.57991 94.23914
# Shear Modulus (GPa) = 44.96103 53.29927 49.13015
#
# Velocity S-wave (km/s) = 4.21410 4.58826 4.40516
# Velocity P-wave (km/s) = 7.69326 8.18575 7.94332
#
# Compressibility (1/GPa) = 0.01112367
#
# Stress axis : x y z
#
# Youngs Moduli (GPa) = 81.89552 118.38198 107.89939
#
# Poissons Ratio (x) = 0.48777 0.47213
# Poissons Ratio (y) = 0.33744 0.09766
# Poissons Ratio (z) = 0.35835 0.10715
#
# Static dielectric constant tensor:
#      x y z
#    x 2.019390 -0.018480 -0.016630 
#    y -0.018480 2.086830 0.037270 
#    z -0.016630 0.037270 1.957440 
# 
# From -- ./inp_files/47529.got.cif
#   From: 2010.05.17/outbox.cif.g08.bks.cpg/sg2_24_cif.got.tgz:47529.got - 2010.06.03 11:33:40.
