data_PCOD9064240
_publ_section_title
;
Structure prediction by ZEFSAII (Michael W. Deem and Ramdas Pophale) SiO2 
 PCOD9064240
Probable space group: P -1
;
_chemical_formula_sum "Si O2"
_cell_formula_units_Z 12
_cell_length_a 11.795082
_cell_length_b 6.375578
_cell_length_c 8.554063
_cell_angle_alpha 69.056902
_cell_angle_beta 86.395460
_cell_angle_gamma 56.405015
_cell_volume 492.842956
_symmetry_space_group_name_H-M "P -1"
_symmetry_group_IT_number 2
_symmetry_cell_setting 'triclinic'
loop_
_space_group_symop_operation_xyz
x,y,z
-x,-y,-z
loop_
_atom_site_type_symbol
_atom_site_label
_atom_site_fract_x
_atom_site_fract_y
_atom_site_fract_z
Si Si1 0.206819 0.644885 0.233627
Si Si2 0.562332 0.037239 0.157882
Si Si3 0.287134 0.435155 0.944504
Si Si4 0.397414 0.769391 0.337038
Si Si5 0.752095 0.855965 0.468538
Si Si6 0.060463 0.992750 0.665585
O O1 0.322148 0.706421 0.228742
O O2 0.239087 0.415694 0.420170
O O3 0.212623 0.524813 0.094940
O O4 0.057265 0.907321 0.221709
O O5 0.685450 0.822765 0.088143
O O6 0.480296 0.898780 0.245394
O O7 0.627430 0.046118 0.309707
O O8 0.444937 0.318024 0.011486
O O9 0.197197 0.696360 0.773335
O O10 0.500000 0.500000 0.500000
O O11 0.278983 0.983273 0.410108
O O12 0.887943 0.809076 0.394689
O O13 0.000000 0.000000 0.500000
#
# Coordination Sequence:
#
# PCOD9064240 Si02
#       6
#     2   2   2   2   2   2
#     4  12  25  46  73 108 142 186 236 292 352 421
#     4  11  24  45  72 110 142 185 234 294 360 412
#     4  11  26  46  71 106 147 184 237 294 355 418
#     4  12  22  41  75 107 142 180 238 288 347 422
#     4  12  24  47  74 105 140 186 240 291 349 425
#     4  12  26  49  71 102 142 194 241 284 353 427
#
# _framework density 24.348524000000001
#
# number of rings (size 3 to 8) (size 9 to 14) (size 15 to 20)
#    0.000    0.333    5.000    4.500    0.000    4.000 
#    0.000    4.167    0.000    0.000    0.000    0.000 
#    0.000    0.000    0.000    0.000    0.000    0.000 
#
# Total GULP energy -67142.346856 kJ/mol
# GULP energy per Si atom -5595.195571 kJ/mol
# Density = 2.429311 g / cm^3
# Si number density = 24.348524 Si / 1000 Ang^3
#
#
#
# Elastic Constant Matrix: (Units=GPa)
#
#
# Indices 1 2 3 4 5 6 
#
# 1 119.5548 19.2846 32.9092 -9.8607 -3.5945 4.2322
# 2 19.2846 103.4179 40.0077 -8.0960 8.8783 -28.2669
# 3 32.9092 40.0077 131.1976 -9.4236 23.3218 -7.3131
# 4 -9.8607 -8.0960 -9.4236 59.0125 -13.9452 -1.2197
# 5 -3.5945 8.8783 23.3218 -13.9452 20.2723 2.8152
# 6 4.2322 -28.2669 -7.3131 -1.2197 2.8152 28.6111
#
#
#
# Elastic Compliance Matrix: (Units=1/GPa)
#
#
# Indices 1 2 3 4 5 6 
#
# 1 0.010684 -0.002919 -0.003800 0.003150 0.010592 -0.006343
# 2 -0.002919 0.016169 -0.001888 -0.000067 -0.007789 0.016687
# 3 -0.003800 -0.001888 0.011963 -0.002673 -0.015893 0.003204
# 4 0.003150 -0.000067 -0.002673 0.021407 0.018686 -0.002141
# 5 0.010592 -0.007789 -0.015893 0.018686 0.088708 -0.021257
# 6 -0.006343 0.016687 0.003204 -0.002141 -0.021257 0.055195
#
#
# Mechanical properties :
#
#
# Convention : Reuss Voigt Hill
#
# Bulk Modulus (GPa) = 46.29360 59.84148 53.06754
# Shear Modulus (GPa) = 21.87795 39.04378 30.46086
#
# Velocity S-wave (km/s) = 3.00081 4.00876 3.54084
# Velocity P-wave (km/s) = 5.57321 6.78655 6.20959
#
# Compressibility (1/GPa) = 0.02160126
#
# Stress axis : x y z
#
# Youngs Moduli (GPa) = 93.59805 61.84769 83.59187
#
# Poissons Ratio (x) = 0.18051 0.31766
# Poissons Ratio (y) = 0.27318 0.15786
# Poissons Ratio (z) = 0.35568 0.11679
#
# Static dielectric constant tensor:
#      x y z
#    x 1.910990 -0.019680 -0.039600 
#    y -0.019680 1.961490 -0.004530 
#    z -0.039600 -0.004530 1.946100 
# 
# From -- ./inp_files/21073.got.cif
#   From: 2010.05.17/outbox.cif.g08.bks.cpg/sg2_11_cif.got.tgz:21073.got - 2010.06.03 11:33:40.
