data_PCOD9064235
_publ_section_title
;
Structure prediction by ZEFSAII (Michael W. Deem and Ramdas Pophale) SiO2 
 PCOD9064235
Probable space group: P -1
;
_chemical_formula_sum "Si O2"
_cell_formula_units_Z 14
_cell_length_a 13.338798
_cell_length_b 10.552710
_cell_length_c 5.382027
_cell_angle_alpha 79.511607
_cell_angle_beta 91.879047
_cell_angle_gamma 44.449127
_cell_volume 506.870046
_symmetry_space_group_name_H-M "P -1"
_symmetry_group_IT_number 2
_symmetry_cell_setting 'triclinic'
loop_
_space_group_symop_operation_xyz
x,y,z
-x,-y,-z
loop_
_atom_site_type_symbol
_atom_site_label
_atom_site_fract_x
_atom_site_fract_y
_atom_site_fract_z
Si Si1 0.560089 0.267614 0.329793
Si Si2 0.652189 0.827851 0.699633
Si Si3 0.653996 0.052162 0.925622
Si Si4 0.043233 0.383020 0.302440
Si Si5 0.166181 0.799167 0.673588
Si Si6 0.012346 0.190372 0.027691
Si Si7 0.254440 0.545727 0.327530
O O1 0.574443 0.185650 0.628878
O O2 0.710654 0.207803 0.331740
O O3 0.399810 0.487724 0.249017
O O4 0.568293 0.170347 0.122041
O O5 0.781363 0.788973 0.596318
O O6 0.692208 0.643174 0.713943
O O7 0.500000 0.000000 0.500000
O O8 0.659952 0.890787 0.947125
O O9 0.817057 0.964511 0.965138
O O10 0.000000 0.500000 0.500000
O O11 0.995991 0.286120 0.243687
O O12 0.000000 0.500000 0.000000
O O13 0.115898 0.800182 0.944895
O O14 0.243332 0.617733 0.575988
O O15 0.000000 0.000000 0.500000
O O16 0.921443 0.329366 0.745051
#
# Coordination Sequence:
#
# PCOD9064235 Si02
#       7
#     2   2   2   2   2   2   2
#     4  12  28  50  76 112 159 199 260 313 381 455
#     4  11  24  48  77 111 160 197 249 313 387 459
#     4  11  27  49  77 113 153 208 250 314 384 458
#     4  11  24  45  72 108 150 194 251 310 370 449
#     4  12  27  50  80 107 153 205 260 319 378 454
#     4  11  26  44  76 106 148 196 260 308 376 447
#     4  12  27  48  76 117 150 204 254 319 385 454
#
# _framework density 27.620491999999999
#
# number of rings (size 3 to 8) (size 9 to 14) (size 15 to 20)
#    0.000    0.571    4.286    2.143    4.000    6.857 
#    2.571    0.000    0.000    0.000    0.000    0.000 
#    0.000    0.000    0.000    0.000    0.000    0.000 
#
# Total GULP energy -77980.489396 kJ/mol
# GULP energy per Si atom -5570.034957 kJ/mol
# Density = 2.755763 g / cm^3
# Si number density = 27.620492 Si / 1000 Ang^3
#
#
#
# Elastic Constant Matrix: (Units=GPa)
#
#
# Indices 1 2 3 4 5 6 
#
# 1 52.3332 5.5085 8.2208 -182.0528 -109.3675 60.1207
# 2 5.5085 114.8690 59.3714 -12.0235 -18.2041 -21.3684
# 3 8.2208 59.3714 121.0296 12.4452 -2.1153 -7.1785
# 4 -182.0528 -12.0235 12.4452 -644.2279 -487.6853 292.5063
# 5 -109.3675 -18.2041 -2.1153 -487.6853 -270.6739 182.5469
# 6 60.1207 -21.3684 -7.1785 292.5063 182.5469 -53.4908
#
#
#
# Elastic Compliance Matrix: (Units=1/GPa)
#
#
# Indices 1 2 3 4 5 6 
#
# 1 0.010748 -0.000425 -0.000430 -0.000363 -0.002539 0.001657
# 2 -0.000425 0.013481 -0.006209 0.000155 0.002909 0.005745
# 3 -0.000430 -0.006209 0.011275 -0.000508 0.000099 -0.001957
# 4 -0.000363 0.000155 -0.000508 0.004681 -0.006683 0.002388
# 5 -0.002539 0.002909 0.000099 -0.006683 0.013973 0.007114
# 6 0.001657 0.005745 -0.001957 0.002388 0.007114 0.018471
#
#
# Mechanical properties :
#
#
# Convention : Reuss Voigt Hill
#
# Bulk Modulus (GPa) = 46.78163 48.27036 47.52600
# Shear Modulus (GPa) = 53.25843 -179.33645 -63.03901
#
# Velocity S-wave (km/s) = 4.39592 -8.06658 -4.78255
# Velocity P-wave (km/s) = 6.53755 8.32138 3.64046
#
# Compressibility (1/GPa) = 0.02137591
#
# Stress axis : x y z
#
# Youngs Moduli (GPa) = 93.04240 74.17900 88.69028
#
# Poissons Ratio (x) = 0.03154 0.03816
# Poissons Ratio (y) = 0.03956 0.55064
# Poissons Ratio (z) = 0.04003 0.46054
#
# Static dielectric constant tensor:
#      x y z
#    x 2.306320 0.112210 0.044990 
#    y 0.112210 2.217670 0.070370 
#    z 0.044990 0.070370 2.035820 
# 
# From -- ./inp_files/95183.got.cif
#   From: 2010.05.17/outbox.cif.g08.bks.cpg/sg2_48_cif.got.tgz:95183.got - 2010.06.03 11:33:40.
