data_PCOD9064597
_publ_section_title
;
Structure prediction by ZEFSAII (Michael W. Deem and Ramdas Pophale) SiO2 
 PCOD9064597
Probable space group: P -1
;
_chemical_formula_sum "Si O2"
_cell_formula_units_Z 16
_cell_length_a 12.315371
_cell_length_b 11.583171
_cell_length_c 11.385074
_cell_angle_alpha 153.681490
_cell_angle_beta 121.824928
_cell_angle_gamma 57.507870
_cell_volume 602.767660
_symmetry_space_group_name_H-M "P -1"
_symmetry_group_IT_number 2
_symmetry_cell_setting 'triclinic'
loop_
_space_group_symop_operation_xyz
x,y,z
-x,-y,-z
loop_
_atom_site_type_symbol
_atom_site_label
_atom_site_fract_x
_atom_site_fract_y
_atom_site_fract_z
Si Si1 0.511499 0.115601 0.903439
Si Si2 0.927978 0.868667 0.080554
Si Si3 0.126848 0.902069 0.401569
Si Si4 0.714660 0.574888 0.800825
Si Si5 0.496654 0.319697 0.697492
Si Si6 0.723122 0.322222 0.347074
Si Si7 0.128275 0.302239 0.360511
Si Si8 0.725834 0.908590 0.524230
O O1 0.385441 0.195994 0.985497
O O2 0.509865 0.380873 0.068748
O O3 0.640478 0.117251 0.056814
O O4 0.510562 0.865511 0.591815
O O5 0.066587 0.797972 0.154035
O O6 0.859243 0.169429 0.336976
O O7 0.837387 0.694772 0.936054
O O8 0.913243 0.842394 0.909625
O O9 0.229507 0.676350 0.315546
O O10 0.198187 0.127270 0.589339
O O11 0.000000 0.000000 0.500000
O O12 0.652447 0.473068 0.555254
O O13 0.632023 0.190039 0.715550
O O14 0.378196 0.278080 0.675296
O O15 0.763802 0.525360 0.461692
O O16 0.000000 0.500000 0.500000
O O17 0.180968 0.126021 0.341031
#
# Coordination Sequence:
#
# PCOD9064597 Si02
#       8
#     2   2   2   2   2   2   2   2
#     4  12  26  48  78 109 153 194 259 311 381 451
#     4  11  26  45  73 103 148 199 247 310 376 454
#     4  12  25  47  76 107 150 198 252 308 376 457
#     4  11  26  45  71 108 147 196 249 310 376 448
#     4  11  27  50  76 114 147 201 252 318 380 451
#     4  11  24  46  70 102 150 188 252 306 375 453
#     4  11  25  45  70 109 142 195 249 310 377 447
#     4  11  25  48  77 106 154 192 253 315 379 448
#
# _framework density 26.544224
#
# number of rings (size 3 to 8) (size 9 to 14) (size 15 to 20)
#    0.000    0.750    3.750    2.250    7.000    6.500 
#    2.250    0.000    0.000    0.000    0.000    0.000 
#    0.000    0.000    0.000    0.000    0.000    0.000 
#
# Total GULP energy -89733.029090 kJ/mol
# GULP energy per Si atom -5608.314318 kJ/mol
# Density = 2.648381 g / cm^3
# Si number density = 26.544224 Si / 1000 Ang^3
#
#
#
# Elastic Constant Matrix: (Units=GPa)
#
#
# Indices 1 2 3 4 5 6 
#
# 1 149.5420 63.5048 39.9259 -10.0501 -12.9854 9.3378
# 2 63.5048 162.0545 25.1284 -12.5150 3.6954 7.6675
# 3 39.9259 25.1284 104.0569 -18.6409 -22.8503 0.6035
# 4 -10.0501 -12.5150 -18.6409 37.0520 2.6813 6.5250
# 5 -12.9854 3.6954 -22.8503 2.6813 29.5698 0.7896
# 6 9.3378 7.6675 0.6035 6.5250 0.7896 50.2294
#
#
#
# Elastic Compliance Matrix: (Units=1/GPa)
#
#
# Indices 1 2 3 4 5 6 
#
# 1 0.008897 -0.003157 -0.001966 0.000375 0.002782 -0.001241
# 2 -0.003157 0.007817 -0.001124 0.001593 -0.003356 -0.000747
# 3 -0.001966 -0.001124 0.013653 0.005362 0.009354 -0.000471
# 4 0.000375 0.001593 0.005362 0.031004 0.001416 -0.004427
# 5 0.002782 -0.003356 0.009354 0.001416 0.042585 -0.000971
# 6 -0.001241 -0.000747 -0.000471 -0.004427 -0.000971 0.020849
#
#
# Mechanical properties :
#
#
# Convention : Reuss Voigt Hill
#
# Bulk Modulus (GPa) = 55.94935 74.75241 65.35088
# Shear Modulus (GPa) = 34.90217 42.50986 38.70601
#
# Velocity S-wave (km/s) = 3.63005 4.00618 3.82274
# Velocity P-wave (km/s) = 6.22038 7.04428 6.64512
#
# Compressibility (1/GPa) = 0.01787331
#
# Stress axis : x y z
#
# Youngs Moduli (GPa) = 112.39678 127.92294 73.24275
#
# Poissons Ratio (x) = 0.40391 0.14400
# Poissons Ratio (y) = 0.35488 0.08229
# Poissons Ratio (z) = 0.22098 0.14373
#
# Static dielectric constant tensor:
#      x y z
#    x 2.133710 0.037250 -0.029370 
#    y 0.037250 2.087730 -0.069120 
#    z -0.029370 -0.069120 2.184580 
# 
# From -- ./inp_files/97523.got.cif
#   From: 2010.05.17/outbox.cif.g08.bks.cpg/sg2_49_cif.got.tgz:97523.got - 2010.06.03 11:33:40.
