data_PCOD9064942
_publ_section_title
;
Structure prediction by ZEFSAII (Michael W. Deem and Ramdas Pophale) SiO2 
 PCOD9064942
Probable space group: P -1
;
_chemical_formula_sum "Si O2"
_cell_formula_units_Z 16
_cell_length_a 17.294145
_cell_length_b 12.296749
_cell_length_c 5.165448
_cell_angle_alpha 122.469987
_cell_angle_beta 96.879790
_cell_angle_gamma 47.190316
_cell_volume 624.336084
_symmetry_space_group_name_H-M "P -1"
_symmetry_group_IT_number 2
_symmetry_cell_setting 'triclinic'
loop_
_space_group_symop_operation_xyz
x,y,z
-x,-y,-z
loop_
_atom_site_type_symbol
_atom_site_label
_atom_site_fract_x
_atom_site_fract_y
_atom_site_fract_z
Si Si1 0.268483 0.527523 0.831346
Si Si2 0.445885 0.634064 0.400843
Si Si3 0.081091 0.834596 0.521914
Si Si4 0.754517 0.804634 0.239190
Si Si5 0.835307 0.834729 0.805456
Si Si6 0.240282 0.802617 0.821022
Si Si7 0.509226 0.117123 0.337173
Si Si8 0.912733 0.410277 0.504635
O O1 0.292547 0.628828 0.804637
O O2 0.381910 0.304556 0.630407
O O3 0.170680 0.566261 0.690058
O O4 0.206087 0.645032 0.216475
O O5 0.500000 0.500000 0.500000
O O6 0.316002 0.741840 0.520580
O O7 0.458956 0.774119 0.611045
O O8 0.500000 0.500000 0.000000
O O9 0.115924 0.895574 0.827030
O O10 0.033418 0.757985 0.492520
O O11 0.000000 0.000000 0.500000
O O12 0.796240 0.772455 0.508274
O O13 0.616625 0.957494 0.364847
O O14 0.786521 0.874441 0.125264
O O15 0.829052 0.600692 0.881300
O O16 0.972953 0.670461 0.676373
O O17 0.781990 0.024442 0.880490
O O18 0.500000 0.000000 0.000000
#
# Coordination Sequence:
#
# PCOD9064942 Si02
#       8
#     2   2   2   2   2   2   2   2
#     4  11  24  46  76 112 154 203 256 322 397 464
#     4  12  27  48  79 110 152 208 259 319 385 459
#     4  11  25  45  77 111 149 199 255 324 393 458
#     4  12  29  49  76 113 151 213 255 316 390 468
#     4  12  28  48  78 111 152 201 266 320 387 465
#     4  11  25  45  74 113 148 196 263 319 388 460
#     4  12  26  50  79 116 164 207 265 324 396 481
#     4  11  26  47  74 110 155 201 258 323 387 466
#
# _framework density 25.627226
#
# number of rings (size 3 to 8) (size 9 to 14) (size 15 to 20)
#    0.000    0.500    3.750    3.000    8.750    2.000 
#    4.500    3.125    0.000    0.000    0.000    0.000 
#    0.000    0.000    0.000    0.000    0.000    0.000 
#
# Total GULP energy -89418.710990 kJ/mol
# GULP energy per Si atom -5588.669437 kJ/mol
# Density = 2.556890 g / cm^3
# Si number density = 25.627226 Si / 1000 Ang^3
#
#
#
# Elastic Constant Matrix: (Units=GPa)
#
#
# Indices 1 2 3 4 5 6 
#
# 1 110.9589 35.9874 26.7727 8.9899 -3.5133 -3.2091
# 2 35.9874 106.6665 25.3139 25.5991 -4.7669 10.6534
# 3 26.7727 25.3139 114.7111 24.0682 -4.7012 7.3553
# 4 8.9899 25.5991 24.0682 52.7043 -4.6280 1.6829
# 5 -3.5133 -4.7669 -4.7012 -4.6280 46.8048 11.9670
# 6 -3.2091 10.6534 7.3553 1.6829 11.9670 55.9227
#
#
#
# Elastic Compliance Matrix: (Units=1/GPa)
#
#
# Indices 1 2 3 4 5 6 
#
# 1 0.010582 -0.003427 -0.001960 0.000700 -0.000069 0.001512
# 2 -0.003427 0.012148 -0.000661 -0.004840 0.001077 -0.002509
# 3 -0.001960 -0.000661 0.010264 -0.003919 0.000784 -0.001386
# 4 0.000700 -0.004840 -0.003919 0.023095 0.001322 0.000500
# 5 -0.000069 0.001077 0.000784 0.001322 0.023029 -0.005280
# 6 0.001512 -0.002509 -0.001386 0.000500 -0.005280 0.019744
#
#
# Mechanical properties :
#
#
# Convention : Reuss Voigt Hill
#
# Bulk Modulus (GPa) = 47.85036 56.49828 52.17432
# Shear Modulus (GPa) = 42.40061 47.37052 44.88557
#
# Velocity S-wave (km/s) = 4.07198 4.30402 4.18961
# Velocity P-wave (km/s) = 6.38908 6.84058 6.61868
#
# Compressibility (1/GPa) = 0.02089848
#
# Stress axis : x y z
#
# Youngs Moduli (GPa) = 94.50400 82.31716 97.42731
#
# Poissons Ratio (x) = 0.28210 0.19097
# Poissons Ratio (y) = 0.32387 0.06435
# Poissons Ratio (z) = 0.18524 0.05437
#
# Static dielectric constant tensor:
#      x y z
#    x 1.757070 0.128550 0.355130 
#    y 0.128550 2.001530 -0.068190 
#    z 0.355130 -0.068190 1.579580 
# 
# From -- ./inp_files/109859.got.cif
#   From: 2010.05.17/outbox.cif.g08.bks.cpg/sg2_55_cif.got.tgz:109859.got - 2010.06.03 11:33:40.
