data_PCOD9064382
_publ_section_title
;
Structure prediction by ZEFSAII (Michael W. Deem and Ramdas Pophale) SiO2 
 PCOD9064382
Probable space group: P -1
;
_chemical_formula_sum "Si O2"
_cell_formula_units_Z 10
_cell_length_a 9.608176
_cell_length_b 5.565282
_cell_length_c 16.791404
_cell_angle_alpha 58.196744
_cell_angle_beta 144.762518
_cell_angle_gamma 106.224835
_cell_volume 418.860601
_symmetry_space_group_name_H-M "P -1"
_symmetry_group_IT_number 2
_symmetry_cell_setting 'triclinic'
loop_
_space_group_symop_operation_xyz
x,y,z
-x,-y,-z
loop_
_atom_site_type_symbol
_atom_site_label
_atom_site_fract_x
_atom_site_fract_y
_atom_site_fract_z
Si Si1 0.564690 0.974805 0.942378
Si Si2 0.841429 0.811035 0.414078
Si Si3 0.459548 0.124547 0.581340
Si Si4 0.744546 0.458979 0.854764
Si Si5 0.880513 0.389794 0.755286
O O1 0.338229 0.985816 0.773477
O O2 0.644018 0.259019 0.901303
O O3 0.500000 0.000000 0.000000
O O4 0.821584 0.703141 0.101253
O O5 0.668881 0.745583 0.416550
O O6 0.000000 0.500000 0.500000
O O7 0.000000 0.000000 0.500000
O O8 0.713829 0.210556 0.663807
O O9 0.254596 0.272386 0.392650
O O10 0.537213 0.774558 0.688925
O O11 0.828615 0.317739 0.833378
O O12 0.000000 0.500000 0.000000
#
# Coordination Sequence:
#
# PCOD9064382 Si02
#       5
#     2   2   2   2   2
#     4  12  26  49  77 114 158 202 260 325 396 467
#     4  12  27  49  76 111 160 207 259 326 401 468
#     4  11  24  45  75 106 147 196 258 316 381 466
#     4  12  23  44  76 109 146 199 260 317 383 468
#     4  11  24  45  74 108 145 196 257 315 389 460
#
# _framework density 23.874290999999999
#
# number of rings (size 3 to 8) (size 9 to 14) (size 15 to 20)
#    0.000    0.400    4.000    4.800    0.000    1.600 
#    0.000    6.000    0.000    0.000    0.000    0.000 
#    0.000    0.000    0.000    0.000    0.000    0.000 
#
# Total GULP energy -55976.426254 kJ/mol
# GULP energy per Si atom -5597.642625 kJ/mol
# Density = 2.381995 g / cm^3
# Si number density = 23.874291 Si / 1000 Ang^3
#
#
#
# Elastic Constant Matrix: (Units=GPa)
#
#
# Indices 1 2 3 4 5 6 
#
# 1 140.4448 18.2574 59.2921 14.2610 -15.4390 -16.4034
# 2 18.2574 81.4033 66.7522 13.7218 6.2164 -5.9226
# 3 59.2921 66.7522 224.2301 4.3484 0.7983 1.3744
# 4 14.2610 13.7218 4.3484 51.4362 4.3474 5.5981
# 5 -15.4390 6.2164 0.7983 4.3474 48.1263 -9.7213
# 6 -16.4034 -5.9226 1.3744 5.5981 -9.7213 22.9077
#
#
#
# Elastic Compliance Matrix: (Units=1/GPa)
#
#
# Indices 1 2 3 4 5 6 
#
# 1 0.011008 0.001579 -0.003381 -0.005077 0.006353 0.012431
# 2 0.001579 0.018137 -0.005755 -0.005653 0.000322 0.007683
# 3 -0.003381 -0.005755 0.007058 0.002662 -0.001865 -0.005775
# 4 -0.005077 -0.005653 0.002662 0.024114 -0.005877 -0.013644
# 5 0.006353 0.000322 -0.001865 -0.005877 0.026891 0.017592
# 6 0.012431 0.007683 -0.005775 -0.013644 0.017592 0.065687
#
#
# Mechanical properties :
#
#
# Convention : Reuss Voigt Hill
#
# Bulk Modulus (GPa) = 47.42178 81.63130 64.52654
# Shear Modulus (GPa) = 28.56489 44.61247 36.58868
#
# Velocity S-wave (km/s) = 3.46276 4.32747 3.91903
# Velocity P-wave (km/s) = 5.99114 7.69647 6.89672
#
# Compressibility (1/GPa) = 0.02108736
#
# Stress axis : x y z
#
# Youngs Moduli (GPa) = 90.84089 55.13482 141.69195
#
# Poissons Ratio (x) = -0.08705 0.47909
# Poissons Ratio (y) = -0.14342 0.81551
# Poissons Ratio (z) = 0.30715 0.31733
#
# Static dielectric constant tensor:
#      x y z
#    x 1.930550 -0.307010 -0.097330 
#    y -0.307010 5.800110 1.686380 
#    z -0.097330 1.686380 2.674340 
# 
# From -- ./inp_files/15932.got.cif
#   From: 2010.05.17/outbox.cif.g08.bks.cpg/sg2_8_cif.got.tgz:15932.got - 2010.06.03 11:33:40.
