data_PCOD9064689
_publ_section_title
;
Structure prediction by ZEFSAII (Michael W. Deem and Ramdas Pophale) SiO2 
 PCOD9064689
Probable space group: P -1
;
_chemical_formula_sum "Si O2"
_cell_formula_units_Z 10
_cell_length_a 8.649665
_cell_length_b 8.091889
_cell_length_c 9.084469
_cell_angle_alpha 82.083653
_cell_angle_beta 114.830882
_cell_angle_gamma 57.245833
_cell_volume 426.239910
_symmetry_space_group_name_H-M "P -1"
_symmetry_group_IT_number 2
_symmetry_cell_setting 'triclinic'
loop_
_space_group_symop_operation_xyz
x,y,z
-x,-y,-z
loop_
_atom_site_type_symbol
_atom_site_label
_atom_site_fract_x
_atom_site_fract_y
_atom_site_fract_z
Si Si1 0.650771 0.826175 0.950190
Si Si2 0.969023 0.452069 0.656893
Si Si3 0.432006 0.332724 0.325166
Si Si4 0.931274 0.086876 0.625769
Si Si5 0.032822 0.803334 0.959590
O O1 0.505265 0.827646 0.767658
O O2 0.814155 0.837766 0.915905
O O3 0.841387 0.600327 0.147909
O O4 0.500000 0.000000 0.000000
O O5 0.725364 0.644689 0.612596
O O6 0.998260 0.230204 0.686378
O O7 0.000000 0.500000 0.500000
O O8 0.655826 0.260674 0.496914
O O9 0.259807 0.572136 0.144195
O O10 0.032671 0.866753 0.785729
O O11 0.000000 0.000000 0.500000
O O12 0.000000 0.000000 0.000000
#
# Coordination Sequence:
#
# PCOD9064689 Si02
#       5
#     2   2   2   2   2
#     4  11  25  46  70 103 139 188 230 284 355 411
#     4  11  25  45  69 103 139 182 234 287 348 413
#     4  11  26  47  72  99 145 186 229 292 351 406
#     4  12  27  45  70 106 139 186 236 283 350 415
#     4  11  24  46  71  99 144 181 236 286 342 420
#
# _framework density 23.460965000000002
#
# number of rings (size 3 to 8) (size 9 to 14) (size 15 to 20)
#    0.000    0.800    4.000    4.200    8.400    1.600 
#    0.000    0.000    0.000    0.000    0.000    0.000 
#    0.000    0.000    0.000    0.000    0.000    0.000 
#
# Total GULP energy -55889.224050 kJ/mol
# GULP energy per Si atom -5588.922405 kJ/mol
# Density = 2.340757 g / cm^3
# Si number density = 23.460965 Si / 1000 Ang^3
#
#
#
# Elastic Constant Matrix: (Units=GPa)
#
#
# Indices 1 2 3 4 5 6 
#
# 1 56.3887 2.7294 52.2714 -7.8553 -25.7779 -5.6664
# 2 2.7294 69.4962 -11.3717 11.6042 -13.0580 -10.6355
# 3 52.2714 -11.3717 101.1615 10.1122 -26.8048 1.8427
# 4 -7.8553 11.6042 10.1122 40.7259 -13.2206 -1.9021
# 5 -25.7779 -13.0580 -26.8048 -13.2206 62.6663 9.2191
# 6 -5.6664 -10.6355 1.8427 -1.9021 9.2191 43.4032
#
#
#
# Elastic Compliance Matrix: (Units=1/GPa)
#
#
# Indices 1 2 3 4 5 6 
#
# 1 0.052855 -0.007310 -0.027143 0.023410 0.012878 0.004552
# 2 -0.007310 0.017759 0.006937 -0.007522 0.001720 0.002408
# 3 -0.027143 0.006937 0.025859 -0.014164 -0.001159 -0.003316
# 4 0.023410 -0.007522 -0.014164 0.037980 0.009811 0.001395
# 5 0.012878 0.001720 -0.001159 0.009811 0.023543 -0.002419
# 6 0.004552 0.002408 -0.003316 0.001395 -0.002419 0.024940
#
#
# Mechanical properties :
#
#
# Convention : Reuss Voigt Hill
#
# Bulk Modulus (GPa) = 24.13056 34.92273 29.52665
# Shear Modulus (GPa) = 19.85842 41.58689 30.72266
#
# Velocity S-wave (km/s) = 2.91253 4.21479 3.62266
# Velocity P-wave (km/s) = 4.64953 6.21319 5.48735
#
# Compressibility (1/GPa) = 0.04144122
#
# Stress axis : x y z
#
# Youngs Moduli (GPa) = 18.91972 56.30915 38.67064
#
# Poissons Ratio (x) = 0.41162 1.04965
# Poissons Ratio (y) = 0.13830 -0.26827
# Poissons Ratio (z) = 0.51354 -0.39063
#
# Static dielectric constant tensor:
#      x y z
#    x 1.887120 0.028100 -0.079570 
#    y 0.028100 1.926960 0.030110 
#    z -0.079570 0.030110 1.908430 
# 
# From -- ./inp_files/143881.got.cif
#   From: 2010.05.17/outbox.cif.g08.bks.cpg/sg2_72_cif.got.tgz:143881.got - 2010.06.03 11:33:40.
