data_PCOD9064722
_publ_section_title
;
Structure prediction by ZEFSAII (Michael W. Deem and Ramdas Pophale) SiO2 
 PCOD9064722
Probable space group: P -1
;
_chemical_formula_sum "Si O2"
_cell_formula_units_Z 16
_cell_length_a 12.987102
_cell_length_b 9.258952
_cell_length_c 8.577338
_cell_angle_alpha 110.573507
_cell_angle_beta 61.748882
_cell_angle_gamma 125.790811
_cell_volume 732.942948
_symmetry_space_group_name_H-M "P -1"
_symmetry_group_IT_number 2
_symmetry_cell_setting 'triclinic'
loop_
_space_group_symop_operation_xyz
x,y,z
-x,-y,-z
loop_
_atom_site_type_symbol
_atom_site_label
_atom_site_fract_x
_atom_site_fract_y
_atom_site_fract_z
Si Si1 0.268136 0.346074 0.734643
Si Si2 0.161523 0.754165 0.607767
Si Si3 0.329445 0.739814 0.759351
Si Si4 0.347088 0.338520 0.029540
Si Si5 0.988552 0.834480 0.347013
Si Si6 0.297366 0.989237 0.101942
Si Si7 0.128138 0.410289 0.368036
Si Si8 0.621711 0.878390 0.557969
O O1 0.300694 0.546004 0.756379
O O2 0.114045 0.214893 0.740814
O O3 0.357251 0.289354 0.544769
O O4 0.298712 0.325031 0.882115
O O5 0.213445 0.730859 0.728049
O O6 0.175294 0.618719 0.426839
O O7 0.003045 0.691356 0.688210
O O8 0.258926 0.955803 0.557658
O O9 0.471985 0.831279 0.599454
O O10 0.339798 0.857358 0.945326
O O11 0.246767 0.375868 0.219835
O O12 0.335705 0.154936 0.023145
O O13 0.500000 0.500000 0.000000
O O14 0.925165 0.671922 0.453518
O O15 0.135762 0.883307 0.204256
O O16 0.000000 0.000000 0.500000
O O17 0.361537 0.067912 0.253017
#
# Coordination Sequence:
#
# PCOD9064722 Si02
#       8
#     2   2   2   2   2   2   2   2
#     4  12  27  46  75 106 142 195 242 298 365 435
#     4  11  25  44  74 103 142 192 241 294 361 423
#     4  12  28  44  72 110 149 185 244 305 356 429
#     4  12  29  46  75 108 151 187 243 297 365 427
#     4  12  22  48  76 105 139 193 243 298 354 435
#     4  12  27  46  75 108 147 188 244 299 363 422
#     4  11  24  46  72 105 142 189 238 297 358 428
#     4  12  25  48  74 102 149 195 242 290 370 434
#
# _framework density 21.829803999999999
#
# number of rings (size 3 to 8) (size 9 to 14) (size 15 to 20)
#    0.000    0.250    5.000    2.625    7.000    1.000 
#    0.000    0.000    0.000    0.000    0.000    0.000 
#    0.000    0.000    0.000    0.000    0.000    0.000 
#
# Total GULP energy -89632.444286 kJ/mol
# GULP energy per Si atom -5602.027768 kJ/mol
# Density = 2.178012 g / cm^3
# Si number density = 21.829804 Si / 1000 Ang^3
#
#
#
# Elastic Constant Matrix: (Units=GPa)
#
#
# Indices 1 2 3 4 5 6 
#
# 1 86.4970 25.8820 27.8759 -9.0024 11.3544 8.0873
# 2 25.8820 128.0703 51.2697 15.3553 -6.3215 -12.2822
# 3 27.8759 51.2697 78.7200 11.0700 -7.6877 -1.9068
# 4 -9.0024 15.3553 11.0700 27.6797 -7.0601 -9.8784
# 5 11.3544 -6.3215 -7.6877 -7.0601 52.1392 -4.1014
# 6 8.0873 -12.2822 -1.9068 -9.8784 -4.1014 34.8292
#
#
#
# Elastic Compliance Matrix: (Units=1/GPa)
#
#
# Indices 1 2 3 4 5 6 
#
# 1 0.015411 -0.002236 -0.005330 0.006211 -0.003835 -0.003349
# 2 -0.002236 0.011430 -0.006036 -0.003234 0.000812 0.003398
# 3 -0.005330 -0.006036 0.019577 -0.006050 0.002398 -0.001253
# 4 0.006211 -0.003234 -0.006050 0.047519 0.004672 0.011114
# 5 -0.003835 0.000812 0.002398 0.004672 0.021506 0.005166
# 6 -0.003349 0.003398 -0.001253 0.011114 0.005166 0.034379
#
#
# Mechanical properties :
#
#
# Convention : Reuss Voigt Hill
#
# Bulk Modulus (GPa) = 52.04702 55.92694 53.98698
# Shear Modulus (GPa) = 27.25826 35.48025 31.36925
#
# Velocity S-wave (km/s) = 3.53749 4.03589 3.79488
# Velocity P-wave (km/s) = 6.37017 6.88426 6.63220
#
# Compressibility (1/GPa) = 0.01921339
#
# Stress axis : x y z
#
# Youngs Moduli (GPa) = 64.88941 87.48730 51.08117
#
# Poissons Ratio (x) = 0.19560 0.27227
# Poissons Ratio (y) = 0.14508 0.30834
# Poissons Ratio (z) = 0.34587 0.52810
#
# Static dielectric constant tensor:
#      x y z
#    x 1.793190 -0.001880 0.001370 
#    y -0.001880 1.802250 0.006320 
#    z 0.001370 0.006320 1.773880 
# 
# From -- ./inp_files/242688.got.cif
#   From: 2010.05.17/outbox.cif.g08.bks.cpg/sg2_122_cif.got.tgz:242688.got - 2010.06.03 11:33:40.
