data_PCOD9064192
_publ_section_title
;
Structure prediction by ZEFSAII (Michael W. Deem and Ramdas Pophale) SiO2 
 PCOD9064192
Probable space group: P -1
;
_chemical_formula_sum "Si O2"
_cell_formula_units_Z 14
_cell_length_a 8.815204
_cell_length_b 13.974160
_cell_length_c 9.254845
_cell_angle_alpha 56.136310
_cell_angle_beta 58.587443
_cell_angle_gamma 100.205854
_cell_volume 607.074403
_symmetry_space_group_name_H-M "P -1"
_symmetry_group_IT_number 2
_symmetry_cell_setting 'triclinic'
loop_
_space_group_symop_operation_xyz
x,y,z
-x,-y,-z
loop_
_atom_site_type_symbol
_atom_site_label
_atom_site_fract_x
_atom_site_fract_y
_atom_site_fract_z
Si Si1 0.158374 0.808230 0.153818
Si Si2 0.065868 0.827225 0.859336
Si Si3 0.296329 0.921343 0.385334
Si Si4 0.069837 0.602049 0.610808
Si Si5 0.345401 0.507053 0.681060
Si Si6 0.536861 0.390221 0.144926
Si Si7 0.040594 0.080909 0.631298
O O1 0.081413 0.657433 0.396620
O O2 0.032263 0.859796 0.256683
O O3 0.098994 0.787851 0.032746
O O4 0.439620 0.945794 0.911800
O O5 0.285293 0.911219 0.571664
O O6 0.859391 0.667300 0.018826
O O7 0.999111 0.932152 0.820737
O O8 0.183134 0.757051 0.514351
O O9 0.125230 0.950492 0.391877
O O10 0.229279 0.562168 0.605365
O O11 0.200282 0.536465 0.091572
O O12 0.500000 0.500000 0.500000
O O13 0.472598 0.605002 0.680154
O O14 0.318294 0.218938 0.346632
O O15 0.500000 0.500000 0.000000
#
# Coordination Sequence:
#
# PCOD9064192 Si02
#       7
#     2   2   2   2   2   2   2
#     4  11  25  44  72 104 143 185 233 288 351 415
#     4  12  26  45  66 111 139 182 237 285 353 413
#     4  11  24  45  72 102 143 185 232 289 351 417
#     4  11  25  48  70 100 146 190 234 281 360 417
#     4  12  29  46  73 104 145 184 235 297 350 415
#     4  12  23  49  75 103 141 189 235 284 351 427
#     4  11  24  45  75 103 141 187 231 287 350 419
#
# _framework density 23.061423000000001
#
# number of rings (size 3 to 8) (size 9 to 14) (size 15 to 20)
#    0.000    0.571    4.286    4.286    6.000    1.714 
#    0.000    0.000    0.000    0.000    0.000    0.000 
#    0.000    0.000    0.000    0.000    0.000    0.000 
#
# Total GULP energy -78437.653806 kJ/mol
# GULP energy per Si atom -5602.689558 kJ/mol
# Density = 2.300893 g / cm^3
# Si number density = 23.061423 Si / 1000 Ang^3
#
#
#
# Elastic Constant Matrix: (Units=GPa)
#
#
# Indices 1 2 3 4 5 6 
#
# 1 139.1584 48.3579 51.0714 -0.7450 9.5295 -12.7588
# 2 48.3579 57.2176 37.1098 -7.6551 13.2518 -5.6758
# 3 51.0714 37.1098 111.5609 14.2859 0.7934 -7.1691
# 4 -0.7450 -7.6551 14.2859 46.5671 4.4617 4.2882
# 5 9.5295 13.2518 0.7934 4.4617 56.7101 -3.5622
# 6 -12.7588 -5.6758 -7.1691 4.2882 -3.5622 41.6726
#
#
#
# Elastic Compliance Matrix: (Units=1/GPa)
#
#
# Indices 1 2 3 4 5 6 
#
# 1 0.010815 -0.007630 -0.002211 -0.000600 0.000168 0.001968
# 2 -0.007630 0.031815 -0.008164 0.008336 -0.006747 -0.000842
# 3 -0.002211 -0.008164 0.013516 -0.005903 0.002640 0.001370
# 4 -0.000600 0.008336 -0.005903 0.025301 -0.003944 -0.003005
# 5 0.000168 -0.006747 0.002640 -0.003944 0.019560 0.001664
# 6 0.001968 -0.000842 0.001370 -0.003005 0.001664 0.025171
#
#
# Mechanical properties :
#
#
# Convention : Reuss Voigt Hill
#
# Bulk Modulus (GPa) = 49.65933 64.55724 57.10829
# Shear Modulus (GPa) = 29.60352 40.41648 35.01000
#
# Velocity S-wave (km/s) = 3.58674 4.19090 3.90053
# Velocity P-wave (km/s) = 6.22360 7.17444 6.71587
#
# Compressibility (1/GPa) = 0.02013720
#
# Stress axis : x y z
#
# Youngs Moduli (GPa) = 92.46770 31.43178 73.98451
#
# Poissons Ratio (x) = 0.23983 0.16354
# Poissons Ratio (y) = 0.70556 0.60397
# Poissons Ratio (z) = 0.20440 0.25659
#
# Static dielectric constant tensor:
#      x y z
#    x 1.842300 0.019530 -0.007780 
#    y 0.019530 1.869470 0.039290 
#    z -0.007780 0.039290 1.891560 
# 
# From -- ./inp_files/205505.got.cif
#   From: 2010.05.17/outbox.cif.g08.bks.cpg/sg2_103_cif.got.tgz:205505.got - 2010.06.03 11:33:40.
