data_PCOD9064169
_publ_section_title
;
Structure prediction by ZEFSAII (Michael W. Deem and Ramdas Pophale) SiO2 
 PCOD9064169
Probable space group: P -1
;
_chemical_formula_sum "Si O2"
_cell_formula_units_Z 14
_cell_length_a 17.901328
_cell_length_b 22.203588
_cell_length_c 12.471916
_cell_angle_alpha 25.063224
_cell_angle_beta 34.434024
_cell_angle_gamma 16.904547
_cell_volume 574.177506
_symmetry_space_group_name_H-M "P -1"
_symmetry_group_IT_number 2
_symmetry_cell_setting 'triclinic'
loop_
_space_group_symop_operation_xyz
x,y,z
-x,-y,-z
loop_
_atom_site_type_symbol
_atom_site_label
_atom_site_fract_x
_atom_site_fract_y
_atom_site_fract_z
Si Si1 0.374506 0.489532 0.231128
Si Si2 0.214913 0.639505 0.406142
Si Si3 0.210408 0.290118 0.431106
Si Si4 0.072584 0.161160 0.376885
Si Si5 0.019497 0.263304 0.871246
Si Si6 0.770409 0.226076 0.499209
Si Si7 0.226302 0.313703 0.872867
O O1 0.183136 0.701094 0.218485
O O2 0.225225 0.534819 0.247435
O O3 0.642981 0.160679 0.490463
O O4 0.500000 0.500000 0.000000
O O5 0.463507 0.502363 0.374025
O O6 0.296964 0.394868 0.715211
O O7 0.958012 0.877155 0.406505
O O8 0.107270 0.542394 0.186799
O O9 0.208262 0.197361 0.691188
O O10 0.990145 0.449279 0.347017
O O11 0.500000 0.000000 0.500000
O O12 0.830623 0.313499 0.351981
O O13 0.095321 0.308902 0.104263
O O14 0.164484 0.976828 0.181808
O O15 0.000000 0.000000 0.500000
O O16 0.500000 0.000000 0.000000
#
# Coordination Sequence:
#
# PCOD9064169 Si02
#       7
#     2   2   2   2   2   2   2
#     4  12  24  47  69 101 139 184 227 288 358 420
#     4  12  26  44  72 104 138 182 241 289 347 419
#     4  11  26  44  71 106 138 183 235 292 352 416
#     4  12  26  43  73 104 138 183 238 290 350 419
#     4  11  24  45  71  97 144 180 227 286 358 418
#     4  12  23  48  71 101 141 188 229 291 353 421
#     4  12  23  48  73 103 144 187 237 293 356 421
#
# _framework density 24.382704
#
# number of rings (size 3 to 8) (size 9 to 14) (size 15 to 20)
#    0.000    0.286    5.714    2.571    4.000    1.714 
#    5.143    0.000    0.000    0.000    0.000    0.000 
#    0.000    0.000    0.000    0.000    0.000    0.000 
#
# Total GULP energy -78337.108556 kJ/mol
# GULP energy per Si atom -5595.507754 kJ/mol
# Density = 2.432721 g / cm^3
# Si number density = 24.382704 Si / 1000 Ang^3
#
#
#
# Elastic Constant Matrix: (Units=GPa)
#
#
# Indices 1 2 3 4 5 6 
#
# 1 90.1182 19.9852 0.0951 6.5044 -16.8749 -11.4726
# 2 19.9852 131.2181 19.6380 13.6955 -3.7791 22.4546
# 3 0.0951 19.6380 87.5614 32.2317 -10.5541 -0.7253
# 4 6.5044 13.6955 32.2317 47.0629 -2.6430 9.5384
# 5 -16.8749 -3.7791 -10.5541 -2.6430 35.0681 0.4450
# 6 -11.4726 22.4546 -0.7253 9.5384 0.4450 37.0983
#
#
#
# Elastic Compliance Matrix: (Units=1/GPa)
#
#
# Indices 1 2 3 4 5 6 
#
# 1 0.014457 -0.003326 0.003281 -0.004415 0.007156 0.007597
# 2 -0.003326 0.009620 -0.002679 0.000868 -0.001214 -0.007112
# 3 0.003281 -0.002679 0.017318 -0.012466 0.005485 0.006114
# 4 -0.004415 0.000868 -0.012466 0.032057 -0.003235 -0.010338
# 5 0.007156 -0.001214 0.005485 -0.003235 0.033191 0.003489
# 6 0.007597 -0.007112 0.006114 -0.010338 0.003489 0.036345
#
#
# Mechanical properties :
#
#
# Convention : Reuss Voigt Hill
#
# Bulk Modulus (GPa) = 27.81868 43.14826 35.48347
# Shear Modulus (GPa) = 31.16858 41.79115 36.47987
#
# Velocity S-wave (km/s) = 3.57922 4.14450 3.87219
# Velocity P-wave (km/s) = 5.33995 6.37473 5.88015
#
# Compressibility (1/GPa) = 0.03594707
#
# Stress axis : x y z
#
# Youngs Moduli (GPa) = 69.17266 103.95159 57.74263
#
# Poissons Ratio (x) = 0.34574 -0.18945
# Poissons Ratio (y) = 0.23007 0.15468
# Poissons Ratio (z) = -0.22695 0.27846
#
# Static dielectric constant tensor:
#      x y z
#    x 1.931660 0.046180 -0.030920 
#    y 0.046180 1.893790 0.031530 
#    z -0.030920 0.031530 1.975020 
# 
# From -- ./inp_files/467029.got.cif
#   From: 2010.05.17/outbox.cif.g08.bks.cpg/sg2_234_cif.got.tgz:467029.got - 2010.06.03 11:33:40.
