data_PCOD9064318
_publ_section_title
;
Structure prediction by ZEFSAII (Michael W. Deem and Ramdas Pophale) SiO2 
 PCOD9064318
Probable space group: P -1
;
_chemical_formula_sum "Si O2"
_cell_formula_units_Z 14
_cell_length_a 9.136422
_cell_length_b 17.584076
_cell_length_c 8.333489
_cell_angle_alpha 126.828113
_cell_angle_beta 50.614242
_cell_angle_gamma 145.441225
_cell_volume 577.884030
_symmetry_space_group_name_H-M "P -1"
_symmetry_group_IT_number 2
_symmetry_cell_setting 'triclinic'
loop_
_space_group_symop_operation_xyz
x,y,z
-x,-y,-z
loop_
_atom_site_type_symbol
_atom_site_label
_atom_site_fract_x
_atom_site_fract_y
_atom_site_fract_z
Si Si1 0.722599 0.783983 0.241631
Si Si2 0.556789 0.292264 0.322096
Si Si3 0.106161 0.444250 0.772102
Si Si4 0.475601 0.435597 0.105521
Si Si5 0.257763 0.845636 0.914051
Si Si6 0.004030 0.945609 0.761441
Si Si7 0.107222 0.777533 0.582591
O O1 0.554505 0.726861 0.447962
O O2 0.842321 0.930334 0.309679
O O3 0.500000 0.500000 0.000000
O O4 0.535062 0.677332 0.092859
O O5 0.706540 0.440040 0.346893
O O6 0.730619 0.257051 0.153963
O O7 0.298914 0.180610 0.248436
O O8 0.193746 0.343439 0.281645
O O9 0.288225 0.458097 0.797795
O O10 0.886314 0.298341 0.656415
O O11 0.000000 0.500000 0.000000
O O12 0.288286 0.840494 0.694764
O O13 0.500000 0.000000 0.000000
O O14 0.980576 0.804136 0.090341
O O15 0.134162 0.890175 0.627960
O O16 0.000000 0.000000 0.000000
#
# Coordination Sequence:
#
# PCOD9064318 Si02
#       7
#     2   2   2   2   2   2   2
#     4  11  25  45  77 107 146 199 240 305 374 439
#     4  12  26  46  74 102 153 193 249 304 372 440
#     4  12  29  48  70 110 147 192 252 311 367 439
#     4  11  24  45  74 102 142 191 247 297 371 439
#     4  11  24  45  73 114 147 188 250 304 361 442
#     4  12  21  46  74 105 144 194 248 298 370 443
#     4  11  25  46  74 103 150 194 242 306 372 439
#
# _framework density 24.226315
#
# number of rings (size 3 to 8) (size 9 to 14) (size 15 to 20)
#    0.000    0.571    5.714    1.714    8.000    0.571 
#    0.000    0.714    0.000    0.000    0.000    0.000 
#    0.000    0.000    0.000    0.000    0.000    0.000 
#
# Total GULP energy -78413.586024 kJ/mol
# GULP energy per Si atom -5600.970430 kJ/mol
# Density = 2.417117 g / cm^3
# Si number density = 24.226315 Si / 1000 Ang^3
#
#
#
# Elastic Constant Matrix: (Units=GPa)
#
#
# Indices 1 2 3 4 5 6 
#
# 1 106.6940 24.1816 35.0463 19.7414 4.5510 -15.4788
# 2 24.1816 90.2125 31.1825 25.0178 1.7702 -23.1751
# 3 35.0463 31.1825 138.6499 24.6293 11.1358 7.2709
# 4 19.7414 25.0178 24.6293 56.4421 8.0251 6.0240
# 5 4.5510 1.7702 11.1358 8.0251 34.8812 12.4701
# 6 -15.4788 -23.1751 7.2709 6.0240 12.4701 41.7828
#
#
#
# Elastic Compliance Matrix: (Units=1/GPa)
#
#
# Indices 1 2 3 4 5 6 
#
# 1 0.011770 0.000315 -0.002578 -0.003484 -0.002114 0.006117
# 2 0.000315 0.017239 -0.003081 -0.007329 -0.002547 0.012031
# 3 -0.002578 -0.003081 0.009024 -0.001153 -0.000748 -0.003845
# 4 -0.003484 -0.007329 -0.001153 0.023752 -0.001346 -0.008177
# 5 -0.002114 -0.002547 -0.000748 -0.001346 0.033910 -0.011992
# 6 0.006117 0.012031 -0.003845 -0.008177 -0.011992 0.038300
#
#
# Mechanical properties :
#
#
# Convention : Reuss Voigt Hill
#
# Bulk Modulus (GPa) = 36.57084 57.37524 46.97304
# Shear Modulus (GPa) = 32.51046 42.96428 37.73737
#
# Velocity S-wave (km/s) = 3.66724 4.21581 3.95105
# Velocity P-wave (km/s) = 5.74976 6.88708 6.34396
#
# Compressibility (1/GPa) = 0.02734419
#
# Stress axis : x y z
#
# Youngs Moduli (GPa) = 84.96011 58.00922 110.81986
#
# Poissons Ratio (x) = -0.01828 0.28571
# Poissons Ratio (y) = -0.02678 0.34145
# Poissons Ratio (z) = 0.21904 0.17874
#
# Static dielectric constant tensor:
#      x y z
#    x 2.007040 -0.007630 -0.013610 
#    y -0.007630 1.988030 -0.086710 
#    z -0.013610 -0.086710 2.014030 
# 
# From -- ./inp_files/213437.got.cif
#   From: 2010.05.17/outbox.cif.g08.bks.cpg/sg2_107_cif.got.tgz:213437.got - 2010.06.03 11:33:40.
