data_PCOD9064818
_publ_section_title
;
Structure prediction by ZEFSAII (Michael W. Deem and Ramdas Pophale) SiO2 
 PCOD9064818
Probable space group: P -1
;
_chemical_formula_sum "Si O2"
_cell_formula_units_Z 16
_cell_length_a 21.216571
_cell_length_b 12.434686
_cell_length_c 9.098931
_cell_angle_alpha 133.316618
_cell_angle_beta 29.247174
_cell_angle_gamma 143.448755
_cell_volume 697.553169
_symmetry_space_group_name_H-M "P -1"
_symmetry_group_IT_number 2
_symmetry_cell_setting 'triclinic'
loop_
_space_group_symop_operation_xyz
x,y,z
-x,-y,-z
loop_
_atom_site_type_symbol
_atom_site_label
_atom_site_fract_x
_atom_site_fract_y
_atom_site_fract_z
Si Si1 0.088071 0.671792 0.589795
Si Si2 0.012402 0.846889 0.398464
Si Si3 0.920137 0.051243 0.328320
Si Si4 0.107517 0.462539 0.844146
Si Si5 0.420383 0.657136 0.550717
Si Si6 0.603957 0.709802 0.763565
Si Si7 0.379095 0.058228 0.790080
Si Si8 0.586041 0.213903 0.998745
O O1 0.131788 0.840842 0.558184
O O2 0.000000 0.500000 0.500000
O O3 0.251747 0.710184 0.344203
O O4 0.983575 0.636461 0.911860
O O5 0.982714 0.827014 0.614453
O O6 0.883877 0.670718 0.405432
O O7 0.000000 0.000000 0.500000
O O8 0.192743 0.906979 0.056939
O O9 0.785417 0.864131 0.501791
O O10 0.000000 0.000000 0.000000
O O11 0.280453 0.621704 0.695061
O O12 0.000000 0.500000 0.000000
O O13 0.428211 0.485500 0.357260
O O14 0.584646 0.843618 0.348495
O O15 0.377122 0.684330 0.825784
O O16 0.513375 0.736627 0.845597
O O17 0.572521 0.780508 0.042320
O O18 0.500000 0.000000 0.500000
O O19 0.500000 0.000000 0.000000
#
# Coordination Sequence:
#
# PCOD9064818 Si02
#       8
#     2   2   2   2   2   2   2   2
#     4  12  25  46  69 104 141 189 246 301 361 432
#     4  11  25  45  71 107 143 189 244 293 362 440
#     4  11  24  46  74 102 147 192 236 303 367 431
#     4  12  26  45  70 104 143 186 240 299 362 437
#     4  12  26  47  70 104 147 190 240 306 366 436
#     4  11  25  47  69 106 144 188 243 298 366 439
#     4  11  25  45  74 102 146 192 241 298 363 435
#     4  12  26  45  73 103 141 188 246 298 367 443
#
# _framework density 22.937318000000001
#
# number of rings (size 3 to 8) (size 9 to 14) (size 15 to 20)
#    0.000    0.500    2.500    6.000    7.000    1.000 
#    2.250    0.000    0.000    0.000    0.000    0.000 
#    0.000    0.000    0.000    0.000    0.000    0.000 
#
# Total GULP energy -89500.046635 kJ/mol
# GULP energy per Si atom -5593.752915 kJ/mol
# Density = 2.288511 g / cm^3
# Si number density = 22.937318 Si / 1000 Ang^3
#
#
#
# Elastic Constant Matrix: (Units=GPa)
#
#
# Indices 1 2 3 4 5 6 
#
# 1 100.9244 -0.1200 10.8261 8.9936 1.0053 2.4366
# 2 -0.1200 67.7330 8.2031 15.8898 -7.2656 -9.6901
# 3 10.8261 8.2031 101.7488 6.6611 12.2556 2.7327
# 4 8.9936 15.8898 6.6611 36.1894 -8.3678 -3.1969
# 5 1.0053 -7.2656 12.2556 -8.3678 43.0345 4.9979
# 6 2.4366 -9.6901 2.7327 -3.1969 4.9979 42.7205
#
#
#
# Elastic Compliance Matrix: (Units=1/GPa)
#
#
# Indices 1 2 3 4 5 6 
#
# 1 0.010274 0.000672 -0.000906 -0.002811 -0.000352 -0.000545
# 2 0.000672 0.017149 -0.001281 -0.006818 0.001542 0.003243
# 3 -0.000906 -0.001281 0.010605 -0.002040 -0.003536 -0.000656
# 4 -0.002811 -0.006818 -0.002040 0.033105 0.005870 0.000535
# 5 -0.000352 0.001542 -0.003536 0.005870 0.025886 -0.001993
# 6 -0.000545 0.003243 -0.000656 0.000535 -0.001993 0.024490
#
#
# Mechanical properties :
#
#
# Convention : Reuss Voigt Hill
#
# Bulk Modulus (GPa) = 28.57387 34.24719 31.41053
# Shear Modulus (GPa) = 36.70991 41.15535 38.93263
#
# Velocity S-wave (km/s) = 4.00490 4.24046 4.12436
# Velocity P-wave (km/s) = 5.81979 6.24007 6.03359
#
# Compressibility (1/GPa) = 0.03499701
#
# Stress axis : x y z
#
# Youngs Moduli (GPa) = 97.33746 58.31284 94.29678
#
# Poissons Ratio (x) = -0.03917 0.08546
# Poissons Ratio (y) = -0.06538 0.12075
# Poissons Ratio (z) = 0.08821 0.07467
#
# Static dielectric constant tensor:
#      x y z
#    x 1.864820 -0.022620 -0.013280 
#    y -0.022620 1.881440 0.037860 
#    z -0.013280 0.037860 1.926370 
# 
# From -- ./inp_files/283524.got.cif
#   From: 2010.05.17/outbox.cif.g08.bks.cpg/sg2_142_cif.got.tgz:283524.got - 2010.06.03 11:33:40.
