data_PCOD9064028
_publ_section_title
;
Structure prediction by ZEFSAII (Michael W. Deem and Ramdas Pophale) SiO2 
 PCOD9064028
Probable space group: P -1
;
_chemical_formula_sum "Si O2"
_cell_formula_units_Z 16
_cell_length_a 10.107613
_cell_length_b 11.959306
_cell_length_c 8.951781
_cell_angle_alpha 80.579091
_cell_angle_beta 90.444991
_cell_angle_gamma 129.433660
_cell_volume 817.894046
_symmetry_space_group_name_H-M "P -1"
_symmetry_group_IT_number 2
_symmetry_cell_setting 'triclinic'
loop_
_space_group_symop_operation_xyz
x,y,z
-x,-y,-z
loop_
_atom_site_type_symbol
_atom_site_label
_atom_site_fract_x
_atom_site_fract_y
_atom_site_fract_z
Si Si1 0.166846 0.060903 0.583300
Si Si2 0.311894 0.893360 0.098111
Si Si3 0.029525 0.898313 0.933898
Si Si4 0.317739 0.422128 0.094573
Si Si5 0.150515 0.559239 0.105173
Si Si6 0.674761 0.053695 0.564561
Si Si7 0.311859 0.378777 0.461583
Si Si8 0.014087 0.388055 0.444222
O O1 0.256296 0.230060 0.566230
O O2 0.108661 0.970677 0.755897
O O3 0.282885 0.043587 0.486531
O O4 0.000000 0.000000 0.500000
O O5 0.239278 0.724577 0.123168
O O6 0.335261 0.947147 0.256735
O O7 0.169199 0.895532 0.018760
O O8 0.500000 0.000000 0.000000
O O9 0.846437 0.732972 0.946577
O O10 0.000000 0.000000 0.000000
O O11 0.285323 0.539483 0.054679
O O12 0.318374 0.385125 0.278301
O O13 0.500000 0.500000 0.000000
O O14 0.058485 0.443432 0.264272
O O15 0.000000 0.500000 0.000000
O O16 0.837327 0.222409 0.489027
O O17 0.500000 0.000000 0.500000
O O18 0.500000 0.500000 0.500000
O O19 0.170952 0.396106 0.501558
O O20 0.000000 0.500000 0.500000
#
# Coordination Sequence:
#
# PCOD9064028 Si02
#       8
#     2   2   2   2   2   2   2   2
#     4  12  23  48  72  95 143 185 232 286 336 409
#     4  12  28  45  70 106 139 182 230 284 349 411
#     4  12  27  45  71 104 141 183 230 286 346 407
#     4  11  26  45  68 105 137 178 230 279 344 413
#     4  11  24  46  71  96 141 180 222 284 344 405
#     4  12  27  45  72 103 138 183 232 283 347 408
#     4  11  27  43  71 101 134 182 231 280 341 402
#     4  11  24  45  69  99 135 176 232 278 335 410
#
# _framework density 19.562436000000002
#
# number of rings (size 3 to 8) (size 9 to 14) (size 15 to 20)
#    0.000    0.500    5.000    2.250    7.000    2.000 
#    0.000    0.000    0.000    0.000    0.000    0.000 
#    0.000    0.000    0.000    0.000    0.000    0.000 
#
# Total GULP energy -89448.080497 kJ/mol
# GULP energy per Si atom -5590.505031 kJ/mol
# Density = 1.951791 g / cm^3
# Si number density = 19.562436 Si / 1000 Ang^3
#
#
#
# Elastic Constant Matrix: (Units=GPa)
#
#
# Indices 1 2 3 4 5 6 
#
# 1 204.4264 68.3549 77.6447 6.5413 3.3663 4.9900
# 2 68.3549 107.8249 41.0041 -1.9534 11.9545 14.2888
# 3 77.6447 41.0041 118.7355 3.5025 5.9447 8.9004
# 4 6.5413 -1.9534 3.5025 34.7950 3.9860 1.2120
# 5 3.3663 11.9545 5.9447 3.9860 37.7328 5.3200
# 6 4.9900 14.2888 8.9004 1.2120 5.3200 47.1730
#
#
#
# Elastic Compliance Matrix: (Units=1/GPa)
#
#
# Indices 1 2 3 4 5 6 
#
# 1 0.007532 -0.003612 -0.003760 -0.001396 0.001083 0.000921
# 2 -0.003612 0.013049 -0.001821 0.002078 -0.003335 -0.002904
# 3 -0.003760 -0.001821 0.011645 -0.000446 -0.000712 -0.001156
# 4 -0.001396 0.002078 -0.000446 0.029589 -0.003481 -0.000765
# 5 0.001083 -0.003335 -0.000712 -0.003481 0.028233 -0.002065
# 6 0.000921 -0.002904 -0.001156 -0.000765 -0.002065 0.022452
#
#
# Mechanical properties :
#
#
# Convention : Reuss Voigt Hill
#
# Bulk Modulus (GPa) = 72.25427 89.44379 80.84903
# Shear Modulus (GPa) = 36.90039 40.20569 38.55304
#
# Velocity S-wave (km/s) = 4.34785 4.53840 4.44415
# Velocity P-wave (km/s) = 7.88800 8.56062 8.23118
#
# Compressibility (1/GPa) = 0.01384001
#
# Stress axis : x y z
#
# Youngs Moduli (GPa) = 132.76459 76.63410 85.87304
#
# Poissons Ratio (x) = 0.27683 0.32288
# Poissons Ratio (y) = 0.47960 0.15635
# Poissons Ratio (z) = 0.49920 0.13953
#
# Static dielectric constant tensor:
#      x y z
#    x 1.668370 -0.017070 -0.019090 
#    y -0.017070 1.616270 0.002740 
#    z -0.019090 0.002740 1.672730 
# 
# From -- ./inp_files/186829.got.cif
#   From: 2010.05.17/outbox.cif.g08.bks.cpg/sg2_94_cif.got.tgz:186829.got - 2010.06.03 11:33:40.
