data_PCOD9064150
_publ_section_title
;
Structure prediction by ZEFSAII (Michael W. Deem and Ramdas Pophale) SiO2 
 PCOD9064150
Probable space group: P -1
;
_chemical_formula_sum "Si O2"
_cell_formula_units_Z 14
_cell_length_a 12.675675
_cell_length_b 5.028301
_cell_length_c 8.540560
_cell_angle_alpha 83.795280
_cell_angle_beta 101.903285
_cell_angle_gamma 82.639940
_cell_volume 523.158261
_symmetry_space_group_name_H-M "P -1"
_symmetry_group_IT_number 2
_symmetry_cell_setting 'triclinic'
loop_
_space_group_symop_operation_xyz
x,y,z
-x,-y,-z
loop_
_atom_site_type_symbol
_atom_site_label
_atom_site_fract_x
_atom_site_fract_y
_atom_site_fract_z
Si Si1 0.122243 0.453818 0.755200
Si Si2 0.024480 0.011046 0.265806
Si Si3 0.605889 0.137006 0.487611
Si Si4 0.488344 0.724807 0.849152
Si Si5 0.765529 0.288989 0.790003
Si Si6 0.812598 0.708329 0.540833
Si Si7 0.678924 0.935911 0.013702
O O1 0.162014 0.490785 0.586418
O O2 0.067647 0.728633 0.803666
O O3 0.222666 0.286914 0.889012
O O4 0.032895 0.252710 0.726313
O O5 0.091276 0.110459 0.426049
O O6 0.124617 0.932249 0.181461
O O7 0.562953 0.349978 0.324340
O O8 0.667047 0.257234 0.640829
O O9 0.500000 0.000000 0.500000
O O10 0.701071 0.907193 0.468191
O O11 0.606411 0.817914 0.866090
O O12 0.500000 0.500000 0.000000
O O13 0.404387 0.974461 0.877225
O O14 0.803473 0.556601 0.713135
O O15 0.718871 0.206501 0.944765
#
# Coordination Sequence:
#
# PCOD9064150 Si02
#       7
#     2   2   2   2   2   2   2
#     4  12  26  46  77 104 150 192 248 298 367 432
#     4  11  26  47  73 110 145 193 246 304 360 433
#     4  11  24  45  71 107 143 188 242 300 368 433
#     4  11  26  47  70 103 146 191 242 301 366 438
#     4  11  26  45  72 107 147 189 243 302 367 433
#     4  11  25  44  74 106 144 192 245 300 368 436
#     4  11  27  46  68 108 143 192 242 302 366 438
#
# _framework density 26.760542999999998
#
# number of rings (size 3 to 8) (size 9 to 14) (size 15 to 20)
#    0.000    0.857    4.286    0.857   10.000    1.714 
#    0.000    0.000    0.000    0.000    0.000    0.000 
#    0.000    0.000    0.000    0.000    0.000    0.000 
#
# Total GULP energy -78423.283973 kJ/mol
# GULP energy per Si atom -5601.663141 kJ/mol
# Density = 2.669964 g / cm^3
# Si number density = 26.760543 Si / 1000 Ang^3
#
#
#
# Elastic Constant Matrix: (Units=GPa)
#
#
# Indices 1 2 3 4 5 6 
#
# 1 153.7478 35.0169 41.4323 -9.0933 21.7565 -7.9167
# 2 35.0169 104.5050 21.8621 -23.4854 4.7547 5.1368
# 3 41.4323 21.8621 86.4162 -25.5259 17.1090 -5.1073
# 4 -9.0933 -23.4854 -25.5259 38.8174 1.6707 5.5853
# 5 21.7565 4.7547 17.1090 1.6707 32.2155 -11.8522
# 6 -7.9167 5.1368 -5.1073 5.5853 -11.8522 49.8266
#
#
#
# Elastic Compliance Matrix: (Units=1/GPa)
#
#
# Indices 1 2 3 4 5 6 
#
# 1 0.008290 -0.002336 -0.003134 -0.001480 -0.003284 0.000621
# 2 -0.002336 0.012201 0.000519 0.007678 -0.001965 -0.002904
# 3 -0.003134 0.000519 0.018244 0.012289 -0.009105 -0.002225
# 4 -0.001480 0.007678 0.012289 0.039616 -0.011247 -0.006883
# 5 -0.003284 -0.001965 -0.009105 -0.011247 0.042708 0.010167
# 6 0.000621 -0.002904 -0.002225 -0.006883 0.010167 0.023430
#
#
# Mechanical properties :
#
#
# Convention : Reuss Voigt Hill
#
# Bulk Modulus (GPa) = 34.68284 60.14353 47.41318
# Shear Modulus (GPa) = 30.48752 40.59575 35.54163
#
# Velocity S-wave (km/s) = 3.37897 3.89909 3.64831
# Velocity P-wave (km/s) = 5.31148 6.54172 5.95844
#
# Compressibility (1/GPa) = 0.02883270
#
# Stress axis : x y z
#
# Youngs Moduli (GPa) = 120.62891 81.96226 54.81151
#
# Poissons Ratio (x) = 0.19146 0.17178
# Poissons Ratio (y) = 0.28178 -0.02843
# Poissons Ratio (z) = 0.37805 -0.04252
#
# Static dielectric constant tensor:
#      x y z
#    x 2.060100 0.012170 -0.022600 
#    y 0.012170 2.111540 0.051790 
#    z -0.022600 0.051790 2.139790 
# 
# From -- ./inp_files/84311.got.cif
#   From: 2010.05.17/outbox.cif.g08.bks.cpg/sg2_43_cif.got.tgz:84311.got - 2010.06.03 11:33:40.
