data_PCOD9064585
_publ_section_title
;
Structure prediction by ZEFSAII (Michael W. Deem and Ramdas Pophale) SiO2 
 PCOD9064585
Probable space group: P -1
;
_chemical_formula_sum "Si O2"
_cell_formula_units_Z 16
_cell_length_a 14.884061
_cell_length_b 8.814921
_cell_length_c 11.748635
_cell_angle_alpha 106.443210
_cell_angle_beta 70.589719
_cell_angle_gamma 46.950478
_cell_volume 714.762828
_symmetry_space_group_name_H-M "P -1"
_symmetry_group_IT_number 2
_symmetry_cell_setting 'triclinic'
loop_
_space_group_symop_operation_xyz
x,y,z
-x,-y,-z
loop_
_atom_site_type_symbol
_atom_site_label
_atom_site_fract_x
_atom_site_fract_y
_atom_site_fract_z
Si Si1 0.460512 0.223213 0.838197
Si Si2 0.670412 0.806337 0.307311
Si Si3 0.129645 0.466720 0.452204
Si Si4 0.809974 0.513060 0.824346
Si Si5 0.576613 0.562654 0.465480
Si Si6 0.965393 0.091527 0.287311
Si Si7 0.938730 0.646820 0.929513
Si Si8 0.256043 0.751634 0.912098
O O1 0.331553 0.305231 0.823319
O O2 0.409082 0.478648 0.884839
O O3 0.672669 0.873986 0.653476
O O4 0.389683 0.263949 0.998743
O O5 0.865122 0.552680 0.233441
O O6 0.500000 0.000000 0.500000
O O7 0.597130 0.080333 0.357980
O O8 0.175442 0.477654 0.313044
O O9 0.023195 0.751741 0.629432
O O10 0.000000 0.500000 0.500000
O O11 0.875097 0.583456 0.873129
O O12 0.942273 0.180535 0.737734
O O13 0.500000 0.500000 0.500000
O O14 0.748612 0.363331 0.428168
O O15 0.663024 0.444163 0.277144
O O16 0.068732 0.950654 0.091706
O O17 0.000000 0.500000 0.000000
O O18 0.790344 0.000530 0.048907
#
# Coordination Sequence:
#
# PCOD9064585 Si02
#       8
#     2   2   2   2   2   2   2   2
#     4  11  25  46  67  99 134 184 229 282 346 403
#     4  12  23  39  66  98 144 177 219 279 348 405
#     4  12  27  48  72  99 134 185 239 287 340 405
#     4  11  25  46  72  98 137 184 232 285 341 412
#     4  12  24  38  64 107 140 177 220 280 346 411
#     4  11  24  46  69  99 137 182 232 282 344 401
#     4  12  24  43  68 108 140 178 224 280 350 415
#     4  11  25  41  69 100 140 184 221 280 344 413
#
# _framework density 22.385045999999999
#
# number of rings (size 3 to 8) (size 9 to 14) (size 15 to 20)
#    0.000    0.500    3.750    4.875    3.500    1.000 
#    0.000    6.875    0.000    0.000    0.000    0.000 
#    0.000    0.000    0.000    0.000    0.000    0.000 
#
# Total GULP energy -89387.051473 kJ/mol
# GULP energy per Si atom -5586.690717 kJ/mol
# Density = 2.233410 g / cm^3
# Si number density = 22.385046 Si / 1000 Ang^3
#
#
#
# Elastic Constant Matrix: (Units=GPa)
#
#
# Indices 1 2 3 4 5 6 
#
# 1 84.6680 28.2650 19.1052 20.3106 6.5748 18.6189
# 2 28.2650 132.8347 38.0694 18.2157 8.6577 32.0326
# 3 19.1052 38.0694 98.0902 11.5682 3.9340 7.1492
# 4 20.3106 18.2157 11.5682 52.8712 9.1568 5.1722
# 5 6.5748 8.6577 3.9340 9.1568 28.5915 4.3725
# 6 18.6189 32.0326 7.1492 5.1722 4.3725 30.4051
#
#
#
# Elastic Compliance Matrix: (Units=1/GPa)
#
#
# Indices 1 2 3 4 5 6 
#
# 1 0.015104 -0.000177 -0.001752 -0.004500 -0.000544 -0.007807
# 2 -0.000177 0.011425 -0.003360 -0.001967 -0.000690 -0.010704
# 3 -0.001752 -0.003360 0.011809 -0.000913 -0.000222 0.002023
# 4 -0.004500 -0.001967 -0.000913 0.022305 -0.005704 0.002068
# 5 -0.000544 -0.000690 -0.000222 -0.005704 0.037677 -0.003336
# 6 -0.007807 -0.010704 0.002023 0.002068 -0.003336 0.048600
#
#
# Mechanical properties :
#
#
# Convention : Reuss Voigt Hill
#
# Bulk Modulus (GPa) = 36.02175 54.05245 45.03710
# Shear Modulus (GPa) = 29.98526 37.71713 33.85119
#
# Velocity S-wave (km/s) = 3.66392 4.10924 3.89295
# Velocity P-wave (km/s) = 5.83317 6.83473 6.35372
#
# Compressibility (1/GPa) = 0.02776101
#
# Stress axis : x y z
#
# Youngs Moduli (GPa) = 66.20931 87.53105 84.68161
#
# Poissons Ratio (x) = 0.01545 0.14834
# Poissons Ratio (y) = 0.01169 0.28451
# Poissons Ratio (z) = 0.11598 0.29409
#
# Static dielectric constant tensor:
#      x y z
#    x 1.813980 0.046180 -0.021070 
#    y 0.046180 1.904070 -0.026000 
#    z -0.021070 -0.026000 1.851600 
# 
# From -- ./inp_files/328559.got.cif
#   From: 2010.05.17/outbox.cif.g08.bks.cpg/sg2_165_cif.got.tgz:328559.got - 2010.06.03 11:33:40.
