data_PCOD9064320
_publ_section_title
;
Structure prediction by ZEFSAII (Michael W. Deem and Ramdas Pophale) SiO2 
 PCOD9064320
Probable space group: P -1
;
_chemical_formula_sum "Si O2"
_cell_formula_units_Z 16
_cell_length_a 14.832988
_cell_length_b 17.775309
_cell_length_c 9.514331
_cell_angle_alpha 63.652429
_cell_angle_beta 49.233667
_cell_angle_gamma 24.278645
_cell_volume 682.653263
_symmetry_space_group_name_H-M "P -1"
_symmetry_group_IT_number 2
_symmetry_cell_setting 'triclinic'
loop_
_space_group_symop_operation_xyz
x,y,z
-x,-y,-z
loop_
_atom_site_type_symbol
_atom_site_label
_atom_site_fract_x
_atom_site_fract_y
_atom_site_fract_z
Si Si1 0.251755 0.793152 0.506897
Si Si2 0.416724 0.479468 0.206217
Si Si3 0.332402 0.022366 0.117442
Si Si4 0.852794 0.774736 0.133472
Si Si5 0.752311 0.925955 0.516312
Si Si6 0.926337 0.550107 0.866139
Si Si7 0.478464 0.749518 0.580006
Si Si8 0.733124 0.375402 0.201957
O O1 0.363863 0.782647 0.523650
O O2 0.527601 0.579929 0.312327
O O3 0.126163 0.788526 0.707329
O O4 0.000000 0.000000 0.500000
O O5 0.571003 0.288468 0.217935
O O6 0.490587 0.475209 0.283296
O O7 0.072761 0.682581 0.369029
O O8 0.500000 0.500000 0.000000
O O9 0.245092 0.050437 0.339055
O O10 0.588355 0.796348 0.985024
O O11 0.500000 0.000000 0.000000
O O12 0.114673 0.201233 0.073523
O O13 0.012967 0.582495 0.140335
O O14 0.508676 0.972663 0.335839
O O15 0.039149 0.727989 0.054887
O O16 0.680838 0.058310 0.398675
O O17 0.172514 0.452708 0.629306
O O18 0.000000 0.500000 0.000000
#
# Coordination Sequence:
#
# PCOD9064320 Si02
#       8
#     2   2   2   2   2   2   2   2
#     4  10  21  33  52  84 122 152 175 221 289 358
#     4  11  25  44  59  74 106 158 209 245 272 319
#     4  10  18  27  49  82 122 149 171 204 275 350
#     4  10  21  32  53  87 120 144 176 227 285 351
#     4  10  21  34  58  84 112 149 189 230 278 336
#     4  11  17  29  51  88 121 149 167 219 284 354
#     4  10  20  34  59  85 115 147 188 225 279 347
#     4  10  23  36  56  82 116 150 187 231 290 341
#
# _framework density 23.437961000000001
#
# number of rings (size 3 to 8) (size 9 to 14) (size 15 to 20)
#    0.000    1.750    3.750    3.000    7.000    0.500 
#    0.000    0.625    0.000    3.000    0.000    0.000 
#    0.000    0.000    0.000    0.000    0.000    0.000 
#
# Total GULP energy -89218.243779 kJ/mol
# GULP energy per Si atom -5576.140236 kJ/mol
# Density = 2.338462 g / cm^3
# Si number density = 23.437961 Si / 1000 Ang^3
#
#
#
# Elastic Constant Matrix: (Units=GPa)
#
#
# Indices 1 2 3 4 5 6 
#
# 1 35.0082 17.7529 27.1633 -3.9752 -19.6375 5.1182
# 2 17.7529 174.1438 60.6889 -13.5980 -9.6199 0.1990
# 3 27.1633 60.6889 72.3643 -31.0673 -44.4727 9.8107
# 4 -3.9752 -13.5980 -31.0673 37.5579 -1.5696 -4.6399
# 5 -19.6375 -9.6199 -44.4727 -1.5696 37.4599 -5.0480
# 6 5.1182 0.1990 9.8107 -4.6399 -5.0480 9.7264
#
#
#
# Elastic Compliance Matrix: (Units=1/GPa)
#
#
# Indices 1 2 3 4 5 6 
#
# 1 0.042838 -0.001453 -0.006921 -0.002470 0.012378 -0.010286
# 2 -0.001453 0.003276 0.012897 0.012641 0.016208 0.002131
# 3 -0.006921 0.012897 -0.055781 -0.044670 -0.068002 0.003039
# 4 -0.002470 0.012641 -0.044670 -0.005839 -0.048910 0.017929
# 5 0.012378 0.016208 -0.068002 -0.048910 -0.043286 0.015948
# 6 -0.010286 0.002131 0.003039 0.017929 0.015948 0.121945
#
#
# Mechanical properties :
#
#
# Convention : Reuss Voigt Hill
#
# Bulk Modulus (GPa) = -1613.45873 54.74738 -779.35567
# Shear Modulus (GPa) = 92.76606 28.67627 60.72117
#
# Velocity S-wave (km/s) = 6.29804 3.50165 5.09543
# Velocity P-wave (km/s) = 25.23892 6.30538 17.28070
#
# Compressibility (1/GPa) = -0.00061979
#
# Stress axis : x y z
#
# Youngs Moduli (GPa) = 23.34387 305.26349 -17.92728
#
# Poissons Ratio (x) = 0.44340 -0.12407
# Poissons Ratio (y) = 0.03391 0.23121
# Poissons Ratio (z) = 0.16156 -3.93699
#
# Static dielectric constant tensor:
#      x y z
#    x 1.976660 0.008100 0.059610 
#    y 0.008100 1.796400 -0.079270 
#    z 0.059610 -0.079270 1.986010 
# 
# From -- ./inp_files/466888.got.cif
#   From: 2010.05.17/outbox.cif.g08.bks.cpg/sg2_234_cif.got.tgz:466888.got - 2010.06.03 11:33:40.
