data_PCOD9064891
_publ_section_title
;
Structure prediction by ZEFSAII (Michael W. Deem and Ramdas Pophale) SiO2 
 PCOD9064891
Probable space group: P -1
;
_chemical_formula_sum "Si O2"
_cell_formula_units_Z 15
_cell_length_a 8.415161
_cell_length_b 9.825432
_cell_length_c 9.000235
_cell_angle_alpha 95.051636
_cell_angle_beta 111.857134
_cell_angle_gamma 101.858562
_cell_volume 664.742840
_symmetry_space_group_name_H-M "P -1"
_symmetry_group_IT_number 2
_symmetry_cell_setting 'triclinic'
loop_
_space_group_symop_operation_xyz
x,y,z
-x,-y,-z
loop_
_atom_site_type_symbol
_atom_site_label
_atom_site_fract_x
_atom_site_fract_y
_atom_site_fract_z
Si Si1 0.623644 0.390952 0.539062
Si Si2 0.000000 0.500000 0.500000
Si Si3 0.079421 0.939038 0.300000
Si Si4 0.735679 0.384422 0.916958
Si Si5 0.896045 0.693812 0.995861
Si Si6 0.433585 0.835295 0.928485
Si Si7 0.906920 0.181165 0.392444
Si Si8 0.329048 0.177011 0.256174
O O1 0.500000 0.500000 0.500000
O O2 0.686108 0.383452 0.727976
O O3 0.482652 0.246081 0.429766
O O4 0.797639 0.429427 0.498339
O O5 0.975224 0.659390 0.535138
O O6 0.236630 0.017128 0.252769
O O7 0.997081 0.064612 0.342042
O O8 0.143877 0.873590 0.462498
O O9 0.944503 0.818312 0.146660
O O10 0.921074 0.342781 0.986212
O O11 0.770923 0.546640 0.999654
O O12 0.599041 0.269472 0.954164
O O13 0.820607 0.740938 0.821550
O O14 0.254102 0.812801 0.769975
O O15 0.579194 0.802810 0.869230
O O16 0.500000 0.000000 0.000000
#
# Coordination Sequence:
#
# PCOD9064891 Si02
#       8
#     2   1   2   2   2   2   2   2
#     4  12  26  50  78 114 153 201 255 328 379 469
#     4  12  26  50  80 110 156 196 260 322 386 452
#     4  11  25  46  75 110 149 204 253 321 398 457
#     4  11  27  46  75 110 154 201 256 313 402 450
#     4  11  24  46  75 107 148 201 250 323 385 463
#     4  12  27  46  69 107 153 194 249 319 381 462
#     4  11  26  46  76 107 148 202 257 312 391 467
#     4  12  25  46  75 107 151 194 261 311 387 465
#
# _framework density 22.565114999999999
#
# number of rings (size 3 to 8) (size 9 to 14) (size 15 to 20)
#    0.000    0.533    2.667    4.400    7.467    1.067 
#    4.800    0.000    0.000    0.000    0.000    0.000 
#    0.000    0.000    0.000    0.000    0.000    0.000 
#
# Total GULP energy -83652.698330 kJ/mol
# GULP energy per Si atom -5576.846555 kJ/mol
# Density = 2.251376 g / cm^3
# Si number density = 22.565115 Si / 1000 Ang^3
#
#
#
# Elastic Constant Matrix: (Units=GPa)
#
#
# Indices 1 2 3 4 5 6 
#
# 1 63.6406 27.8442 39.7421 -8.0476 3.1240 3.2280
# 2 27.8442 180.5277 59.4993 18.4735 -4.1644 17.3031
# 3 39.7421 59.4993 91.1891 1.6201 12.2599 15.1786
# 4 -8.0476 18.4735 1.6201 33.7322 -5.8277 -3.1342
# 5 3.1240 -4.1644 12.2599 -5.8277 28.4886 -1.8507
# 6 3.2280 17.3031 15.1786 -3.1342 -1.8507 37.8108
#
#
#
# Elastic Compliance Matrix: (Units=1/GPa)
#
#
# Indices 1 2 3 4 5 6 
#
# 1 0.023543 -0.001142 -0.010759 0.007738 0.003702 0.003654
# 2 -0.001142 0.007877 -0.004554 -0.004154 0.002262 -0.001913
# 3 -0.010759 -0.004554 0.021004 -0.003315 -0.009604 -0.006174
# 4 0.007738 -0.004154 -0.003315 0.035802 0.007679 0.005915
# 5 0.003702 0.002262 -0.009604 0.007679 0.041065 0.005151
# 6 0.003654 -0.001913 -0.006174 0.005915 0.005151 0.030232
#
#
# Mechanical properties :
#
#
# Convention : Reuss Voigt Hill
#
# Bulk Modulus (GPa) = 51.24277 65.50318 58.37297
# Shear Modulus (GPa) = 25.13363 33.89112 29.51237
#
# Velocity S-wave (km/s) = 3.34103 3.87967 3.62038
# Velocity P-wave (km/s) = 6.13526 7.01147 6.58795
#
# Compressibility (1/GPa) = 0.01951495
#
# Stress axis : x y z
#
# Youngs Moduli (GPa) = 42.47573 126.95211 47.60943
#
# Poissons Ratio (x) = 0.14497 0.51222
# Poissons Ratio (y) = 0.04850 0.21681
# Poissons Ratio (z) = 0.45699 0.57812
#
# Static dielectric constant tensor:
#      x y z
#    x 1.855930 -0.052150 0.043480 
#    y -0.052150 1.820100 0.080080 
#    z 0.043480 0.080080 1.685630 
# 
# From -- ./inp_files/158916.got.cif
#   From: 2010.05.17/outbox.cif.g08.bks.cpg/sg2_80_cif.got.tgz:158916.got - 2010.06.03 11:33:40.
