data_PCOD9064019
_publ_section_title
;
Structure prediction by ZEFSAII (Michael W. Deem and Ramdas Pophale) SiO2 
 PCOD9064019
Probable space group: P -1
;
_chemical_formula_sum "Si O2"
_cell_formula_units_Z 16
_cell_length_a 17.533644
_cell_length_b 20.710429
_cell_length_c 9.357546
_cell_angle_alpha 37.482137
_cell_angle_beta 39.224261
_cell_angle_gamma 19.390250
_cell_volume 680.715227
_symmetry_space_group_name_H-M "P -1"
_symmetry_group_IT_number 2
_symmetry_cell_setting 'triclinic'
loop_
_space_group_symop_operation_xyz
x,y,z
-x,-y,-z
loop_
_atom_site_type_symbol
_atom_site_label
_atom_site_fract_x
_atom_site_fract_y
_atom_site_fract_z
Si Si1 0.000875 0.232261 0.424558
Si Si2 0.696902 0.898695 0.290864
Si Si3 0.253732 0.209586 0.911682
Si Si4 0.360051 0.792506 0.765740
Si Si5 0.766680 0.227584 0.277761
Si Si6 0.702573 0.130418 0.781652
Si Si7 0.866479 0.458401 0.507564
Si Si8 0.612107 0.350271 0.756473
O O1 0.906148 0.364650 0.468304
O O2 0.817712 0.279705 0.563298
O O3 0.228578 0.997695 0.554331
O O4 0.072268 0.259774 0.148492
O O5 0.721861 0.818797 0.244945
O O6 0.929071 0.718067 0.366242
O O7 0.500000 0.000000 0.500000
O O8 0.633086 0.065885 0.040249
O O9 0.160079 0.397791 0.746069
O O10 0.500000 0.000000 0.000000
O O11 0.270400 0.761851 0.853333
O O12 0.628482 0.603535 0.673274
O O13 0.306754 0.804106 0.984681
O O14 0.697143 0.167147 0.559299
O O15 0.601082 0.437015 0.224517
O O16 0.029759 0.055740 0.234522
O O17 0.561413 0.327444 0.723935
#
# Coordination Sequence:
#
# PCOD9064019 Si02
#       8
#     2   2   2   2   2   2   2   2
#     4  12  25  45  76 108 143 193 243 298 363 436
#     4  12  29  51  76 108 147 193 249 307 365 428
#     4  12  27  51  77 102 145 194 249 306 358 432
#     4  12  24  44  73 105 152 183 243 295 363 436
#     4  11  24  45  69 108 145 190 235 294 362 440
#     4  11  26  45  72 100 151 188 236 297 367 426
#     4  12  27  49  78 107 146 196 245 302 369 428
#     4  12  25  41  72 107 144 187 235 297 365 430
#
# _framework density 23.504691000000001
#
# number of rings (size 3 to 8) (size 9 to 14) (size 15 to 20)
#    0.000    0.250    3.750    4.875    5.250    1.000 
#    4.500    0.000    0.000    0.000    0.000    0.000 
#    0.000    0.000    0.000    0.000    0.000    0.000 
#
# Total GULP energy -89717.697821 kJ/mol
# GULP energy per Si atom -5607.356114 kJ/mol
# Density = 2.345119 g / cm^3
# Si number density = 23.504691 Si / 1000 Ang^3
#
#
#
# Elastic Constant Matrix: (Units=GPa)
#
#
# Indices 1 2 3 4 5 6 
#
# 1 45.8289 15.1040 4.8728 -1.9782 4.5494 20.7705
# 2 15.1040 108.2897 25.4628 8.5889 -10.8130 2.3410
# 3 4.8728 25.4628 119.9735 8.6715 -1.0373 14.0295
# 4 -1.9782 8.5889 8.6715 39.4095 3.5256 -0.6975
# 5 4.5494 -10.8130 -1.0373 3.5256 40.1502 -7.1710
# 6 20.7705 2.3410 14.0295 -0.6975 -7.1710 38.5206
#
#
#
# Elastic Compliance Matrix: (Units=1/GPa)
#
#
# Indices 1 2 3 4 5 6 
#
# 1 0.033769 -0.005893 0.001946 0.003020 -0.009241 -0.020225
# 2 -0.005893 0.011191 -0.002401 -0.002543 0.004589 0.004180
# 3 0.001946 -0.002401 0.009394 -0.001409 -0.001322 -0.004596
# 4 0.003020 -0.002543 -0.001409 0.026693 -0.003613 -0.001150
# 5 -0.009241 0.004589 -0.001322 -0.003613 0.029363 0.010586
# 6 -0.020225 0.004180 -0.004596 -0.001150 0.010586 0.040235
#
#
# Mechanical properties :
#
#
# Convention : Reuss Voigt Hill
#
# Bulk Modulus (GPa) = 24.00491 40.55234 32.27862
# Shear Modulus (GPa) = 28.21243 38.85954 33.53599
#
# Velocity S-wave (km/s) = 3.46828 4.07045 3.78137
# Velocity P-wave (km/s) = 5.12578 6.27549 5.72954
#
# Compressibility (1/GPa) = 0.04165815
#
# Stress axis : x y z
#
# Youngs Moduli (GPa) = 29.61261 89.36132 106.45529
#
# Poissons Ratio (x) = 0.52657 -0.20716
# Poissons Ratio (y) = 0.17450 0.25560
# Poissons Ratio (z) = -0.05763 0.21456
#
# Static dielectric constant tensor:
#      x y z
#    x 1.854470 -0.008270 -0.019570 
#    y -0.008270 1.877730 -0.040970 
#    z -0.019570 -0.040970 1.864040 
# 
# From -- ./inp_files/338072.got.cif
#   From: 2010.05.17/outbox.cif.g08.bks.cpg/sg2_170_cif.got.tgz:338072.got - 2010.06.03 11:33:40.
