data_PCOD9064523
_publ_section_title
;
Structure prediction by ZEFSAII (Michael W. Deem and Ramdas Pophale) SiO2 
 PCOD9064523
Probable space group: P -1
;
_chemical_formula_sum "Si O2"
_cell_formula_units_Z 12
_cell_length_a 9.648627
_cell_length_b 8.539571
_cell_length_c 12.686044
_cell_angle_alpha 109.066318
_cell_angle_beta 34.552472
_cell_angle_gamma 95.106909
_cell_volume 527.768984
_symmetry_space_group_name_H-M "P -1"
_symmetry_group_IT_number 2
_symmetry_cell_setting 'triclinic'
loop_
_space_group_symop_operation_xyz
x,y,z
-x,-y,-z
loop_
_atom_site_type_symbol
_atom_site_label
_atom_site_fract_x
_atom_site_fract_y
_atom_site_fract_z
Si Si1 0.295979 0.045317 0.866118
Si Si2 0.727087 0.149437 0.725998
Si Si3 0.598779 0.664546 0.498469
Si Si4 0.366736 0.846113 0.968489
Si Si5 0.925375 0.639459 0.486313
Si Si6 0.037009 0.303282 0.901166
O O1 0.524984 0.124723 0.763213
O O2 0.110117 0.174864 0.927762
O O3 0.398968 0.847211 0.710083
O O4 0.211214 0.017538 0.032914
O O5 0.815064 0.317271 0.690978
O O6 0.644532 0.138491 0.895919
O O7 0.000000 0.000000 0.500000
O O8 0.500000 0.500000 0.500000
O O9 0.820821 0.590717 0.431670
O O10 0.726829 0.735019 0.337121
O O11 0.663619 0.787170 0.728978
O O12 0.218766 0.711521 0.998047
O O13 0.000000 0.500000 0.500000
O O14 0.000000 0.500000 0.000000
#
# Coordination Sequence:
#
# PCOD9064523 Si02
#       6
#     2   2   2   2   2   2
#     4  11  25  44  71 103 136 192 232 286 354 414
#     4  12  23  46  72 103 142 180 234 289 349 419
#     4  11  24  47  68 100 145 185 236 287 346 420
#     4  11  24  46  68 101 141 182 236 285 348 418
#     4  11  26  45  70 104 139 185 232 287 352 415
#     4  12  25  44  69 104 142 183 234 292 349 418
#
# _framework density 22.737219
#
# number of rings (size 3 to 8) (size 9 to 14) (size 15 to 20)
#    0.000    0.667    5.000    3.500    4.667    2.000 
#    0.000    0.000    0.000    0.000    0.000    0.000 
#    0.000    0.000    0.000    0.000    0.000    0.000 
#
# Total GULP energy -67010.404127 kJ/mol
# GULP energy per Si atom -5584.200344 kJ/mol
# Density = 2.268547 g / cm^3
# Si number density = 22.737219 Si / 1000 Ang^3
#
#
#
# Elastic Constant Matrix: (Units=GPa)
#
#
# Indices 1 2 3 4 5 6 
#
# 1 152.2254 70.3435 38.4993 -3.4239 -2.3705 16.5901
# 2 70.3435 125.8997 20.2741 -16.2932 3.0244 9.8978
# 3 38.4993 20.2741 95.7092 -32.0919 14.8447 4.7295
# 4 -3.4239 -16.2932 -32.0919 40.3039 -0.8919 -1.2121
# 5 -2.3705 3.0244 14.8447 -0.8919 33.4530 -16.1732
# 6 16.5901 9.8978 4.7295 -1.2121 -16.1732 66.1008
#
#
#
# Elastic Compliance Matrix: (Units=1/GPa)
#
#
# Indices 1 2 3 4 5 6 
#
# 1 0.010632 -0.005827 -0.005415 -0.005716 0.003175 -0.000737
# 2 -0.005827 0.011751 0.002387 0.006060 -0.002887 -0.001063
# 3 -0.005415 0.002387 0.018863 0.015235 -0.009750 -0.002454
# 4 -0.005716 0.006060 0.015235 0.038690 -0.007498 -0.001688
# 5 0.003175 -0.002887 -0.009750 -0.007498 0.039242 0.009797
# 6 -0.000737 -0.001063 -0.002454 -0.001688 0.009797 0.018014
#
#
# Mechanical properties :
#
#
# Convention : Reuss Voigt Hill
#
# Bulk Modulus (GPa) = 42.48750 70.22977 56.35864
# Shear Modulus (GPa) = 30.72236 44.28604 37.50420
#
# Velocity S-wave (km/s) = 3.67985 4.41810 4.06576
# Velocity P-wave (km/s) = 6.06481 7.54856 6.84700
#
# Compressibility (1/GPa) = 0.02353633
#
# Stress axis : x y z
#
# Youngs Moduli (GPa) = 94.05173 85.09772 53.01423
#
# Poissons Ratio (x) = 0.49584 0.28709
# Poissons Ratio (y) = 0.54801 -0.12654
# Poissons Ratio (z) = 0.50931 -0.20312
#
# Static dielectric constant tensor:
#      x y z
#    x 1.876330 0.120210 -0.015800 
#    y 0.120210 2.417360 -0.062030 
#    z -0.015800 -0.062030 2.005830 
# 
# From -- ./inp_files/241305.got.cif
#   From: 2010.05.17/outbox.cif.g08.bks.cpg/sg2_121_cif.got.tgz:241305.got - 2010.06.03 11:33:40.
