data_PCOD9064390
_publ_section_title
;
Structure prediction by ZEFSAII (Michael W. Deem and Ramdas Pophale) SiO2 
 PCOD9064390
Probable space group: P -1
;
_chemical_formula_sum "Si O2"
_cell_formula_units_Z 13
_cell_length_a 9.092713
_cell_length_b 9.019000
_cell_length_c 9.267869
_cell_angle_alpha 113.619056
_cell_angle_beta 50.206140
_cell_angle_gamma 100.675993
_cell_volume 532.310843
_symmetry_space_group_name_H-M "P -1"
_symmetry_group_IT_number 2
_symmetry_cell_setting 'triclinic'
loop_
_space_group_symop_operation_xyz
x,y,z
-x,-y,-z
loop_
_atom_site_type_symbol
_atom_site_label
_atom_site_fract_x
_atom_site_fract_y
_atom_site_fract_z
Si Si1 0.227931 0.435483 0.485896
Si Si2 0.819365 0.888599 0.063044
Si Si3 0.204030 0.397193 0.818419
Si Si4 0.442119 0.616659 0.951217
Si Si5 0.000000 0.000000 0.500000
Si Si6 0.032828 0.735097 0.605721
Si Si7 0.421357 0.966369 0.193643
O O1 0.265367 0.401657 0.615548
O O2 0.384924 0.347722 0.247715
O O3 0.027073 0.375817 0.533888
O O4 0.209997 0.628203 0.530595
O O5 0.803730 0.778386 0.171721
O O6 0.603843 0.969559 0.187716
O O7 0.879800 0.766894 0.844152
O O8 0.000000 0.000000 0.000000
O O9 0.325855 0.509181 0.880289
O O10 0.000000 0.500000 0.000000
O O11 0.500000 0.500000 0.000000
O O12 0.351623 0.784495 0.143335
O O13 0.950321 0.092074 0.410351
O O14 0.782559 0.934238 0.610196
O O15 0.500000 0.000000 0.000000
#
# Coordination Sequence:
#
# PCOD9064390 Si02
#       7
#     2   2   2   2   1   2   2
#     4  11  24  45  75 114 151 193 261 320 390 469
#     4  12  27  51  72 113 164 202 258 329 393 473
#     4  12  27  44  74 115 149 201 255 326 391 456
#     4  12  24  48  77 107 155 197 262 321 387 474
#     4  12  26  44  80 110 146 208 270 308 388 474
#     4  11  24  45  74 110 150 202 257 317 392 467
#     4  12  26  48  78 113 152 209 259 320 392 466
#
# _framework density 24.421818999999999
#
# number of rings (size 3 to 8) (size 9 to 14) (size 15 to 20)
#    0.000    0.308    6.154    1.385    8.615    0.000 
#    0.000    0.769    0.000    0.000    0.000    0.000 
#    0.000    0.000    0.000    0.000    0.000    0.000 
#
# Total GULP energy -72401.656171 kJ/mol
# GULP energy per Si atom -5569.358167 kJ/mol
# Density = 2.436623 g / cm^3
# Si number density = 24.421819 Si / 1000 Ang^3
#
#
#
# Elastic Constant Matrix: (Units=GPa)
#
#
# Indices 1 2 3 4 5 6 
#
# 1 183.1349 64.5720 44.0909 -17.0935 12.5220 4.2039
# 2 64.5720 120.7557 6.5013 -24.6095 20.0270 -14.0882
# 3 44.0909 6.5013 76.1577 -18.5529 12.8924 -9.9826
# 4 -17.0935 -24.6095 -18.5529 46.7575 -4.3380 10.9641
# 5 12.5220 20.0270 12.8924 -4.3380 49.4768 -7.2839
# 6 4.2039 -14.0882 -9.9826 10.9641 -7.2839 54.8856
#
#
#
# Elastic Compliance Matrix: (Units=1/GPa)
#
#
# Indices 1 2 3 4 5 6 
#
# 1 0.008271 -0.004723 -0.005027 -0.000805 0.000688 -0.002508
# 2 -0.004723 0.012722 0.004056 0.005561 -0.004125 0.002707
# 3 -0.005027 0.004056 0.018367 0.006516 -0.004155 0.002914
# 4 -0.000805 0.005561 0.006516 0.027138 -0.001806 -0.002987
# 5 0.000688 -0.004125 -0.004155 -0.001806 0.022856 0.001527
# 6 -0.002508 0.002707 0.002914 -0.002987 0.001527 0.020436
#
#
# Mechanical properties :
#
#
# Convention : Reuss Voigt Hill
#
# Bulk Modulus (GPa) = 35.74856 67.81963 51.78409
# Shear Modulus (GPa) = 38.31348 47.88291 43.09819
#
# Velocity S-wave (km/s) = 3.96513 4.43274 4.20544
# Velocity P-wave (km/s) = 5.96932 7.35046 6.69560
#
# Compressibility (1/GPa) = 0.02797316
#
# Stress axis : x y z
#
# Youngs Moduli (GPa) = 120.89807 78.60633 54.44400
#
# Poissons Ratio (x) = 0.37127 0.27368
# Poissons Ratio (y) = 0.57102 -0.22084
# Poissons Ratio (z) = 0.60773 -0.31885
#
# Static dielectric constant tensor:
#      x y z
#    x 1.853880 -0.022160 -0.068030 
#    y -0.022160 1.861750 -0.036040 
#    z -0.068030 -0.036040 1.944310 
# 
# From -- ./inp_files/156517.got.cif
#   From: 2010.05.17/outbox.cif.g08.bks.cpg/sg2_79_cif.got.tgz:156517.got - 2010.06.03 11:33:40.
