data_PCOD9064258
_publ_section_title
;
Structure prediction by ZEFSAII (Michael W. Deem and Ramdas Pophale) SiO2 
 PCOD9064258
Probable space group: P -1
;
_chemical_formula_sum "Si O2"
_cell_formula_units_Z 14
_cell_length_a 13.995640
_cell_length_b 12.577775
_cell_length_c 8.674586
_cell_angle_alpha 64.795403
_cell_angle_beta 86.926609
_cell_angle_gamma 31.743082
_cell_volume 553.536918
_symmetry_space_group_name_H-M "P -1"
_symmetry_group_IT_number 2
_symmetry_cell_setting 'triclinic'
loop_
_space_group_symop_operation_xyz
x,y,z
-x,-y,-z
loop_
_atom_site_type_symbol
_atom_site_label
_atom_site_fract_x
_atom_site_fract_y
_atom_site_fract_z
Si Si1 0.109571 0.224633 0.159488
Si Si2 0.343042 0.575177 0.300437
Si Si3 0.238348 0.974364 0.592903
Si Si4 0.929411 0.884429 0.039770
Si Si5 0.401520 0.097534 0.272735
Si Si6 0.561980 0.138092 0.066747
Si Si7 0.165936 0.728323 0.548919
O O1 0.360001 0.013881 0.255935
O O2 0.094455 0.226941 0.343235
O O3 0.093547 0.119757 0.136450
O O4 0.873920 0.551361 0.913702
O O5 0.600751 0.275791 0.388430
O O6 0.228469 0.823394 0.092197
O O7 0.314690 0.609897 0.465493
O O8 0.191787 0.631873 0.218952
O O9 0.416464 0.829718 0.786343
O O10 0.040869 0.119358 0.602908
O O11 0.807704 0.904699 0.109767
O O12 0.529116 0.038453 0.173568
O O13 0.500000 0.000000 0.500000
O O14 0.344868 0.446356 0.807705
O O15 0.000000 0.000000 0.500000
#
# Coordination Sequence:
#
# PCOD9064258 Si02
#       7
#     2   2   2   2   2   2   2
#     4  11  24  45  73 101 138 183 238 295 360 416
#     4  11  26  45  70 104 152 188 235 287 355 427
#     4  12  24  44  73 103 143 189 233 292 352 425
#     4  11  25  45  69 105 143 190 235 293 353 425
#     4  11  24  45  74 102 134 187 238 297 358 413
#     4  12  25  45  72 103 143 184 241 294 350 424
#     4  12  26  43  70 105 142 190 237 287 354 422
#
# _framework density 25.291898
#
# number of rings (size 3 to 8) (size 9 to 14) (size 15 to 20)
#    0.000    0.571    4.286    3.429    4.000    3.429 
#    0.000    0.714    0.000    0.000    0.000    0.000 
#    0.000    0.000    0.000    0.000    0.000    0.000 
#
# Total GULP energy -78252.411835 kJ/mol
# GULP energy per Si atom -5589.457988 kJ/mol
# Density = 2.523433 g / cm^3
# Si number density = 25.291898 Si / 1000 Ang^3
#
#
#
# Elastic Constant Matrix: (Units=GPa)
#
#
# Indices 1 2 3 4 5 6 
#
# 1 111.7029 13.0183 20.5503 5.2859 21.0900 -31.8766
# 2 13.0183 75.6006 23.0852 3.4035 4.4830 -26.0134
# 3 20.5503 23.0852 150.6653 5.9929 11.1812 -5.7293
# 4 5.2859 3.4035 5.9929 36.5309 -4.4225 -0.5366
# 5 21.0900 4.4830 11.1812 -4.4225 39.7563 8.2764
# 6 -31.8766 -26.0134 -5.7293 -0.5366 8.2764 46.9902
#
#
#
# Elastic Compliance Matrix: (Units=1/GPa)
#
#
# Indices 1 2 3 4 5 6 
#
# 1 0.015011 0.003330 -0.001053 -0.003476 -0.011312 0.013851
# 2 0.003330 0.018354 -0.002206 -0.002390 -0.006234 0.013221
# 3 -0.001053 -0.002206 0.007210 -0.000977 -0.001149 -0.000865
# 4 -0.003476 -0.002390 -0.000977 0.028988 0.006576 -0.004627
# 5 -0.011312 -0.006234 -0.001149 0.006576 0.036583 -0.017633
# 6 0.013851 0.013221 -0.000865 -0.004627 -0.017633 0.040943
#
#
# Mechanical properties :
#
#
# Convention : Reuss Voigt Hill
#
# Bulk Modulus (GPa) = 24.56007 50.14182 37.35095
# Shear Modulus (GPa) = 31.14879 43.40981 37.27930
#
# Velocity S-wave (km/s) = 3.51318 4.14738 3.84339
# Velocity P-wave (km/s) = 5.11745 6.54237 5.87329
#
# Compressibility (1/GPa) = 0.04071650
#
# Stress axis : x y z
#
# Youngs Moduli (GPa) = 66.61871 54.48339 138.69471
#
# Poissons Ratio (x) = -0.18142 0.14607
# Poissons Ratio (y) = -0.22183 0.30596
# Poissons Ratio (z) = 0.07016 0.12019
#
# Static dielectric constant tensor:
#      x y z
#    x 2.168900 0.031200 -0.082990 
#    y 0.031200 2.011090 0.018060 
#    z -0.082990 0.018060 2.044000 
# 
# From -- ./inp_files/312687.got.cif
#   From: 2010.05.17/outbox.cif.g08.bks.cpg/sg2_157_cif.got.tgz:312687.got - 2010.06.03 11:33:40.
