data_PCOD9064802
_publ_section_title
;
Structure prediction by ZEFSAII (Michael W. Deem and Ramdas Pophale) SiO2 
 PCOD9064802
Probable space group: P -1
;
_chemical_formula_sum "Si O2"
_cell_formula_units_Z 13
_cell_length_a 8.330001
_cell_length_b 8.987908
_cell_length_c 11.319092
_cell_angle_alpha 52.237772
_cell_angle_beta 131.960853
_cell_angle_gamma 107.801504
_cell_volume 490.366451
_symmetry_space_group_name_H-M "P -1"
_symmetry_group_IT_number 2
_symmetry_cell_setting 'triclinic'
loop_
_space_group_symop_operation_xyz
x,y,z
-x,-y,-z
loop_
_atom_site_type_symbol
_atom_site_label
_atom_site_fract_x
_atom_site_fract_y
_atom_site_fract_z
Si Si1 0.809176 0.654638 0.778710
Si Si2 0.642182 0.053205 0.810588
Si Si3 0.242598 0.569891 0.346744
Si Si4 0.172361 0.983948 0.700943
Si Si5 0.500000 0.000000 0.500000
Si Si6 0.876542 0.738117 0.241904
Si Si7 0.452161 0.570859 0.077703
O O1 0.837369 0.593555 0.687109
O O2 0.606094 0.597846 0.785307
O O3 0.749527 0.879098 0.651000
O O4 0.000000 0.500000 0.000000
O O5 0.761849 0.227789 0.819729
O O6 0.405143 0.049213 0.751860
O O7 0.591992 0.062158 0.643015
O O8 0.796602 0.864522 0.024500
O O9 0.500000 0.500000 0.500000
O O10 0.100572 0.606296 0.376165
O O11 0.093708 0.124475 0.702712
O O12 0.000000 0.000000 0.500000
O O13 0.260752 0.759977 0.888355
O O14 0.670365 0.632018 0.207068
O O15 0.500000 0.500000 0.000000
#
# Coordination Sequence:
#
# PCOD9064802 Si02
#       7
#     2   2   2   2   1   2   2
#     4  12  26  47  76 110 155 199 252 319 378 463
#     4  11  24  46  73 108 151 198 250 311 375 466
#     4  12  25  45  71 105 148 190 254 308 376 455
#     4  11  26  45  77 112 151 196 257 315 384 460
#     4  12  26  44  78 112 154 192 262 302 388 448
#     4  11  25  49  75 107 151 207 249 319 392 450
#     4  11  24  47  74 108 154 200 251 311 392 454
#
# _framework density 26.510784000000001
#
# number of rings (size 3 to 8) (size 9 to 14) (size 15 to 20)
#    0.000    0.615    1.538    7.846    4.308    2.462 
#    0.000    2.308    0.000    0.000    0.000    0.000 
#    0.000    0.000    0.000    0.000    0.000    0.000 
#
# Total GULP energy -72506.167409 kJ/mol
# GULP energy per Si atom -5577.397493 kJ/mol
# Density = 2.645044 g / cm^3
# Si number density = 26.510784 Si / 1000 Ang^3
#
#
#
# Elastic Constant Matrix: (Units=GPa)
#
#
# Indices 1 2 3 4 5 6 
#
# 1 113.4601 57.2150 28.6834 12.9813 13.9026 -23.0195
# 2 57.2150 123.0070 20.0265 23.8481 8.4774 -42.5280
# 3 28.6834 20.0265 144.8210 11.4408 22.0063 -27.8231
# 4 12.9813 23.8481 11.4408 24.3403 0.9409 6.4758
# 5 13.9026 8.4774 22.0063 0.9409 47.9573 -10.8585
# 6 -23.0195 -42.5280 -27.8231 6.4758 -10.8585 73.9593
#
#
#
# Elastic Compliance Matrix: (Units=1/GPa)
#
#
# Indices 1 2 3 4 5 6 
#
# 1 0.012052 -0.005047 -0.001297 -0.000837 -0.001957 0.000147
# 2 -0.005047 0.017413 0.002082 -0.018247 0.000246 0.010859
# 3 -0.001297 0.002082 0.008618 -0.006398 -0.002876 0.004173
# 4 -0.000837 -0.018247 -0.006398 0.067426 0.000791 -0.018947
# 5 -0.001957 0.000246 -0.002876 0.000791 0.023081 0.001770
# 6 0.000147 0.010859 0.004173 -0.018947 0.001770 0.023300
#
#
# Mechanical properties :
#
#
# Convention : Reuss Voigt Hill
#
# Bulk Modulus (GPa) = 33.83063 65.90419 49.86741
# Shear Modulus (GPa) = 29.36566 47.60893 38.48730
#
# Velocity S-wave (km/s) = 3.33180 4.24232 3.81433
# Velocity P-wave (km/s) = 5.25262 6.99355 6.18465
#
# Compressibility (1/GPa) = 0.02955901
#
# Stress axis : x y z
#
# Youngs Moduli (GPa) = 82.97470 57.42815 116.03000
#
# Poissons Ratio (x) = 0.28982 0.15055
# Poissons Ratio (y) = 0.41874 -0.24156
# Poissons Ratio (z) = 0.10766 -0.11956
#
# Static dielectric constant tensor:
#      x y z
#    x 2.087180 0.165710 0.037230 
#    y 0.165710 2.332610 -0.163960 
#    z 0.037230 -0.163960 2.116380 
# 
# From -- ./inp_files/174269.got.cif
#   From: 2010.05.17/outbox.cif.g08.bks.cpg/sg2_88_cif.got.tgz:174269.got - 2010.06.03 11:33:40.
