data_PCOD9064216
_publ_section_title
;
Structure prediction by ZEFSAII (Michael W. Deem and Ramdas Pophale) SiO2 
 PCOD9064216
Probable space group: P -1
;
_chemical_formula_sum "Si O2"
_cell_formula_units_Z 13
_cell_length_a 8.086447
_cell_length_b 8.039407
_cell_length_c 11.604694
_cell_angle_alpha 107.302705
_cell_angle_beta 52.372468
_cell_angle_gamma 125.398136
_cell_volume 485.200015
_symmetry_space_group_name_H-M "P -1"
_symmetry_group_IT_number 2
_symmetry_cell_setting 'triclinic'
loop_
_space_group_symop_operation_xyz
x,y,z
-x,-y,-z
loop_
_atom_site_type_symbol
_atom_site_label
_atom_site_fract_x
_atom_site_fract_y
_atom_site_fract_z
Si Si1 0.164530 0.672479 0.683206
Si Si2 0.477912 0.394607 0.637882
Si Si3 0.971192 0.780342 0.563487
Si Si4 0.373641 0.630703 0.049264
Si Si5 0.987285 0.183589 0.695230
Si Si6 0.274253 0.060363 0.857937
Si Si7 0.500000 0.000000 0.000000
O O1 0.391584 0.669487 0.526745
O O2 0.052294 0.703588 0.619830
O O3 0.909268 0.500652 0.820160
O O4 0.264206 0.870006 0.762831
O O5 0.684004 0.621598 0.633160
O O6 0.234252 0.367736 0.681852
O O7 0.388983 0.245192 0.755448
O O8 0.082944 0.772990 0.391569
O O9 0.044605 0.007897 0.606450
O O10 0.544791 0.854901 0.090322
O O11 0.500000 0.500000 0.000000
O O12 0.410435 0.748108 0.939517
O O13 0.778972 0.090877 0.857279
O O14 0.000000 0.000000 0.000000
#
# Coordination Sequence:
#
# PCOD9064216 Si02
#       7
#     2   2   2   2   2   2   1
#     4  12  25  45  75 111 146 205 260 310 383 460
#     4  12  25  43  72 108 149 198 262 313 378 457
#     4  11  24  45  72 104 150 204 248 315 383 450
#     4  12  26  50  79 111 154 201 253 319 384 460
#     4  11  26  46  70 105 157 191 255 326 375 457
#     4  12  25  42  75 107 151 197 257 314 379 457
#     4  12  28  50  78 112 152 202 258 314 398 456
#
# _framework density 26.793074000000001
#
# number of rings (size 3 to 8) (size 9 to 14) (size 15 to 20)
#    0.000    0.308    4.615    4.154    2.154    1.231 
#    0.000    1.538    0.000    0.000    0.000    0.000 
#    0.000    0.000    0.000    0.000    0.000    0.000 
#
# Total GULP energy -72624.891521 kJ/mol
# GULP energy per Si atom -5586.530117 kJ/mol
# Density = 2.673209 g / cm^3
# Si number density = 26.793074 Si / 1000 Ang^3
#
#
#
# Elastic Constant Matrix: (Units=GPa)
#
#
# Indices 1 2 3 4 5 6 
#
# 1 89.9248 13.4008 42.2326 -7.7067 -17.6641 21.5717
# 2 13.4008 100.3104 36.0237 -34.7611 10.0704 7.5176
# 3 42.2326 36.0237 151.8337 -18.7718 -7.2702 10.1968
# 4 -7.7067 -34.7611 -18.7718 51.5562 -11.6288 4.1701
# 5 -17.6641 10.0704 -7.2702 -11.6288 44.0721 -7.7089
# 6 21.5717 7.5176 10.1968 4.1701 -7.7089 54.7356
#
#
#
# Elastic Compliance Matrix: (Units=1/GPa)
#
#
# Indices 1 2 3 4 5 6 
#
# 1 0.015098 -0.000134 -0.003272 0.002576 0.005389 -0.004760
# 2 -0.000134 0.014057 -0.002181 0.008447 -0.001811 -0.002370
# 3 -0.003272 -0.002181 0.008200 0.001216 0.000877 0.000092
# 4 0.002576 0.008447 0.001216 0.027554 0.005932 -0.003666
# 5 0.005389 -0.001811 0.000877 0.005932 0.027209 0.001342
# 6 -0.004760 -0.002370 0.000092 -0.003666 0.001342 0.020922
#
#
# Mechanical properties :
#
#
# Convention : Reuss Voigt Hill
#
# Bulk Modulus (GPa) = 38.19475 58.37591 48.28533
# Shear Modulus (GPa) = 37.61122 46.76689 42.18906
#
# Velocity S-wave (km/s) = 3.75075 4.18243 3.97246
# Velocity P-wave (km/s) = 5.74838 6.72002 6.25310
#
# Compressibility (1/GPa) = 0.02618161
#
# Stress axis : x y z
#
# Youngs Moduli (GPa) = 66.23393 71.14034 121.95415
#
# Poissons Ratio (x) = 0.00951 0.39899
# Poissons Ratio (y) = 0.00886 0.26600
# Poissons Ratio (z) = 0.21669 0.15517
#
# Static dielectric constant tensor:
#      x y z
#    x 1.200020 0.243250 -0.621840 
#    y 0.243250 2.144880 0.354540 
#    z -0.621840 0.354540 1.642180 
# 
# From -- ./inp_files/379825.got.cif
#   From: 2010.05.17/outbox.cif.g08.bks.cpg/sg2_190_cif.got.tgz:379825.got - 2010.06.03 11:33:40.
