data_PCOD9064504
_publ_section_title
;
Structure prediction by ZEFSAII (Michael W. Deem and Ramdas Pophale) SiO2 
 PCOD9064504
Probable space group: P -1
;
_chemical_formula_sum "Si O2"
_cell_formula_units_Z 16
_cell_length_a 8.103124
_cell_length_b 17.933676
_cell_length_c 6.113146
_cell_angle_alpha 63.438796
_cell_angle_beta 58.247197
_cell_angle_gamma 88.353108
_cell_volume 650.266645
_symmetry_space_group_name_H-M "P -1"
_symmetry_group_IT_number 2
_symmetry_cell_setting 'triclinic'
loop_
_space_group_symop_operation_xyz
x,y,z
-x,-y,-z
loop_
_atom_site_type_symbol
_atom_site_label
_atom_site_fract_x
_atom_site_fract_y
_atom_site_fract_z
Si Si1 0.641064 0.475718 0.616533
Si Si2 0.710031 0.631247 0.700660
Si Si3 0.877709 0.367010 0.358543
Si Si4 0.188401 0.211081 0.904061
Si Si5 0.490369 0.774628 0.979615
Si Si6 0.240769 0.755056 0.760265
Si Si7 0.915315 0.990322 0.824542
Si Si8 0.379320 0.906355 0.128239
O O1 0.500000 0.500000 0.500000
O O2 0.714320 0.555406 0.625015
O O3 0.488728 0.401384 0.966565
O O4 0.181278 0.550781 0.605125
O O5 0.907971 0.641140 0.699091
O O6 0.720527 0.715295 0.435909
O O7 0.698952 0.290085 0.683064
O O8 0.843604 0.340816 0.162203
O O9 0.309638 0.233508 0.022593
O O10 0.195047 0.113762 0.967446
O O11 0.957956 0.216631 0.067532
O O12 0.483239 0.873693 0.895683
O O13 0.409248 0.756915 0.817174
O O14 0.350715 0.831864 0.421636
O O15 0.831986 0.075328 0.786424
O O16 0.000000 0.000000 0.500000
O O17 0.000000 0.000000 0.000000
O O18 0.500000 0.000000 0.000000
#
# Coordination Sequence:
#
# PCOD9064504 Si02
#       8
#     2   2   2   2   2   2   2   2
#     4  11  27  52  78 119 153 199 271 316 405 496
#     4  11  27  50  81 113 160 206 257 333 398 493
#     4  11  26  48  77 113 154 201 255 327 401 470
#     4  12  25  51  79 115 157 215 265 332 410 479
#     4  11  25  46  75 111 154 203 266 326 403 474
#     4  11  26  47  75 111 158 205 271 326 396 491
#     4  12  27  48  77 112 159 212 276 338 407 485
#     4  11  24  46  65 111 153 206 268 335 401 469
#
# _framework density 24.605291000000001
#
# number of rings (size 3 to 8) (size 9 to 14) (size 15 to 20)
#    0.000    0.750    3.750    1.875    5.250    6.000 
#    0.000    0.000    0.000    0.000    0.000    0.000 
#    0.000    0.000    0.000    0.000    0.000    0.000 
#
# Total GULP energy -89254.065015 kJ/mol
# GULP energy per Si atom -5578.379063 kJ/mol
# Density = 2.454929 g / cm^3
# Si number density = 24.605291 Si / 1000 Ang^3
#
#
#
# Elastic Constant Matrix: (Units=GPa)
#
#
# Indices 1 2 3 4 5 6 
#
# 1 144.7715 84.2175 56.5290 24.8830 24.9717 7.6279
# 2 84.2175 141.3741 34.4472 4.6480 11.0822 8.1652
# 3 56.5290 34.4472 99.4490 -8.6904 24.3864 4.3639
# 4 24.8830 4.6480 -8.6904 38.2590 2.1496 2.2299
# 5 24.9717 11.0822 24.3864 2.1496 46.0078 9.2714
# 6 7.6279 8.1652 4.3639 2.2299 9.2714 52.5970
#
#
#
# Elastic Compliance Matrix: (Units=1/GPa)
#
#
# Indices 1 2 3 4 5 6 
#
# 1 0.016423 -0.007496 -0.007015 -0.011220 -0.002938 0.000357
# 2 -0.007496 0.011286 0.000425 0.003597 0.001170 -0.001059
# 3 -0.007015 0.000425 0.015882 0.008396 -0.005143 0.000184
# 4 -0.011220 0.003597 0.008396 0.035000 -0.000662 -0.000995
# 5 -0.002938 0.001170 -0.005143 -0.000662 0.026610 -0.003991
# 6 0.000357 -0.001059 0.000184 -0.000995 -0.003991 0.019856
#
#
# Mechanical properties :
#
#
# Convention : Reuss Voigt Hill
#
# Bulk Modulus (GPa) = 64.84435 81.77580 73.31007
# Shear Modulus (GPa) = 31.57199 41.39949 36.48574
#
# Velocity S-wave (km/s) = 3.58598 4.10633 3.85495
# Velocity P-wave (km/s) = 6.59975 7.46926 7.04793
#
# Compressibility (1/GPa) = 0.01542154
#
# Stress axis : x y z
#
# Youngs Moduli (GPa) = 60.88857 88.60291 62.96387
#
# Poissons Ratio (x) = 0.66415 0.44167
# Poissons Ratio (y) = 0.45641 -0.02678
# Poissons Ratio (z) = 0.42711 -0.03768
#
# Static dielectric constant tensor:
#      x y z
#    x 1.527920 0.003640 -0.135380 
#    y 0.003640 2.122860 0.132720 
#    z -0.135380 0.132720 2.034420 
# 
# From -- ./inp_files/52480.got.cif
#   From: 2010.05.17/outbox.cif.g08.bks.cpg/sg2_27_cif.got.tgz:52480.got - 2010.06.03 11:33:40.
