data_PCOD9064903
_publ_section_title
;
Structure prediction by ZEFSAII (Michael W. Deem and Ramdas Pophale) SiO2 
 PCOD9064903
Probable space group: P -1
;
_chemical_formula_sum "Si O2"
_cell_formula_units_Z 14
_cell_length_a 5.094258
_cell_length_b 19.460996
_cell_length_c 7.528910
_cell_angle_alpha 76.915971
_cell_angle_beta 70.178074
_cell_angle_gamma 67.809679
_cell_volume 646.025236
_symmetry_space_group_name_H-M "P -1"
_symmetry_group_IT_number 2
_symmetry_cell_setting 'triclinic'
loop_
_space_group_symop_operation_xyz
x,y,z
-x,-y,-z
loop_
_atom_site_type_symbol
_atom_site_label
_atom_site_fract_x
_atom_site_fract_y
_atom_site_fract_z
Si Si1 0.692620 0.565663 0.980813
Si Si2 0.391233 0.268230 0.043047
Si Si3 0.743689 0.815297 0.538443
Si Si4 0.676676 0.500242 0.646094
Si Si5 0.915952 0.087164 0.426398
Si Si6 0.069866 0.215584 0.840150
Si Si7 0.171104 0.052857 0.006023
O O1 0.617443 0.560507 0.790485
O O2 0.743425 0.643301 0.962045
O O3 0.425557 0.559558 0.173951
O O4 0.000000 0.500000 0.000000
O O5 0.292215 0.236807 0.905989
O O6 0.743251 0.247623 0.972607
O O7 0.294947 0.228067 0.252588
O O8 0.913806 0.871821 0.517282
O O9 0.908095 0.758674 0.380096
O O10 0.424241 0.865560 0.514071
O O11 0.500000 0.500000 0.500000
O O12 0.000000 0.500000 0.500000
O O13 0.019686 0.088548 0.201449
O O14 0.000000 0.000000 0.500000
O O15 0.155034 0.125737 0.856453
O O16 0.500000 0.000000 0.000000
O O17 0.000000 0.000000 0.000000
#
# Coordination Sequence:
#
# PCOD9064903 Si02
#       7
#     2   2   2   2   2   2   2
#     4  11  27  47  78 112 149 196 250 303 370 441
#     4  12  27  47  72 101 151 184 236 302 355 430
#     4  12  24  47  67  99 140 183 235 287 359 424
#     4  11  24  46  75 110 152 184 249 299 363 442
#     4  12  23  42  68  98 138 179 234 297 347 419
#     4  12  26  46  69 103 142 186 239 289 366 426
#     4  12  22  39  66  98 134 177 234 293 346 420
#
# _framework density 21.67098
#
# number of rings (size 3 to 8) (size 9 to 14) (size 15 to 20)
#    0.000    0.286    4.286    4.714    4.000    2.286 
#    0.000    0.000    0.000    0.000    0.000    0.000 
#    0.000    0.000    0.000    0.000    0.000    0.000 
#
# Total GULP energy -78178.375780 kJ/mol
# GULP energy per Si atom -5584.169699 kJ/mol
# Density = 2.162166 g / cm^3
# Si number density = 21.670980 Si / 1000 Ang^3
#
#
#
# Elastic Constant Matrix: (Units=GPa)
#
#
# Indices 1 2 3 4 5 6 
#
# 1 129.7846 33.9176 15.8330 -9.6919 -1.0202 11.8619
# 2 33.9176 117.0318 9.5477 -10.5819 -0.5408 4.4931
# 3 15.8330 9.5477 160.3095 4.4770 7.9762 11.2276
# 4 -9.6919 -10.5819 4.4770 14.5683 8.7993 -3.7156
# 5 -1.0202 -0.5408 7.9762 8.7993 41.6078 8.0990
# 6 11.8619 4.4931 11.2276 -3.7156 8.0990 30.3361
#
#
#
# Elastic Compliance Matrix: (Units=1/GPa)
#
#
# Indices 1 2 3 4 5 6 
#
# 1 0.008845 -0.002050 -0.000694 0.004040 -0.000067 -0.002385
# 2 -0.002050 0.009779 -0.000559 0.006993 -0.001451 0.000804
# 3 -0.000694 -0.000559 0.006616 -0.003502 -0.000064 -0.002506
# 4 0.004040 0.006993 -0.003502 0.095215 -0.022455 0.016337
# 5 -0.000067 -0.001451 -0.000064 -0.022455 0.030862 -0.010725
# 6 -0.002385 0.000804 -0.002506 0.016337 -0.010725 0.039569
#
#
# Mechanical properties :
#
#
# Convention : Reuss Voigt Hill
#
# Bulk Modulus (GPa) = 53.66698 58.41361 56.04030
# Shear Modulus (GPa) = 24.54526 40.49094 32.51810
#
# Velocity S-wave (km/s) = 3.36911 4.32724 3.87788
# Velocity P-wave (km/s) = 6.32082 7.20971 6.77985
#
# Compressibility (1/GPa) = 0.01863343
#
# Stress axis : x y z
#
# Youngs Moduli (GPa) = 113.06210 102.25776 151.14185
#
# Poissons Ratio (x) = 0.20964 0.10488
# Poissons Ratio (y) = 0.23179 0.08454
# Poissons Ratio (z) = 0.07845 0.05720
#
# Static dielectric constant tensor:
#      x y z
#    x 1.800160 0.017690 -0.037240 
#    y 0.017690 1.856320 -0.120140 
#    z -0.037240 -0.120140 1.960780 
# 
# From -- ./inp_files/136693.got.cif
#   From: 2010.05.17/outbox.cif.g08.bks.cpg/sg2_69_cif.got.tgz:136693.got - 2010.06.03 11:33:40.
