data_PCOD9064899
_publ_section_title
;
Structure prediction by ZEFSAII (Michael W. Deem and Ramdas Pophale) SiO2 
 PCOD9064899
Probable space group: P -1
;
_chemical_formula_sum "Si O2"
_cell_formula_units_Z 14
_cell_length_a 10.734269
_cell_length_b 14.197888
_cell_length_c 8.656939
_cell_angle_alpha 122.307546
_cell_angle_beta 120.472709
_cell_angle_gamma 29.006016
_cell_volume 538.172704
_symmetry_space_group_name_H-M "P -1"
_symmetry_group_IT_number 2
_symmetry_cell_setting 'triclinic'
loop_
_space_group_symop_operation_xyz
x,y,z
-x,-y,-z
loop_
_atom_site_type_symbol
_atom_site_label
_atom_site_fract_x
_atom_site_fract_y
_atom_site_fract_z
Si Si1 0.007039 0.384249 0.003862
Si Si2 0.874807 0.313276 0.355136
Si Si3 0.658947 0.233444 0.652569
Si Si4 0.970477 0.848151 0.348650
Si Si5 0.500000 0.000000 0.500000
Si Si6 0.464317 0.789619 0.119448
Si Si7 0.802053 0.715033 0.627757
Si Si8 0.000000 0.000000 0.000000
O O1 0.710178 0.561195 0.028260
O O2 0.160895 0.298201 0.183242
O O3 0.119046 0.209914 0.829911
O O4 0.000000 0.500000 0.000000
O O5 0.640098 0.544853 0.367063
O O6 0.887535 0.274193 0.507563
O O7 0.139134 0.215735 0.392402
O O8 0.873084 0.203047 0.158747
O O9 0.820704 0.239083 0.719103
O O10 0.695237 0.169477 0.799003
O O11 0.775600 0.072202 0.462091
O O12 0.441891 0.147847 0.721924
O O13 0.489770 0.102688 0.446685
O O14 0.226634 0.928382 0.977220
O O15 0.000000 0.500000 0.500000
#
# Coordination Sequence:
#
# PCOD9064899 Si02
#       8
#     2   2   2   2   1   2   2   1
#     4  12  28  49  77 120 161 211 268 337 396 479
#     4  12  24  46  76 110 153 202 260 322 394 469
#     4  11  24  46  75 108 151 208 255 324 391 471
#     4  11  26  46  71 116 161 196 261 332 396 463
#     4  12  24  48  80 114 148 212 266 316 392 476
#     4  12  26  47  82 113 157 214 265 322 402 482
#     4  12  24  47  81 107 153 209 269 318 389 475
#     4  12  26  44  80 124 150 204 270 328 382 490
#
# _framework density 26.013954999999999
#
# number of rings (size 3 to 8) (size 9 to 14) (size 15 to 20)
#    0.000    0.286    5.714    2.143    4.000    1.143 
#    2.571    0.714    0.000    0.000    0.000    0.000 
#    0.000    0.000    0.000    0.000    0.000    0.000 
#
# Total GULP energy -77979.963752 kJ/mol
# GULP energy per Si atom -5569.997411 kJ/mol
# Density = 2.595475 g / cm^3
# Si number density = 26.013955 Si / 1000 Ang^3
#
#
#
# Elastic Constant Matrix: (Units=GPa)
#
#
# Indices 1 2 3 4 5 6 
#
# 1 126.9466 4.1201 32.3077 -5.4236 -0.2246 5.4140
# 2 4.1201 163.2285 43.6154 15.2849 -14.2559 23.2417
# 3 32.3077 43.6154 152.4640 22.4811 17.0921 16.7502
# 4 -5.4236 15.2849 22.4811 50.9515 6.1919 -1.2848
# 5 -0.2246 -14.2559 17.0921 6.1919 48.4748 -1.8430
# 6 5.4140 23.2417 16.7502 -1.2848 -1.8430 34.9726
#
#
#
# Elastic Compliance Matrix: (Units=1/GPa)
#
#
# Indices 1 2 3 4 5 6 
#
# 1 0.008510 0.000324 -0.002175 0.001677 0.000673 -0.000394
# 2 0.000324 0.007645 -0.001853 -0.001909 0.002989 -0.004156
# 3 -0.002175 -0.001853 0.008711 -0.003188 -0.003329 -0.002897
# 4 0.001677 -0.001909 -0.003188 0.022125 -0.002133 0.003237
# 5 0.000673 0.002989 -0.003329 -0.002133 0.022982 0.000637
# 6 -0.000394 -0.004156 -0.002897 0.003237 0.000637 0.032957
#
#
# Mechanical properties :
#
#
# Convention : Reuss Voigt Hill
#
# Bulk Modulus (GPa) = 57.27737 66.96951 62.12344
# Shear Modulus (GPa) = 43.04499 51.05284 47.04891
#
# Velocity S-wave (km/s) = 4.07220 4.43484 4.25738
# Velocity P-wave (km/s) = 6.64651 7.21272 6.93540
#
# Compressibility (1/GPa) = 0.01745890
#
# Stress axis : x y z
#
# Youngs Moduli (GPa) = 117.50767 130.80729 114.79086
#
# Poissons Ratio (x) = -0.04242 0.24972
# Poissons Ratio (y) = -0.03811 0.21266
# Poissons Ratio (z) = 0.25563 0.24233
#
# Static dielectric constant tensor:
#      x y z
#    x 1.440970 0.076010 -0.680800 
#    y 0.076010 1.715280 0.247760 
#    z -0.680800 0.247760 1.324620 
# 
# From -- ./inp_files/169076.got.cif
#   From: 2010.05.17/outbox.cif.g08.bks.cpg/sg2_85_cif.got.tgz:169076.got - 2010.06.03 11:33:40.
