data_PCOD9064829
_publ_section_title
;
Structure prediction by ZEFSAII (Michael W. Deem and Ramdas Pophale) SiO2 
 PCOD9064829
Probable space group: P -1
;
_chemical_formula_sum "Si O2"
_cell_formula_units_Z 16
_cell_length_a 13.880253
_cell_length_b 8.428033
_cell_length_c 8.184381
_cell_angle_alpha 96.292590
_cell_angle_beta 44.873098
_cell_angle_gamma 91.629249
_cell_volume 669.780739
_symmetry_space_group_name_H-M "P -1"
_symmetry_group_IT_number 2
_symmetry_cell_setting 'triclinic'
loop_
_space_group_symop_operation_xyz
x,y,z
-x,-y,-z
loop_
_atom_site_type_symbol
_atom_site_label
_atom_site_fract_x
_atom_site_fract_y
_atom_site_fract_z
Si Si1 0.643578 0.344346 0.467570
Si Si2 0.764145 0.836276 0.994586
Si Si3 0.727225 0.220273 0.675510
Si Si4 0.077091 0.633430 0.028027
Si Si5 0.025964 0.019353 0.776810
Si Si6 0.843878 0.505906 0.735126
Si Si7 0.381300 0.293240 0.551879
Si Si8 0.450290 0.930510 0.884880
O O1 0.625114 0.257412 0.651627
O O2 0.520537 0.304091 0.492400
O O3 0.642418 0.537050 0.489203
O O4 0.798294 0.297015 0.216427
O O5 0.778012 0.685744 0.839302
O O6 0.897105 0.937114 0.841486
O O7 0.632460 0.950196 0.122420
O O8 0.738714 0.759627 0.193762
O O9 0.785232 0.390763 0.659837
O O10 0.659343 0.185972 0.926506
O O11 0.840667 0.081397 0.467793
O O12 0.980491 0.788478 0.217953
O O13 0.152000 0.558398 0.090523
O O14 0.000000 0.500000 0.000000
O O15 0.000000 0.000000 0.000000
O O16 0.000000 0.500000 0.500000
O O17 0.418840 0.155695 0.364326
O O18 0.500000 0.000000 0.000000
#
# Coordination Sequence:
#
# PCOD9064829 Si02
#       8
#     2   2   2   2   2   2   2   2
#     4  11  24  46  74 105 137 194 245 293 352 429
#     4  12  26  49  75 105 144 194 238 297 358 439
#     4  12  27  46  72 110 148 182 236 304 366 428
#     4  12  25  46  74 106 143 192 241 292 354 441
#     4  12  26  44  76 108 143 186 235 292 369 430
#     4  12  25  45  70 110 145 182 237 295 372 418
#     4  11  26  48  75  99 141 197 251 289 349 430
#     4  12  30  46  69 107 145 192 239 301 365 412
#
# _framework density 23.888415999999999
#
# number of rings (size 3 to 8) (size 9 to 14) (size 15 to 20)
#    0.000    0.250    3.750    4.875    7.000    1.500 
#    0.000    0.000    0.000    0.000    0.000    0.000 
#    0.000    0.000    0.000    0.000    0.000    0.000 
#
# Total GULP energy -89550.174377 kJ/mol
# GULP energy per Si atom -5596.885899 kJ/mol
# Density = 2.383405 g / cm^3
# Si number density = 23.888416 Si / 1000 Ang^3
#
#
#
# Elastic Constant Matrix: (Units=GPa)
#
#
# Indices 1 2 3 4 5 6 
#
# 1 68.1904 23.0570 -13.2795 11.6415 -1.1365 2.6018
# 2 23.0570 105.1608 22.0079 23.5411 2.3409 0.4813
# 3 -13.2795 22.0079 79.1279 17.7250 1.7151 -2.9693
# 4 11.6415 23.5411 17.7250 49.1475 5.5120 2.7681
# 5 -1.1365 2.3409 1.7151 5.5120 28.0482 -5.9203
# 6 2.6018 0.4813 -2.9693 2.7681 -5.9203 42.8650
#
#
#
# Elastic Compliance Matrix: (Units=1/GPa)
#
#
# Indices 1 2 3 4 5 6 
#
# 1 0.017760 -0.004025 0.005011 -0.004248 0.001542 -0.000198
# 2 -0.004025 0.011857 -0.003167 -0.003562 -0.000240 0.000089
# 3 0.005011 -0.003167 0.015614 -0.005470 0.000859 0.001285
# 4 -0.004248 -0.003562 -0.005470 0.025744 -0.005117 -0.002450
# 5 0.001542 -0.000240 0.000859 -0.005117 0.037855 0.005527
# 6 -0.000198 0.000089 0.001285 -0.002450 0.005527 0.024351
#
#
# Mechanical properties :
#
#
# Convention : Reuss Voigt Hill
#
# Bulk Modulus (GPa) = 24.46868 35.11667 29.79267
# Shear Modulus (GPa) = 33.07614 38.72505 35.90059
#
# Velocity S-wave (km/s) = 3.72507 4.03063 3.88086
# Velocity P-wave (km/s) = 5.36346 6.03271 5.70790
#
# Compressibility (1/GPa) = 0.04086858
#
# Stress axis : x y z
#
# Youngs Moduli (GPa) = 56.30613 84.33972 64.04356
#
# Poissons Ratio (x) = 0.33948 -0.32090
# Poissons Ratio (y) = 0.22664 0.20282
# Poissons Ratio (z) = -0.28213 0.26709
#
# Static dielectric constant tensor:
#      x y z
#    x 1.671850 0.065940 -0.202840 
#    y 0.065940 2.014140 -0.168310 
#    z -0.202840 -0.168310 2.034790 
# 
# From -- ./inp_files/298647.got.cif
#   From: 2010.05.17/outbox.cif.g08.bks.cpg/sg2_150_cif.got.tgz:298647.got - 2010.06.03 11:33:40.
