data_PCOD9064593
_publ_section_title
;
Structure prediction by ZEFSAII (Michael W. Deem and Ramdas Pophale) SiO2 
 PCOD9064593
Probable space group: P -1
;
_chemical_formula_sum "Si O2"
_cell_formula_units_Z 16
_cell_length_a 9.391387
_cell_length_b 14.477166
_cell_length_c 11.759075
_cell_angle_alpha 29.753741
_cell_angle_beta 87.535730
_cell_angle_gamma 98.458612
_cell_volume 735.817103
_symmetry_space_group_name_H-M "P -1"
_symmetry_group_IT_number 2
_symmetry_cell_setting 'triclinic'
loop_
_space_group_symop_operation_xyz
x,y,z
-x,-y,-z
loop_
_atom_site_type_symbol
_atom_site_label
_atom_site_fract_x
_atom_site_fract_y
_atom_site_fract_z
Si Si1 0.644915 0.977669 0.460201
Si Si2 0.470650 0.203846 0.768303
Si Si3 0.428654 0.405177 0.781912
Si Si4 0.163851 0.086642 0.270798
Si Si5 0.920146 0.251570 0.036738
Si Si6 0.871931 0.951565 0.152877
Si Si7 0.384543 0.415205 0.199613
Si Si8 0.056412 0.323789 0.372857
O O1 0.736385 0.908490 0.627752
O O2 0.610663 0.806121 0.549758
O O3 0.500000 0.000000 0.500000
O O4 0.755437 0.176623 0.183533
O O5 0.484974 0.309052 0.777766
O O6 0.575357 0.383171 0.489725
O O7 0.296150 0.133142 0.805047
O O8 0.500000 0.000000 0.000000
O O9 0.544816 0.457075 0.828129
O O10 0.271737 0.237294 0.011990
O O11 0.024304 0.163928 0.202907
O O12 0.087271 0.855041 0.483667
O O13 0.901816 0.142384 0.031877
O O14 0.982917 0.489620 0.783888
O O15 0.890362 0.779223 0.414799
O O16 0.000000 0.000000 0.000000
O O17 0.208258 0.393043 0.213237
O O18 0.500000 0.500000 0.000000
#
# Coordination Sequence:
#
# PCOD9064593 Si02
#       8
#     2   2   2   2   2   2   2   2
#     4  12  25  43  72 106 144 190 238 296 368 438
#     4  11  25  43  72 105 143 186 244 302 363 430
#     4  11  25  44  71 102 146 188 237 302 364 422
#     4  11  25  46  68 103 149 181 244 293 356 434
#     4  11  25  44  73  98 143 192 233 301 366 427
#     4  11  24  46  70 101 142 185 240 301 361 433
#     4  12  23  45  72 105 144 188 237 300 359 435
#     4  11  25  46  71 101 142 187 242 297 361 429
#
# _framework density 21.744533000000001
#
# number of rings (size 3 to 8) (size 9 to 14) (size 15 to 20)
#    0.000    0.750    5.000    2.625    1.750    5.000 
#    0.000    0.000    0.000    0.000    0.000    0.000 
#    0.000    0.000    0.000    0.000    0.000    0.000 
#
# Total GULP energy -89456.677219 kJ/mol
# GULP energy per Si atom -5591.042326 kJ/mol
# Density = 2.169504 g / cm^3
# Si number density = 21.744533 Si / 1000 Ang^3
#
#
#
# Elastic Constant Matrix: (Units=GPa)
#
#
# Indices 1 2 3 4 5 6 
#
# 1 68.6763 60.4995 27.5238 -6.3587 -16.3897 -3.5711
# 2 60.4995 142.2716 58.7991 -16.4870 9.0595 5.0273
# 3 27.5238 58.7991 129.5317 -24.2240 -14.1710 -14.8677
# 4 -6.3587 -16.4870 -24.2240 50.2395 -10.8744 0.0541
# 5 -16.3897 9.0595 -14.1710 -10.8744 42.9808 -2.1795
# 6 -3.5711 5.0273 -14.8677 0.0541 -2.1795 32.8710
#
#
#
# Elastic Compliance Matrix: (Units=1/GPa)
#
#
# Indices 1 2 3 4 5 6 
#
# 1 0.033672 -0.017432 0.005088 0.005322 0.020043 0.009946
# 2 -0.017432 0.018632 -0.007973 -0.003053 -0.014447 -0.009302
# 3 0.005088 -0.007973 0.013649 0.006825 0.010284 0.008616
# 4 0.005322 -0.003053 0.006825 0.025370 0.011588 0.004859
# 5 0.020043 -0.014447 0.010284 0.011588 0.040872 0.011730
# 6 0.009946 -0.009302 0.008616 0.004859 0.011730 0.037592
#
#
# Mechanical properties :
#
#
# Convention : Reuss Voigt Hill
#
# Bulk Modulus (GPa) = 39.49815 70.45825 54.97820
# Shear Modulus (GPa) = 22.84564 38.12873 30.48719
#
# Velocity S-wave (km/s) = 3.24487 4.19201 3.74847
# Velocity P-wave (km/s) = 5.67829 7.47687 6.63877
#
# Compressibility (1/GPa) = 0.02531764
#
# Stress axis : x y z
#
# Youngs Moduli (GPa) = 29.69838 53.67218 73.26708
#
# Poissons Ratio (x) = 0.93563 -0.37277
# Poissons Ratio (y) = 0.51771 0.58414
# Poissons Ratio (z) = -0.15110 0.42792
#
# Static dielectric constant tensor:
#      x y z
#    x 1.807890 0.015570 -0.057050 
#    y 0.015570 1.808620 -0.014800 
#    z -0.057050 -0.014800 1.860940 
# 
# From -- ./inp_files/398187.got.cif
#   From: 2010.05.17/outbox.cif.g08.bks.cpg/sg2_200_cif.got.tgz:398187.got - 2010.06.03 11:33:40.
