data_PCOD9064405
_publ_section_title
;
Structure prediction by ZEFSAII (Michael W. Deem and Ramdas Pophale) SiO2 
 PCOD9064405
Probable space group: P -1
;
_chemical_formula_sum "Si O2"
_cell_formula_units_Z 12
_cell_length_a 7.886206
_cell_length_b 11.659330
_cell_length_c 8.126659
_cell_angle_alpha 39.675064
_cell_angle_beta 103.350959
_cell_angle_gamma 106.160613
_cell_volume 458.035124
_symmetry_space_group_name_H-M "P -1"
_symmetry_group_IT_number 2
_symmetry_cell_setting 'triclinic'
loop_
_space_group_symop_operation_xyz
x,y,z
-x,-y,-z
loop_
_atom_site_type_symbol
_atom_site_label
_atom_site_fract_x
_atom_site_fract_y
_atom_site_fract_z
Si Si1 0.725065 0.235544 0.123179
Si Si2 0.794748 0.108920 0.629993
Si Si3 0.292380 0.425928 0.072852
Si Si4 0.809050 0.460605 0.421421
Si Si5 0.185444 0.100715 0.626444
Si Si6 0.372143 0.231865 0.845970
O O1 0.694524 0.149040 0.395922
O O2 0.847030 0.109963 0.200683
O O3 0.775420 0.447692 0.941762
O O4 0.557990 0.222470 0.981245
O O5 0.751637 0.246698 0.610292
O O6 0.002191 0.154639 0.585502
O O7 0.757069 0.906432 0.913353
O O8 0.258920 0.221978 0.353681
O O9 0.500000 0.500000 0.000000
O O10 0.189798 0.455154 0.853079
O O11 0.677204 0.566577 0.374706
O O12 0.000000 0.500000 0.500000
O O13 0.330243 0.152658 0.743283
#
# Coordination Sequence:
#
# PCOD9064405 Si02
#       6
#     2   2   2   2   2   2
#     4  11  26  45  75 100 143 185 228 286 344 411
#     4  11  26  46  73 104 141 184 228 283 347 412
#     4  11  26  48  71 100 138 185 234 282 345 409
#     4  11  24  45  74  99 138 185 231 280 345 406
#     4  12  27  45  69 109 140 180 232 284 349 408
#     4  12  25  46  72 107 140 182 230 283 346 413
#
# _framework density 26.198865000000001
#
# number of rings (size 3 to 8) (size 9 to 14) (size 15 to 20)
#    0.000    0.667    3.333    3.000    4.667    6.000 
#    0.000    0.000    0.000    0.000    0.000    0.000 
#    0.000    0.000    0.000    0.000    0.000    0.000 
#
# Total GULP energy -67321.156552 kJ/mol
# GULP energy per Si atom -5610.096379 kJ/mol
# Density = 2.613923 g / cm^3
# Si number density = 26.198865 Si / 1000 Ang^3
#
#
#
# Elastic Constant Matrix: (Units=GPa)
#
#
# Indices 1 2 3 4 5 6 
#
# 1 93.6756 23.1016 66.9395 -2.0610 14.5934 8.1802
# 2 23.1016 146.3275 55.5291 5.8815 31.7343 -15.3153
# 3 66.9395 55.5291 79.9924 13.7505 14.6266 13.8878
# 4 -2.0610 5.8815 13.7505 67.2663 0.5318 29.7042
# 5 14.5934 31.7343 14.6266 0.5318 34.0258 0.0680
# 6 8.1802 -15.3153 13.8878 29.7042 0.0680 39.4284
#
#
#
# Elastic Compliance Matrix: (Units=1/GPa)
#
#
# Indices 1 2 3 4 5 6 
#
# 1 0.037007 0.011805 -0.039419 0.005193 -0.010032 0.006897
# 2 0.011805 0.017407 -0.021744 -0.002872 -0.011934 0.014155
# 3 -0.039419 -0.021744 0.062725 -0.003488 0.010317 -0.019751
# 4 0.005193 -0.002872 -0.003488 0.024582 0.001605 -0.019486
# 5 -0.010032 -0.011934 0.010317 0.001605 0.040377 -0.007467
# 6 0.006897 0.014155 -0.019751 -0.019486 -0.007467 0.051080
#
#
# Mechanical properties :
#
#
# Convention : Reuss Voigt Hill
#
# Bulk Modulus (GPa) = 54.28128 67.90401 61.09264
# Shear Modulus (GPa) = 14.79128 39.77242 27.28185
#
# Velocity S-wave (km/s) = 2.37866 3.90050 3.23048
# Velocity P-wave (km/s) = 5.32052 6.80148 6.10607
#
# Compressibility (1/GPa) = 0.01842256
#
# Stress axis : x y z
#
# Youngs Moduli (GPa) = 27.02165 57.44804 15.94258
#
# Poissons Ratio (x) = -0.67820 0.62845
# Poissons Ratio (y) = -0.31900 0.34666
# Poissons Ratio (z) = 1.06518 1.24917
#
# Static dielectric constant tensor:
#      x y z
#    x 2.026550 -0.029600 -0.007260 
#    y -0.029600 2.016340 -0.002900 
#    z -0.007260 -0.002900 1.976680 
# 
# From -- ./inp_files/173880.got.cif
#   From: 2010.05.17/outbox.cif.g08.bks.cpg/sg2_87_cif.got.tgz:173880.got - 2010.06.03 11:33:40.
