data_PCOD9064555
_publ_section_title
;
Structure prediction by ZEFSAII (Michael W. Deem and Ramdas Pophale) SiO2 
 PCOD9064555
Probable space group: P -1
;
_chemical_formula_sum "Si O2"
_cell_formula_units_Z 14
_cell_length_a 8.800228
_cell_length_b 14.807584
_cell_length_c 14.695244
_cell_angle_alpha 44.850249
_cell_angle_beta 41.317677
_cell_angle_gamma 33.064069
_cell_volume 672.758631
_symmetry_space_group_name_H-M "P -1"
_symmetry_group_IT_number 2
_symmetry_cell_setting 'triclinic'
loop_
_space_group_symop_operation_xyz
x,y,z
-x,-y,-z
loop_
_atom_site_type_symbol
_atom_site_label
_atom_site_fract_x
_atom_site_fract_y
_atom_site_fract_z
Si Si1 0.836122 0.552622 0.391816
Si Si2 0.146576 0.969444 0.857505
Si Si3 0.859563 0.117249 0.569087
Si Si4 0.133235 0.275373 0.306268
Si Si5 0.147446 0.584540 0.862556
Si Si6 0.843322 0.912937 0.881270
Si Si7 0.136847 0.654141 0.305261
O O1 0.482078 0.709168 0.420672
O O2 0.872149 0.431102 0.540124
O O3 0.995630 0.439847 0.310696
O O4 0.989182 0.624466 0.311940
O O5 0.511326 0.833752 0.793290
O O6 0.016782 0.909888 0.890868
O O7 0.039653 0.148752 0.744747
O O8 0.000000 0.000000 0.000000
O O9 0.066591 0.164756 0.464747
O O10 0.844789 0.020362 0.725532
O O11 0.000000 0.000000 0.500000
O O12 0.957529 0.329219 0.251141
O O13 0.510915 0.445950 0.802515
O O14 0.016258 0.727883 0.894555
O O15 0.000000 0.500000 0.000000
O O16 0.500000 0.000000 0.000000
#
# Coordination Sequence:
#
# PCOD9064555 Si02
#       7
#     2   2   2   2   2   2   2
#     4  11  25  42  74 104 140 182 236 301 350 419
#     4  12  28  47  71 105 146 190 238 298 356 426
#     4  12  24  45  75 107 146 185 240 296 353 428
#     4  12  25  44  72 104 142 186 240 292 359 415
#     4  12  26  45  68 102 142 189 235 291 355 428
#     4  12  27  46  73 105 145 190 237 293 364 424
#     4  11  24  46  69 101 143 183 238 289 359 417
#
# _framework density 20.809840999999999
#
# number of rings (size 3 to 8) (size 9 to 14) (size 15 to 20)
#    0.000    0.286    2.857    5.571    6.000    4.571 
#    0.000    2.857    0.000    0.000    0.000    0.000 
#    0.000    0.000    0.000    0.000    0.000    0.000 
#
# Total GULP energy -78444.248263 kJ/mol
# GULP energy per Si atom -5603.160590 kJ/mol
# Density = 2.076248 g / cm^3
# Si number density = 20.809841 Si / 1000 Ang^3
#
#
#
# Elastic Constant Matrix: (Units=GPa)
#
#
# Indices 1 2 3 4 5 6 
#
# 1 137.8091 62.3612 38.1224 21.7215 -13.9858 19.8212
# 2 62.3612 153.7602 26.5019 29.2553 -5.6621 10.5708
# 3 38.1224 26.5019 103.3022 11.0595 -11.7392 1.8150
# 4 21.7215 29.2553 11.0595 44.0835 -2.2890 -10.6841
# 5 -13.9858 -5.6621 -11.7392 -2.2890 39.3776 5.6660
# 6 19.8212 10.5708 1.8150 -10.6841 5.6660 44.3621
#
#
#
# Elastic Compliance Matrix: (Units=1/GPa)
#
#
# Indices 1 2 3 4 5 6 
#
# 1 0.010957 -0.002729 -0.002421 -0.004158 0.003338 -0.005574
# 2 -0.002729 0.008783 -0.000686 -0.004794 0.000100 -0.002013
# 3 -0.002421 -0.000686 0.011104 -0.000954 0.002257 0.000273
# 4 -0.004158 -0.004794 -0.000954 0.030632 -0.002209 0.010699
# 5 0.003338 0.000100 0.002257 -0.002209 0.027961 -0.005711
# 6 -0.005574 -0.002013 0.000273 0.010699 -0.005711 0.028807
#
#
# Mechanical properties :
#
#
# Convention : Reuss Voigt Hill
#
# Bulk Modulus (GPa) = 52.16230 72.09362 62.12796
# Shear Modulus (GPa) = 36.68191 43.42370 40.05280
#
# Velocity S-wave (km/s) = 4.20303 4.57299 4.39191
# Velocity P-wave (km/s) = 6.97671 7.91215 7.45911
#
# Compressibility (1/GPa) = 0.01917093
#
# Stress axis : x y z
#
# Youngs Moduli (GPa) = 91.26560 113.85476 90.06083
#
# Poissons Ratio (x) = 0.31076 0.21803
# Poissons Ratio (y) = 0.24910 0.06178
# Poissons Ratio (z) = 0.22095 0.07811
#
# Static dielectric constant tensor:
#      x y z
#    x 1.716080 0.002980 0.014320 
#    y 0.002980 1.707160 -0.021690 
#    z 0.014320 -0.021690 1.779180 
# 
# From -- ./inp_files/157711.got.cif
#   From: 2010.05.17/outbox.cif.g08.bks.cpg/sg2_79_cif.got.tgz:157711.got - 2010.06.03 11:33:40.
