data_PCOD9064694
_publ_section_title
;
Structure prediction by ZEFSAII (Michael W. Deem and Ramdas Pophale) SiO2 
 PCOD9064694
Probable space group: P -1
;
_chemical_formula_sum "Si O2"
_cell_formula_units_Z 14
_cell_length_a 6.106131
_cell_length_b 20.022494
_cell_length_c 8.521954
_cell_angle_alpha 139.393509
_cell_angle_beta 109.995639
_cell_angle_gamma 89.616685
_cell_volume 580.213269
_symmetry_space_group_name_H-M "P -1"
_symmetry_group_IT_number 2
_symmetry_cell_setting 'triclinic'
loop_
_space_group_symop_operation_xyz
x,y,z
-x,-y,-z
loop_
_atom_site_type_symbol
_atom_site_label
_atom_site_fract_x
_atom_site_fract_y
_atom_site_fract_z
Si Si1 0.629589 0.112452 0.891766
Si Si2 0.532070 0.589393 0.300211
Si Si3 0.276374 0.106797 0.544997
Si Si4 0.771534 0.108497 0.268639
Si Si5 0.011824 0.665914 0.743965
Si Si6 0.847702 0.512971 0.689884
Si Si7 0.348963 0.714859 0.266613
O O1 0.355888 0.110878 0.759168
O O2 0.635666 0.990936 0.661783
O O3 0.757522 0.153332 0.167837
O O4 0.821831 0.202352 0.976122
O O5 0.821928 0.638055 0.506097
O O6 0.336462 0.528969 0.283888
O O7 0.491761 0.695640 0.416041
O O8 0.500000 0.500000 0.000000
O O9 0.455047 0.225449 0.718330
O O10 0.999605 0.078062 0.341946
O O11 0.774199 0.202249 0.559145
O O12 0.500000 0.000000 0.000000
O O13 0.826339 0.607886 0.741238
O O14 0.172997 0.592653 0.610568
O O15 0.137146 0.590641 0.954861
#
# Coordination Sequence:
#
# PCOD9064694 Si02
#       7
#     2   2   2   2   2   2   2
#     4  11  24  49  75 106 142 194 240 300 368 430
#     4  12  26  42  72 105 143 191 239 306 368 426
#     4  11  26  49  73 105 151 183 242 307 361 432
#     4  12  27  45  72 107 146 192 241 294 364 447
#     4  11  24  46  72 100 146 187 245 299 361 444
#     4  11  25  46  68 106 142 187 246 294 370 437
#     4  12  25  47  69 104 142 187 243 300 365 434
#
# _framework density 24.129058000000001
#
# number of rings (size 3 to 8) (size 9 to 14) (size 15 to 20)
#    0.000    0.571    4.286    3.000    6.000    0.571 
#    5.143    0.000    0.000    0.000    0.000    0.000 
#    0.000    0.000    0.000    0.000    0.000    0.000 
#
# Total GULP energy -78030.150829 kJ/mol
# GULP energy per Si atom -5573.582202 kJ/mol
# Density = 2.407414 g / cm^3
# Si number density = 24.129058 Si / 1000 Ang^3
#
#
#
# Elastic Constant Matrix: (Units=GPa)
#
#
# Indices 1 2 3 4 5 6 
#
# 1 68.3186 58.1609 31.0556 -5.2937 11.8647 -4.1776
# 2 58.1609 146.0303 44.3496 -4.2122 20.6553 6.8651
# 3 31.0556 44.3496 83.2448 -7.0144 17.0428 -8.2258
# 4 -5.2937 -4.2122 -7.0144 56.0749 -6.6806 14.8392
# 5 11.8647 20.6553 17.0428 -6.6806 36.7590 -10.8680
# 6 -4.1776 6.8651 -8.2258 14.8392 -10.8680 39.4920
#
#
#
# Elastic Compliance Matrix: (Units=1/GPa)
#
#
# Indices 1 2 3 4 5 6 
#
# 1 0.023851 -0.008364 -0.004088 0.000308 -0.000171 0.002963
# 2 -0.008364 0.011836 -0.002801 0.000553 -0.003979 -0.004828
# 3 -0.004088 -0.002801 0.016065 0.000373 -0.003835 0.002205
# 4 0.000308 0.000553 0.000373 0.019975 0.000906 -0.007242
# 5 -0.000171 -0.003979 -0.003835 0.000906 0.034073 0.008911
# 6 0.002963 -0.004828 0.002205 -0.007242 0.008911 0.032107
#
#
# Mechanical properties :
#
#
# Convention : Reuss Voigt Hill
#
# Bulk Modulus (GPa) = 47.07066 62.74734 54.90900
# Shear Modulus (GPa) = 28.49106 37.40035 32.94571
#
# Velocity S-wave (km/s) = 3.43997 3.94129 3.69913
# Velocity P-wave (km/s) = 5.94375 6.83908 6.40707
#
# Compressibility (1/GPa) = 0.02124466
#
# Stress axis : x y z
#
# Youngs Moduli (GPa) = 41.92748 84.49123 62.24839
#
# Poissons Ratio (x) = 0.70667 0.25448
# Poissons Ratio (y) = 0.35068 0.17437
# Poissons Ratio (z) = 0.17141 0.23667
#
# Static dielectric constant tensor:
#      x y z
#    x 1.997990 -0.093180 0.024880 
#    y -0.093180 2.156020 -0.097910 
#    z 0.024880 -0.097910 1.963590 
# 
# From -- ./inp_files/24978.got.cif
#   From: 2010.05.17/outbox.cif.g08.bks.cpg/sg2_13_cif.got.tgz:24978.got - 2010.06.03 11:33:40.
