data_PCOD9064439
_publ_section_title
;
Structure prediction by ZEFSAII (Michael W. Deem and Ramdas Pophale) SiO2 
 PCOD9064439
Probable space group: P -1
;
_chemical_formula_sum "Si O2"
_cell_formula_units_Z 12
_cell_length_a 9.359787
_cell_length_b 8.990138
_cell_length_c 8.976162
_cell_angle_alpha 115.008305
_cell_angle_beta 115.605941
_cell_angle_gamma 53.598733
_cell_volume 533.645454
_symmetry_space_group_name_H-M "P -1"
_symmetry_group_IT_number 2
_symmetry_cell_setting 'triclinic'
loop_
_space_group_symop_operation_xyz
x,y,z
-x,-y,-z
loop_
_atom_site_type_symbol
_atom_site_label
_atom_site_fract_x
_atom_site_fract_y
_atom_site_fract_z
Si Si1 0.064431 0.316837 0.351839
Si Si2 0.658776 0.989326 0.173003
Si Si3 0.676862 0.402227 0.743279
Si Si4 0.580061 0.693043 0.566355
Si Si5 0.988472 0.995363 0.172741
Si Si6 0.844327 0.557618 0.081010
O O1 0.277191 0.240997 0.384215
O O2 0.000000 0.500000 0.500000
O O3 0.025685 0.156165 0.323386
O O4 0.945036 0.402071 0.185744
O O5 0.771619 0.772188 0.189509
O O6 0.574720 0.142818 0.331457
O O7 0.794579 0.026806 0.150335
O O8 0.500000 0.000000 0.000000
O O9 0.681677 0.504404 0.635702
O O10 0.510309 0.361853 0.632043
O O11 0.676608 0.540778 0.929196
O O12 0.856975 0.204767 0.776644
O O13 0.000000 0.000000 0.000000
O O14 0.000000 0.500000 0.000000
#
# Coordination Sequence:
#
# PCOD9064439 Si02
#       6
#     2   2   2   2   2   2
#     4  12  28  47  70 104 146 182 226 300 363 405
#     4  12  24  42  76 101 134 187 239 282 335 422
#     4  11  24  45  75  95 142 187 236 285 340 431
#     4  11  26  48  68 105 138 182 245 286 340 423
#     4  12  25  45  69 104 141 183 230 289 358 410
#     4  12  21  47  72  98 138 193 232 273 350 432
#
# _framework density 22.486840000000001
#
# number of rings (size 3 to 8) (size 9 to 14) (size 15 to 20)
#    0.000    0.333    6.667    1.000    7.000    1.333 
#    3.000    2.500    0.000    0.000    0.000    0.000 
#    0.000    0.000    0.000    0.000    0.000    0.000 
#
# Total GULP energy -67173.861459 kJ/mol
# GULP energy per Si atom -5597.821788 kJ/mol
# Density = 2.243566 g / cm^3
# Si number density = 22.486840 Si / 1000 Ang^3
#
#
#
# Elastic Constant Matrix: (Units=GPa)
#
#
# Indices 1 2 3 4 5 6 
#
# 1 143.8987 47.4906 38.4588 7.2492 32.5485 6.6261
# 2 47.4906 133.0856 22.1579 23.3127 1.1231 9.1838
# 3 38.4588 22.1579 97.6066 10.6757 28.3021 -0.3180
# 4 7.2492 23.3127 10.6757 33.4280 -3.5033 13.5259
# 5 32.5485 1.1231 28.3021 -3.5033 38.8859 11.2880
# 6 6.6261 9.1838 -0.3180 13.5259 11.2880 28.6102
#
#
#
# Elastic Compliance Matrix: (Units=1/GPa)
#
#
# Indices 1 2 3 4 5 6 
#
# 1 0.010231 -0.003386 -0.000264 -0.002176 -0.009481 0.003484
# 2 -0.003386 0.009859 -0.001479 -0.004601 0.003699 -0.001681
# 3 -0.000264 -0.001479 0.016716 -0.011014 -0.016507 0.012441
# 4 -0.002176 -0.004601 -0.011014 0.052885 0.024228 -0.032703
# 5 -0.009481 0.003699 -0.016507 0.024228 0.057402 -0.033277
# 6 0.003484 -0.001681 0.012441 -0.032703 -0.033277 0.063414
#
#
# Mechanical properties :
#
#
# Convention : Reuss Voigt Hill
#
# Bulk Modulus (GPa) = 37.66624 65.64506 51.65565
# Shear Modulus (GPa) = 21.77551 37.95038 29.86295
#
# Velocity S-wave (km/s) = 3.11524 4.11258 3.64815
# Velocity P-wave (km/s) = 5.45218 7.19772 6.38488
#
# Compressibility (1/GPa) = 0.02654897
#
# Stress axis : x y z
#
# Youngs Moduli (GPa) = 97.74031 101.42683 59.82116
#
# Poissons Ratio (x) = 0.34345 0.01579
# Poissons Ratio (y) = 0.33096 0.08847
# Poissons Ratio (z) = 0.02580 0.15000
#
# Static dielectric constant tensor:
#      x y z
#    x 1.816490 0.009330 -0.016170 
#    y 0.009330 1.818350 0.032680 
#    z -0.016170 0.032680 1.796720 
# 
# From -- ./inp_files/154529.got.cif
#   From: 2010.05.17/outbox.cif.g08.bks.cpg/sg2_78_cif.got.tgz:154529.got - 2010.06.03 11:33:40.
