data_PCOD9064781
_publ_section_title
;
Structure prediction by ZEFSAII (Michael W. Deem and Ramdas Pophale) SiO2 
 PCOD9064781
Probable space group: P -1
;
_chemical_formula_sum "Si O2"
_cell_formula_units_Z 16
_cell_length_a 9.103766
_cell_length_b 11.343333
_cell_length_c 13.289065
_cell_angle_alpha 146.418942
_cell_angle_beta 115.235325
_cell_angle_gamma 78.615320
_cell_volume 651.574685
_symmetry_space_group_name_H-M "P -1"
_symmetry_group_IT_number 2
_symmetry_cell_setting 'triclinic'
loop_
_space_group_symop_operation_xyz
x,y,z
-x,-y,-z
loop_
_atom_site_type_symbol
_atom_site_label
_atom_site_fract_x
_atom_site_fract_y
_atom_site_fract_z
Si Si1 0.828061 0.644346 0.911113
Si Si2 0.138923 0.468375 0.811970
Si Si3 0.332825 0.284653 0.289338
Si Si4 0.816382 0.408369 0.430554
Si Si5 0.649775 0.325929 0.794568
Si Si6 0.387356 0.814583 0.978548
Si Si7 0.256980 0.072738 0.546747
Si Si8 0.220202 0.998827 0.719420
O O1 0.750766 0.732392 0.856122
O O2 0.680553 0.445137 0.780554
O O3 0.974818 0.542570 0.844701
O O4 0.884862 0.850518 0.153042
O O5 0.132029 0.221351 0.596128
O O6 0.245167 0.500048 0.969062
O O7 0.256868 0.640139 0.889324
O O8 0.500000 0.500000 0.500000
O O9 0.210564 0.359186 0.380910
O O10 0.365402 0.056310 0.161339
O O11 0.000000 0.500000 0.500000
O O12 0.812484 0.239452 0.402201
O O13 0.671233 0.271206 0.212167
O O14 0.453916 0.233698 0.705953
O O15 0.736377 0.128738 0.667739
O O16 0.583609 0.853044 0.089189
O O17 0.220708 0.986488 0.589765
#
# Coordination Sequence:
#
# PCOD9064781 Si02
#       8
#     2   2   2   2   2   2   2   2
#     4  12  26  44  74 104 149 187 234 300 368 422
#     4  12  26  46  68 109 147 190 232 298 363 423
#     4  12  26  48  75 106 140 192 248 295 357 436
#     4  12  27  46  72 108 144 186 238 301 369 423
#     4  11  24  46  73 104 139 188 243 292 357 427
#     4  12  26  47  74 103 145 193 244 297 357 429
#     4  11  25  46  74 102 139 186 246 294 347 434
#     4  12  23  48  75 101 145 192 241 298 358 428
#
# _framework density 24.555896000000001
#
# number of rings (size 3 to 8) (size 9 to 14) (size 15 to 20)
#    0.000    0.250    5.000    4.125    1.750    2.500 
#    2.250    0.000    0.000    0.000    0.000    0.000 
#    0.000    0.000    0.000    0.000    0.000    0.000 
#
# Total GULP energy -89677.815422 kJ/mol
# GULP energy per Si atom -5604.863464 kJ/mol
# Density = 2.450001 g / cm^3
# Si number density = 24.555896 Si / 1000 Ang^3
#
#
#
# Elastic Constant Matrix: (Units=GPa)
#
#
# Indices 1 2 3 4 5 6 
#
# 1 156.8176 40.3170 29.3448 18.0183 -20.5236 2.1294
# 2 40.3170 77.5111 16.3196 23.9241 -4.7659 0.4162
# 3 29.3448 16.3196 114.9772 17.7052 -29.1221 3.3069
# 4 18.0183 23.9241 17.7052 38.2014 -4.9355 -6.0302
# 5 -20.5236 -4.7659 -29.1221 -4.9355 50.8493 8.2252
# 6 2.1294 0.4162 3.3069 -6.0302 8.2252 32.0628
#
#
#
# Elastic Compliance Matrix: (Units=1/GPa)
#
#
# Indices 1 2 3 4 5 6 
#
# 1 0.007868 -0.003443 -0.000658 -0.001119 0.002575 -0.001281
# 2 -0.003443 0.017708 -0.000230 -0.009691 -0.000533 -0.001663
# 3 -0.000658 -0.000230 0.011302 -0.004534 0.006327 -0.003595
# 4 -0.001119 -0.009691 -0.004534 0.035892 -0.001745 0.007866
# 5 0.002575 -0.000533 0.006327 -0.001745 0.025346 -0.007647
# 6 -0.001281 -0.001663 -0.003595 0.007866 -0.007647 0.035107
#
#
# Mechanical properties :
#
#
# Convention : Reuss Voigt Hill
#
# Bulk Modulus (GPa) = 35.44040 57.91873 46.67957
# Shear Modulus (GPa) = 33.04888 41.77767 37.41327
#
# Velocity S-wave (km/s) = 3.67258 4.12919 3.90756
# Velocity P-wave (km/s) = 5.69629 6.80965 6.27770
#
# Compressibility (1/GPa) = 0.02821638
#
# Stress axis : x y z
#
# Youngs Moduli (GPa) = 127.09351 56.47151 88.47933
#
# Poissons Ratio (x) = 0.19445 0.05823
# Poissons Ratio (y) = 0.43763 0.02031
# Poissons Ratio (z) = 0.08364 0.01296
#
# Static dielectric constant tensor:
#      x y z
#    x 2.128200 -0.084750 -0.039850 
#    y -0.084750 1.962960 -0.007620 
#    z -0.039850 -0.007620 1.965870 
# 
# From -- ./inp_files/447296.got.cif
#   From: 2010.05.17/outbox.cif.g08.bks.cpg/sg2_224_cif.got.tgz:447296.got - 2010.06.03 11:33:40.
