data_PCOD9064066
_publ_section_title
;
Structure prediction by ZEFSAII (Michael W. Deem and Ramdas Pophale) SiO2 
 PCOD9064066
Probable space group: P -1
;
_chemical_formula_sum "Si O2"
_cell_formula_units_Z 14
_cell_length_a 7.899052
_cell_length_b 5.371969
_cell_length_c 21.612802
_cell_angle_alpha 115.593477
_cell_angle_beta 41.815758
_cell_angle_gamma 119.432325
_cell_volume 529.125952
_symmetry_space_group_name_H-M "P -1"
_symmetry_group_IT_number 2
_symmetry_cell_setting 'triclinic'
loop_
_space_group_symop_operation_xyz
x,y,z
-x,-y,-z
loop_
_atom_site_type_symbol
_atom_site_label
_atom_site_fract_x
_atom_site_fract_y
_atom_site_fract_z
Si Si1 0.117489 0.427836 0.751531
Si Si2 0.399540 0.947512 0.591194
Si Si3 0.689800 0.537043 0.784029
Si Si4 0.773131 0.063753 0.896321
Si Si5 0.686904 0.816517 0.611564
Si Si6 0.032887 0.391746 0.589919
Si Si7 0.096151 0.206213 0.937354
O O1 0.403876 0.665213 0.702066
O O2 0.912677 0.478964 0.762434
O O3 0.940503 0.366784 0.855166
O O4 0.208386 0.141388 0.680467
O O5 0.611987 0.992949 0.592518
O O6 0.260081 0.604999 0.591226
O O7 0.500000 0.000000 0.500000
O O8 0.785636 0.518111 0.685463
O O9 0.410186 0.319269 0.853490
O O10 0.692603 0.854084 0.837339
O O11 0.973019 0.023766 0.890496
O O12 0.500000 0.000000 0.000000
O O13 0.832109 0.612405 0.513877
O O14 0.909536 0.063966 0.611669
O O15 0.000000 0.500000 0.000000
O O16 0.000000 0.000000 0.000000
#
# Coordination Sequence:
#
# PCOD9064066 Si02
#       7
#     2   2   2   2   2   2   2
#     4  12  25  46  77 107 152 204 255 322 382 466
#     4  12  23  45  72 103 149 204 256 309 385 453
#     4  12  27  47  76 112 151 202 257 319 392 467
#     4  12  27  51  78 112 149 197 260 323 397 470
#     4  11  25  47  67 111 153 202 255 318 376 461
#     4  11  24  45  70 105 155 198 255 316 382 456
#     4  12  30  53  80 114 153 203 261 332 405 480
#
# _framework density 26.458729000000002
#
# number of rings (size 3 to 8) (size 9 to 14) (size 15 to 20)
#    0.000    0.286    5.714    2.143    6.000    1.714 
#    2.571    0.000    0.000    0.000    0.000    0.000 
#    0.000    0.000    0.000    0.000    0.000    0.000 
#
# Total GULP energy -78274.010281 kJ/mol
# GULP energy per Si atom -5591.000734 kJ/mol
# Density = 2.639851 g / cm^3
# Si number density = 26.458729 Si / 1000 Ang^3
#
#
#
# Elastic Constant Matrix: (Units=GPa)
#
#
# Indices 1 2 3 4 5 6 
#
# 1 73.6701 14.9553 2.7198 -22.9574 -12.7959 1.9326
# 2 14.9553 128.9952 45.2698 -22.5453 -6.6658 22.8864
# 3 2.7198 45.2698 168.8605 -47.2267 -20.1693 1.0625
# 4 -22.9574 -22.5453 -47.2267 72.2629 6.0628 -1.4059
# 5 -12.7959 -6.6658 -20.1693 6.0628 44.3509 -3.4944
# 6 1.9326 22.8864 1.0625 -1.4059 -3.4944 44.5404
#
#
#
# Elastic Compliance Matrix: (Units=1/GPa)
#
#
# Indices 1 2 3 4 5 6 
#
# 1 0.016469 -0.001570 0.002381 0.005904 0.004839 0.000601
# 2 -0.001570 0.009773 -0.002365 0.000958 -0.000578 -0.004912
# 3 0.002381 -0.002365 0.008396 0.005235 0.003541 0.001355
# 4 0.005904 0.000958 0.005235 0.019299 0.001579 -0.000140
# 5 0.004839 -0.000578 0.003541 0.001579 0.025412 0.002046
# 6 0.000601 -0.004912 0.001355 -0.000140 0.002046 0.025073
#
#
# Mechanical properties :
#
#
# Convention : Reuss Voigt Hill
#
# Bulk Modulus (GPa) = 31.71422 55.26840 43.49131
# Shear Modulus (GPa) = 42.35787 52.80292 47.58039
#
# Velocity S-wave (km/s) = 4.00547 4.47214 4.24522
# Velocity P-wave (km/s) = 5.77962 6.89932 6.36414
#
# Compressibility (1/GPa) = 0.03153160
#
# Stress axis : x y z
#
# Youngs Moduli (GPa) = 60.71869 102.31939 119.09960
#
# Poissons Ratio (x) = 0.16061 -0.28358
# Poissons Ratio (y) = 0.09531 0.28168
# Poissons Ratio (z) = -0.14457 0.24199
#
# Static dielectric constant tensor:
#      x y z
#    x 2.084710 -0.081590 0.060160 
#    y -0.081590 2.185640 0.011450 
#    z 0.060160 0.011450 2.181660 
# 
# From -- ./inp_files/487771.got.cif
#   From: 2010.05.17/outbox.cif.g08.bks.cpg/sg2_244_cif.got.tgz:487771.got - 2010.06.03 11:33:40.
