data_PCOD9064896
_publ_section_title
;
Structure prediction by ZEFSAII (Michael W. Deem and Ramdas Pophale) SiO2 
 PCOD9064896
Probable space group: P -1
;
_chemical_formula_sum "Si O2"
_cell_formula_units_Z 14
_cell_length_a 14.694983
_cell_length_b 14.101527
_cell_length_c 9.217925
_cell_angle_alpha 133.886542
_cell_angle_beta 150.804541
_cell_angle_gamma 39.288211
_cell_volume 589.050277
_symmetry_space_group_name_H-M "P -1"
_symmetry_group_IT_number 2
_symmetry_cell_setting 'triclinic'
loop_
_space_group_symop_operation_xyz
x,y,z
-x,-y,-z
loop_
_atom_site_type_symbol
_atom_site_label
_atom_site_fract_x
_atom_site_fract_y
_atom_site_fract_z
Si Si1 0.955327 0.903124 0.219948
Si Si2 0.507468 0.451037 0.122760
Si Si3 0.612667 0.799863 0.321017
Si Si4 0.003993 0.652103 0.222799
Si Si5 0.321121 0.753325 0.347415
Si Si6 0.603628 0.829712 0.014698
Si Si7 0.276926 0.961509 0.244141
O O1 0.896936 0.788812 0.101679
O O2 0.158271 0.794388 0.293753
O O3 0.000000 0.000000 0.500000
O O4 0.821580 0.022433 0.034775
O O5 0.755007 0.376445 0.441334
O O6 0.381460 0.595246 0.198081
O O7 0.500000 0.500000 0.000000
O O8 0.376232 0.359753 0.838141
O O9 0.519796 0.859810 0.418267
O O10 0.772462 0.870305 0.606830
O O11 0.513924 0.848826 0.073039
O O12 0.000000 0.500000 0.000000
O O13 0.857883 0.726881 0.242194
O O14 0.521095 0.751307 0.701937
O O15 0.239102 0.877741 0.236097
O O16 0.500000 0.000000 0.000000
#
# Coordination Sequence:
#
# PCOD9064896 Si02
#       7
#     2   2   2   2   2   2   2
#     4  12  28  47  74 110 150 191 257 312 371 442
#     4  12  27  48  73 107 153 196 247 309 377 441
#     4  11  25  43  76 102 144 193 247 297 375 436
#     4  12  28  47  73 108 151 193 245 307 370 443
#     4  12  25  46  76 104 147 199 246 310 375 444
#     4  12  24  46  77 108 145 198 252 300 371 445
#     4  11  24  46  75 108 145 193 251 308 368 442
#
# _framework density 23.767071000000001
#
# number of rings (size 3 to 8) (size 9 to 14) (size 15 to 20)
#    0.000    0.286    4.286    4.714    6.000    2.286 
#    0.000    1.429    0.000    0.000    0.000    0.000 
#    0.000    0.000    0.000    0.000    0.000    0.000 
#
# Total GULP energy -78028.233782 kJ/mol
# GULP energy per Si atom -5573.445270 kJ/mol
# Density = 2.371298 g / cm^3
# Si number density = 23.767071 Si / 1000 Ang^3
#
#
#
# Elastic Constant Matrix: (Units=GPa)
#
#
# Indices 1 2 3 4 5 6 
#
# 1 103.9230 17.9332 17.8019 14.0629 -23.4452 -1.4446
# 2 17.9332 53.9592 26.7533 26.0564 0.2944 -6.0404
# 3 17.8019 26.7533 102.8278 26.3536 -23.5319 4.1280
# 4 14.0629 26.0564 26.3536 54.5944 3.5826 -3.6319
# 5 -23.4452 0.2944 -23.5319 3.5826 38.4690 -1.3145
# 6 -1.4446 -6.0404 4.1280 -3.6319 -1.3145 49.5263
#
#
#
# Elastic Compliance Matrix: (Units=1/GPa)
#
#
# Indices 1 2 3 4 5 6 
#
# 1 0.012319 -0.003565 0.001509 -0.002783 0.008711 -0.000174
# 2 -0.003565 0.026997 -0.005317 -0.008901 -0.004705 0.002854
# 3 0.001509 -0.005317 0.014824 -0.005829 0.010503 -0.001989
# 4 -0.002783 -0.008901 -0.005829 0.026668 -0.007640 0.001072
# 5 0.008711 -0.004705 0.010503 -0.007640 0.038451 -0.000735
# 6 -0.000174 0.002854 -0.001989 0.001072 -0.000735 0.020759
#
#
# Mechanical properties :
#
#
# Convention : Reuss Voigt Hill
#
# Bulk Modulus (GPa) = 25.38482 42.85410 34.11946
# Shear Modulus (GPa) = 29.78017 41.73272 35.75645
#
# Velocity S-wave (km/s) = 3.54362 4.19490 3.88294
# Velocity P-wave (km/s) = 5.23897 6.44460 5.87281
#
# Compressibility (1/GPa) = 0.03939363
#
# Stress axis : x y z
#
# Youngs Moduli (GPa) = 81.17720 37.04101 67.45651
#
# Poissons Ratio (x) = 0.13206 -0.10177
# Poissons Ratio (y) = 0.28941 0.35865
# Poissons Ratio (z) = -0.12247 0.19694
#
# Static dielectric constant tensor:
#      x y z
#    x 2.171180 -0.022020 0.325930 
#    y -0.022020 2.030810 0.081820 
#    z 0.325930 0.081820 1.665590 
# 
# From -- ./inp_files/159342.got.cif
#   From: 2010.05.17/outbox.cif.g08.bks.cpg/sg2_80_cif.got.tgz:159342.got - 2010.06.03 11:33:40.
