data_PCOD9064651
_publ_section_title
;
Structure prediction by ZEFSAII (Michael W. Deem and Ramdas Pophale) SiO2 
 PCOD9064651
Probable space group: P -1
;
_chemical_formula_sum "Si O2"
_cell_formula_units_Z 16
_cell_length_a 25.398592
_cell_length_b 8.741418
_cell_length_c 9.624744
_cell_angle_alpha 130.591109
_cell_angle_beta 151.964569
_cell_angle_gamma 44.858229
_cell_volume 706.424938
_symmetry_space_group_name_H-M "P -1"
_symmetry_group_IT_number 2
_symmetry_cell_setting 'triclinic'
loop_
_space_group_symop_operation_xyz
x,y,z
-x,-y,-z
loop_
_atom_site_type_symbol
_atom_site_label
_atom_site_fract_x
_atom_site_fract_y
_atom_site_fract_z
Si Si1 0.564440 0.325994 0.427930
Si Si2 0.072264 0.755508 0.571393
Si Si3 0.821798 0.102806 0.544344
Si Si4 0.130027 0.525552 0.301793
Si Si5 0.331880 0.099591 0.393599
Si Si6 0.192380 0.682213 0.092847
Si Si7 0.466086 0.732140 0.985440
Si Si8 0.152935 0.249389 0.823846
O O1 0.500000 0.500000 0.500000
O O2 0.664116 0.396170 0.627162
O O3 0.500932 0.286366 0.115160
O O4 0.629682 0.106015 0.536950
O O5 0.154532 0.603751 0.556176
O O6 0.968102 0.671222 0.320684
O O7 0.144788 0.764494 0.880193
O O8 0.000000 0.000000 0.500000
O O9 0.856797 0.287303 0.656469
O O10 0.859940 0.124760 0.803750
O O11 0.677741 0.152357 0.253954
O O12 0.869987 0.884156 0.437697
O O13 0.231001 0.302280 0.355789
O O14 0.000000 0.500000 0.000000
O O15 0.452411 0.150822 0.684988
O O16 0.264564 0.095090 0.088167
O O17 0.169226 0.466951 0.946661
O O18 0.500000 0.500000 0.000000
#
# Coordination Sequence:
#
# PCOD9064651 Si02
#       8
#     2   2   2   2   2   2   2   2
#     4  11  28  45  69 107 143 189 249 300 362 437
#     4  12  25  44  72 105 144 191 241 300 365 432
#     4  11  25  46  72 104 146 191 242 302 364 432
#     4  12  24  45  75 106 149 188 241 302 364 433
#     4  12  25  45  75 105 149 192 243 304 366 429
#     4  11  26  48  67 106 149 184 247 301 360 443
#     4  11  24  46  71 103 144 189 242 295 365 434
#     4  12  25  46  74 108 142 196 245 296 371 431
#
# _framework density 22.649259000000001
#
# number of rings (size 3 to 8) (size 9 to 14) (size 15 to 20)
#    0.000    0.500    5.000    2.250    5.250    3.000 
#    0.000    0.000    0.000    0.000    0.000    0.000 
#    0.000    0.000    0.000    0.000    0.000    0.000 
#
# Total GULP energy -89436.368948 kJ/mol
# GULP energy per Si atom -5589.773059 kJ/mol
# Density = 2.259771 g / cm^3
# Si number density = 22.649259 Si / 1000 Ang^3
#
#
#
# Elastic Constant Matrix: (Units=GPa)
#
#
# Indices 1 2 3 4 5 6 
#
# 1 98.6242 13.5529 25.9194 17.4304 -19.0615 -15.6433
# 2 13.5529 72.2739 2.7972 19.9977 -8.6848 -1.1286
# 3 25.9194 2.7972 95.8576 11.2744 -16.6407 0.7618
# 4 17.4304 19.9977 11.2744 30.4670 4.9654 -2.1542
# 5 -19.0615 -8.6848 -16.6407 4.9654 67.5556 6.6810
# 6 -15.6433 -1.1286 0.7618 -2.1542 6.6810 33.8938
#
#
#
# Elastic Compliance Matrix: (Units=1/GPa)
#
#
# Indices 1 2 3 4 5 6 
#
# 1 0.013419 -0.000032 -0.002290 -0.006968 0.003219 0.005166
# 2 -0.000032 0.017799 0.001673 -0.012966 0.003745 -0.001022
# 3 -0.002290 0.001673 0.012148 -0.004952 0.003144 -0.002209
# 4 -0.006968 -0.012966 -0.004952 0.048633 -0.008550 0.001240
# 5 0.003219 0.003745 0.003144 -0.008550 0.017845 -0.002521
# 6 0.005166 -0.001022 -0.002209 0.001240 -0.002521 0.032480
#
#
# Mechanical properties :
#
#
# Convention : Reuss Voigt Hill
#
# Bulk Modulus (GPa) = 23.77165 39.03275 31.40220
# Shear Modulus (GPa) = 31.71675 41.34903 36.53289
#
# Velocity S-wave (km/s) = 3.74618 4.27737 4.02055
# Velocity P-wave (km/s) = 5.40649 6.45488 5.95381
#
# Compressibility (1/GPa) = 0.04206692
#
# Stress axis : x y z
#
# Youngs Moduli (GPa) = 74.52174 56.18199 82.31636
#
# Poissons Ratio (x) = 0.00181 0.18852
# Poissons Ratio (y) = 0.00240 -0.13769
# Poissons Ratio (z) = 0.17067 -0.09397
#
# Static dielectric constant tensor:
#      x y z
#    x 1.948000 -0.037960 0.051250 
#    y -0.037960 1.745180 -0.020350 
#    z 0.051250 -0.020350 2.022320 
# 
# From -- ./inp_files/338209.got.cif
#   From: 2010.05.17/outbox.cif.g08.bks.cpg/sg2_170_cif.got.tgz:338209.got - 2010.06.03 11:33:40.
