data_PCOD9064846
_publ_section_title
;
Structure prediction by ZEFSAII (Michael W. Deem and Ramdas Pophale) SiO2 
 PCOD9064846
Probable space group: P -1
;
_chemical_formula_sum "Si O2"
_cell_formula_units_Z 13
_cell_length_a 7.576305
_cell_length_b 9.267322
_cell_length_c 11.134329
_cell_angle_alpha 130.345403
_cell_angle_beta 106.890726
_cell_angle_gamma 102.117009
_cell_volume 477.730523
_symmetry_space_group_name_H-M "P -1"
_symmetry_group_IT_number 2
_symmetry_cell_setting 'triclinic'
loop_
_space_group_symop_operation_xyz
x,y,z
-x,-y,-z
loop_
_atom_site_type_symbol
_atom_site_label
_atom_site_fract_x
_atom_site_fract_y
_atom_site_fract_z
Si Si1 0.541816 0.434000 0.641513
Si Si2 0.366530 0.103019 0.977793
Si Si3 0.004566 0.334119 0.235237
Si Si4 0.500000 0.000000 0.500000
Si Si5 0.237785 0.167988 0.761465
Si Si6 0.090304 0.753715 0.112536
Si Si7 0.133927 0.316023 0.594814
O O1 0.573876 0.265661 0.639371
O O2 0.278565 0.308886 0.513518
O O3 0.731114 0.508283 0.620496
O O4 0.599352 0.680155 0.831175
O O5 0.416633 0.175905 0.887518
O O6 0.118359 0.886002 0.825410
O O7 0.500000 0.000000 0.000000
O O8 0.908127 0.488410 0.324631
O O9 0.934041 0.248347 0.037152
O O10 0.671876 0.077602 0.690848
O O11 0.277342 0.330452 0.747126
O O12 0.078233 0.195022 0.831020
O O13 0.101896 0.911963 0.545906
O O14 0.000000 0.500000 0.000000
#
# Coordination Sequence:
#
# PCOD9064846 Si02
#       7
#     2   2   2   1   2   2   2
#     4  12  25  46  75 111 150 195 258 315 380 457
#     4  12  27  51  72 108 157 210 253 303 393 473
#     4  12  26  49  76 109 157 202 248 317 392 461
#     4  12  24  44  74 116 148 186 264 316 378 452
#     4  11  24  46  74 107 156 195 254 325 373 456
#     4  12  22  44  74 111 152 197 254 324 376 449
#     4  11  25  47  76 115 146 194 262 322 382 448
#
# _framework density 27.211993
#
# number of rings (size 3 to 8) (size 9 to 14) (size 15 to 20)
#    0.000    0.308    7.692    0.462    2.154    2.462 
#    0.000    1.538    0.000    0.000    0.000    0.000 
#    0.000    0.000    0.000    0.000    0.000    0.000 
#
# Total GULP energy -72507.029555 kJ/mol
# GULP energy per Si atom -5577.463812 kJ/mol
# Density = 2.715006 g / cm^3
# Si number density = 27.211993 Si / 1000 Ang^3
#
#
#
# Elastic Constant Matrix: (Units=GPa)
#
#
# Indices 1 2 3 4 5 6 
#
# 1 123.2484 48.0000 17.0431 6.7638 -9.2065 -11.8885
# 2 48.0000 177.0107 49.5572 21.9904 -9.4561 -35.8874
# 3 17.0431 49.5572 77.0410 23.8075 12.4065 -17.0977
# 4 6.7638 21.9904 23.8075 74.2307 -13.6732 -1.6910
# 5 -9.2065 -9.4561 12.4065 -13.6732 43.1073 18.9362
# 6 -11.8885 -35.8874 -17.0977 -1.6910 18.9362 31.4537
#
#
#
# Elastic Compliance Matrix: (Units=1/GPa)
#
#
# Indices 1 2 3 4 5 6 
#
# 1 0.009275 -0.002380 -0.001786 0.000971 0.003178 -0.002041
# 2 -0.002380 0.008958 -0.001777 -0.002225 -0.003202 0.010164
# 3 -0.001786 -0.001777 0.028174 -0.012251 -0.024495 0.026701
# 4 0.000971 -0.002225 -0.012251 0.020867 0.018015 -0.018555
# 5 0.003178 -0.003202 -0.024495 0.018015 0.057698 -0.049535
# 6 -0.002041 0.010164 0.026701 -0.018555 -0.049535 0.085956
#
#
# Mechanical properties :
#
#
# Convention : Reuss Voigt Hill
#
# Bulk Modulus (GPa) = 28.96716 67.38897 48.17806
# Shear Modulus (GPa) = 21.33835 47.27167 34.30501
#
# Velocity S-wave (km/s) = 2.80331 4.17245 3.55443
# Velocity P-wave (km/s) = 4.59850 6.93042 5.88119
#
# Compressibility (1/GPa) = 0.03452186
#
# Stress axis : x y z
#
# Youngs Moduli (GPa) = 107.82102 111.62932 35.49362
#
# Poissons Ratio (x) = 0.26566 0.06339
# Poissons Ratio (y) = 0.25659 0.06307
# Poissons Ratio (z) = 0.19255 0.19835
#
# Static dielectric constant tensor:
#      x y z
#    x 2.160100 -0.073710 0.093330 
#    y -0.073710 1.751130 0.012160 
#    z 0.093330 0.012160 2.200610 
# 
# From -- ./inp_files/243790.got.cif
#   From: 2010.05.17/outbox.cif.g08.bks.cpg/sg2_122_cif.got.tgz:243790.got - 2010.06.03 11:33:40.
