data_PCOD9064809
_publ_section_title
;
Structure prediction by ZEFSAII (Michael W. Deem and Ramdas Pophale) SiO2 
 PCOD9064809
Probable space group: P -1
;
_chemical_formula_sum "Si O2"
_cell_formula_units_Z 14
_cell_length_a 11.727903
_cell_length_b 17.881217
_cell_length_c 7.424425
_cell_angle_alpha 49.089653
_cell_angle_beta 137.109821
_cell_angle_gamma 150.064988
_cell_volume 527.877979
_symmetry_space_group_name_H-M "P -1"
_symmetry_group_IT_number 2
_symmetry_cell_setting 'triclinic'
loop_
_space_group_symop_operation_xyz
x,y,z
-x,-y,-z
loop_
_atom_site_type_symbol
_atom_site_label
_atom_site_fract_x
_atom_site_fract_y
_atom_site_fract_z
Si Si1 0.644966 0.830470 0.912701
Si Si2 0.103043 0.789298 0.852674
Si Si3 0.953326 0.834585 0.068473
Si Si4 0.617944 0.591391 0.799643
Si Si5 0.420390 0.113099 0.648949
Si Si6 0.750071 0.424661 0.715951
Si Si7 0.144624 0.717730 0.609283
O O1 0.622741 0.859028 0.638160
O O2 0.384128 0.751450 0.819566
O O3 0.754230 0.768277 0.108411
O O4 0.859490 0.990798 0.000614
O O5 0.122698 0.752505 0.732189
O O6 0.840052 0.634062 0.880989
O O7 0.174080 0.937788 0.687992
O O8 0.340394 0.855135 0.139016
O O9 0.116656 0.807760 0.326726
O O10 0.793075 0.754880 0.829828
O O11 0.425650 0.555878 0.490543
O O12 0.500000 0.500000 0.000000
O O13 0.548614 0.250913 0.711059
O O14 0.910949 0.544118 0.548471
O O15 0.000000 0.500000 0.000000
#
# Coordination Sequence:
#
# PCOD9064809 Si02
#       7
#     2   2   2   2   2   2   2
#     4  11  25  44  77 109 154 200 261 317 380 461
#     4  11  27  46  79 108 149 204 256 316 388 457
#     4  11  24  46  73 114 147 203 261 317 377 459
#     4  12  27  49  77 107 152 201 257 318 384 460
#     4  11  24  48  72 111 148 198 256 312 385 460
#     4  12  27  48  71 113 153 201 254 317 388 452
#     4  12  25  47  76 111 158 204 252 323 387 456
#
# _framework density 26.521283
#
# number of rings (size 3 to 8) (size 9 to 14) (size 15 to 20)
#    0.000    0.571    5.714    1.286    4.000    4.000 
#    0.000    0.000    0.000    0.000    0.000    0.000 
#    0.000    0.000    0.000    0.000    0.000    0.000 
#
# Total GULP energy -77983.625273 kJ/mol
# GULP energy per Si atom -5570.258948 kJ/mol
# Density = 2.646092 g / cm^3
# Si number density = 26.521283 Si / 1000 Ang^3
#
#
#
# Elastic Constant Matrix: (Units=GPa)
#
#
# Indices 1 2 3 4 5 6 
#
# 1 103.9667 23.9195 20.6351 -4.1174 17.9333 33.1586
# 2 23.9195 78.3476 6.8608 5.2284 -1.8403 8.6310
# 3 20.6351 6.8608 104.3379 26.0747 -7.9195 -0.9308
# 4 -4.1174 5.2284 26.0747 36.7503 4.7370 10.9182
# 5 17.9333 -1.8403 -7.9195 4.7370 29.2250 8.0133
# 6 33.1586 8.6310 -0.9308 10.9182 8.0133 44.7887
#
#
#
# Elastic Compliance Matrix: (Units=1/GPa)
#
#
# Indices 1 2 3 4 5 6 
#
# 1 0.020564 -0.005129 -0.008836 0.015754 -0.013547 -0.015836
# 2 -0.005129 0.014475 0.001659 -0.004845 0.004926 0.001342
# 3 -0.008836 0.001659 0.016247 -0.016684 0.010221 0.008798
# 4 0.015754 -0.004845 -0.016684 0.049681 -0.017023 -0.020141
# 5 -0.013547 0.004926 0.010221 -0.017023 0.046989 0.005036
# 6 -0.015836 0.001342 0.008798 -0.020141 0.005036 0.037984
#
#
# Mechanical properties :
#
#
# Convention : Reuss Voigt Hill
#
# Bulk Modulus (GPa) = 37.49084 43.27592 40.38338
# Shear Modulus (GPa) = 22.78504 37.83526 30.31015
#
# Velocity S-wave (km/s) = 2.93426 3.78113 3.38429
# Velocity P-wave (km/s) = 5.06425 5.95109 5.52549
#
# Compressibility (1/GPa) = 0.02667318
#
# Stress axis : x y z
#
# Youngs Moduli (GPa) = 48.62978 69.08234 61.55169
#
# Poissons Ratio (x) = 0.35434 0.54388
# Poissons Ratio (y) = 0.24944 -0.10213
# Poissons Ratio (z) = 0.42970 -0.11462
#
# Static dielectric constant tensor:
#      x y z
#    x 2.314540 0.012250 0.102530 
#    y 0.012250 2.213790 -0.108300 
#    z 0.102530 -0.108300 2.201270 
# 
# From -- ./inp_files/279142.got.cif
#   From: 2010.05.17/outbox.cif.g08.bks.cpg/sg2_140_cif.got.tgz:279142.got - 2010.06.03 11:33:40.
