data_PCOD9064362
_publ_section_title
;
Structure prediction by ZEFSAII (Michael W. Deem and Ramdas Pophale) SiO2 
 PCOD9064362
Probable space group: P -1
;
_chemical_formula_sum "Si O2"
_cell_formula_units_Z 15
_cell_length_a 11.132207
_cell_length_b 8.946981
_cell_length_c 11.987112
_cell_angle_alpha 80.983667
_cell_angle_beta 45.845771
_cell_angle_gamma 55.066574
_cell_volume 639.968533
_symmetry_space_group_name_H-M "P -1"
_symmetry_group_IT_number 2
_symmetry_cell_setting 'triclinic'
loop_
_space_group_symop_operation_xyz
x,y,z
-x,-y,-z
loop_
_atom_site_type_symbol
_atom_site_label
_atom_site_fract_x
_atom_site_fract_y
_atom_site_fract_z
Si Si1 0.011424 0.967508 0.129281
Si Si2 0.834916 0.495196 0.491770
Si Si3 0.668058 0.784436 0.743509
Si Si4 0.488089 0.221598 0.781704
Si Si5 0.569520 0.288515 0.954543
Si Si6 0.694878 0.302790 0.459191
Si Si7 0.240187 0.197101 0.672606
Si Si8 0.000000 0.500000 0.000000
O O1 0.863590 0.175010 0.265808
O O2 0.902406 0.870559 0.238832
O O3 0.240191 0.851417 0.060754
O O4 0.000000 0.000000 0.000000
O O5 0.648242 0.665013 0.677437
O O6 0.784220 0.368349 0.482131
O O7 0.834635 0.628994 0.385455
O O8 0.072542 0.330975 0.414156
O O9 0.528756 0.017760 0.791095
O O10 0.611991 0.732851 0.899452
O O11 0.614114 0.231297 0.802321
O O12 0.605635 0.210839 0.594040
O O13 0.227855 0.418905 0.929336
O O14 0.500000 0.500000 0.000000
O O15 0.500000 0.500000 0.500000
O O16 0.168267 0.308415 0.826065
O O17 0.500000 0.000000 0.500000
#
# Coordination Sequence:
#
# PCOD9064362 Si02
#       8
#     2   2   2   2   2   2   2   1
#     4  12  30  48  78 112 157 204 261 323 391 465
#     4  11  24  45  74 104 152 201 255 315 390 470
#     4  11  25  45  73 109 151 202 255 318 393 467
#     4  12  27  47  77 111 157 203 261 328 390 476
#     4  12  27  47  74 112 155 200 261 321 384 467
#     4  12  28  47  75 112 152 202 258 323 392 463
#     4  12  27  49  75 112 153 205 260 321 390 467
#     4  12  26  44  80 108 148 204 264 314 400 456
#
# _framework density 23.438652999999999
#
# number of rings (size 3 to 8) (size 9 to 14) (size 15 to 20)
#    0.000    0.267    0.000    8.400   11.200    4.267 
#    0.000    0.000    0.000    0.000    0.000    0.000 
#    0.000    0.000    0.000    0.000    0.000    0.000 
#
# Total GULP energy -83636.508826 kJ/mol
# GULP energy per Si atom -5575.767255 kJ/mol
# Density = 2.338531 g / cm^3
# Si number density = 23.438653 Si / 1000 Ang^3
#
#
#
# Elastic Constant Matrix: (Units=GPa)
#
#
# Indices 1 2 3 4 5 6 
#
# 1 100.7732 9.4389 47.8624 19.2208 13.6430 -6.0746
# 2 9.4389 101.3006 48.0103 13.5139 3.4543 -2.6128
# 3 47.8624 48.0103 127.8560 24.9656 17.9746 -5.1612
# 4 19.2208 13.5139 24.9656 47.2275 2.9199 -0.2195
# 5 13.6430 3.4543 17.9746 2.9199 41.9806 4.5056
# 6 -6.0746 -2.6128 -5.1612 -0.2195 4.5056 37.4277
#
#
#
# Elastic Compliance Matrix: (Units=1/GPa)
#
#
# Indices 1 2 3 4 5 6 
#
# 1 0.012893 0.001400 -0.004307 -0.003212 -0.002439 0.001871
# 2 0.001400 0.012259 -0.004918 -0.001520 0.000715 0.000310
# 3 -0.004307 -0.004918 0.012426 -0.003193 -0.003408 0.001063
# 4 -0.003212 -0.001520 -0.003193 0.024541 0.000940 -0.001037
# 5 -0.002439 0.000715 -0.003408 0.000940 0.026376 -0.003985
# 6 0.001871 0.000310 0.001063 -0.001037 -0.003985 0.027664
#
#
# Mechanical properties :
#
#
# Convention : Reuss Voigt Hill
#
# Bulk Modulus (GPa) = 45.60568 60.06146 52.83357
# Shear Modulus (GPa) = 35.94092 40.30171 38.12132
#
# Velocity S-wave (km/s) = 3.92012 4.15113 4.03728
# Velocity P-wave (km/s) = 6.32372 6.97542 6.65755
#
# Compressibility (1/GPa) = 0.02192709
#
# Stress axis : x y z
#
# Youngs Moduli (GPa) = 77.56075 81.57585 80.47860
#
# Poissons Ratio (x) = -0.11417 0.34658
# Poissons Ratio (y) = -0.10855 0.39581
# Poissons Ratio (z) = 0.33402 0.40120
#
# Static dielectric constant tensor:
#      x y z
#    x 1.960200 0.012340 0.035870 
#    y 0.012340 1.829640 0.002540 
#    z 0.035870 0.002540 1.959880 
# 
# From -- ./inp_files/417041.got.cif
#   From: 2010.05.17/outbox.cif.g08.bks.cpg/sg2_209_cif.got.tgz:417041.got - 2010.06.03 11:33:40.
