data_PCOD9064742
_publ_section_title
;
Structure prediction by ZEFSAII (Michael W. Deem and Ramdas Pophale) SiO2 
 PCOD9064742
Probable space group: P -1
;
_chemical_formula_sum "Si O2"
_cell_formula_units_Z 16
_cell_length_a 8.534698
_cell_length_b 6.513724
_cell_length_c 13.718255
_cell_angle_alpha 86.618447
_cell_angle_beta 64.649749
_cell_angle_gamma 86.083117
_cell_volume 687.214363
_symmetry_space_group_name_H-M "P -1"
_symmetry_group_IT_number 2
_symmetry_cell_setting 'triclinic'
loop_
_space_group_symop_operation_xyz
x,y,z
-x,-y,-z
loop_
_atom_site_type_symbol
_atom_site_label
_atom_site_fract_x
_atom_site_fract_y
_atom_site_fract_z
Si Si1 0.202344 0.740616 0.195133
Si Si2 0.571738 0.581748 0.376367
Si Si3 0.567154 0.068843 0.732887
Si Si4 0.309442 0.460583 0.010906
Si Si5 0.098558 0.185939 0.420277
Si Si6 0.931691 0.900661 0.920579
Si Si7 0.700357 0.271979 0.188925
Si Si8 0.909392 0.576583 0.393714
O O1 0.082083 0.692096 0.319250
O O2 0.386927 0.794516 0.189600
O O3 0.131364 0.928797 0.144206
O O4 0.198720 0.548497 0.129701
O O5 0.500000 0.500000 0.500000
O O6 0.594501 0.404619 0.294307
O O7 0.767537 0.637011 0.349204
O O8 0.464625 0.776112 0.353756
O O9 0.733691 0.911244 0.676787
O O10 0.400744 0.935352 0.794488
O O11 0.291213 0.600204 0.916366
O O12 0.500000 0.500000 0.000000
O O13 0.228796 0.244059 0.015291
O O14 0.156895 0.338547 0.486722
O O15 0.964215 0.334754 0.391404
O O16 0.000000 0.000000 0.500000
O O17 0.100698 0.779021 0.835201
O O18 0.000000 0.000000 0.000000
#
# Coordination Sequence:
#
# PCOD9064742 Si02
#       8
#     2   2   2   2   2   2   2   2
#     4  12  27  45  76 109 147 194 252 305 371 450
#     4  12  28  47  73 108 149 195 246 310 376 445
#     4  12  28  45  77 111 149 195 253 304 373 449
#     4  12  28  47  76 107 152 197 249 310 376 442
#     4  11  24  46  72 108 147 194 248 309 371 449
#     4  12  28  49  76 111 148 199 253 306 375 448
#     4  12  28  47  76 106 153 192 248 313 373 442
#     4  11  26  44  75 104 148 193 248 306 378 439
#
# _framework density 23.282399999999999
#
# number of rings (size 3 to 8) (size 9 to 14) (size 15 to 20)
#    0.000    0.250    2.500    4.875   14.000    5.000 
#    0.000    0.000    0.000    0.000    0.000    0.000 
#    0.000    0.000    0.000    0.000    0.000    0.000 
#
# Total GULP energy -89584.400903 kJ/mol
# GULP energy per Si atom -5599.025056 kJ/mol
# Density = 2.322941 g / cm^3
# Si number density = 23.282400 Si / 1000 Ang^3
#
#
#
# Elastic Constant Matrix: (Units=GPa)
#
#
# Indices 1 2 3 4 5 6 
#
# 1 102.9756 35.8477 0.1650 -6.3385 1.8599 7.9500
# 2 35.8477 97.2067 27.5725 -3.4429 2.2890 7.2133
# 3 0.1650 27.5725 73.5579 9.7785 1.7698 7.9164
# 4 -6.3385 -3.4429 9.7785 46.3714 2.6576 0.3286
# 5 1.8599 2.2890 1.7698 2.6576 44.5068 -8.4666
# 6 7.9500 7.2133 7.9164 0.3286 -8.4666 43.5776
#
#
#
# Elastic Compliance Matrix: (Units=1/GPa)
#
#
# Indices 1 2 3 4 5 6 
#
# 1 0.011506 -0.004563 0.001775 0.000913 -0.000716 -0.001812
# 2 -0.004563 0.013552 -0.005197 0.001511 -0.000499 -0.000575
# 3 0.001775 -0.005197 0.016297 -0.003520 -0.000728 -0.002539
# 4 0.000913 0.001511 -0.003520 0.022624 -0.001367 -0.000214
# 5 -0.000716 -0.000499 -0.000728 -0.001367 0.023574 0.004936
# 6 -0.001812 -0.000575 -0.002539 -0.000214 0.004936 0.024795
#
#
# Mechanical properties :
#
#
# Convention : Reuss Voigt Hill
#
# Bulk Modulus (GPa) = 39.39042 44.54562 41.96802
# Shear Modulus (GPa) = 36.55540 40.90150 38.72845
#
# Velocity S-wave (km/s) = 3.96673 4.19591 4.08293
# Velocity P-wave (km/s) = 6.15916 6.53059 6.34759
#
# Compressibility (1/GPa) = 0.02538689
#
# Stress axis : x y z
#
# Youngs Moduli (GPa) = 86.91337 73.78973 61.35965
#
# Poissons Ratio (x) = 0.33670 -0.10894
# Poissons Ratio (y) = 0.39658 0.31886
# Poissons Ratio (z) = -0.15431 0.38345
#
# Static dielectric constant tensor:
#      x y z
#    x 1.922920 0.014080 -0.015550 
#    y 0.014080 1.879940 0.047330 
#    z -0.015550 0.047330 1.842670 
# 
# From -- ./inp_files/488254.got.cif
#   From: 2010.05.17/outbox.cif.g08.bks.cpg/sg2_245_cif.got.tgz:488254.got - 2010.06.03 11:33:40.
