data_PCOD9064854
_publ_section_title
;
Structure prediction by ZEFSAII (Michael W. Deem and Ramdas Pophale) SiO2 
 PCOD9064854
Probable space group: P -1
;
_chemical_formula_sum "Si O2"
_cell_formula_units_Z 13
_cell_length_a 12.240831
_cell_length_b 8.086792
_cell_length_c 10.054672
_cell_angle_alpha 92.101382
_cell_angle_beta 37.330156
_cell_angle_gamma 110.007442
_cell_volume 516.479530
_symmetry_space_group_name_H-M "P -1"
_symmetry_group_IT_number 2
_symmetry_cell_setting 'triclinic'
loop_
_space_group_symop_operation_xyz
x,y,z
-x,-y,-z
loop_
_atom_site_type_symbol
_atom_site_label
_atom_site_fract_x
_atom_site_fract_y
_atom_site_fract_z
Si Si1 0.205896 0.653455 0.630997
Si Si2 0.355469 0.070769 0.855707
Si Si3 0.500000 0.500000 0.500000
Si Si4 0.906688 0.568300 0.706503
Si Si5 0.020974 0.259631 0.916834
Si Si6 0.239609 0.163241 0.250949
Si Si7 0.471741 0.752213 0.772395
O O1 0.097089 0.422127 0.732659
O O2 0.109538 0.709859 0.604005
O O3 0.455203 0.733376 0.388180
O O4 0.134780 0.714802 0.833061
O O5 0.450983 0.931181 0.750108
O O6 0.124070 0.953166 0.010185
O O7 0.334458 0.111780 0.030853
O O8 0.242207 0.343852 0.778446
O O9 0.513435 0.646854 0.609948
O O10 0.774656 0.653234 0.773181
O O11 0.000000 0.500000 0.500000
O O12 0.746948 0.398094 0.950937
O O13 0.361473 0.188957 0.269140
O O14 0.000000 0.000000 0.500000
#
# Coordination Sequence:
#
# PCOD9064854 Si02
#       7
#     2   2   1   2   2   2   2
#     4  11  24  46  74 109 148 199 254 302 387 440
#     4  12  25  48  77 112 152 198 253 318 376 453
#     4  12  26  44  80 106 154 196 254 308 374 464
#     4  12  25  46  73 107 147 200 252 304 377 450
#     4  11  24  47  72 109 153 198 246 314 375 455
#     4  12  27  46  72 114 151 194 259 315 375 455
#     4  12  25  48  73 110 151 201 248 311 382 440
#
# _framework density 25.170404999999999
#
# number of rings (size 3 to 8) (size 9 to 14) (size 15 to 20)
#    0.000    0.308    3.077    6.000    4.308    0.000 
#    0.000    2.308    0.000    0.000    0.000    0.000 
#    0.000    0.000    0.000    0.000    0.000    0.000 
#
# Total GULP energy -72636.693033 kJ/mol
# GULP energy per Si atom -5587.437926 kJ/mol
# Density = 2.511312 g / cm^3
# Si number density = 25.170405 Si / 1000 Ang^3
#
#
#
# Elastic Constant Matrix: (Units=GPa)
#
#
# Indices 1 2 3 4 5 6 
#
# 1 128.9555 26.8229 9.4282 -3.8926 -39.2900 38.4529
# 2 26.8229 94.7347 40.6862 15.2156 -10.4847 28.8956
# 3 9.4282 40.6862 157.3226 0.7890 -18.4438 37.0722
# 4 -3.8926 15.2156 0.7890 61.4255 8.8996 0.1090
# 5 -39.2900 -10.4847 -18.4438 8.8996 40.5266 -1.8367
# 6 38.4529 28.8956 37.0722 0.1090 -1.8367 48.1833
#
#
#
# Elastic Compliance Matrix: (Units=1/GPa)
#
#
# Indices 1 2 3 4 5 6 
#
# 1 0.019386 0.000648 0.005748 -0.002035 0.021142 -0.019472
# 2 0.000648 0.014555 -0.001391 -0.004157 0.004311 -0.008002
# 3 0.005748 -0.001391 0.010121 -0.000775 0.009482 -0.011177
# 4 -0.002035 -0.004157 -0.000775 0.018227 -0.007204 0.004397
# 5 0.021142 0.004311 0.009482 -0.007204 0.051062 -0.024791
# 6 -0.019472 -0.008002 -0.011177 0.004397 -0.024791 0.048737
#
#
# Mechanical properties :
#
#
# Convention : Reuss Voigt Hill
#
# Bulk Modulus (GPa) = 18.49370 59.43193 38.96282
# Shear Modulus (GPa) = 29.39427 50.29879 39.84653
#
# Velocity S-wave (km/s) = 3.42103 4.47512 3.98310
# Velocity P-wave (km/s) = 4.79249 7.09685 6.05530
#
# Compressibility (1/GPa) = 0.05407247
#
# Stress axis : x y z
#
# Youngs Moduli (GPa) = 51.58376 68.70360 98.80514
#
# Poissons Ratio (x) = -0.04455 -0.56791
# Poissons Ratio (y) = -0.03345 0.13745
# Poissons Ratio (z) = -0.29649 0.09557
#
# Static dielectric constant tensor:
#      x y z
#    x 2.347990 -0.197730 -0.009080 
#    y -0.197730 2.113170 -0.106650 
#    z -0.009080 -0.106650 1.873480 
# 
# From -- ./inp_files/189274.got.cif
#   From: 2010.05.17/outbox.cif.g08.bks.cpg/sg2_95_cif.got.tgz:189274.got - 2010.06.03 11:33:40.
