data_PCOD9064120
_publ_section_title
;
Structure prediction by ZEFSAII (Michael W. Deem and Ramdas Pophale) SiO2 
 PCOD9064120
Probable space group: P -1
;
_chemical_formula_sum "Si O2"
_cell_formula_units_Z 14
_cell_length_a 11.875414
_cell_length_b 8.707019
_cell_length_c 8.813175
_cell_angle_alpha 53.427355
_cell_angle_beta 56.631986
_cell_angle_gamma 55.237139
_cell_volume 569.873890
_symmetry_space_group_name_H-M "P -1"
_symmetry_group_IT_number 2
_symmetry_cell_setting 'triclinic'
loop_
_space_group_symop_operation_xyz
x,y,z
-x,-y,-z
loop_
_atom_site_type_symbol
_atom_site_label
_atom_site_fract_x
_atom_site_fract_y
_atom_site_fract_z
Si Si1 0.781520 0.194160 0.618448
Si Si2 0.721896 0.828161 0.337668
Si Si3 0.042969 0.561772 0.767827
Si Si4 0.744212 0.835429 0.678715
Si Si5 0.359389 0.509274 0.006484
Si Si6 0.140378 0.888425 0.064410
Si Si7 0.478156 0.413016 0.407884
O O1 0.866394 0.288081 0.385353
O O2 0.879684 0.087531 0.753822
O O3 0.655290 0.388935 0.669990
O O4 0.720054 0.044970 0.662110
O O5 0.854680 0.637363 0.281936
O O6 0.737341 0.850340 0.493112
O O7 0.578895 0.774166 0.444443
O O8 0.737008 0.020032 0.126871
O O9 0.901674 0.685990 0.704472
O O10 0.000000 0.500000 0.000000
O O11 0.639397 0.718540 0.878124
O O12 0.379306 0.615281 0.774764
O O13 0.500000 0.500000 0.000000
O O14 0.209016 0.649890 0.109977
O O15 0.000000 0.000000 0.000000
O O16 0.500000 0.500000 0.500000
#
# Coordination Sequence:
#
# PCOD9064120 Si02
#       7
#     2   2   2   2   2   2   2
#     4  11  26  47  71 109 143 184 245 302 355 435
#     4  11  25  45  69 104 142 191 240 301 358 429
#     4  11  24  45  71 102 143 189 242 295 367 427
#     4  12  25  42  73 104 145 187 238 300 361 426
#     4  12  25  49  72 103 147 196 240 294 361 427
#     4  12  26  48  77 107 149 188 244 299 361 427
#     4  11  27  48  71  99 146 191 246 296 356 431
#
# _framework density 24.566841
#
# number of rings (size 3 to 8) (size 9 to 14) (size 15 to 20)
#    0.000    0.571    2.857    4.286    8.000    3.429 
#    0.000    0.000    0.000    0.000    0.000    0.000 
#    0.000    0.000    0.000    0.000    0.000    0.000 
#
# Total GULP energy -78420.171772 kJ/mol
# GULP energy per Si atom -5601.440841 kJ/mol
# Density = 2.451093 g / cm^3
# Si number density = 24.566841 Si / 1000 Ang^3
#
#
#
# Elastic Constant Matrix: (Units=GPa)
#
#
# Indices 1 2 3 4 5 6 
#
# 1 119.4229 28.0110 46.5468 -4.7750 -0.1234 22.8832
# 2 28.0110 100.7056 35.1489 -2.1523 -9.4190 18.0335
# 3 46.5468 35.1489 152.1357 2.4815 -13.6814 31.5027
# 4 -4.7750 -2.1523 2.4815 45.8486 15.4355 -7.0677
# 5 -0.1234 -9.4190 -13.6814 15.4355 51.5455 -12.3311
# 6 22.8832 18.0335 31.5027 -7.0677 -12.3311 43.9896
#
#
#
# Elastic Compliance Matrix: (Units=1/GPa)
#
#
# Indices 1 2 3 4 5 6 
#
# 1 0.010361 -0.001632 -0.002285 0.001298 -0.002097 -0.003463
# 2 -0.001632 0.011464 -0.001523 -0.000333 0.001193 -0.002479
# 3 -0.002285 -0.001523 0.008685 -0.001974 0.001589 -0.004278
# 4 0.001298 -0.000333 -0.001974 0.024956 -0.007382 0.002815
# 5 -0.002097 0.001193 0.001589 -0.007382 0.023403 0.004838
# 6 -0.003463 -0.002479 -0.004278 0.002815 0.004838 0.030423
#
#
# Mechanical properties :
#
#
# Convention : Reuss Voigt Hill
#
# Bulk Modulus (GPa) = 50.94808 65.74197 58.34502
# Shear Modulus (GPa) = 39.45820 45.78056 42.61938
#
# Velocity S-wave (km/s) = 4.01204 4.32152 4.16965
# Velocity P-wave (km/s) = 6.49965 7.19161 6.85437
#
# Compressibility (1/GPa) = 0.01962783
#
# Stress axis : x y z
#
# Youngs Moduli (GPa) = 96.51979 87.22990 115.13794
#
# Poissons Ratio (x) = 0.14239 0.26314
# Poissons Ratio (y) = 0.15756 0.17537
# Poissons Ratio (z) = 0.22059 0.13286
#
# Static dielectric constant tensor:
#      x y z
#    x 2.012320 -0.017830 0.034830 
#    y -0.017830 1.995440 -0.002420 
#    z 0.034830 -0.002420 1.977460 
# 
# From -- ./inp_files/223140.got.cif
#   From: 2010.05.17/outbox.cif.g08.bks.cpg/sg2_112_cif.got.tgz:223140.got - 2010.06.03 11:33:40.
