data_PCOD9064796
_publ_section_title
;
Structure prediction by ZEFSAII (Michael W. Deem and Ramdas Pophale) SiO2 
 PCOD9064796
Probable space group: P -1
;
_chemical_formula_sum "Si O2"
_cell_formula_units_Z 15
_cell_length_a 5.188945
_cell_length_b 9.786548
_cell_length_c 19.633040
_cell_angle_alpha 37.277604
_cell_angle_beta 97.465416
_cell_angle_gamma 99.697172
_cell_volume 595.219603
_symmetry_space_group_name_H-M "P -1"
_symmetry_group_IT_number 2
_symmetry_cell_setting 'triclinic'
loop_
_space_group_symop_operation_xyz
x,y,z
-x,-y,-z
loop_
_atom_site_type_symbol
_atom_site_label
_atom_site_fract_x
_atom_site_fract_y
_atom_site_fract_z
Si Si1 0.000000 0.000000 0.500000
Si Si2 0.727206 0.254264 0.010919
Si Si3 0.829689 0.763697 0.069155
Si Si4 0.833775 0.660729 0.388560
Si Si5 0.089253 0.880010 0.706173
Si Si6 0.621797 0.723321 0.837731
Si Si7 0.556701 0.127575 0.769330
Si Si8 0.023268 0.541468 0.292446
O O1 0.105966 0.956917 0.598418
O O2 0.926854 0.719923 0.600748
O O3 0.002958 0.295044 0.967403
O O4 0.682061 0.478056 0.963274
O O5 0.472883 0.226221 0.963424
O O6 0.687734 0.023902 0.144273
O O7 0.855126 0.594292 0.200028
O O8 0.000000 0.000000 0.000000
O O9 0.522500 0.682414 0.361931
O O10 0.000000 0.500000 0.500000
O O11 0.896450 0.601899 0.335898
O O12 0.904896 0.899329 0.333627
O O13 0.807906 0.752251 0.766023
O O14 0.331164 0.749706 0.790562
O O15 0.682758 0.929419 0.811628
O O16 0.724477 0.271138 0.774290
#
# Coordination Sequence:
#
# PCOD9064796 Si02
#       8
#     1   2   2   2   2   2   2   2
#     4  12  26  46  70 106 142 188 250 304 362 436
#     4  12  25  46  73 111 152 193 241 308 364 436
#     4  12  26  46  75 107 154 196 243 302 370 439
#     4  11  24  48  72 100 145 192 251 300 366 432
#     4  11  25  48  71 105 145 196 238 305 362 436
#     4  11  24  46  73 107 147 190 245 299 368 431
#     4  11  26  43  76 105 144 196 246 298 370 447
#     4  12  25  46  72 106 143 196 246 298 371 437
#
# _framework density 25.200782
#
# number of rings (size 3 to 8) (size 9 to 14) (size 15 to 20)
#    0.000    0.533    4.000    4.000    1.867    2.133 
#    2.400    3.333    0.000    0.000    0.000    0.000 
#    0.000    0.000    0.000    0.000    0.000    0.000 
#
# Total GULP energy -83574.483527 kJ/mol
# GULP energy per Si atom -5571.632235 kJ/mol
# Density = 2.514342 g / cm^3
# Si number density = 25.200782 Si / 1000 Ang^3
#
#
#
# Elastic Constant Matrix: (Units=GPa)
#
#
# Indices 1 2 3 4 5 6 
#
# 1 96.0763 25.7963 35.5974 -1.0968 11.8851 4.7107
# 2 25.7963 125.0621 54.3788 -7.2312 10.7113 6.1065
# 3 35.5974 54.3788 144.1972 -1.1131 40.5679 5.8567
# 4 -1.0968 -7.2312 -1.1131 52.2090 -2.6727 3.8042
# 5 11.8851 10.7113 40.5679 -2.6727 21.1850 2.5420
# 6 4.7107 6.1065 5.8567 3.8042 2.5420 32.8919
#
#
#
# Elastic Compliance Matrix: (Units=1/GPa)
#
#
# Indices 1 2 3 4 5 6 
#
# 1 0.011763 -0.001489 -0.001494 -0.000072 -0.002885 -0.000911
# 2 -0.001489 0.010146 -0.004957 0.001657 0.005577 -0.001410
# 3 -0.001494 -0.004957 0.017958 -0.001984 -0.031365 0.000590
# 4 -0.000072 0.001657 -0.001984 0.019834 0.005827 -0.002688
# 5 -0.002885 0.005577 -0.031365 0.005827 0.107279 -0.004002
# 6 -0.000911 -0.001410 0.000590 -0.002688 -0.004002 0.031310
#
#
# Mechanical properties :
#
#
# Convention : Reuss Voigt Hill
#
# Bulk Modulus (GPa) = 41.69322 66.32007 54.00664
# Shear Modulus (GPa) = 22.50579 37.89472 30.20026
#
# Velocity S-wave (km/s) = 2.99165 3.88198 3.46553
# Velocity P-wave (km/s) = 5.33982 6.81666 6.12293
#
# Compressibility (1/GPa) = 0.02398472
#
# Stress axis : x y z
#
# Youngs Moduli (GPa) = 85.01576 98.56364 55.68518
#
# Poissons Ratio (x) = 0.14678 0.08321
# Poissons Ratio (y) = 0.12660 0.27605
# Poissons Ratio (z) = 0.12703 0.48862
#
# Static dielectric constant tensor:
#      x y z
#    x 2.092690 -0.010710 -0.017980 
#    y -0.010710 2.009640 -0.011180 
#    z -0.017980 -0.011180 2.033690 
# 
# From -- ./inp_files/547684.got.cif
#   From: 2010.05.17/outbox.cif.g08.bks.cpg/sg2_274_cif.got.tgz:547684.got - 2010.06.03 11:33:40.
