data_PCOD9064579
_publ_section_title
;
Structure prediction by ZEFSAII (Michael W. Deem and Ramdas Pophale) SiO2 
 PCOD9064579
Probable space group: P -1
;
_chemical_formula_sum "Si O2"
_cell_formula_units_Z 12
_cell_length_a 6.306808
_cell_length_b 4.964406
_cell_length_c 15.721289
_cell_angle_alpha 111.541150
_cell_angle_beta 92.213530
_cell_angle_gamma 90.896661
_cell_volume 457.269243
_symmetry_space_group_name_H-M "P -1"
_symmetry_group_IT_number 2
_symmetry_cell_setting 'triclinic'
loop_
_space_group_symop_operation_xyz
x,y,z
-x,-y,-z
loop_
_atom_site_type_symbol
_atom_site_label
_atom_site_fract_x
_atom_site_fract_y
_atom_site_fract_z
Si Si1 0.294076 0.577734 0.288751
Si Si2 0.358185 0.209035 0.819311
Si Si3 0.035751 0.028408 0.145134
Si Si4 0.305205 0.772122 0.979003
Si Si5 0.651460 0.339052 0.335867
Si Si6 0.061787 0.087579 0.605885
O O1 0.423379 0.474148 0.362423
O O2 0.476439 0.673592 0.235158
O O3 0.157091 0.851807 0.342163
O O4 0.153344 0.307438 0.219563
O O5 0.373245 0.448649 0.920858
O O6 0.099758 0.163493 0.811334
O O7 0.396640 0.865945 0.771492
O O8 0.196599 0.823754 0.074407
O O9 0.869722 0.138000 0.084017
O O10 0.500000 0.000000 0.000000
O O11 0.815225 0.602543 0.353855
O O12 0.771853 0.135508 0.379269
O O13 0.000000 0.000000 0.500000
#
# Coordination Sequence:
#
# PCOD9064579 Si02
#       6
#     2   2   2   2   2   2
#     4  12  27  50  83 115 162 213 266 336 400 481
#     4  12  24  47  76 112 157 211 275 318 403 481
#     4  11  25  46  75 106 159 215 265 335 400 462
#     4  11  24  46  69 114 158 208 275 334 390 469
#     4  12  27  52  81 121 158 212 268 326 405 491
#     4  12  29  54  84 122 162 206 266 334 408 489
#
# _framework density 26.242742
#
# number of rings (size 3 to 8) (size 9 to 14) (size 15 to 20)
#    0.000    0.333    5.000    3.000    2.333    3.333 
#    0.000    0.000    0.000    0.000    0.000    0.000 
#    0.000    0.000    0.000    0.000    0.000    0.000 
#
# Total GULP energy -67116.749744 kJ/mol
# GULP energy per Si atom -5593.062479 kJ/mol
# Density = 2.618301 g / cm^3
# Si number density = 26.242742 Si / 1000 Ang^3
#
#
#
# Elastic Constant Matrix: (Units=GPa)
#
#
# Indices 1 2 3 4 5 6 
#
# 1 172.6974 58.3445 87.0351 6.9317 16.7732 14.7452
# 2 58.3445 147.0972 40.8782 -1.7208 15.2691 -4.3304
# 3 87.0351 40.8782 102.9476 -6.6291 1.0347 -5.4145
# 4 6.9317 -1.7208 -6.6291 40.2677 -1.8585 23.8390
# 5 16.7732 15.2691 1.0347 -1.8585 34.8245 5.8577
# 6 14.7452 -4.3304 -5.4145 23.8390 5.8577 57.5370
#
#
#
# Elastic Compliance Matrix: (Units=1/GPa)
#
#
# Indices 1 2 3 4 5 6 
#
# 1 0.012035 -0.001714 -0.009744 -0.002352 -0.004426 -0.002705
# 2 -0.001714 0.008329 -0.001793 -0.000664 -0.003059 0.001484
# 3 -0.009744 -0.001793 0.018965 0.003675 0.004752 0.002140
# 4 -0.002352 -0.000664 0.003675 0.034272 0.005475 -0.013859
# 5 -0.004426 -0.003059 0.004752 0.005475 0.033060 -0.004283
# 6 -0.002705 0.001484 0.002140 -0.013859 -0.004283 0.024564
#
#
# Mechanical properties :
#
#
# Convention : Reuss Voigt Hill
#
# Bulk Modulus (GPa) = 77.94665 88.36198 83.15431
# Shear Modulus (GPa) = 30.86365 42.29149 36.57757
#
# Velocity S-wave (km/s) = 3.43313 4.01877 3.73744
# Velocity P-wave (km/s) = 6.74402 7.43492 7.09788
#
# Compressibility (1/GPa) = 0.01282929
#
# Stress axis : x y z
#
# Youngs Moduli (GPa) = 83.08877 120.05545 52.72946
#
# Poissons Ratio (x) = 0.20572 0.51379
# Poissons Ratio (y) = 0.14238 0.09453
# Poissons Ratio (z) = 0.80960 0.21523
#
# Static dielectric constant tensor:
#      x y z
#    x 2.114290 -0.067760 -0.044090 
#    y -0.067760 2.125010 -0.107580 
#    z -0.044090 -0.107580 2.078140 
# 
# From -- ./inp_files/4611.got.cif
#   From: 2010.05.17/outbox.cif.g08.bks.cpg/sg2_3_cif.got.tgz:4611.got - 2010.06.03 11:33:40.
