data_PCOD9064342
_publ_section_title
;
Structure prediction by ZEFSAII (Michael W. Deem and Ramdas Pophale) SiO2 
 PCOD9064342
Probable space group: P -1
;
_chemical_formula_sum "Si O2"
_cell_formula_units_Z 12
_cell_length_a 9.950989
_cell_length_b 16.129643
_cell_length_c 12.550701
_cell_angle_alpha 153.839069
_cell_angle_beta 145.965099
_cell_angle_gamma 46.170682
_cell_volume 486.246357
_symmetry_space_group_name_H-M "P -1"
_symmetry_group_IT_number 2
_symmetry_cell_setting 'triclinic'
loop_
_space_group_symop_operation_xyz
x,y,z
-x,-y,-z
loop_
_atom_site_type_symbol
_atom_site_label
_atom_site_fract_x
_atom_site_fract_y
_atom_site_fract_z
Si Si1 0.513681 0.719128 0.631903
Si Si2 0.232904 0.364299 0.691619
Si Si3 0.879440 0.680413 0.660916
Si Si4 0.107048 0.439167 0.174046
Si Si5 0.229875 0.904041 0.519101
Si Si6 0.741282 0.995477 0.588516
O O1 0.623987 0.622284 0.490736
O O2 0.284323 0.600533 0.409746
O O3 0.731359 0.710671 0.849748
O O4 0.443246 0.909080 0.752061
O O5 0.170071 0.245770 0.404364
O O6 0.026812 0.482297 0.724466
O O7 0.219083 0.218054 0.611739
O O8 0.500000 0.500000 0.000000
O O9 0.000000 0.500000 0.500000
O O10 0.048074 0.845230 0.032894
O O11 0.889739 0.322225 0.825868
O O12 0.307135 0.965609 0.521221
O O13 0.000000 0.000000 0.500000
O O14 0.500000 0.000000 0.500000
#
# Coordination Sequence:
#
# PCOD9064342 Si02
#       6
#     2   2   2   2   2   2
#     4  11  24  45  74 102 144 188 240 301 365 437
#     4  12  25  47  78 104 148 197 248 307 370 442
#     4  12  23  45  73 110 146 193 243 301 373 436
#     4  11  24  48  70 107 144 188 247 300 373 432
#     4  12  26  46  70 105 145 189 243 303 371 437
#     4  12  26  46  68 109 149 192 247 306 363 443
#
# _framework density 24.678847999999999
#
# number of rings (size 3 to 8) (size 9 to 14) (size 15 to 20)
#    0.000    0.333    3.333    6.000    0.000    3.333 
#    6.000    0.000    0.000    0.000    0.000    0.000 
#    0.000    0.000    0.000    0.000    0.000    0.000 
#
# Total GULP energy -67053.861486 kJ/mol
# GULP energy per Si atom -5587.821791 kJ/mol
# Density = 2.462268 g / cm^3
# Si number density = 24.678848 Si / 1000 Ang^3
#
#
#
# Elastic Constant Matrix: (Units=GPa)
#
#
# Indices 1 2 3 4 5 6 
#
# 1 190.4520 56.4743 47.0221 -13.7955 16.6774 -3.4559
# 2 56.4743 184.0452 36.4343 -8.9929 0.8628 8.0827
# 3 47.0221 36.4343 78.2332 -0.2684 12.7042 20.2163
# 4 -13.7955 -8.9929 -0.2684 29.2404 4.5343 -10.3083
# 5 16.6774 0.8628 12.7042 4.5343 35.7931 -6.5528
# 6 -3.4559 8.0827 20.2163 -10.3083 -6.5528 50.8126
#
#
#
# Elastic Compliance Matrix: (Units=1/GPa)
#
#
# Indices 1 2 3 4 5 6 
#
# 1 0.007193 -0.001292 -0.004183 0.004297 -0.001832 0.002995
# 2 -0.001292 0.006357 -0.002450 0.001235 0.001214 0.000283
# 3 -0.004183 -0.002450 0.019913 -0.004978 -0.006191 -0.009626
# 4 0.004297 0.001235 -0.004978 0.040591 -0.003605 0.009846
# 5 -0.001832 0.001214 -0.006191 -0.003605 0.032442 0.005598
# 6 0.002995 0.000283 -0.009626 0.009846 0.005598 0.026388
#
#
# Mechanical properties :
#
#
# Convention : Reuss Voigt Hill
#
# Bulk Modulus (GPa) = 56.77622 81.39910 69.08766
# Shear Modulus (GPa) = 32.34060 44.02252 38.18156
#
# Velocity S-wave (km/s) = 3.62395 4.22811 3.93763
# Velocity P-wave (km/s) = 6.36920 7.54260 6.98060
#
# Compressibility (1/GPa) = 0.01761301
#
# Stress axis : x y z
#
# Youngs Moduli (GPa) = 139.03254 157.30463 50.21767
#
# Poissons Ratio (x) = 0.20322 0.21007
# Poissons Ratio (y) = 0.17961 0.12303
# Poissons Ratio (z) = 0.58159 0.38539
#
# Static dielectric constant tensor:
#      x y z
#    x 1.912370 0.030390 -0.007230 
#    y 0.030390 3.012620 0.601250 
#    z -0.007230 0.601250 2.337380 
# 
# From -- ./inp_files/396833.got.cif
#   From: 2010.05.17/outbox.cif.g08.bks.cpg/sg2_199_cif.got.tgz:396833.got - 2010.06.03 11:33:40.
