data_PCOD9064332
_publ_section_title
;
Structure prediction by ZEFSAII (Michael W. Deem and Ramdas Pophale) SiO2 
 PCOD9064332
Probable space group: P -1
;
_chemical_formula_sum "Si O2"
_cell_formula_units_Z 14
_cell_length_a 18.081307
_cell_length_b 9.195129
_cell_length_c 12.119724
_cell_angle_alpha 127.948873
_cell_angle_beta 151.096724
_cell_angle_gamma 38.096010
_cell_volume 582.103818
_symmetry_space_group_name_H-M "P -1"
_symmetry_group_IT_number 2
_symmetry_cell_setting 'triclinic'
loop_
_space_group_symop_operation_xyz
x,y,z
-x,-y,-z
loop_
_atom_site_type_symbol
_atom_site_label
_atom_site_fract_x
_atom_site_fract_y
_atom_site_fract_z
Si Si1 0.928342 0.880562 0.280116
Si Si2 0.309289 0.238379 0.974504
Si Si3 0.228349 0.186575 0.612702
Si Si4 0.586180 0.173662 0.671911
Si Si5 0.695843 0.467562 0.713518
Si Si6 0.950549 0.058478 0.161459
Si Si7 0.269869 0.303671 0.476119
O O1 0.744051 0.920180 0.117793
O O2 0.898135 0.985955 0.169100
O O3 0.099720 0.587534 0.359908
O O4 0.000000 0.000000 0.500000
O O5 0.211756 0.319726 0.764160
O O6 0.236396 0.445561 0.063018
O O7 0.549246 0.078834 0.205520
O O8 0.243782 0.276621 0.558049
O O9 0.059538 0.162722 0.379612
O O10 0.394627 0.345901 0.420903
O O11 0.483345 0.221247 0.678086
O O12 0.719281 0.897227 0.671989
O O13 0.738801 0.225678 0.898095
O O14 0.500000 0.500000 0.500000
O O15 0.879419 0.191576 0.795807
#
# Coordination Sequence:
#
# PCOD9064332 Si02
#       7
#     2   2   2   2   2   2   2
#     4  12  26  47  72 109 147 200 246 302 375 439
#     4  11  24  45  74 100 152 190 244 301 367 440
#     4  11  24  47  73 105 144 199 243 300 376 432
#     4  11  25  45  77 112 145 191 251 304 368 440
#     4  12  24  46  77 113 147 195 246 305 372 434
#     4  12  25  47  76 111 150 190 250 308 366 443
#     4  11  24  47  73 108 149 191 251 303 368 446
#
# _framework density 24.050692000000002
#
# number of rings (size 3 to 8) (size 9 to 14) (size 15 to 20)
#    0.000    0.571    5.714    1.714    2.000    5.143 
#    2.571    1.429    0.000    0.000    0.000    0.000 
#    0.000    0.000    0.000    0.000    0.000    0.000 
#
# Total GULP energy -78386.803199 kJ/mol
# GULP energy per Si atom -5599.057371 kJ/mol
# Density = 2.399595 g / cm^3
# Si number density = 24.050692 Si / 1000 Ang^3
#
#
#
# Elastic Constant Matrix: (Units=GPa)
#
#
# Indices 1 2 3 4 5 6 
#
# 1 161.9437 25.3031 62.1808 1.8980 -3.4586 7.8624
# 2 25.3031 73.0336 45.9424 -6.9170 -9.5050 6.9110
# 3 62.1808 45.9424 152.7780 12.6495 13.9765 -4.0879
# 4 1.8980 -6.9170 12.6495 25.8526 -0.3602 3.6423
# 5 -3.4586 -9.5050 13.9765 -0.3602 45.4316 1.5570
# 6 7.8624 6.9110 -4.0879 3.6423 1.5570 33.4547
#
#
#
# Elastic Compliance Matrix: (Units=1/GPa)
#
#
# Indices 1 2 3 4 5 6 
#
# 1 0.007645 0.000206 -0.003540 0.001608 0.001814 -0.002531
# 2 0.000206 0.021523 -0.008326 0.010913 0.007408 -0.007045
# 3 -0.003540 -0.008326 0.011883 -0.008599 -0.005914 0.005215
# 4 0.001608 0.010913 -0.008599 0.047048 0.005735 -0.009072
# 5 0.001814 0.007408 -0.005914 0.005735 0.025718 -0.004500
# 6 -0.002531 -0.007045 0.005215 -0.009072 -0.004500 0.033776
#
#
# Mechanical properties :
#
#
# Convention : Reuss Voigt Hill
#
# Bulk Modulus (GPa) = 56.40036 72.73419 64.56727
# Shear Modulus (GPa) = 28.27707 37.90304 33.09006
#
# Velocity S-wave (km/s) = 3.43261 3.97415 3.71326
# Velocity P-wave (km/s) = 6.26194 7.16702 6.72971
#
# Compressibility (1/GPa) = 0.01773038
#
# Stress axis : x y z
#
# Youngs Moduli (GPa) = 130.80602 46.46286 84.15673
#
# Poissons Ratio (x) = -0.00959 0.29794
# Poissons Ratio (y) = -0.02699 0.70068
# Poissons Ratio (z) = 0.46310 0.38684
#
# Static dielectric constant tensor:
#      x y z
#    x 1.990530 0.045040 -0.038130 
#    y 0.045040 1.916800 -0.034360 
#    z -0.038130 -0.034360 1.926410 
# 
# From -- ./inp_files/462493.got.cif
#   From: 2010.05.17/outbox.cif.g08.bks.cpg/sg2_232_cif.got.tgz:462493.got - 2010.06.03 11:33:40.
