data_PCOD9064482
_publ_section_title
;
Structure prediction by ZEFSAII (Michael W. Deem and Ramdas Pophale) SiO2 
 PCOD9064482
Probable space group: P -1
;
_chemical_formula_sum "Si O2"
_cell_formula_units_Z 14
_cell_length_a 12.213973
_cell_length_b 7.922192
_cell_length_c 9.236404
_cell_angle_alpha 104.662423
_cell_angle_beta 141.317206
_cell_angle_gamma 78.432800
_cell_volume 540.389937
_symmetry_space_group_name_H-M "P -1"
_symmetry_group_IT_number 2
_symmetry_cell_setting 'triclinic'
loop_
_space_group_symop_operation_xyz
x,y,z
-x,-y,-z
loop_
_atom_site_type_symbol
_atom_site_label
_atom_site_fract_x
_atom_site_fract_y
_atom_site_fract_z
Si Si1 0.204158 0.830652 0.790831
Si Si2 0.554507 0.407811 0.384394
Si Si3 0.790683 0.914433 0.402149
Si Si4 0.594631 0.932329 0.727313
Si Si5 0.862365 0.863771 0.770764
Si Si6 0.739691 0.552327 0.130000
Si Si7 0.043685 0.510604 0.216834
O O1 0.216734 0.620642 0.769235
O O2 0.002394 0.892610 0.611633
O O3 0.262090 0.929576 0.725368
O O4 0.319043 0.915256 0.056362
O O5 0.500000 0.500000 0.500000
O O6 0.502286 0.207684 0.306703
O O7 0.758464 0.422279 0.560314
O O8 0.432376 0.486429 0.150094
O O9 0.754314 0.937131 0.539428
O O10 0.713498 0.729175 0.231458
O O11 0.749688 0.820501 0.785482
O O12 0.500000 0.000000 0.500000
O O13 0.953979 0.689379 0.773322
O O14 0.000000 0.000000 0.000000
O O15 0.897789 0.595425 0.188319
O O16 0.000000 0.500000 0.000000
#
# Coordination Sequence:
#
# PCOD9064482 Si02
#       7
#     2   2   2   2   2   2   2
#     4  11  24  45  78 108 149 206 248 313 388 448
#     4  12  24  45  74 112 156 196 257 320 367 460
#     4  11  25  47  77 114 152 199 257 318 380 461
#     4  12  25  47  74 109 157 197 251 325 382 444
#     4  12  25  47  75 112 144 192 264 311 372 469
#     4  12  24  50  77 109 160 203 251 310 395 450
#     4  12  26  43  76 117 144 202 257 309 387 450
#
# _framework density 25.907219999999999
#
# number of rings (size 3 to 8) (size 9 to 14) (size 15 to 20)
#    0.000    0.286    7.143    1.286    2.000    0.000 
#    0.000    2.857    0.000    0.000    0.000    0.000 
#    0.000    0.000    0.000    0.000    0.000    0.000 
#
# Total GULP energy -78515.279431 kJ/mol
# GULP energy per Si atom -5608.234245 kJ/mol
# Density = 2.584825 g / cm^3
# Si number density = 25.907220 Si / 1000 Ang^3
#
#
#
# Elastic Constant Matrix: (Units=GPa)
#
#
# Indices 1 2 3 4 5 6 
#
# 1 125.3323 34.7354 48.3319 2.2535 -13.2450 14.2386
# 2 34.7354 129.8729 41.0441 -14.7205 -12.1226 25.2033
# 3 48.3319 41.0441 168.3415 -6.1932 -9.5082 17.3650
# 4 2.2535 -14.7205 -6.1932 51.0707 6.4458 -3.9608
# 5 -13.2450 -12.1226 -9.5082 6.4458 47.6107 -3.4597
# 6 14.2386 25.2033 17.3650 -3.9608 -3.4597 34.8889
#
#
#
# Elastic Compliance Matrix: (Units=1/GPa)
#
#
# Indices 1 2 3 4 5 6 
#
# 1 0.009674 -0.001559 -0.002166 -0.001518 0.001942 -0.001724
# 2 -0.001559 0.009951 -0.001259 0.002209 0.001145 -0.005561
# 3 -0.002166 -0.001259 0.007072 0.000423 0.000312 -0.001648
# 4 -0.001518 0.002209 0.000423 0.020724 -0.002515 0.000917
# 5 0.001942 0.001145 0.000312 -0.002515 0.022249 0.000145
# 6 -0.001724 -0.005561 -0.001648 0.000917 0.000145 0.034322
#
#
# Mechanical properties :
#
#
# Convention : Reuss Voigt Hill
#
# Bulk Modulus (GPa) = 59.77330 74.64105 67.20717
# Shear Modulus (GPa) = 41.82787 46.67640 44.25213
#
# Velocity S-wave (km/s) = 4.02247 4.24922 4.13740
# Velocity P-wave (km/s) = 6.68550 7.27653 6.98727
#
# Compressibility (1/GPa) = 0.01672988
#
# Stress axis : x y z
#
# Youngs Moduli (GPa) = 103.36481 100.48998 141.39815
#
# Poissons Ratio (x) = 0.15670 0.30624
# Poissons Ratio (y) = 0.16118 0.17801
# Poissons Ratio (z) = 0.22386 0.12651
#
# Static dielectric constant tensor:
#      x y z
#    x 2.189490 -0.070090 0.059720 
#    y -0.070090 2.018020 0.007140 
#    z 0.059720 0.007140 1.911260 
# 
# From -- ./inp_files/299012.got.cif
#   From: 2010.05.17/outbox.cif.g08.bks.cpg/sg2_150_cif.got.tgz:299012.got - 2010.06.03 11:33:40.
