data_PCOD9064330
_publ_section_title
;
Structure prediction by ZEFSAII (Michael W. Deem and Ramdas Pophale) SiO2 
 PCOD9064330
Probable space group: P -1
;
_chemical_formula_sum "Si O2"
_cell_formula_units_Z 12
_cell_length_a 12.240654
_cell_length_b 8.431683
_cell_length_c 18.454903
_cell_angle_alpha 34.239527
_cell_angle_beta 151.370290
_cell_angle_gamma 146.728099
_cell_volume 468.419365
_symmetry_space_group_name_H-M "P -1"
_symmetry_group_IT_number 2
_symmetry_cell_setting 'triclinic'
loop_
_space_group_symop_operation_xyz
x,y,z
-x,-y,-z
loop_
_atom_site_type_symbol
_atom_site_label
_atom_site_fract_x
_atom_site_fract_y
_atom_site_fract_z
Si Si1 0.874802 0.056984 0.769050
Si Si2 0.442421 0.976900 0.277990
Si Si3 0.789282 0.280664 0.902565
Si Si4 0.873756 0.123447 0.579202
Si Si5 0.109717 0.736449 0.673670
Si Si6 0.336853 0.012184 0.834337
O O1 0.706831 0.891678 0.803497
O O2 0.792776 0.998977 0.660018
O O3 0.901760 0.404613 0.662619
O O4 0.131703 0.010706 0.940437
O O5 0.267185 0.714508 0.218660
O O6 0.636818 0.931948 0.463796
O O7 0.654278 0.211033 0.259869
O O8 0.533176 0.249206 0.803425
O O9 0.000000 0.500000 0.000000
O O10 0.000000 0.500000 0.500000
O O11 0.108608 0.062548 0.714694
O O12 0.209329 0.724710 0.816227
O O13 0.000000 0.000000 0.500000
O O14 0.500000 0.000000 0.000000
#
# Coordination Sequence:
#
# PCOD9064330 Si02
#       6
#     2   2   2   2   2   2
#     4  12  26  46  76 107 150 195 239 304 376 428
#     4  11  26  47  75 109 149 189 249 306 361 446
#     4  11  28  48  72 110 148 194 250 303 364 441
#     4  12  24  47  74 113 146 195 247 301 369 439
#     4  11  24  48  71 108 143 190 246 301 364 434
#     4  11  24  45  74 100 146 194 243 300 366 430
#
# _framework density 25.618071
#
# number of rings (size 3 to 8) (size 9 to 14) (size 15 to 20)
#    0.000    0.667    5.000    1.000    4.667    4.667 
#    6.000    0.000    0.000    0.000    0.000    0.000 
#    0.000    0.000    0.000    0.000    0.000    0.000 
#
# Total GULP energy -66881.215876 kJ/mol
# GULP energy per Si atom -5573.434656 kJ/mol
# Density = 2.555976 g / cm^3
# Si number density = 25.618071 Si / 1000 Ang^3
#
#
#
# Elastic Constant Matrix: (Units=GPa)
#
#
# Indices 1 2 3 4 5 6 
#
# 1 225.5803 45.4376 66.0447 32.6666 -20.7048 -11.5428
# 2 45.4376 79.7606 55.2416 20.3972 -7.5739 -1.0157
# 3 66.0447 55.2416 132.2238 36.2933 -18.6177 -28.6555
# 4 32.6666 20.3972 36.2933 52.4615 -11.3487 -7.9263
# 5 -20.7048 -7.5739 -18.6177 -11.3487 54.6675 22.9828
# 6 -11.5428 -1.0157 -28.6555 -7.9263 22.9828 38.5338
#
#
#
# Elastic Compliance Matrix: (Units=1/GPa)
#
#
# Indices 1 2 3 4 5 6 
#
# 1 0.005531 -0.001461 -0.001713 -0.001521 0.001308 -0.000748
# 2 -0.001461 0.019775 -0.008485 -0.001610 0.002295 -0.007926
# 3 -0.001713 -0.008485 0.015450 -0.005146 -0.002277 0.011053
# 4 -0.001521 -0.001610 -0.005146 0.024689 0.003012 -0.001043
# 5 0.001308 0.002295 -0.002277 0.003012 0.025648 -0.015919
# 6 -0.000748 -0.007926 0.011053 -0.001043 -0.015919 0.043017
#
#
# Mechanical properties :
#
#
# Convention : Reuss Voigt Hill
#
# Bulk Modulus (GPa) = 57.34066 85.66806 71.50436
# Shear Modulus (GPa) = 30.62980 47.18863 38.90922
#
# Velocity S-wave (km/s) = 3.46154 4.29652 3.90143
# Velocity P-wave (km/s) = 6.19741 7.62407 6.94746
#
# Compressibility (1/GPa) = 0.01743963
#
# Stress axis : x y z
#
# Youngs Moduli (GPa) = 180.80766 50.56930 64.72323
#
# Poissons Ratio (x) = 0.07387 0.11086
# Poissons Ratio (y) = 0.26413 0.54915
# Poissons Ratio (z) = 0.30968 0.42906
#
# Static dielectric constant tensor:
#      x y z
#    x 2.104720 -0.002320 -0.007730 
#    y -0.002320 2.149700 -0.018660 
#    z -0.007730 -0.018660 2.019130 
# 
# From -- ./inp_files/565710.got.cif
#   From: 2010.05.17/outbox.cif.g08.bks.cpg/sg2_283_cif.got.tgz:565710.got - 2010.06.03 11:33:40.
