data_PCOD9064607
_publ_section_title
;
Structure prediction by ZEFSAII (Michael W. Deem and Ramdas Pophale) SiO2 
 PCOD9064607
Probable space group: P -1
;
_chemical_formula_sum "Si O2"
_cell_formula_units_Z 16
_cell_length_a 15.609827
_cell_length_b 13.725807
_cell_length_c 10.627616
_cell_angle_alpha 32.962904
_cell_angle_beta 59.743279
_cell_angle_gamma 38.432069
_cell_volume 686.364980
_symmetry_space_group_name_H-M "P -1"
_symmetry_group_IT_number 2
_symmetry_cell_setting 'triclinic'
loop_
_space_group_symop_operation_xyz
x,y,z
-x,-y,-z
loop_
_atom_site_type_symbol
_atom_site_label
_atom_site_fract_x
_atom_site_fract_y
_atom_site_fract_z
Si Si1 0.896909 0.813484 0.257801
Si Si2 0.659635 0.841341 0.991859
Si Si3 0.423222 0.799500 0.774504
Si Si4 0.651863 0.748259 0.814708
Si Si5 0.348705 0.725561 0.523496
Si Si6 0.099174 0.862738 0.703096
Si Si7 0.876387 0.341884 0.552270
Si Si8 0.692852 0.281174 0.723893
O O1 0.000000 0.500000 0.500000
O O2 0.019659 0.768043 0.285647
O O3 0.743812 0.005204 0.249657
O O4 0.829497 0.966908 0.008468
O O5 0.662867 0.732794 0.974552
O O6 0.663457 0.045910 0.737267
O O7 0.798536 0.606250 0.240727
O O8 0.500000 0.000000 0.000000
O O9 0.530305 0.776335 0.812279
O O10 0.388632 0.993908 0.478639
O O11 0.500000 0.500000 0.000000
O O12 0.820354 0.435048 0.993956
O O13 0.238596 0.805343 0.626579
O O14 0.529114 0.437447 0.722273
O O15 0.310877 0.691969 0.451964
O O16 0.000000 0.000000 0.500000
O O17 0.990203 0.084329 0.651766
O O18 0.731959 0.415692 0.612587
#
# Coordination Sequence:
#
# PCOD9064607 Si02
#       8
#     2   2   2   2   2   2   2   2
#     4  12  29  45  73 107 151 191 253 307 383 447
#     4  12  26  44  74 112 146 192 254 307 372 450
#     4  11  28  53  77 108 148 205 255 309 375 461
#     4  11  27  48  79 107 151 196 252 309 375 454
#     4  11  25  43  77 104 148 195 252 303 375 449
#     4  12  24  47  72 111 149 190 247 313 376 444
#     4  12  26  47  73 106 152 193 242 316 379 443
#     4  11  24  46  70 103 143 202 240 306 375 448
#
# _framework density 23.311211
#
# number of rings (size 3 to 8) (size 9 to 14) (size 15 to 20)
#    0.000    0.500    3.750    2.625   12.250    1.500 
#    2.250    0.000    0.000    0.000    0.000    0.000 
#    0.000    0.000    0.000    0.000    0.000    0.000 
#
# Total GULP energy -89484.539470 kJ/mol
# GULP energy per Si atom -5592.783717 kJ/mol
# Density = 2.325815 g / cm^3
# Si number density = 23.311211 Si / 1000 Ang^3
#
#
#
# Elastic Constant Matrix: (Units=GPa)
#
#
# Indices 1 2 3 4 5 6 
#
# 1 125.2059 18.8622 40.5604 -8.5444 15.1152 -14.5830
# 2 18.8622 80.1007 22.5934 -8.1212 -4.5362 -15.7206
# 3 40.5604 22.5934 186.0001 -19.2356 -0.4834 -13.9482
# 4 -8.5444 -8.1212 -19.2356 31.5814 -4.4747 -7.7875
# 5 15.1152 -4.5362 -0.4834 -4.4747 45.8408 -6.1851
# 6 -14.5830 -15.7206 -13.9482 -7.7875 -6.1851 23.8084
#
#
#
# Elastic Compliance Matrix: (Units=1/GPa)
#
#
# Indices 1 2 3 4 5 6 
#
# 1 0.009552 -0.000855 -0.001403 0.002302 -0.002405 0.004593
# 2 -0.000855 0.016599 0.000130 0.008347 0.004692 0.014462
# 3 -0.001403 0.000130 0.006606 0.005226 0.001766 0.005265
# 4 0.002302 0.008347 0.005226 0.045429 0.008196 0.026972
# 5 -0.002405 0.004692 0.001766 0.008196 0.025505 0.011966
# 6 0.004593 0.014462 0.005265 0.026972 0.011966 0.069380
#
#
# Mechanical properties :
#
#
# Convention : Reuss Voigt Hill
#
# Bulk Modulus (GPa) = 35.08509 61.70432 48.39471
# Shear Modulus (GPa) = 26.76240 40.86548 33.81394
#
# Velocity S-wave (km/s) = 3.39196 4.19147 3.81273
# Velocity P-wave (km/s) = 5.51579 7.06766 6.33939
#
# Compressibility (1/GPa) = 0.02850213
#
# Stress axis : x y z
#
# Youngs Moduli (GPa) = 104.68481 60.24322 151.36889
#
# Poissons Ratio (x) = 0.05152 0.21237
# Poissons Ratio (y) = 0.08953 -0.01970
# Poissons Ratio (z) = 0.14687 -0.00784
#
# Static dielectric constant tensor:
#      x y z
#    x 1.842400 -0.000870 -0.077040 
#    y -0.000870 1.802800 0.226510 
#    z -0.077040 0.226510 0.846440 
# 
# From -- ./inp_files/455388.got.cif
#   From: 2010.05.17/outbox.cif.g08.bks.cpg/sg2_228_cif.got.tgz:455388.got - 2010.06.03 11:33:40.
