data_PCOD9064464
_publ_section_title
;
Structure prediction by ZEFSAII (Michael W. Deem and Ramdas Pophale) SiO2 
 PCOD9064464
Probable space group: P -1
;
_chemical_formula_sum "Si O2"
_cell_formula_units_Z 10
_cell_length_a 9.836602
_cell_length_b 9.181311
_cell_length_c 9.470617
_cell_angle_alpha 118.120930
_cell_angle_beta 135.651646
_cell_angle_gamma 45.309440
_cell_volume 424.185833
_symmetry_space_group_name_H-M "P -1"
_symmetry_group_IT_number 2
_symmetry_cell_setting 'triclinic'
loop_
_space_group_symop_operation_xyz
x,y,z
-x,-y,-z
loop_
_atom_site_type_symbol
_atom_site_label
_atom_site_fract_x
_atom_site_fract_y
_atom_site_fract_z
Si Si1 0.566615 0.709778 0.606971
Si Si2 0.484081 0.094725 0.830374
Si Si3 0.944500 0.384756 0.518734
Si Si4 0.738300 0.195073 0.846876
Si Si5 0.528262 0.354081 0.185645
O O1 0.797109 0.530866 0.609020
O O2 0.346506 0.815677 0.378408
O O3 0.496968 0.643431 0.663771
O O4 0.624045 0.863161 0.778227
O O5 0.546024 0.201842 0.808434
O O6 0.204346 0.186992 0.664715
O O7 0.533773 0.167998 0.043691
O O8 0.771276 0.326704 0.309041
O O9 0.000000 0.500000 0.500000
O O10 0.690012 0.416331 0.922629
O O11 0.000000 0.000000 0.000000
#
# Coordination Sequence:
#
# PCOD9064464 Si02
#       5
#     2   2   2   2   2
#     4  11  26  50  72 108 150 187 237 304 362 418
#     4  12  26  43  77 110 141 194 244 288 361 436
#     4  11  24  45  77 100 148 191 243 292 354 429
#     4  11  25  45  78 104 145 194 243 291 359 431
#     4  11  26  50  72 108 150 187 237 304 362 418
#
# _framework density 23.574574999999999
#
# number of rings (size 3 to 8) (size 9 to 14) (size 15 to 20)
#    0.000    0.800    4.000    4.200    5.600    1.600 
#    7.200    0.000    0.000    0.000    0.000    0.000 
#    0.000    0.000    0.000    0.000    0.000    0.000 
#
# Total GULP energy -55954.093820 kJ/mol
# GULP energy per Si atom -5595.409382 kJ/mol
# Density = 2.352092 g / cm^3
# Si number density = 23.574575 Si / 1000 Ang^3
#
#
#
# Elastic Constant Matrix: (Units=GPa)
#
#
# Indices 1 2 3 4 5 6 
#
# 1 111.1858 16.9294 30.5112 -15.4158 -9.7332 -4.1787
# 2 16.9294 92.1012 39.1033 16.7067 6.5404 -16.4040
# 3 30.5112 39.1033 70.8825 1.0338 -2.9219 -18.7730
# 4 -15.4158 16.7067 1.0338 52.6462 -2.0085 4.0215
# 5 -9.7332 6.5404 -2.9219 -2.0085 43.0793 -7.4284
# 6 -4.1787 -16.4040 -18.7730 4.0215 -7.4284 34.9326
#
#
#
# Elastic Compliance Matrix: (Units=1/GPa)
#
#
# Indices 1 2 3 4 5 6 
#
# 1 0.011109 -0.001335 -0.004446 0.003978 0.002311 -0.001654
# 2 -0.001335 0.016127 -0.007446 -0.005738 -0.002928 0.003450
# 3 -0.004446 -0.007446 0.022583 0.000068 0.003174 0.008775
# 4 0.003978 -0.005738 0.000068 0.022388 0.002074 -0.004318
# 5 0.002311 -0.002928 0.003174 0.002074 0.025490 0.005789
# 6 -0.001654 0.003450 0.008775 -0.004318 0.005789 0.036493
#
#
# Mechanical properties :
#
#
# Convention : Reuss Voigt Hill
#
# Bulk Modulus (GPa) = 42.79638 49.69525 46.24581
# Shear Modulus (GPa) = 29.68551 38.63999 34.16275
#
# Velocity S-wave (km/s) = 3.55239 4.05291 3.81088
# Velocity P-wave (km/s) = 5.91769 6.55952 6.24685
#
# Compressibility (1/GPa) = 0.02336646
#
# Stress axis : x y z
#
# Youngs Moduli (GPa) = 90.01642 62.00665 44.28073
#
# Poissons Ratio (x) = 0.08275 0.19689
# Poissons Ratio (y) = 0.12013 0.32970
# Poissons Ratio (z) = 0.40025 0.46168
#
# Static dielectric constant tensor:
#      x y z
#    x 1.869340 0.016380 -0.030800 
#    y 0.016380 1.925910 0.009860 
#    z -0.030800 0.009860 1.944990 
# 
# From -- ./inp_files/143953.got.cif
#   From: 2010.05.17/outbox.cif.g08.bks.cpg/sg2_72_cif.got.tgz:143953.got - 2010.06.03 11:33:40.
