data_PCOD9064740
_publ_section_title
;
Structure prediction by ZEFSAII (Michael W. Deem and Ramdas Pophale) SiO2 
 PCOD9064740
Probable space group: P -1
;
_chemical_formula_sum "Si O2"
_cell_formula_units_Z 11
_cell_length_a 8.187925
_cell_length_b 11.759790
_cell_length_c 9.605794
_cell_angle_alpha 36.855756
_cell_angle_beta 108.862372
_cell_angle_gamma 125.084796
_cell_volume 436.030593
_symmetry_space_group_name_H-M "P -1"
_symmetry_group_IT_number 2
_symmetry_cell_setting 'triclinic'
loop_
_space_group_symop_operation_xyz
x,y,z
-x,-y,-z
loop_
_atom_site_type_symbol
_atom_site_label
_atom_site_fract_x
_atom_site_fract_y
_atom_site_fract_z
Si Si1 0.548128 0.311761 0.858921
Si Si2 0.618084 0.771410 0.390110
Si Si3 0.287960 0.677861 0.622928
Si Si4 0.343939 0.134440 0.242670
Si Si5 0.000000 0.000000 0.500000
Si Si6 0.918171 0.258558 0.081635
O O1 0.651607 0.568691 0.583859
O O2 0.415341 0.162418 0.836075
O O3 0.710604 0.254248 0.010653
O O4 0.402368 0.282035 0.975719
O O5 0.420645 0.699551 0.502354
O O6 0.825600 0.981504 0.313928
O O7 0.442508 0.756232 0.720421
O O8 0.082975 0.434363 0.843985
O O9 0.254908 0.882917 0.405092
O O10 0.194593 0.135116 0.311788
O O11 0.000162 0.258323 0.256583
#
# Coordination Sequence:
#
# PCOD9064740 Si02
#       6
#     2   2   2   2   1   2
#     4  11  26  49  78 102 155 187 243 296 369 423
#     4  11  25  52  72 110 147 195 235 304 355 440
#     4  11  25  46  76 105 151 187 245 295 368 420
#     4  11  24  46  72 108 144 198 236 304 358 433
#     4  12  26  44  72 108 144 184 248 292 366 414
#     4  12  26  44  78 108 143 195 238 299 357 436
#
# _framework density 25.227591
#
# number of rings (size 3 to 8) (size 9 to 14) (size 15 to 20)
#    0.000    0.727    3.636    2.727    5.091    3.636 
#    0.000    2.727    0.000    0.000    0.000    0.000 
#    0.000    0.000    0.000    0.000    0.000    0.000 
#
# Total GULP energy -61376.117362 kJ/mol
# GULP energy per Si atom -5579.647033 kJ/mol
# Density = 2.517017 g / cm^3
# Si number density = 25.227591 Si / 1000 Ang^3
#
#
#
# Elastic Constant Matrix: (Units=GPa)
#
#
# Indices 1 2 3 4 5 6 
#
# 1 107.7891 16.9394 42.1124 9.3490 -6.7773 16.2808
# 2 16.9394 65.5150 13.7451 20.8391 -6.7429 3.4068
# 3 42.1124 13.7451 103.3086 15.2094 -3.3330 15.8306
# 4 9.3490 20.8391 15.2094 48.3225 -4.0287 -3.8867
# 5 -6.7773 -6.7429 -3.3330 -4.0287 56.7281 -3.3858
# 6 16.2808 3.4068 15.8306 -3.8867 -3.3858 19.1351
#
#
#
# Elastic Compliance Matrix: (Units=1/GPa)
#
#
# Indices 1 2 3 4 5 6 
#
# 1 0.012101 -0.001624 -0.003416 -0.001109 0.000537 -0.007311
# 2 -0.001624 0.018472 -0.000129 -0.007760 0.001255 -0.003154
# 3 -0.003416 -0.000129 0.013026 -0.004128 -0.000475 -0.008769
# 4 -0.001109 -0.007760 -0.004128 0.026574 0.001268 0.011362
# 5 0.000537 0.001255 -0.000475 0.001268 0.018093 0.003171
# 6 -0.007311 -0.003154 -0.008769 0.011362 0.003171 0.069166
#
#
# Mechanical properties :
#
#
# Convention : Reuss Voigt Hill
#
# Bulk Modulus (GPa) = 30.06563 46.91182 38.48872
# Shear Modulus (GPa) = 27.95514 38.42488 33.19001
#
# Velocity S-wave (km/s) = 3.33245 3.90696 3.63109
# Velocity P-wave (km/s) = 5.17210 6.24406 5.73319
#
# Compressibility (1/GPa) = 0.03326057
#
# Stress axis : x y z
#
# Youngs Moduli (GPa) = 82.63455 54.13515 76.77192
#
# Poissons Ratio (x) = 0.08792 0.26225
# Poissons Ratio (y) = 0.13420 0.00993
# Poissons Ratio (z) = 0.28228 0.00700
#
# Static dielectric constant tensor:
#      x y z
#    x 2.125030 0.029760 0.266940 
#    y 0.029760 2.324680 0.036970 
#    z 0.266940 0.036970 2.213090 
# 
# From -- ./inp_files/166944.got.cif
#   From: 2010.05.17/outbox.cif.g08.bks.cpg/sg2_84_cif.got.tgz:166944.got - 2010.06.03 11:33:40.
