data_PCOD9064170
_publ_section_title
;
Structure prediction by ZEFSAII (Michael W. Deem and Ramdas Pophale) SiO2 
 PCOD9064170
Probable space group: P -1
;
_chemical_formula_sum "Si O2"
_cell_formula_units_Z 12
_cell_length_a 9.035860
_cell_length_b 14.506810
_cell_length_c 9.665398
_cell_angle_alpha 119.958813
_cell_angle_beta 59.548468
_cell_angle_gamma 148.099753
_cell_volume 570.477764
_symmetry_space_group_name_H-M "P -1"
_symmetry_group_IT_number 2
_symmetry_cell_setting 'triclinic'
loop_
_space_group_symop_operation_xyz
x,y,z
-x,-y,-z
loop_
_atom_site_type_symbol
_atom_site_label
_atom_site_fract_x
_atom_site_fract_y
_atom_site_fract_z
Si Si1 0.795035 0.639795 0.043682
Si Si2 0.393591 0.216832 0.380905
Si Si3 0.789784 0.867006 0.300956
Si Si4 0.883700 0.538143 0.183000
Si Si5 0.538621 0.112205 0.679257
Si Si6 0.641269 0.111794 0.157119
O O1 0.891349 0.809530 0.138117
O O2 0.784665 0.579106 0.152157
O O3 0.500000 0.500000 0.000000
O O4 0.035042 0.697457 0.885760
O O5 0.382068 0.253574 0.570304
O O6 0.625615 0.375979 0.283667
O O7 0.465395 0.127343 0.299146
O O8 0.074498 0.070189 0.363335
O O9 0.594502 0.845402 0.284448
O O10 0.141420 0.708315 0.283968
O O11 0.000000 0.500000 0.000000
O O12 0.500000 0.000000 0.500000
O O13 0.373466 0.987234 0.797379
O O14 0.500000 0.000000 0.000000
#
# Coordination Sequence:
#
# PCOD9064170 Si02
#       6
#     2   2   2   2   2   2
#     4  12  27  44  70 105 140 183 240 290 347 418
#     4  11  24  45  71  98 143 184 227 292 349 415
#     4  11  26  45  68 104 141 181 236 286 352 415
#     4  12  25  46  72 103 140 186 239 287 351 419
#     4  12  26  45  73 104 139 188 235 286 359 419
#     4  12  22  47  71  97 144 190 229 285 357 425
#
# _framework density 21.035
#
# number of rings (size 3 to 8) (size 9 to 14) (size 15 to 20)
#    0.000    0.333    6.667    1.000    4.667    3.333 
#    0.000    0.000    0.000    0.000    0.000    0.000 
#    0.000    0.000    0.000    0.000    0.000    0.000 
#
# Total GULP energy -67101.179129 kJ/mol
# GULP energy per Si atom -5591.764927 kJ/mol
# Density = 2.098712 g / cm^3
# Si number density = 21.035000 Si / 1000 Ang^3
#
#
#
# Elastic Constant Matrix: (Units=GPa)
#
#
# Indices 1 2 3 4 5 6 
#
# 1 156.2764 45.6402 27.3751 -1.8509 28.9901 7.8368
# 2 45.6402 109.7795 27.9434 -23.1288 30.5261 9.4864
# 3 27.3751 27.9434 84.7014 -7.5186 11.2102 4.2389
# 4 -1.8509 -23.1288 -7.5186 44.2689 -6.2859 5.1068
# 5 28.9901 30.5261 11.2102 -6.2859 41.9564 -1.0093
# 6 7.8368 9.4864 4.2389 5.1068 -1.0093 40.4329
#
#
#
# Elastic Compliance Matrix: (Units=1/GPa)
#
#
# Indices 1 2 3 4 5 6 
#
# 1 0.008014 -0.002134 -0.001470 -0.001481 -0.003833 -0.000807
# 2 -0.002134 0.014317 -0.002296 0.006367 -0.007464 -0.003695
# 3 -0.001470 -0.002296 0.013256 0.000969 -0.000728 -0.000707
# 4 -0.001481 0.006367 0.000969 0.026556 -0.000002 -0.004663
# 5 -0.003833 -0.007464 -0.000728 -0.000002 0.032189 0.003374
# 6 -0.000807 -0.003695 -0.000707 -0.004663 0.003374 0.026503
#
#
# Mechanical properties :
#
#
# Convention : Reuss Voigt Hill
#
# Bulk Modulus (GPa) = 42.03728 61.40833 51.72281
# Shear Modulus (GPa) = 35.57146 41.98486 38.77816
#
# Velocity S-wave (km/s) = 4.11671 4.47246 4.29827
# Velocity P-wave (km/s) = 6.52873 7.47845 7.01967
#
# Compressibility (1/GPa) = 0.02378841
#
# Stress axis : x y z
#
# Youngs Moduli (GPa) = 124.78875 69.84765 75.43616
#
# Poissons Ratio (x) = 0.14904 0.11087
# Poissons Ratio (y) = 0.26627 0.17317
# Poissons Ratio (z) = 0.18340 0.16034
#
# Static dielectric constant tensor:
#      x y z
#    x 1.738650 0.010280 0.012470 
#    y 0.010280 1.783890 0.019320 
#    z 0.012470 0.019320 1.764380 
# 
# From -- ./inp_files/144487.got.cif
#   From: 2010.05.17/outbox.cif.g08.bks.cpg/sg2_73_cif.got.tgz:144487.got - 2010.06.03 11:33:40.
