data_PCOD9064654
_publ_section_title
;
Structure prediction by ZEFSAII (Michael W. Deem and Ramdas Pophale) SiO2 
 PCOD9064654
Probable space group: P -1
;
_chemical_formula_sum "Si O2"
_cell_formula_units_Z 12
_cell_length_a 10.525972
_cell_length_b 15.484211
_cell_length_c 25.450937
_cell_angle_alpha 161.975878
_cell_angle_beta 153.437739
_cell_angle_gamma 27.084606
_cell_volume 549.714965
_symmetry_space_group_name_H-M "P -1"
_symmetry_group_IT_number 2
_symmetry_cell_setting 'triclinic'
loop_
_space_group_symop_operation_xyz
x,y,z
-x,-y,-z
loop_
_atom_site_type_symbol
_atom_site_label
_atom_site_fract_x
_atom_site_fract_y
_atom_site_fract_z
Si Si1 0.646253 0.680332 0.697255
Si Si2 0.092117 0.031098 0.760544
Si Si3 0.754905 0.558946 0.866495
Si Si4 0.678902 0.018194 0.806277
Si Si5 0.102169 0.506133 0.600841
Si Si6 0.059762 0.440653 0.800468
O O1 0.500000 0.500000 0.500000
O O2 0.903087 0.457943 0.696379
O O3 0.408510 0.852963 0.751342
O O4 0.727419 0.914003 0.824311
O O5 0.947145 0.290685 0.817204
O O6 0.151732 0.165266 0.916095
O O7 0.887644 0.815349 0.561486
O O8 0.411751 0.582409 0.762988
O O9 0.840513 0.493634 0.799753
O O10 0.329758 0.151419 0.742321
O O11 0.813407 0.280346 0.993795
O O12 0.848748 0.742116 0.675015
O O13 0.000000 0.500000 0.500000
#
# Coordination Sequence:
#
# PCOD9064654 Si02
#       6
#     2   2   2   2   2   2
#     4  12  24  44  70 101 142 179 229 288 345 408
#     4  11  24  46  71 104 140 180 237 286 344 415
#     4  11  25  46  73 101 140 186 229 289 347 408
#     4  11  25  46  69 105 134 182 236 283 346 411
#     4  12  25  44  70 102 140 183 233 283 347 416
#     4  11  25  46  73  99 139 184 232 284 345 413
#
# _framework density 21.829495999999999
#
# number of rings (size 3 to 8) (size 9 to 14) (size 15 to 20)
#    0.000    0.667    3.333    4.000    0.000    4.000 
#    6.000    0.000    0.000    0.000    0.000    0.000 
#    0.000    0.000    0.000    0.000    0.000    0.000 
#
# Total GULP energy -67159.832278 kJ/mol
# GULP energy per Si atom -5596.652690 kJ/mol
# Density = 2.177981 g / cm^3
# Si number density = 21.829496 Si / 1000 Ang^3
#
#
#
# Elastic Constant Matrix: (Units=GPa)
#
#
# Indices 1 2 3 4 5 6 
#
# 1 94.1611 49.7317 25.1262 -19.8111 18.8716 1.9063
# 2 49.7317 96.9343 68.8411 -20.5489 0.9437 -0.6887
# 3 25.1262 68.8411 82.0740 19.4579 -10.1018 4.6210
# 4 -19.8111 -20.5489 19.4579 5.6204 27.5821 -5.8503
# 5 18.8716 0.9437 -10.1018 27.5821 16.6264 1.4721
# 6 1.9063 -0.6887 4.6210 -5.8503 1.4721 37.0430
#
#
#
# Elastic Compliance Matrix: (Units=1/GPa)
#
#
# Indices 1 2 3 4 5 6 
#
# 1 0.016702 -0.015517 0.008483 -0.004507 -0.005205 -0.002711
# 2 -0.015517 0.026048 -0.013204 -0.006731 0.019181 0.001105
# 3 0.008483 -0.013204 0.015959 0.010925 -0.017284 -0.000261
# 4 -0.004507 -0.006731 0.010925 -0.005014 0.020709 -0.002871
# 5 -0.005205 0.019181 -0.017284 0.020709 0.019643 0.005271
# 6 -0.002711 0.001105 -0.000261 -0.002871 0.005271 0.026525
#
#
# Mechanical properties :
#
#
# Convention : Reuss Voigt Hill
#
# Bulk Modulus (GPa) = 54.84435 62.28526 58.56480
# Shear Modulus (GPa) = 34.14913 20.48932 27.31922
#
# Velocity S-wave (km/s) = 3.95949 3.06699 3.54147
# Velocity P-wave (km/s) = 6.78836 6.41377 6.60373
#
# Compressibility (1/GPa) = 0.01823342
#
# Stress axis : x y z
#
# Youngs Moduli (GPa) = 59.87389 38.39016 62.66007
#
# Poissons Ratio (x) = 0.59571 -0.53154
# Poissons Ratio (y) = 0.92908 0.82733
# Poissons Ratio (z) = -0.50790 0.50689
#
# Static dielectric constant tensor:
#      x y z
#    x 1.788160 0.016590 0.041640 
#    y 0.016590 1.786780 0.001940 
#    z 0.041640 0.001940 1.830950 
# 
# From -- ./inp_files/294634.got.cif
#   From: 2010.05.17/outbox.cif.g08.bks.cpg/sg2_148_cif.got.tgz:294634.got - 2010.06.03 11:33:40.
