data_PCOD9064219
_publ_section_title
;
Structure prediction by ZEFSAII (Michael W. Deem and Ramdas Pophale) SiO2 
 PCOD9064219
Probable space group: P -1
;
_chemical_formula_sum "Si O2"
_cell_formula_units_Z 16
_cell_length_a 4.990897
_cell_length_b 11.964852
_cell_length_c 12.370935
_cell_angle_alpha 61.946244
_cell_angle_beta 82.645270
_cell_angle_gamma 69.244008
_cell_volume 608.957063
_symmetry_space_group_name_H-M "P -1"
_symmetry_group_IT_number 2
_symmetry_cell_setting 'triclinic'
loop_
_space_group_symop_operation_xyz
x,y,z
-x,-y,-z
loop_
_atom_site_type_symbol
_atom_site_label
_atom_site_fract_x
_atom_site_fract_y
_atom_site_fract_z
Si Si1 0.694144 0.578797 0.039781
Si Si2 0.272395 0.678062 0.560150
Si Si3 0.748087 0.593362 0.400404
Si Si4 0.014760 0.070428 0.666107
Si Si5 0.123146 0.257619 0.864325
Si Si6 0.373242 0.075274 0.359940
Si Si7 0.750627 0.111572 0.899726
Si Si8 0.499026 0.671640 0.787550
O O1 0.823044 0.641318 0.100312
O O2 0.528681 0.478803 0.134290
O O3 0.499346 0.684351 0.913606
O O4 0.000000 0.500000 0.000000
O O5 0.512575 0.675379 0.459694
O O6 0.306808 0.520015 0.621781
O O7 0.012497 0.796875 0.464714
O O8 0.326460 0.712892 0.663575
O O9 0.848365 0.691742 0.279192
O O10 0.000000 0.500000 0.500000
O O11 0.847167 0.101269 0.774314
O O12 0.871177 0.978907 0.646665
O O13 0.346661 0.983389 0.705078
O O14 0.418200 0.132425 0.919847
O O15 0.816773 0.239822 0.888757
O O16 0.294145 0.237741 0.288261
O O17 0.500000 0.000000 0.500000
O O18 0.000000 0.000000 0.000000
#
# Coordination Sequence:
#
# PCOD9064219 Si02
#       8
#     2   2   2   2   2   2   2   2
#     4  11  29  47  74 106 150 204 246 312 367 449
#     4  11  24  45  72 105 147 185 247 302 382 437
#     4  11  25  41  74 110 143 194 233 317 374 445
#     4  12  27  49  73 110 151 193 246 311 373 447
#     4  12  27  50  76 113 146 191 258 300 374 454
#     4  12  28  47  77 110 149 196 249 303 375 450
#     4  12  29  49  77 107 148 198 246 314 373 437
#     4  11  27  47  72 105 147 195 253 301 376 441
#
# _framework density 26.274429999999999
#
# number of rings (size 3 to 8) (size 9 to 14) (size 15 to 20)
#    0.000    0.500    3.750    2.250   14.000    0.000 
#    0.000    0.000    0.000    0.000    0.000    0.000 
#    0.000    0.000    0.000    0.000    0.000    0.000 
#
# Total GULP energy -89192.385528 kJ/mol
# GULP energy per Si atom -5574.524095 kJ/mol
# Density = 2.621463 g / cm^3
# Si number density = 26.274430 Si / 1000 Ang^3
#
#
#
# Elastic Constant Matrix: (Units=GPa)
#
#
# Indices 1 2 3 4 5 6 
#
# 1 88.7804 40.7772 -6.9838 5.8846 5.6882 11.2034
# 2 40.7772 76.2790 37.1937 -1.2903 -9.5456 5.7877
# 3 -6.9838 37.1937 125.3933 -9.6961 22.0308 13.9764
# 4 5.8846 -1.2903 -9.6961 46.6734 8.7376 2.9180
# 5 5.6882 -9.5456 22.0308 8.7376 25.1534 -4.1468
# 6 11.2034 5.7877 13.9764 2.9180 -4.1468 52.4965
#
#
#
# Elastic Compliance Matrix: (Units=1/GPa)
#
#
# Indices 1 2 3 4 5 6 
#
# 1 0.029202 -0.028453 0.018596 0.007243 -0.038094 -0.011458
# 2 -0.028453 0.047579 -0.027807 -0.012039 0.055213 0.013261
# 3 0.018596 -0.027807 0.027448 0.011777 -0.044936 -0.012415
# 4 0.007243 -0.012039 0.011777 0.028217 -0.027493 -0.007094
# 5 -0.038094 0.055213 -0.044936 -0.027493 0.122386 0.025202
# 6 -0.011458 0.013261 -0.012415 -0.007094 0.025202 0.025722
#
#
# Mechanical properties :
#
#
# Convention : Reuss Voigt Hill
#
# Bulk Modulus (GPa) = 34.60196 48.04742 41.32469
# Shear Modulus (GPa) = 13.67934 39.49571 26.58753
#
# Velocity S-wave (km/s) = 2.28421 3.88132 3.18451
# Velocity P-wave (km/s) = 4.48942 6.19779 5.41145
#
# Compressibility (1/GPa) = 0.02890010
#
# Stress axis : x y z
#
# Youngs Moduli (GPa) = 34.24444 21.01786 36.43259
#
# Poissons Ratio (x) = 0.59803 -0.67750
# Poissons Ratio (y) = 0.97437 1.01307
# Poissons Ratio (z) = -0.63681 0.58444
#
# Static dielectric constant tensor:
#      x y z
#    x 1.995940 -0.183130 0.002690 
#    y -0.183130 1.822500 0.002380 
#    z 0.002690 0.002380 2.006280 
# 
# From -- ./inp_files/364066.got.cif
#   From: 2010.05.17/outbox.cif.g08.bks.cpg/sg2_183_cif.got.tgz:364066.got - 2010.06.03 11:33:40.
