data_PCOD9064660
_publ_section_title
;
Structure prediction by ZEFSAII (Michael W. Deem and Ramdas Pophale) SiO2 
 PCOD9064660
Probable space group: P -1
;
_chemical_formula_sum "Si O2"
_cell_formula_units_Z 14
_cell_length_a 24.613345
_cell_length_b 15.596981
_cell_length_c 15.404169
_cell_angle_alpha 29.018052
_cell_angle_beta 18.545954
_cell_angle_gamma 18.938242
_cell_volume 596.052993
_symmetry_space_group_name_H-M "P -1"
_symmetry_group_IT_number 2
_symmetry_cell_setting 'triclinic'
loop_
_space_group_symop_operation_xyz
x,y,z
-x,-y,-z
loop_
_atom_site_type_symbol
_atom_site_label
_atom_site_fract_x
_atom_site_fract_y
_atom_site_fract_z
Si Si1 0.121286 0.739216 0.407548
Si Si2 0.307819 0.768626 0.757304
Si Si3 0.362605 0.751657 0.401545
Si Si4 0.349000 0.114623 0.446603
Si Si5 0.438263 0.431434 0.021760
Si Si6 0.143270 0.594096 0.948925
Si Si7 0.133378 0.370155 0.820079
O O1 0.269590 0.595400 0.218991
O O2 0.160001 0.536433 0.585693
O O3 0.261978 0.784835 0.208073
O O4 0.821446 0.002560 0.603622
O O5 0.468566 0.522058 0.666033
O O6 0.389354 0.910155 0.507833
O O7 0.372313 0.632262 0.873822
O O8 0.000000 0.000000 0.000000
O O9 0.178258 0.777529 0.720058
O O10 0.574244 0.690623 0.192043
O O11 0.367468 0.291881 0.218166
O O12 0.580166 0.933495 0.328066
O O13 0.075133 0.294793 0.750220
O O14 0.043816 0.605302 0.997207
O O15 0.000000 0.500000 0.000000
#
# Coordination Sequence:
#
# PCOD9064660 Si02
#       7
#     2   2   2   2   2   2   2
#     4  11  25  47  72 108 148 192 250 304 369 437
#     4  12  26  48  74 107 150 191 245 303 366 431
#     4  11  26  45  73 104 151 194 244 306 367 438
#     4  12  24  48  75 105 147 197 246 296 369 435
#     4  11  26  46  77 108 145 197 247 305 363 443
#     4  11  24  46  71 105 143 199 238 299 373 435
#     4  12  26  45  75 110 147 191 248 309 363 440
#
# _framework density 23.487843999999999
#
# number of rings (size 3 to 8) (size 9 to 14) (size 15 to 20)
#    0.000    0.571    4.286    3.000    6.000    1.714 
#    0.000    0.000    0.000    0.000    0.000    0.000 
#    0.000    0.000    0.000    0.000    0.000    0.000 
#
# Total GULP energy -78396.207347 kJ/mol
# GULP energy per Si atom -5599.729096 kJ/mol
# Density = 2.343438 g / cm^3
# Si number density = 23.487844 Si / 1000 Ang^3
#
#
#
# Elastic Constant Matrix: (Units=GPa)
#
#
# Indices 1 2 3 4 5 6 
#
# 1 95.0942 11.9182 20.6739 12.9296 -22.5575 -7.7683
# 2 11.9182 69.7944 16.8762 7.3658 -21.2479 -18.1185
# 3 20.6739 16.8762 83.3730 12.0922 -26.7748 -12.7843
# 4 12.9296 7.3658 12.0922 33.3589 -8.3835 -5.9136
# 5 -22.5575 -21.2479 -26.7748 -8.3835 52.8826 5.4665
# 6 -7.7683 -18.1185 -12.7843 -5.9136 5.4665 34.7796
#
#
#
# Elastic Compliance Matrix: (Units=1/GPa)
#
#
# Indices 1 2 3 4 5 6 
#
# 1 0.012235 0.000052 -0.001105 -0.003122 0.004063 0.001184
# 2 0.000052 0.018608 -0.000323 -0.000929 0.006316 0.008436
# 3 -0.001105 -0.000323 0.015352 -0.002807 0.006339 0.003755
# 4 -0.003122 -0.000929 -0.002807 0.033438 0.001846 0.003182
# 5 0.004063 0.006316 0.006339 0.001846 0.026404 0.002691
# 6 0.001184 0.008436 0.003755 0.003182 0.002691 0.034910
#
#
# Mechanical properties :
#
#
# Convention : Reuss Voigt Hill
#
# Bulk Modulus (GPa) = 23.01922 38.57756 30.79839
# Shear Modulus (GPa) = 31.60968 37.45712 34.53340
#
# Velocity S-wave (km/s) = 3.67248 3.99776 3.83857
# Velocity P-wave (km/s) = 5.27300 6.14569 5.72600
#
# Compressibility (1/GPa) = 0.04344195
#
# Stress axis : x y z
#
# Youngs Moduli (GPa) = 81.73545 53.74096 65.13752
#
# Poissons Ratio (x) = -0.00278 0.07199
# Poissons Ratio (y) = -0.00423 0.02102
# Poissons Ratio (z) = 0.09033 0.01735
#
# Static dielectric constant tensor:
#      x y z
#    x 1.918270 0.022610 -0.028640 
#    y 0.022610 1.884170 0.016100 
#    z -0.028640 0.016100 1.904950 
# 
# From -- ./inp_files/262875.got.cif
#   From: 2010.05.17/outbox.cif.g08.bks.cpg/sg2_132_cif.got.tgz:262875.got - 2010.06.03 11:33:40.
