data_PCOD9064105
_publ_section_title
;
Structure prediction by ZEFSAII (Michael W. Deem and Ramdas Pophale) SiO2 
 PCOD9064105
Probable space group: P -1
;
_chemical_formula_sum "Si O2"
_cell_formula_units_Z 14
_cell_length_a 16.879276
_cell_length_b 13.339721
_cell_length_c 16.637032
_cell_angle_alpha 146.199875
_cell_angle_beta 162.821884
_cell_angle_gamma 35.253200
_cell_volume 609.574750
_symmetry_space_group_name_H-M "P -1"
_symmetry_group_IT_number 2
_symmetry_cell_setting 'triclinic'
loop_
_space_group_symop_operation_xyz
x,y,z
-x,-y,-z
loop_
_atom_site_type_symbol
_atom_site_label
_atom_site_fract_x
_atom_site_fract_y
_atom_site_fract_z
Si Si1 0.725013 0.006167 0.575824
Si Si2 0.936671 0.368651 0.688169
Si Si3 0.906591 0.615197 0.565440
Si Si4 0.178804 0.627313 0.005552
Si Si5 0.730808 0.983281 0.981208
Si Si6 0.422576 0.328806 0.260835
Si Si7 0.656775 0.338375 0.245254
O O1 0.792574 0.817959 0.563617
O O2 0.433975 0.009250 0.256072
O O3 0.733598 0.184881 0.756552
O O4 0.955395 0.012580 0.734315
O O5 0.693378 0.286975 0.442620
O O6 0.906528 0.284215 0.513082
O O7 0.931489 0.578328 0.790157
O O8 0.171341 0.353497 0.972073
O O9 0.713539 0.488956 0.336430
O O10 0.000000 0.500000 0.500000
O O11 0.110649 0.632752 0.848919
O O12 0.403087 0.450654 0.119829
O O13 0.659405 0.814117 0.849961
O O14 0.615002 0.160139 0.038445
O O15 0.500000 0.500000 0.500000
#
# Coordination Sequence:
#
# PCOD9064105 Si02
#       7
#     2   2   2   2   2   2   2
#     4  12  27  46  72 106 145 187 236 294 346 421
#     4  11  24  45  71 100 145 183 233 291 351 414
#     4  11  24  45  74 104 143 188 235 290 355 422
#     4  11  25  46  73 107 143 186 237 291 356 417
#     4  12  28  46  73 105 144 188 241 287 355 418
#     4  12  24  45  72 104 139 189 235 292 351 416
#     4  11  26  46  74 104 145 188 233 291 358 422
#
# _framework density 22.966830000000002
#
# number of rings (size 3 to 8) (size 9 to 14) (size 15 to 20)
#    0.000    0.571    2.857    4.286    8.000    2.857 
#    0.000    0.000    0.000    0.000    0.000    0.000 
#    0.000    0.000    0.000    0.000    0.000    0.000 
#
# Total GULP energy -78133.540869 kJ/mol
# GULP energy per Si atom -5580.967205 kJ/mol
# Density = 2.291456 g / cm^3
# Si number density = 22.966830 Si / 1000 Ang^3
#
#
#
# Elastic Constant Matrix: (Units=GPa)
#
#
# Indices 1 2 3 4 5 6 
#
# 1 82.1853 29.6717 27.4588 -1.6938 -6.3289 13.9267
# 2 29.6717 82.0209 27.6900 19.5602 -26.5523 -11.0372
# 3 27.4588 27.6900 87.5346 0.0700 -22.2350 12.7442
# 4 -1.6938 19.5602 0.0700 38.8423 1.8555 -5.5634
# 5 -6.3289 -26.5523 -22.2350 1.8555 47.9858 0.6643
# 6 13.9267 -11.0372 12.7442 -5.5634 0.6643 34.0334
#
#
#
# Elastic Compliance Matrix: (Units=1/GPa)
#
#
# Indices 1 2 3 4 5 6 
#
# 1 0.017346 -0.008781 -0.002408 0.004174 -0.003734 -0.008289
# 2 -0.008781 0.024392 -0.003755 -0.011634 0.010899 0.010796
# 3 -0.002408 -0.003755 0.015469 0.000667 0.004830 -0.006010
# 4 0.004174 -0.011634 0.000667 0.032059 -0.006813 -0.000357
# 5 -0.003734 0.010899 0.004830 -0.006813 0.028857 0.001577
# 6 -0.008289 0.010796 -0.006010 -0.000357 0.001577 0.038437
#
#
# Mechanical properties :
#
#
# Convention : Reuss Voigt Hill
#
# Bulk Modulus (GPa) = 36.60817 46.82020 41.71418
# Shear Modulus (GPa) = 25.56822 35.30033 30.43427
#
# Velocity S-wave (km/s) = 3.34019 3.92473 3.64420
# Velocity P-wave (km/s) = 5.55428 6.40065 5.99242
#
# Compressibility (1/GPa) = 0.02731631
#
# Stress axis : x y z
#
# Youngs Moduli (GPa) = 57.65097 40.99704 64.64690
#
# Poissons Ratio (x) = 0.36002 0.15570
# Poissons Ratio (y) = 0.50626 0.24276
# Poissons Ratio (z) = 0.13885 0.15395
#
# Static dielectric constant tensor:
#      x y z
#    x 2.148610 -0.095440 0.219910 
#    y -0.095440 1.842140 -0.081250 
#    z 0.219910 -0.081250 2.026470 
# 
# From -- ./inp_files/60989.got.cif
#   From: 2010.05.17/outbox.cif.g08.bks.cpg/sg2_31_cif.got.tgz:60989.got - 2010.06.03 11:33:40.
