data_PCOD9064591
_publ_section_title
;
Structure prediction by ZEFSAII (Michael W. Deem and Ramdas Pophale) SiO2 
 PCOD9064591
Probable space group: P -1
;
_chemical_formula_sum "Si O2"
_cell_formula_units_Z 14
_cell_length_a 4.857471
_cell_length_b 12.179086
_cell_length_c 12.534639
_cell_angle_alpha 57.542680
_cell_angle_beta 108.534302
_cell_angle_gamma 89.165705
_cell_volume 577.148400
_symmetry_space_group_name_H-M "P -1"
_symmetry_group_IT_number 2
_symmetry_cell_setting 'triclinic'
loop_
_space_group_symop_operation_xyz
x,y,z
-x,-y,-z
loop_
_atom_site_type_symbol
_atom_site_label
_atom_site_fract_x
_atom_site_fract_y
_atom_site_fract_z
Si Si1 0.694981 0.608223 0.771711
Si Si2 0.568892 0.433159 0.657826
Si Si3 0.827465 0.747641 0.215673
Si Si4 0.700135 0.907793 0.335048
Si Si5 0.231368 0.650648 0.944584
Si Si6 0.633900 0.122838 0.493986
Si Si7 0.704383 0.813996 0.928178
O O1 0.690740 0.531557 0.699760
O O2 0.451995 0.748090 0.659719
O O3 0.007926 0.642165 0.824958
O O4 0.665111 0.492872 0.911803
O O5 0.500000 0.500000 0.500000
O O6 0.299097 0.384012 0.706801
O O7 0.823800 0.300446 0.739426
O O8 0.766553 0.835816 0.267660
O O9 0.698497 0.818650 0.053255
O O10 0.543070 0.831397 0.441514
O O11 0.014859 0.922400 0.415568
O O12 0.461572 0.046192 0.214376
O O13 0.514405 0.708465 0.926450
O O14 0.030017 0.754242 0.950555
O O15 0.500000 0.000000 0.500000
#
# Coordination Sequence:
#
# PCOD9064591 Si02
#       7
#     2   2   2   2   2   2   2
#     4  11  24  46  70 101 136 180 226 285 340 404
#     4  12  25  43  67  99 140 176 225 278 335 405
#     4  12  24  44  65 102 133 180 228 273 335 400
#     4  12  26  44  71  99 138 184 224 280 338 403
#     4  11  26  42  72 102 134 177 232 281 341 398
#     4  12  27  47  70 101 136 178 227 279 348 403
#     4  12  23  47  67 103 137 178 230 279 335 402
#
# _framework density 24.257193999999998
#
# number of rings (size 3 to 8) (size 9 to 14) (size 15 to 20)
#    0.000    0.286    2.857    6.429    0.000    6.857 
#    0.000    4.286    0.000    0.000    0.000    0.000 
#    0.000    0.000    0.000    0.000    0.000    0.000 
#
# Total GULP energy -78510.448288 kJ/mol
# GULP energy per Si atom -5607.889163 kJ/mol
# Density = 2.420198 g / cm^3
# Si number density = 24.257194 Si / 1000 Ang^3
#
#
#
# Elastic Constant Matrix: (Units=GPa)
#
#
# Indices 1 2 3 4 5 6 
#
# 1 71.3971 -7.7141 20.7129 3.0830 1.9896 -7.3004
# 2 -7.7141 111.9957 42.2987 6.9248 6.5841 -18.6026
# 3 20.7129 42.2987 168.0537 4.3136 6.4994 3.2708
# 4 3.0830 6.9248 4.3136 53.4486 -5.0476 0.2482
# 5 1.9896 6.5841 6.4994 -5.0476 25.0333 3.5834
# 6 -7.3004 -18.6026 3.2708 0.2482 3.5834 22.2523
#
#
#
# Elastic Compliance Matrix: (Units=1/GPa)
#
#
# Indices 1 2 3 4 5 6 
#
# 1 0.016579 0.004304 -0.003149 -0.001628 -0.003401 0.010066
# 2 0.004304 0.013527 -0.003946 -0.002255 -0.005361 0.014189
# 3 -0.003149 -0.003946 0.007428 0.000135 0.000167 -0.005452
# 4 -0.001628 -0.002255 0.000135 0.019586 0.005135 -0.003484
# 5 -0.003401 -0.005361 0.000167 0.005135 0.044457 -0.012839
# 6 0.010066 0.014189 -0.005452 -0.003484 -0.012839 0.063011
#
#
# Mechanical properties :
#
#
# Convention : Reuss Voigt Hill
#
# Bulk Modulus (GPa) = 31.29761 51.33793 41.31777
# Shear Modulus (GPa) = 27.65151 39.89010 33.77081
#
# Velocity S-wave (km/s) = 3.37995 4.05960 3.73526
# Velocity P-wave (km/s) = 5.30683 6.57143 5.97270
#
# Compressibility (1/GPa) = 0.03195132
#
# Stress axis : x y z
#
# Youngs Moduli (GPa) = 60.31678 73.92543 134.62444
#
# Poissons Ratio (x) = -0.31817 0.42397
# Poissons Ratio (y) = -0.25960 0.53125
# Poissons Ratio (z) = 0.18996 0.29172
#
# Static dielectric constant tensor:
#      x y z
#    x 1.880330 -0.014530 -0.014370 
#    y -0.014530 1.940520 0.044010 
#    z -0.014370 0.044010 1.918120 
# 
# From -- ./inp_files/362976.got.cif
#   From: 2010.05.17/outbox.cif.g08.bks.cpg/sg2_182_cif.got.tgz:362976.got - 2010.06.03 11:33:40.
