data_PCOD9064162
_publ_section_title
;
Structure prediction by ZEFSAII (Michael W. Deem and Ramdas Pophale) SiO2 
 PCOD9064162
Probable space group: P -1
;
_chemical_formula_sum "Si O2"
_cell_formula_units_Z 9
_cell_length_a 9.483181
_cell_length_b 12.583423
_cell_length_c 6.544061
_cell_angle_alpha 108.641440
_cell_angle_beta 92.393098
_cell_angle_gamma 144.797386
_cell_volume 354.939052
_symmetry_space_group_name_H-M "P -1"
_symmetry_group_IT_number 2
_symmetry_cell_setting 'triclinic'
loop_
_space_group_symop_operation_xyz
x,y,z
-x,-y,-z
loop_
_atom_site_type_symbol
_atom_site_label
_atom_site_fract_x
_atom_site_fract_y
_atom_site_fract_z
Si Si1 0.171499 0.408946 0.431287
Si Si2 0.522149 0.984316 0.224994
Si Si3 0.000000 0.000000 0.500000
Si Si4 0.563981 0.236883 0.615809
Si Si5 0.671311 0.677759 0.926034
O O1 0.201028 0.541549 0.380431
O O2 0.432315 0.576682 0.714154
O O3 0.201836 0.329225 0.220629
O O4 0.866248 0.192748 0.398837
O O5 0.442873 0.042452 0.374086
O O6 0.344980 0.754314 0.157529
O O7 0.500000 0.000000 0.000000
O O8 0.687830 0.848001 0.416716
O O9 0.919933 0.922344 0.202508
O O10 0.500000 0.500000 0.000000
#
# Coordination Sequence:
#
# PCOD9064162 Si02
#       5
#     2   2   1   2   2
#     4  11  25  47  74 107 148 197 242 303 372 433
#     4  11  26  47  70 108 148 192 249 300 362 447
#     4  12  24  46  76 106 146 190 242 306 366 426
#     4  11  26  45  71 108 144 194 242 304 363 436
#     4  11  24  45  71 114 149 185 249 307 362 442
#
# _framework density 25.356466999999999
#
# number of rings (size 3 to 8) (size 9 to 14) (size 15 to 20)
#    0.000    0.889    2.222    3.333    6.222    3.556 
#    0.000    0.000    0.000    0.000    0.000    0.000 
#    0.000    0.000    0.000    0.000    0.000    0.000 
#
# Total GULP energy -50153.047132 kJ/mol
# GULP energy per Si atom -5572.560792 kJ/mol
# Density = 2.529875 g / cm^3
# Si number density = 25.356467 Si / 1000 Ang^3
#
#
#
# Elastic Constant Matrix: (Units=GPa)
#
#
# Indices 1 2 3 4 5 6 
#
# 1 74.7453 45.6352 36.8232 2.5896 -15.0735 13.9338
# 2 45.6352 152.7573 26.2462 -35.0560 15.8986 -14.3854
# 3 36.8232 26.2462 175.6798 -21.4865 6.3570 -9.7347
# 4 2.5896 -35.0560 -21.4865 35.7850 2.5453 7.3298
# 5 -15.0735 15.8986 6.3570 2.5453 36.8304 -12.8071
# 6 13.9338 -14.3854 -9.7347 7.3298 -12.8071 30.3693
#
#
#
# Elastic Compliance Matrix: (Units=1/GPa)
#
#
# Indices 1 2 3 4 5 6 
#
# 1 0.038432 -0.019604 -0.010003 -0.026749 0.022893 -0.014015
# 2 -0.019604 0.019160 0.005035 0.022860 -0.016191 0.007339
# 3 -0.010003 0.005035 0.008822 0.010576 -0.007031 0.004285
# 4 -0.026749 0.022860 0.010576 0.060366 -0.026563 0.000720
# 5 0.022893 -0.016191 -0.007031 -0.026563 0.048849 0.006585
# 6 -0.014015 0.007339 0.004285 0.000720 0.006585 0.046811
#
#
# Mechanical properties :
#
#
# Convention : Reuss Voigt Hill
#
# Bulk Modulus (GPa) = 57.90443 68.95462 63.42952
# Shear Modulus (GPa) = 18.02838 40.22880 29.12859
#
# Velocity S-wave (km/s) = 2.66935 3.98745 3.39302
# Velocity P-wave (km/s) = 5.69089 6.96080 6.35764
#
# Compressibility (1/GPa) = 0.01726984
#
# Stress axis : x y z
#
# Youngs Moduli (GPa) = 26.02015 52.19216 113.35302
#
# Poissons Ratio (x) = 1.02315 1.13390
# Poissons Ratio (y) = 0.51009 -0.57072
# Poissons Ratio (z) = 0.26029 -0.26278
#
# Static dielectric constant tensor:
#      x y z
#    x 1.956240 -0.084130 -0.019110 
#    y -0.084130 2.146450 0.014260 
#    z -0.019110 0.014260 2.072260 
# 
# From -- ./inp_files/1348.got.cif
#   From: 2010.05.17/outbox.cif.g08.bks.cpg/sg2_1_cif.got.tgz:1348.got - 2010.06.03 11:33:40.
