data_PCOD9064480
_publ_section_title
;
Structure prediction by ZEFSAII (Michael W. Deem and Ramdas Pophale) SiO2 
 PCOD9064480
Probable space group: P -1
;
_chemical_formula_sum "Si O2"
_cell_formula_units_Z 16
_cell_length_a 17.584866
_cell_length_b 12.211611
_cell_length_c 9.627620
_cell_angle_alpha 126.023347
_cell_angle_beta 150.590910
_cell_angle_gamma 42.441682
_cell_volume 675.677344
_symmetry_space_group_name_H-M "P -1"
_symmetry_group_IT_number 2
_symmetry_cell_setting 'triclinic'
loop_
_space_group_symop_operation_xyz
x,y,z
-x,-y,-z
loop_
_atom_site_type_symbol
_atom_site_label
_atom_site_fract_x
_atom_site_fract_y
_atom_site_fract_z
Si Si1 0.735055 0.328039 0.149475
Si Si2 0.972609 0.955631 0.268247
Si Si3 0.324072 0.436397 0.555693
Si Si4 0.562936 0.610308 0.618213
Si Si5 0.824736 0.061948 0.665152
Si Si6 0.208130 0.457558 0.811613
Si Si7 0.297091 0.137612 0.338728
Si Si8 0.344480 0.109767 0.717703
O O1 0.852189 0.139859 0.152295
O O2 0.795333 0.387748 0.424752
O O3 0.744164 0.431097 0.114715
O O4 0.534259 0.359923 0.891457
O O5 0.000000 0.000000 0.500000
O O6 0.152964 0.863934 0.386293
O O7 0.855755 0.877534 0.996487
O O8 0.361656 0.432929 0.449807
O O9 0.257944 0.317218 0.393426
O O10 0.500000 0.500000 0.500000
O O11 0.378218 0.796925 0.485700
O O12 0.738185 0.563039 0.957735
O O13 0.822133 0.904098 0.503392
O O14 0.000000 0.000000 0.000000
O O15 0.338479 0.273511 0.825007
O O16 0.000000 0.500000 0.500000
O O17 0.323330 0.086892 0.503833
O O18 0.500000 0.000000 0.500000
O O19 0.500000 0.000000 0.000000
#
# Coordination Sequence:
#
# PCOD9064480 Si02
#       8
#     2   2   2   2   2   2   2   2
#     4  11  24  48  71 110 152 203 245 313 391 457
#     4  12  29  46  76 111 152 201 253 317 392 459
#     4  11  24  45  78 106 153 193 254 310 382 459
#     4  12  27  46  78 110 142 205 256 307 381 461
#     4  12  26  48  75 106 151 196 258 312 375 458
#     4  12  27  47  74 110 152 194 252 319 382 450
#     4  12  25  46  74 108 149 197 252 313 382 452
#     4  12  26  46  75 110 145 200 255 310 379 451
#
# _framework density 23.679939999999998
#
# number of rings (size 3 to 8) (size 9 to 14) (size 15 to 20)
#    0.000    0.250    6.250    2.250    5.250    1.000 
#    0.000    1.250    0.000    0.000    0.000    0.000 
#    0.000    0.000    0.000    0.000    0.000    0.000 
#
# Total GULP energy -89310.948298 kJ/mol
# GULP energy per Si atom -5581.934269 kJ/mol
# Density = 2.362604 g / cm^3
# Si number density = 23.679940 Si / 1000 Ang^3
#
#
#
# Elastic Constant Matrix: (Units=GPa)
#
#
# Indices 1 2 3 4 5 6 
#
# 1 100.9271 7.2360 48.4891 11.9759 -20.6963 12.8078
# 2 7.2360 109.7014 28.3916 26.4228 4.2974 27.9635
# 3 48.4891 28.3916 166.0204 26.6959 -19.8148 13.3852
# 4 11.9759 26.4228 26.6959 38.3424 1.9326 6.1148
# 5 -20.6963 4.2974 -19.8148 1.9326 43.4827 11.9257
# 6 12.8078 27.9635 13.3852 6.1148 11.9257 36.2769
#
#
#
# Elastic Compliance Matrix: (Units=1/GPa)
#
#
# Indices 1 2 3 4 5 6 
#
# 1 0.013769 0.002123 -0.002353 -0.003301 0.007484 -0.007534
# 2 0.002123 0.013676 -0.000454 -0.008213 0.002735 -0.010639
# 3 -0.002353 -0.000454 0.008077 -0.004400 0.003397 -0.002174
# 4 -0.003301 -0.008213 -0.004400 0.035318 -0.005718 0.005046
# 5 0.007484 0.002735 0.003397 -0.005718 0.032395 -0.015690
# 6 -0.007534 -0.010639 -0.002174 0.005046 -0.015690 0.043536
#
#
# Mechanical properties :
#
#
# Convention : Reuss Voigt Hill
#
# Bulk Modulus (GPa) = 29.27985 60.54247 44.91116
# Shear Modulus (GPa) = 31.34340 43.12255 37.23298
#
# Velocity S-wave (km/s) = 3.64212 4.27202 3.96958
# Velocity P-wave (km/s) = 5.48437 7.06795 6.32591
#
# Compressibility (1/GPa) = 0.03415318
#
# Stress axis : x y z
#
# Youngs Moduli (GPa) = 72.62749 73.12087 123.81554
#
# Poissons Ratio (x) = -0.15524 0.29134
# Poissons Ratio (y) = -0.15419 0.05623
# Poissons Ratio (z) = 0.17090 0.03321
#
# Static dielectric constant tensor:
#      x y z
#    x 1.957540 -0.067510 -0.054600 
#    y -0.067510 1.979150 -0.002170 
#    z -0.054600 -0.002170 1.952220 
# 
# From -- ./inp_files/333655.got.cif
#   From: 2010.05.17/outbox.cif.g08.bks.cpg/sg2_167_cif.got.tgz:333655.got - 2010.06.03 11:33:40.
