data_PCOD9064910
_publ_section_title
;
Structure prediction by ZEFSAII (Michael W. Deem and Ramdas Pophale) SiO2 
 PCOD9064910
Probable space group: P -1
;
_chemical_formula_sum "Si O2"
_cell_formula_units_Z 13
_cell_length_a 6.247827
_cell_length_b 11.162519
_cell_length_c 11.802341
_cell_angle_alpha 39.579831
_cell_angle_beta 103.892924
_cell_angle_gamma 107.627413
_cell_volume 499.793048
_symmetry_space_group_name_H-M "P -1"
_symmetry_group_IT_number 2
_symmetry_cell_setting 'triclinic'
loop_
_space_group_symop_operation_xyz
x,y,z
-x,-y,-z
loop_
_atom_site_type_symbol
_atom_site_label
_atom_site_fract_x
_atom_site_fract_y
_atom_site_fract_z
Si Si1 0.048474 0.572353 0.282834
Si Si2 0.447875 0.996548 0.810141
Si Si3 0.500000 0.500000 0.500000
Si Si4 0.397139 0.745881 0.551788
Si Si5 0.199161 0.096402 0.369685
Si Si6 0.908635 0.316335 0.047341
Si Si7 0.252059 0.171975 0.856901
O O1 0.812245 0.424205 0.346687
O O2 0.976935 0.759900 0.192564
O O3 0.226412 0.486635 0.441438
O O4 0.125980 0.620408 0.129731
O O5 0.319474 0.826954 0.837945
O O6 0.524440 0.199898 0.607456
O O7 0.265296 0.035127 0.851036
O O8 0.642448 0.921791 0.955411
O O9 0.430885 0.357894 0.704010
O O10 0.620877 0.748525 0.651335
O O11 0.308705 0.928794 0.454956
O O12 0.099424 0.192747 0.181715
O O13 0.000000 0.000000 0.500000
O O14 0.000000 0.500000 0.000000
#
# Coordination Sequence:
#
# PCOD9064910 Si02
#       7
#     2   2   1   2   2   2   2
#     4  12  28  49  80 113 154 205 261 320 390 460
#     4  11  25  50  76 111 159 199 260 317 381 463
#     4  12  26  52  74 116 152 202 256 332 382 452
#     4  11  26  46  79 113 151 204 254 314 385 468
#     4  11  24  46  75 113 153 201 254 308 386 461
#     4  12  27  47  79 111 157 202 246 324 386 456
#     4  11  26  48  77 109 152 207 257 316 384 458
#
# _framework density 26.010766
#
# number of rings (size 3 to 8) (size 9 to 14) (size 15 to 20)
#    0.000    0.615    3.077    3.231    6.462    3.692 
#    0.000    0.000    0.000    0.000    0.000    0.000 
#    0.000    0.000    0.000    0.000    0.000    0.000 
#
# Total GULP energy -72682.447357 kJ/mol
# GULP energy per Si atom -5590.957489 kJ/mol
# Density = 2.595156 g / cm^3
# Si number density = 26.010766 Si / 1000 Ang^3
#
#
#
# Elastic Constant Matrix: (Units=GPa)
#
#
# Indices 1 2 3 4 5 6 
#
# 1 108.5543 43.5562 33.1543 5.4738 14.5115 19.4526
# 2 43.5562 96.8227 31.0106 -0.0675 12.5144 39.3114
# 3 33.1543 31.0106 125.8549 22.7093 22.0730 27.6464
# 4 5.4738 -0.0675 22.7093 48.0740 13.4693 -6.2333
# 5 14.5115 12.5144 22.0730 13.4693 54.4580 -4.0484
# 6 19.4526 39.3114 27.6464 -6.2333 -4.0484 67.1379
#
#
#
# Elastic Compliance Matrix: (Units=1/GPa)
#
#
# Indices 1 2 3 4 5 6 
#
# 1 0.011756 -0.004499 -0.001669 -0.000191 -0.001389 -0.000186
# 2 -0.004499 0.016216 -0.000623 0.000634 -0.003031 -0.008059
# 3 -0.001669 -0.000623 0.010822 -0.004639 -0.002965 -0.004218
# 4 -0.000191 0.000634 -0.004639 0.024617 -0.004032 0.003637
# 5 -0.001389 -0.003031 -0.002965 -0.004032 0.021951 0.004347
# 6 -0.000186 -0.008059 -0.004218 0.003637 0.004347 0.022004
#
#
# Mechanical properties :
#
#
# Convention : Reuss Voigt Hill
#
# Bulk Modulus (GPa) = 39.66453 60.74156 50.20305
# Shear Modulus (GPa) = 38.65435 48.83471 43.74453
#
# Velocity S-wave (km/s) = 3.85917 4.33769 4.10541
# Velocity P-wave (km/s) = 5.92789 6.96352 6.46647
#
# Compressibility (1/GPa) = 0.02521144
#
# Stress axis : x y z
#
# Youngs Moduli (GPa) = 85.06655 61.66901 92.40039
#
# Poissons Ratio (x) = 0.27743 0.15425
# Poissons Ratio (y) = 0.38269 0.05755
# Poissons Ratio (z) = 0.14201 0.03841
#
# Static dielectric constant tensor:
#      x y z
#    x 1.929810 0.060460 -0.010010 
#    y 0.060460 2.020200 -0.081720 
#    z -0.010010 -0.081720 2.043020 
# 
# From -- ./inp_files/363596.got.cif
#   From: 2010.05.17/outbox.cif.g08.bks.cpg/sg2_182_cif.got.tgz:363596.got - 2010.06.03 11:33:40.
