data_PCOD9064282
_publ_section_title
;
Structure prediction by ZEFSAII (Michael W. Deem and Ramdas Pophale) SiO2 
 PCOD9064282
Probable space group: P -1
;
_chemical_formula_sum "Si O2"
_cell_formula_units_Z 16
_cell_length_a 9.258685
_cell_length_b 8.396176
_cell_length_c 12.591023
_cell_angle_alpha 48.156185
_cell_angle_beta 86.753611
_cell_angle_gamma 96.359490
_cell_volume 713.332466
_symmetry_space_group_name_H-M "P -1"
_symmetry_group_IT_number 2
_symmetry_cell_setting 'triclinic'
loop_
_space_group_symop_operation_xyz
x,y,z
-x,-y,-z
loop_
_atom_site_type_symbol
_atom_site_label
_atom_site_fract_x
_atom_site_fract_y
_atom_site_fract_z
Si Si1 0.055458 0.002580 0.117576
Si Si2 0.027633 0.250173 0.354191
Si Si3 0.531707 0.177468 0.636710
Si Si4 0.198068 0.592006 0.358096
Si Si5 0.142582 0.408211 0.058891
Si Si6 0.706681 0.382588 0.329958
Si Si7 0.425516 0.680348 0.868914
Si Si8 0.780028 0.736285 0.328715
O O1 0.132565 0.801407 0.234100
O O2 0.905196 0.950094 0.217310
O O3 0.155544 0.231172 0.046669
O O4 0.000000 0.000000 0.000000
O O5 0.139683 0.409135 0.355393
O O6 0.111523 0.279022 0.226372
O O7 0.867189 0.320687 0.330359
O O8 0.000000 0.000000 0.500000
O O9 0.629564 0.314021 0.664801
O O10 0.615323 0.243101 0.492221
O O11 0.366501 0.224468 0.624301
O O12 0.515888 0.922331 0.772249
O O13 0.154184 0.453277 0.530019
O O14 0.269513 0.621621 0.960893
O O15 0.000000 0.500000 0.000000
O O16 0.612952 0.350214 0.240616
O O17 0.735160 0.629092 0.263922
O O18 0.500000 0.500000 0.000000
#
# Coordination Sequence:
#
# PCOD9064282 Si02
#       8
#     2   2   2   2   2   2   2   2
#     4  12  24  43  73 101 144 191 236 295 351 417
#     4  12  27  43  76 111 139 184 240 303 349 423
#     4  11  27  47  74 104 142 192 234 300 353 428
#     4  11  24  46  71 106 136 185 241 288 359 415
#     4  12  25  45  68 104 145 186 240 289 353 420
#     4  11  24  48  71 105 142 184 240 294 363 412
#     4  12  27  47  70 102 149 190 233 289 362 432
#     4  11  24  45  73 104 142 180 241 299 352 425
#
# _framework density 22.429932999999998
#
# number of rings (size 3 to 8) (size 9 to 14) (size 15 to 20)
#    0.000    0.500    2.500    6.000    8.750    2.000 
#    0.000    1.875    0.000    0.000    0.000    0.000 
#    0.000    0.000    0.000    0.000    0.000    0.000 
#
# Total GULP energy -89419.154664 kJ/mol
# GULP energy per Si atom -5588.697166 kJ/mol
# Density = 2.237888 g / cm^3
# Si number density = 22.429933 Si / 1000 Ang^3
#
#
#
# Elastic Constant Matrix: (Units=GPa)
#
#
# Indices 1 2 3 4 5 6 
#
# 1 90.6737 2.6463 32.2786 4.9724 1.0256 11.2843
# 2 2.6463 108.3974 39.5971 -8.6462 8.0373 20.7469
# 3 32.2786 39.5971 123.7010 -4.2885 -0.0465 8.0346
# 4 4.9724 -8.6462 -4.2885 42.9173 2.8806 -2.4288
# 5 1.0256 8.0373 -0.0465 2.8806 44.0017 -3.2386
# 6 11.2843 20.7469 8.0346 -2.4288 -3.2386 34.7073
#
#
#
# Elastic Compliance Matrix: (Units=1/GPa)
#
#
# Indices 1 2 3 4 5 6 
#
# 1 0.012994 0.001877 -0.003747 -0.001707 -0.000882 -0.004681
# 2 0.001877 0.012347 -0.003915 0.001667 -0.002945 -0.007243
# 3 -0.003747 -0.003915 0.010254 0.000686 0.000865 0.001313
# 4 -0.001707 0.001667 0.000686 0.024074 -0.001772 0.000919
# 5 -0.000882 -0.002945 0.000865 -0.001772 0.023691 0.003934
# 6 -0.004681 -0.007243 0.001313 0.000919 0.003934 0.034791
#
#
# Mechanical properties :
#
#
# Convention : Reuss Voigt Hill
#
# Bulk Modulus (GPa) = 41.62448 52.42402 47.02425
# Shear Modulus (GPa) = 36.30307 40.87527 38.58917
#
# Velocity S-wave (km/s) = 4.02744 4.27353 4.15231
# Velocity P-wave (km/s) = 6.34230 6.91187 6.63320
#
# Compressibility (1/GPa) = 0.02402433
#
# Stress axis : x y z
#
# Youngs Moduli (GPa) = 76.96018 80.98999 97.52583
#
# Poissons Ratio (x) = -0.15199 0.36541
# Poissons Ratio (y) = -0.14442 0.38181
# Poissons Ratio (z) = 0.28835 0.31707
#
# Static dielectric constant tensor:
#      x y z
#    x 1.834590 0.008370 -0.013210 
#    y 0.008370 1.846390 0.042680 
#    z -0.013210 0.042680 1.853410 
# 
# From -- ./inp_files/243505.got.cif
#   From: 2010.05.17/outbox.cif.g08.bks.cpg/sg2_122_cif.got.tgz:243505.got - 2010.06.03 11:33:40.
