data_PCOD9064243
_publ_section_title
;
Structure prediction by ZEFSAII (Michael W. Deem and Ramdas Pophale) SiO2 
 PCOD9064243
Probable space group: P -1
;
_chemical_formula_sum "Si O2"
_cell_formula_units_Z 15
_cell_length_a 17.373098
_cell_length_b 12.268553
_cell_length_c 5.459451
_cell_angle_alpha 80.582309
_cell_angle_beta 95.998911
_cell_angle_gamma 148.386184
_cell_volume 600.382769
_symmetry_space_group_name_H-M "P -1"
_symmetry_group_IT_number 2
_symmetry_cell_setting 'triclinic'
loop_
_space_group_symop_operation_xyz
x,y,z
-x,-y,-z
loop_
_atom_site_type_symbol
_atom_site_label
_atom_site_fract_x
_atom_site_fract_y
_atom_site_fract_z
Si Si1 0.823294 0.301930 0.448958
Si Si2 0.393803 0.617177 0.656201
Si Si3 0.102912 0.994791 0.324410
Si Si4 0.500000 0.000000 0.500000
Si Si5 0.784826 0.634260 0.800506
Si Si6 0.940483 0.635493 0.072743
Si Si7 0.218178 0.967035 0.746945
Si Si8 0.606243 0.730252 0.921524
O O1 0.674240 0.165623 0.583361
O O2 0.839243 0.412539 0.199687
O O3 0.782520 0.131386 0.408530
O O4 0.000000 0.500000 0.500000
O O5 0.308111 0.474404 0.438532
O O6 0.541069 0.724380 0.688735
O O7 0.434377 0.795352 0.587605
O O8 0.309117 0.484172 0.933695
O O9 0.161570 0.011779 0.588266
O O10 0.970728 0.760266 0.257528
O O11 0.100060 0.123733 0.263745
O O12 0.236342 0.129066 0.136455
O O13 0.867801 0.618560 0.841976
O O14 0.096141 0.781434 0.974598
O O15 0.368844 0.167609 0.866483
O O16 0.500000 0.500000 0.000000
#
# Coordination Sequence:
#
# PCOD9064243 Si02
#       8
#     2   2   2   1   2   2   2   2
#     4  12  26  52  80 117 164 213 278 344 414 494
#     4  12  29  49  76 117 157 212 269 343 412 485
#     4  11  24  45  74 112 151 209 269 332 411 495
#     4  12  30  50  86 114 164 212 278 334 416 492
#     4  12  28  48  77 112 163 208 270 342 406 492
#     4  11  26  48  74 113 157 208 274 335 414 488
#     4  11  26  44  80 109 154 216 271 340 413 494
#     4  11  24  45  72 110 157 207 270 338 410 491
#
# _framework density 24.984062999999999
#
# number of rings (size 3 to 8) (size 9 to 14) (size 15 to 20)
#    0.000    0.533    4.000    2.400   11.200    3.200 
#    0.000    0.000    0.000    0.000    0.000    0.000 
#    0.000    0.000    0.000    0.000    0.000    0.000 
#
# Total GULP energy -83544.452374 kJ/mol
# GULP energy per Si atom -5569.630158 kJ/mol
# Density = 2.492720 g / cm^3
# Si number density = 24.984063 Si / 1000 Ang^3
#
#
#
# Elastic Constant Matrix: (Units=GPa)
#
#
# Indices 1 2 3 4 5 6 
#
# 1 104.9682 25.5115 8.0081 3.2104 28.2309 2.5481
# 2 25.5115 80.8707 35.1651 4.8060 -1.4444 8.9931
# 3 8.0081 35.1651 105.4924 16.3556 8.0994 1.4230
# 4 3.2104 4.8060 16.3556 46.6040 10.5413 16.6758
# 5 28.2309 -1.4444 8.0994 10.5413 36.2032 -11.9224
# 6 2.5481 8.9931 1.4230 16.6758 -11.9224 34.3345
#
#
#
# Elastic Compliance Matrix: (Units=1/GPa)
#
#
# Indices 1 2 3 4 5 6 
#
# 1 0.015220 -0.004913 0.000959 0.006057 -0.016906 -0.008695
# 2 -0.004913 0.016649 -0.005563 0.000217 0.004970 -0.002145
# 3 0.000959 -0.005563 0.012003 -0.004157 -0.001679 0.002324
# 4 0.006057 0.000217 -0.004157 0.037265 -0.023379 -0.026552
# 5 -0.016906 0.004970 -0.001679 -0.023379 0.058639 0.031739
# 6 -0.008695 -0.002145 0.002324 -0.026552 0.031739 0.054153
#
#
# Mechanical properties :
#
#
# Convention : Reuss Voigt Hill
#
# Bulk Modulus (GPa) = 40.26315 47.63341 43.94828
# Shear Modulus (GPa) = 22.59954 38.27144 30.43549
#
# Velocity S-wave (km/s) = 3.01085 3.91811 3.49405
# Velocity P-wave (km/s) = 5.31389 6.29092 5.82294
#
# Compressibility (1/GPa) = 0.02483661
#
# Stress axis : x y z
#
# Youngs Moduli (GPa) = 65.70153 60.06444 83.31232
#
# Poissons Ratio (x) = 0.29511 -0.07987
# Poissons Ratio (y) = 0.32281 0.46348
# Poissons Ratio (z) = -0.06298 0.33415
#
# Static dielectric constant tensor:
#      x y z
#    x 2.060340 0.124660 -0.092070 
#    y 0.124660 2.024230 0.006980 
#    z -0.092070 0.006980 2.070610 
# 
# From -- ./inp_files/109691.got.cif
#   From: 2010.05.17/outbox.cif.g08.bks.cpg/sg2_55_cif.got.tgz:109691.got - 2010.06.03 11:33:40.
