data_PCOD9064050
_publ_section_title
;
Structure prediction by ZEFSAII (Michael W. Deem and Ramdas Pophale) SiO2 
 PCOD9064050
Probable space group: P -1
;
_chemical_formula_sum "Si O2"
_cell_formula_units_Z 13
_cell_length_a 8.429938
_cell_length_b 16.998974
_cell_length_c 11.455374
_cell_angle_alpha 153.662574
_cell_angle_beta 40.257707
_cell_angle_gamma 139.209742
_cell_volume 455.050933
_symmetry_space_group_name_H-M "P -1"
_symmetry_group_IT_number 2
_symmetry_cell_setting 'triclinic'
loop_
_space_group_symop_operation_xyz
x,y,z
-x,-y,-z
loop_
_atom_site_type_symbol
_atom_site_label
_atom_site_fract_x
_atom_site_fract_y
_atom_site_fract_z
Si Si1 0.022749 0.761819 0.541151
Si Si2 0.643808 0.306435 0.376724
Si Si3 0.200299 0.318503 0.072642
Si Si4 0.865097 0.216130 0.760727
Si Si5 0.500000 0.500000 0.500000
Si Si6 0.682792 0.797851 0.376640
Si Si7 0.677270 0.908592 0.079793
O O1 0.820314 0.578040 0.451065
O O2 0.104918 0.743476 0.338887
O O3 0.851137 0.899895 0.860520
O O4 0.274184 0.877296 0.625511
O O5 0.732093 0.478013 0.643674
O O6 0.476750 0.368498 0.454213
O O7 0.471305 0.160602 0.368155
O O8 0.900940 0.257195 0.128394
O O9 0.374453 0.316280 0.861198
O O10 0.256599 0.188289 0.969415
O O11 0.595859 0.238570 0.990679
O O12 0.115660 0.297763 0.799833
O O13 0.814602 0.997556 0.514051
#
# Coordination Sequence:
#
# PCOD9064050 Si02
#       7
#     2   2   2   2   1   2   2
#     4  11  24  45  70 103 137 182 235 279 343 407
#     4  11  26  46  67  99 142 180 228 289 339 413
#     4  11  25  45  68 103 138 183 230 278 352 404
#     4  11  25  43  71 103 138 178 230 286 338 409
#     4  12  24  48  72  98 138 184 228 286 346 404
#     4  11  25  43  67 104 136 178 229 285 344 401
#     4  11  25  44  74 103 135 190 228 278 348 411
#
# _framework density 28.568228999999999
#
# number of rings (size 3 to 8) (size 9 to 14) (size 15 to 20)
#    0.000    0.923    4.615    0.923    6.462    0.000 
#    2.769    6.154    0.000    0.000    0.000    0.000 
#    0.000    0.000    0.000    0.000    0.000    0.000 
#
# Total GULP energy -72471.469338 kJ/mol
# GULP energy per Si atom -5574.728411 kJ/mol
# Density = 2.850321 g / cm^3
# Si number density = 28.568229 Si / 1000 Ang^3
#
#
#
# Elastic Constant Matrix: (Units=GPa)
#
#
# Indices 1 2 3 4 5 6 
#
# 1 51.0989 -14.8176 -11.4700 5.3839 -2.9017 -14.1829
# 2 -14.8176 124.7941 17.3719 -2.3771 10.6900 -3.0857
# 3 -11.4700 17.3719 60.5457 -25.7335 2.7846 -5.6099
# 4 5.3839 -2.3771 -25.7335 57.7352 10.9928 4.9301
# 5 -2.9017 10.6900 2.7846 10.9928 40.5806 -2.9425
# 6 -14.1829 -3.0857 -5.6099 4.9301 -2.9425 47.2587
#
#
#
# Elastic Compliance Matrix: (Units=1/GPa)
#
#
# Indices 1 2 3 4 5 6 
#
# 1 0.023546 0.002275 0.003870 -0.001392 0.001771 0.007930
# 2 0.002275 0.008747 -0.002143 -0.000550 -0.001777 0.000946
# 3 0.003870 -0.002143 0.022480 0.009976 -0.003226 0.002448
# 4 -0.001392 -0.000550 0.009976 0.023417 -0.007139 -0.002157
# 5 0.001771 -0.001777 -0.003226 -0.007139 0.027573 0.002494
# 6 0.007930 0.000946 0.002448 -0.002157 0.002494 0.024273
#
#
# Mechanical properties :
#
#
# Convention : Reuss Voigt Hill
#
# Bulk Modulus (GPa) = 15.92948 24.28969 20.10958
# Shear Modulus (GPa) = 34.97543 45.47183 40.22363
#
# Velocity S-wave (km/s) = 3.50276 3.99393 3.75638
# Velocity P-wave (km/s) = 4.68478 5.45797 5.08609
#
# Compressibility (1/GPa) = 0.06277668
#
# Stress axis : x y z
#
# Youngs Moduli (GPa) = 42.46930 114.32798 44.48495
#
# Poissons Ratio (x) = -0.26010 -0.17215
# Poissons Ratio (y) = -0.09662 0.09532
# Poissons Ratio (z) = -0.16435 0.24499
#
# Static dielectric constant tensor:
#      x y z
#    x 2.342570 0.242760 -0.069970 
#    y 0.242760 2.244080 -0.054890 
#    z -0.069970 -0.054890 1.926740 
# 
# From -- ./inp_files/380186.got.cif
#   From: 2010.05.17/outbox.cif.g08.bks.cpg/sg2_191_cif.got.tgz:380186.got - 2010.06.03 11:33:40.
