data_PCOD9064123
_publ_section_title
;
Structure prediction by ZEFSAII (Michael W. Deem and Ramdas Pophale) SiO2 
 PCOD9064123
Probable space group: P -1
;
_chemical_formula_sum "Si O2"
_cell_formula_units_Z 16
_cell_length_a 11.958595
_cell_length_b 8.082326
_cell_length_c 16.423043
_cell_angle_alpha 41.301633
_cell_angle_beta 46.275912
_cell_angle_gamma 37.740220
_cell_volume 622.466502
_symmetry_space_group_name_H-M "P -1"
_symmetry_group_IT_number 2
_symmetry_cell_setting 'triclinic'
loop_
_space_group_symop_operation_xyz
x,y,z
-x,-y,-z
loop_
_atom_site_type_symbol
_atom_site_label
_atom_site_fract_x
_atom_site_fract_y
_atom_site_fract_z
Si Si1 0.427323 0.613531 0.864740
Si Si2 0.845156 0.310797 0.767832
Si Si3 0.599833 0.197053 0.705007
Si Si4 0.787091 0.144697 0.465422
Si Si5 0.755683 0.101123 0.312421
Si Si6 0.263635 0.264337 0.779178
Si Si7 0.854584 0.519209 0.865225
Si Si8 0.184550 0.525287 0.461066
O O1 0.647089 0.353535 0.861649
O O2 0.370346 0.668912 0.779103
O O3 0.385803 0.931102 0.801172
O O4 0.286769 0.557459 0.001131
O O5 0.879473 0.430063 0.789835
O O6 0.828256 0.485417 0.627447
O O7 0.034023 0.982015 0.776598
O O8 0.657546 0.147537 0.598554
O O9 0.395187 0.254931 0.788106
O O10 0.653318 0.426420 0.620032
O O11 0.748331 0.880801 0.792127
O O12 0.785019 0.449397 0.358817
O O13 0.709786 0.167679 0.405590
O O14 0.995035 0.833459 0.475840
O O15 0.774972 0.782988 0.408764
O O16 0.057968 0.338702 0.872226
#
# Coordination Sequence:
#
# PCOD9064123 Si02
#       8
#     2   2   2   2   2   2   2   2
#     4  12  27  44  74 101 131 190 231 282 334 404
#     4  11  24  45  71 103 134 178 231 281 340 400
#     4  12  25  44  72 104 141 181 223 281 343 410
#     4  11  24  46  70 106 141 179 222 283 351 404
#     4  11  25  45  71 101 145 178 223 284 339 412
#     4  12  26  43  72 104 136 181 227 285 342 401
#     4  12  25  49  69 100 139 180 239 277 334 409
#     4  11  24  46  73 102 143 180 219 287 346 404
#
# _framework density 25.704194000000001
#
# number of rings (size 3 to 8) (size 9 to 14) (size 15 to 20)
#    0.000    0.500    3.750    5.250    1.750    0.500 
#    0.000    2.500    0.000    0.000    0.000    0.000 
#    0.000    0.000    0.000    0.000    0.000    0.000 
#
# Total GULP energy -89664.781309 kJ/mol
# GULP energy per Si atom -5604.048832 kJ/mol
# Density = 2.564569 g / cm^3
# Si number density = 25.704194 Si / 1000 Ang^3
#
#
#
# Elastic Constant Matrix: (Units=GPa)
#
#
# Indices 1 2 3 4 5 6 
#
# 1 142.0166 36.8720 29.7115 18.3703 -16.6753 -16.3958
# 2 36.8720 84.4866 36.9350 21.0697 -12.6517 -11.0572
# 3 29.7115 36.9350 102.2060 13.6633 -16.6951 17.1333
# 4 18.3703 21.0697 13.6633 24.4704 -5.4984 -12.1987
# 5 -16.6753 -12.6517 -16.6951 -5.4984 33.8142 7.5363
# 6 -16.3958 -11.0572 17.1333 -12.1987 7.5363 42.0319
#
#
#
# Elastic Compliance Matrix: (Units=1/GPa)
#
#
# Indices 1 2 3 4 5 6 
#
# 1 0.008686 -0.001880 -0.001686 -0.002259 0.001800 0.002603
# 2 -0.001880 0.017696 -0.004940 -0.009311 0.001062 0.003042
# 3 -0.001686 -0.004940 0.016287 -0.008122 0.006752 -0.012164
# 4 -0.002259 -0.009311 -0.008122 0.064040 -0.002429 0.019002
# 5 0.001800 0.001062 0.006752 -0.002429 0.035779 -0.008891
# 6 0.002603 0.003042 -0.012164 0.019002 -0.008891 0.037674
#
#
# Mechanical properties :
#
#
# Convention : Reuss Voigt Hill
#
# Bulk Modulus (GPa) = 38.97568 59.52735 49.25151
# Shear Modulus (GPa) = 24.30397 35.07602 29.69000
#
# Velocity S-wave (km/s) = 3.07828 3.69806 3.40231
# Velocity P-wave (km/s) = 5.27546 6.43763 5.88530
#
# Compressibility (1/GPa) = 0.02565702
#
# Stress axis : x y z
#
# Youngs Moduli (GPa) = 115.12279 56.51050 61.39755
#
# Poissons Ratio (x) = 0.10627 0.10351
# Poissons Ratio (y) = 0.21648 0.30330
# Poissons Ratio (z) = 0.19408 0.27916
#
# Static dielectric constant tensor:
#      x y z
#    x 2.049960 0.009630 -0.021190 
#    y 0.009630 2.206240 0.025580 
#    z -0.021190 0.025580 1.972210 
# 
# From -- ./inp_files/566408.got.cif
#   From: 2010.05.17/outbox.cif.g08.bks.cpg/sg2_284_cif.got.tgz:566408.got - 2010.06.03 11:33:40.
