data_PCOD9064596
_publ_section_title
;
Structure prediction by ZEFSAII (Michael W. Deem and Ramdas Pophale) SiO2 
 PCOD9064596
Probable space group: P -1
;
_chemical_formula_sum "Si O2"
_cell_formula_units_Z 14
_cell_length_a 8.753920
_cell_length_b 5.168407
_cell_length_c 21.655502
_cell_angle_alpha 114.545867
_cell_angle_beta 138.532392
_cell_angle_gamma 57.511195
_cell_volume 547.118340
_symmetry_space_group_name_H-M "P -1"
_symmetry_group_IT_number 2
_symmetry_cell_setting 'triclinic'
loop_
_space_group_symop_operation_xyz
x,y,z
-x,-y,-z
loop_
_atom_site_type_symbol
_atom_site_label
_atom_site_fract_x
_atom_site_fract_y
_atom_site_fract_z
Si Si1 0.085846 0.281102 0.267679
Si Si2 0.270471 0.080595 0.747461
Si Si3 0.880502 0.262063 0.421136
Si Si4 0.611536 0.125528 0.103775
Si Si5 0.410135 0.742530 0.552698
Si Si6 0.802077 0.348850 0.908838
Si Si7 0.231655 0.252005 0.176614
O O1 0.368086 0.124168 0.362533
O O2 0.117301 0.392574 0.219817
O O3 0.942562 0.591442 0.292360
O O4 0.893166 0.112416 0.183665
O O5 0.184798 0.801340 0.674838
O O6 0.382170 0.045035 0.846338
O O7 0.495681 0.018829 0.762174
O O8 0.639435 0.349585 0.401660
O O9 0.000000 0.500000 0.500000
O O10 0.124647 0.953878 0.474424
O O11 0.427565 0.473890 0.097701
O O12 0.500000 0.000000 0.000000
O O13 0.500000 0.500000 0.500000
O O14 0.743782 0.492166 0.836053
O O15 0.905209 0.980353 0.907405
O O16 0.000000 0.500000 0.000000
#
# Coordination Sequence:
#
# PCOD9064596 Si02
#       7
#     2   2   2   2   2   2   2
#     4  12  25  45  75 100 150 194 247 311 378 457
#     4  11  25  47  68 106 147 192 249 310 384 455
#     4  11  26  46  74 108 148 191 246 311 382 468
#     4  11  27  45  71 106 145 197 257 316 374 451
#     4  11  25  45  72 107 146 188 245 301 388 459
#     4  11  24  46  70 102 146 192 256 318 382 446
#     4  11  25  45  70 104 144 197 247 313 384 454
#
# _framework density 25.588612999999999
#
# number of rings (size 3 to 8) (size 9 to 14) (size 15 to 20)
#    0.000    0.857    4.286    1.286    6.000    5.714 
#    0.000    0.000    0.000    0.000    0.000    0.000 
#    0.000    0.000    0.000    0.000    0.000    0.000 
#
# Total GULP energy -78040.955085 kJ/mol
# GULP energy per Si atom -5574.353935 kJ/mol
# Density = 2.553037 g / cm^3
# Si number density = 25.588613 Si / 1000 Ang^3
#
#
#
# Elastic Constant Matrix: (Units=GPa)
#
#
# Indices 1 2 3 4 5 6 
#
# 1 133.3563 39.7648 43.8196 8.5134 12.0402 -17.2352
# 2 39.7648 76.4038 25.8502 16.8839 -11.4283 -12.7696
# 3 43.8196 25.8502 145.4160 26.4612 7.8544 1.2935
# 4 8.5134 16.8839 26.4612 33.6548 -6.8642 3.1843
# 5 12.0402 -11.4283 7.8544 -6.8642 47.2706 1.6983
# 6 -17.2352 -12.7696 1.2935 3.1843 1.6983 43.7468
#
#
#
# Elastic Compliance Matrix: (Units=1/GPa)
#
#
# Indices 1 2 3 4 5 6 
#
# 1 0.010280 -0.004774 -0.002189 0.000550 -0.003430 0.002814
# 2 -0.004774 0.018784 -0.000943 -0.006875 0.004774 0.003945
# 3 -0.002189 -0.000943 0.008983 -0.006374 -0.002058 -0.000859
# 4 0.000550 -0.006875 -0.006374 0.039532 0.005166 -0.004680
# 5 -0.003430 0.004774 -0.002058 0.005166 0.024318 -0.001217
# 6 0.002814 0.003945 -0.000859 -0.004680 -0.001217 0.025533
#
#
# Mechanical properties :
#
#
# Convention : Reuss Voigt Hill
#
# Bulk Modulus (GPa) = 44.97152 63.78282 54.37717
# Shear Modulus (GPa) = 33.18904 41.31721 37.25312
#
# Velocity S-wave (km/s) = 3.60533 4.02266 3.81970
# Velocity P-wave (km/s) = 5.91136 6.82320 6.38358
#
# Compressibility (1/GPa) = 0.02223630
#
# Stress axis : x y z
#
# Youngs Moduli (GPa) = 97.27886 53.23560 111.32449
#
# Poissons Ratio (x) = 0.25413 0.24367
# Poissons Ratio (y) = 0.46438 0.10495
# Poissons Ratio (z) = 0.21293 0.05019
#
# Static dielectric constant tensor:
#      x y z
#    x 2.087360 0.069530 0.040760 
#    y 0.069530 2.052090 -0.021930 
#    z 0.040760 -0.021930 2.309400 
# 
# From -- ./inp_files/53420.got.cif
#   From: 2010.05.17/outbox.cif.g08.bks.cpg/sg2_27_cif.got.tgz:53420.got - 2010.06.03 11:33:40.
