data_PCOD9064260
_publ_section_title
;
Structure prediction by ZEFSAII (Michael W. Deem and Ramdas Pophale) SiO2 
 PCOD9064260
Probable space group: P -1
;
_chemical_formula_sum "Si O2"
_cell_formula_units_Z 16
_cell_length_a 7.651545
_cell_length_b 10.904254
_cell_length_c 20.778543
_cell_angle_alpha 143.497129
_cell_angle_beta 138.143534
_cell_angle_gamma 42.210766
_cell_volume 642.616693
_symmetry_space_group_name_H-M "P -1"
_symmetry_group_IT_number 2
_symmetry_cell_setting 'triclinic'
loop_
_space_group_symop_operation_xyz
x,y,z
-x,-y,-z
loop_
_atom_site_type_symbol
_atom_site_label
_atom_site_fract_x
_atom_site_fract_y
_atom_site_fract_z
Si Si1 0.839738 0.535194 0.646261
Si Si2 0.368892 0.950995 0.681780
Si Si3 0.072292 0.626153 0.881895
Si Si4 0.223796 0.901641 0.354359
Si Si5 0.949017 0.314681 0.361104
Si Si6 0.399913 0.257984 0.912544
Si Si7 0.477490 0.916843 0.887422
Si Si8 0.304575 0.117031 0.589906
O O1 0.983129 0.533466 0.753666
O O2 0.930081 0.654227 0.661867
O O3 0.979868 0.275700 0.559258
O O4 0.513631 0.690927 0.628413
O O5 0.074670 0.082778 0.692023
O O6 0.548158 0.075740 0.820837
O O7 0.353143 0.016937 0.631285
O O8 0.167898 0.463308 0.900835
O O9 0.794461 0.824754 0.909255
O O10 0.352461 0.671415 0.962136
O O11 0.354677 0.929138 0.470802
O O12 0.122743 0.096990 0.356617
O O13 0.496907 0.749427 0.324296
O O14 0.661245 0.268635 0.245164
O O15 0.000000 0.500000 0.500000
O O16 0.304466 0.134893 0.891332
O O17 0.500000 0.000000 0.000000
#
# Coordination Sequence:
#
# PCOD9064260 Si02
#       8
#     2   2   2   2   2   2   2   2
#     4  12  24  44  72 104 144 197 247 312 384 446
#     4  12  24  45  72 105 142 195 254 311 380 465
#     4  11  25  46  72 109 141 195 253 320 377 460
#     4  11  24  47  67 103 150 198 248 313 382 458
#     4  12  25  47  71 111 156 199 251 320 382 455
#     4  11  24  45  73 101 146 185 254 312 380 453
#     4  12  27  48  76 109 149 200 252 313 389 464
#     4  11  25  45  70 101 145 199 249 313 382 451
#
# _framework density 24.898201
#
# number of rings (size 3 to 8) (size 9 to 14) (size 15 to 20)
#    0.000    0.500    6.250    1.500    1.750    2.000 
#    4.500    0.000    0.000    0.000    0.000    0.000 
#    0.000    0.000    0.000    0.000    0.000    0.000 
#
# Total GULP energy -89159.140046 kJ/mol
# GULP energy per Si atom -5572.446253 kJ/mol
# Density = 2.484153 g / cm^3
# Si number density = 24.898201 Si / 1000 Ang^3
#
#
#
# Elastic Constant Matrix: (Units=GPa)
#
#
# Indices 1 2 3 4 5 6 
#
# 1 106.5940 23.6254 41.8119 -22.5322 -10.5802 13.4653
# 2 23.6254 100.6882 38.3299 -24.1202 5.8205 2.4447
# 3 41.8119 38.3299 94.4665 -40.0872 -11.6873 8.2607
# 4 -22.5322 -24.1202 -40.0872 38.5207 6.3472 -1.0334
# 5 -10.5802 5.8205 -11.6873 6.3472 39.4947 -13.0087
# 6 13.4653 2.4447 8.2607 -1.0334 -13.0087 44.2831
#
#
#
# Elastic Compliance Matrix: (Units=1/GPa)
#
#
# Indices 1 2 3 4 5 6 
#
# 1 0.011904 -0.000849 -0.003483 0.002569 0.001027 -0.002562
# 2 -0.000849 0.012764 -0.003174 0.004849 -0.004143 -0.000958
# 3 -0.003483 -0.003174 0.021426 0.017820 0.002478 -0.001619
# 4 0.002569 0.004849 0.017820 0.049615 -0.004191 -0.004446
# 5 0.001027 -0.004143 0.002478 -0.004191 0.030336 0.008268
# 6 -0.002562 -0.000958 -0.001619 -0.004446 0.008268 0.026041
#
#
# Mechanical properties :
#
#
# Convention : Reuss Voigt Hill
#
# Bulk Modulus (GPa) = 32.17438 56.58700 44.38069
# Shear Modulus (GPa) = 28.17568 37.65848 32.91708
#
# Velocity S-wave (km/s) = 3.36763 3.89330 3.63997
# Velocity P-wave (km/s) = 5.29827 6.55646 5.96065
#
# Compressibility (1/GPa) = 0.03108063
#
# Stress axis : x y z
#
# Youngs Moduli (GPa) = 84.00217 78.34837 46.67326
#
# Poissons Ratio (x) = 0.06652 0.16259
# Poissons Ratio (y) = 0.07132 0.14814
# Poissons Ratio (z) = 0.29262 0.24867
#
# Static dielectric constant tensor:
#      x y z
#    x 2.087820 -0.077040 0.169990 
#    y -0.077040 2.012540 0.056490 
#    z 0.169990 0.056490 2.197490 
# 
# From -- ./inp_files/589653.got.cif
#   From: 2010.05.17/outbox.cif.g08.bks.cpg/sg2_295_cif.got.tgz:589653.got - 2010.06.03 11:33:40.
