data_PCOD9064813
_publ_section_title
;
Structure prediction by ZEFSAII (Michael W. Deem and Ramdas Pophale) SiO2 
 PCOD9064813
Probable space group: P -1
;
_chemical_formula_sum "Si O2"
_cell_formula_units_Z 12
_cell_length_a 14.172121
_cell_length_b 9.263998
_cell_length_c 9.337613
_cell_angle_alpha 59.576657
_cell_angle_beta 109.691537
_cell_angle_gamma 149.793545
_cell_volume 517.346712
_symmetry_space_group_name_H-M "P -1"
_symmetry_group_IT_number 2
_symmetry_cell_setting 'triclinic'
loop_
_space_group_symop_operation_xyz
x,y,z
-x,-y,-z
loop_
_atom_site_type_symbol
_atom_site_label
_atom_site_fract_x
_atom_site_fract_y
_atom_site_fract_z
Si Si1 0.924249 0.183349 0.189365
Si Si2 0.358528 0.299431 0.165617
Si Si3 0.145168 0.751318 0.170238
Si Si4 0.413562 0.514274 0.552030
Si Si5 0.676085 0.359900 0.975729
Si Si6 0.480142 0.980742 0.328751
O O1 0.960296 0.368991 0.241443
O O2 0.128354 0.420341 0.109024
O O3 0.802540 0.851328 0.340882
O O4 0.816948 0.123096 0.033471
O O5 0.458825 0.324953 0.321097
O O6 0.339733 0.461624 0.130822
O O7 0.160128 0.930159 0.194625
O O8 0.500000 0.500000 0.000000
O O9 0.312473 0.867389 0.251801
O O10 0.500000 0.500000 0.500000
O O11 0.425413 0.713933 0.393022
O O12 0.500000 0.000000 0.000000
O O13 0.664531 0.300171 0.169831
O O14 0.500000 0.000000 0.500000
#
# Coordination Sequence:
#
# PCOD9064813 Si02
#       6
#     2   2   2   2   2   2
#     4  11  26  48  73 105 140 190 252 287 350 436
#     4  12  21  47  73 101 142 192 240 283 351 438
#     4  11  24  46  74 100 144 191 239 294 346 437
#     4  12  27  45  73 107 145 186 231 304 367 413
#     4  12  24  46  78 101 138 199 242 285 349 434
#     4  12  24  46  71 105 146 183 233 300 362 410
#
# _framework density 23.195277000000001
#
# number of rings (size 3 to 8) (size 9 to 14) (size 15 to 20)
#    0.000    0.333    6.667    1.000    7.000    1.333 
#    0.000    1.667    0.000    0.000    0.000    0.000 
#    0.000    0.000    0.000    0.000    0.000    0.000 
#
# Total GULP energy -67142.017967 kJ/mol
# GULP energy per Si atom -5595.168164 kJ/mol
# Density = 2.314248 g / cm^3
# Si number density = 23.195277 Si / 1000 Ang^3
#
#
#
# Elastic Constant Matrix: (Units=GPa)
#
#
# Indices 1 2 3 4 5 6 
#
# 1 123.8663 46.2457 34.0488 -6.9067 26.2171 -15.0927
# 2 46.2457 140.8742 29.6603 3.9963 8.6952 -19.0103
# 3 34.0488 29.6603 87.9813 -2.0536 15.3635 8.6192
# 4 -6.9067 3.9963 -2.0536 42.7209 -13.6142 2.1129
# 5 26.2171 8.6952 15.3635 -13.6142 42.5315 -9.6563
# 6 -15.0927 -19.0103 8.6192 2.1129 -9.6563 41.4198
#
#
#
# Elastic Compliance Matrix: (Units=1/GPa)
#
#
# Indices 1 2 3 4 5 6 
#
# 1 0.011063 -0.002418 -0.002887 0.000276 -0.004643 0.002426
# 2 -0.002418 0.008989 -0.002740 -0.001184 0.001207 0.004157
# 3 -0.002887 -0.002740 0.014846 -0.000677 -0.004707 -0.006462
# 4 0.000276 -0.001184 -0.000677 0.026327 0.008838 0.000415
# 5 -0.004643 0.001207 -0.004707 0.008838 0.032224 0.006903
# 6 0.002426 0.004157 -0.006462 0.000415 0.006903 0.029868
#
#
# Mechanical properties :
#
#
# Convention : Reuss Voigt Hill
#
# Bulk Modulus (GPa) = 53.16698 63.62572 58.39635
# Shear Modulus (GPa) = 34.32263 41.51889 37.92076
#
# Velocity S-wave (km/s) = 3.85089 4.23540 4.04771
# Velocity P-wave (km/s) = 6.53787 7.16995 6.86119
#
# Compressibility (1/GPa) = 0.01880866
#
# Stress axis : x y z
#
# Youngs Moduli (GPa) = 90.38973 111.24338 67.35708
#
# Poissons Ratio (x) = 0.26898 0.19444
# Poissons Ratio (y) = 0.21856 0.18459
# Poissons Ratio (z) = 0.26093 0.30485
#
# Static dielectric constant tensor:
#      x y z
#    x 1.886450 -0.092330 -0.042870 
#    y -0.092330 2.113470 0.056910 
#    z -0.042870 0.056910 1.881170 
# 
# From -- ./inp_files/174014.got.cif
#   From: 2010.05.17/outbox.cif.g08.bks.cpg/sg2_88_cif.got.tgz:174014.got - 2010.06.03 11:33:40.
