data_PCOD9064788
_publ_section_title
;
Structure prediction by ZEFSAII (Michael W. Deem and Ramdas Pophale) SiO2 
 PCOD9064788
Probable space group: P -1
;
_chemical_formula_sum "Si O2"
_cell_formula_units_Z 14
_cell_length_a 12.778529
_cell_length_b 5.257750
_cell_length_c 20.412814
_cell_angle_alpha 86.076321
_cell_angle_beta 155.695786
_cell_angle_gamma 103.204486
_cell_volume 515.035983
_symmetry_space_group_name_H-M "P -1"
_symmetry_group_IT_number 2
_symmetry_cell_setting 'triclinic'
loop_
_space_group_symop_operation_xyz
x,y,z
-x,-y,-z
loop_
_atom_site_type_symbol
_atom_site_label
_atom_site_fract_x
_atom_site_fract_y
_atom_site_fract_z
Si Si1 0.135032 0.862345 0.927878
Si Si2 0.914424 0.234747 0.640545
Si Si3 0.605751 0.231361 0.115784
Si Si4 0.915002 0.848109 0.525811
Si Si5 0.632070 0.917254 0.713006
Si Si6 0.313077 0.704028 0.153598
Si Si7 0.293452 0.647404 0.360916
O O1 0.313163 0.744053 0.075835
O O2 0.331183 0.151658 0.003679
O O3 0.989295 0.629538 0.795187
O O4 0.892036 0.869583 0.835468
O O5 0.908990 0.038425 0.581213
O O6 0.780362 0.139254 0.637782
O O7 0.223837 0.460394 0.818927
O O8 0.661691 0.319615 0.472494
O O9 0.840138 0.232726 0.304000
O O10 0.500000 0.000000 0.000000
O O11 0.585475 0.653047 0.328949
O O12 0.000000 0.000000 0.500000
O O13 0.643553 0.001817 0.792915
O O14 0.654226 0.200924 0.681984
O O15 0.000000 0.500000 0.000000
O O16 0.500000 0.500000 0.500000
#
# Coordination Sequence:
#
# PCOD9064788 Si02
#       7
#     2   2   2   2   2   2   2
#     4  12  25  45  71 105 144 193 245 299 366 436
#     4  11  27  43  74 108 140 194 242 298 366 435
#     4  12  28  47  72 106 151 196 242 300 364 444
#     4  11  27  51  72 103 151 194 246 299 367 433
#     4  11  26  44  74 106 144 186 244 308 365 432
#     4  11  24  46  73 105 139 192 246 304 361 431
#     4  12  25  44  73 109 147 185 243 310 370 431
#
# _framework density 27.182566999999999
#
# number of rings (size 3 to 8) (size 9 to 14) (size 15 to 20)
#    0.000    0.571    5.714    0.857    8.000    3.429 
#    0.000    0.000    0.000    0.000    0.000    0.000 
#    0.000    0.000    0.000    0.000    0.000    0.000 
#
# Total GULP energy -78107.205106 kJ/mol
# GULP energy per Si atom -5579.086079 kJ/mol
# Density = 2.712070 g / cm^3
# Si number density = 27.182567 Si / 1000 Ang^3
#
#
#
# Elastic Constant Matrix: (Units=GPa)
#
#
# Indices 1 2 3 4 5 6 
#
# 1 91.8584 4.5350 16.3376 -0.0549 3.5940 2.0891
# 2 4.5350 66.9158 20.5153 -13.1937 -4.7268 10.1330
# 3 16.3376 20.5153 195.8418 5.9345 6.9145 14.0811
# 4 -0.0549 -13.1937 5.9345 52.4699 7.3177 -3.8748
# 5 3.5940 -4.7268 6.9145 7.3177 50.2171 5.3437
# 6 2.0891 10.1330 14.0811 -3.8748 5.3437 41.2704
#
#
#
# Elastic Compliance Matrix: (Units=1/GPa)
#
#
# Indices 1 2 3 4 5 6 
#
# 1 0.011092 -0.000524 -0.000844 0.000074 -0.000733 -0.000043
# 2 -0.000524 0.016899 -0.001660 0.003957 0.001642 -0.003397
# 3 -0.000844 -0.001660 0.005507 -0.001073 -0.000542 -0.001459
# 4 0.000074 0.003957 -0.001073 0.020672 -0.002676 0.001678
# 5 -0.000733 0.001642 -0.000542 -0.002676 0.020919 -0.003141
# 6 -0.000043 -0.003397 -0.001459 0.001678 -0.003141 0.026129
#
#
# Mechanical properties :
#
#
# Convention : Reuss Voigt Hill
#
# Bulk Modulus (GPa) = 36.43902 48.59909 42.51905
# Shear Modulus (GPa) = 42.94746 49.67336 46.31041
#
# Velocity S-wave (km/s) = 3.97919 4.27944 4.13204
# Velocity P-wave (km/s) = 5.87761 6.50660 6.20008
#
# Compressibility (1/GPa) = 0.02744311
#
# Stress axis : x y z
#
# Youngs Moduli (GPa) = 90.15552 59.17443 181.58537
#
# Poissons Ratio (x) = 0.03099 0.15321
# Poissons Ratio (y) = 0.04721 0.30146
# Poissons Ratio (z) = 0.07607 0.09824
#
# Static dielectric constant tensor:
#      x y z
#    x 2.181560 0.076020 -0.011400 
#    y 0.076020 2.220400 -0.014650 
#    z -0.011400 -0.014650 2.245260 
# 
# From -- ./inp_files/101209.got.cif
#   From: 2010.05.17/outbox.cif.g08.bks.cpg/sg2_51_cif.got.tgz:101209.got - 2010.06.03 11:33:40.
