data_PCOD9064020
_publ_section_title
;
Structure prediction by ZEFSAII (Michael W. Deem and Ramdas Pophale) SiO2 
 PCOD9064020
Probable space group: P -1
;
_chemical_formula_sum "Si O2"
_cell_formula_units_Z 14
_cell_length_a 17.212374
_cell_length_b 12.949711
_cell_length_c 23.317328
_cell_angle_alpha 154.436553
_cell_angle_beta 163.846623
_cell_angle_gamma 26.052174
_cell_volume 601.507369
_symmetry_space_group_name_H-M "P -1"
_symmetry_group_IT_number 2
_symmetry_cell_setting 'triclinic'
loop_
_space_group_symop_operation_xyz
x,y,z
-x,-y,-z
loop_
_atom_site_type_symbol
_atom_site_label
_atom_site_fract_x
_atom_site_fract_y
_atom_site_fract_z
Si Si1 0.158257 0.966928 0.922533
Si Si2 0.857498 0.247845 0.443972
Si Si3 0.873439 0.566309 0.378700
Si Si4 0.257236 0.633035 0.241616
Si Si5 0.592176 0.967829 0.685368
Si Si6 0.260506 0.225485 0.828914
Si Si7 0.913459 0.239937 0.987004
O O1 0.144629 0.692435 0.790692
O O2 0.420964 0.918466 0.039833
O O3 0.867767 0.136254 0.773562
O O4 0.164480 0.137634 0.067032
O O5 0.539562 0.427922 0.319090
O O6 0.948423 0.311292 0.477331
O O7 0.070967 0.284989 0.665601
O O8 0.853139 0.964246 0.307664
O O9 0.000000 0.500000 0.500000
O O10 0.564312 0.768015 0.265040
O O11 0.380316 0.789534 0.454489
O O12 0.000000 0.500000 0.000000
O O13 0.896061 0.811089 0.846372
O O14 0.689888 0.067662 0.743942
O O15 0.248215 0.471144 0.980145
#
# Coordination Sequence:
#
# PCOD9064020 Si02
#       7
#     2   2   2   2   2   2   2
#     4  12  26  44  76 111 147 198 248 312 377 439
#     4  11  26  46  75 104 153 200 244 309 375 445
#     4  12  26  45  73 107 151 195 249 307 373 448
#     4  12  25  46  70 106 148 193 245 308 375 443
#     4  11  24  45  69 109 148 191 248 312 362 445
#     4  11  24  50  73 112 148 194 254 304 374 450
#     4  11  25  44  78 109 148 195 254 309 372 444
#
# _framework density 23.274861000000001
#
# number of rings (size 3 to 8) (size 9 to 14) (size 15 to 20)
#    0.000    0.571    5.714    1.714    4.000    3.429 
#    0.000    5.000    0.000    0.000    0.000    0.000 
#    0.000    0.000    0.000    0.000    0.000    0.000 
#
# Total GULP energy -78073.741849 kJ/mol
# GULP energy per Si atom -5576.695846 kJ/mol
# Density = 2.322189 g / cm^3
# Si number density = 23.274861 Si / 1000 Ang^3
#
#
#
# Elastic Constant Matrix: (Units=GPa)
#
#
# Indices 1 2 3 4 5 6 
#
# 1 89.7716 42.7510 7.3329 21.3733 10.2941 11.4378
# 2 42.7510 128.8317 29.1496 -1.2068 6.0203 -17.3663
# 3 7.3329 29.1496 63.9080 21.3855 -4.8756 18.1509
# 4 21.3733 -1.2068 21.3855 36.6031 7.7376 -16.0322
# 5 10.2941 6.0203 -4.8756 7.7376 -2.0603 10.2444
# 6 11.4378 -17.3663 18.1509 -16.0322 10.2444 15.2522
#
#
#
# Elastic Compliance Matrix: (Units=1/GPa)
#
#
# Indices 1 2 3 4 5 6 
#
# 1 0.030317 -0.011659 0.008265 -0.017552 -0.066311 -0.019757
# 2 -0.011659 0.011830 -0.004614 0.004708 0.038544 0.006764
# 3 0.008265 -0.004614 0.015969 -0.005576 -0.048735 -0.003584
# 4 -0.017552 0.004708 -0.005576 0.028060 0.072907 0.005685
# 5 -0.066311 0.038544 -0.048735 0.072907 0.188949 0.101335
# 6 -0.019757 0.006764 -0.003584 0.005685 0.101335 0.030259
#
#
# Mechanical properties :
#
#
# Convention : Reuss Voigt Hill
#
# Bulk Modulus (GPa) = 23.75298 48.99759 36.37528
# Shear Modulus (GPa) = 14.90614 23.51084 19.20849
#
# Velocity S-wave (km/s) = 2.53344 3.18172 2.87590
# Velocity P-wave (km/s) = 4.33420 5.88177 5.16626
#
# Compressibility (1/GPa) = 0.04209998
#
# Stress axis : x y z
#
# Youngs Moduli (GPa) = 32.98524 84.53348 62.62017
#
# Poissons Ratio (x) = 0.98560 -0.51758
# Poissons Ratio (y) = 0.38458 0.28892
# Poissons Ratio (z) = -0.27263 0.39003
#
# Static dielectric constant tensor:
#      x y z
#    x 1.816810 -0.043880 0.174200 
#    y -0.043880 1.809720 0.085780 
#    z 0.174200 0.085780 1.713960 
# 
# From -- ./inp_files/202501.got.cif
#   From: 2010.05.17/outbox.cif.g08.bks.cpg/sg2_102_cif.got.tgz:202501.got - 2010.06.03 11:33:40.
