data_PCOD9064477
_publ_section_title
;
Structure prediction by ZEFSAII (Michael W. Deem and Ramdas Pophale) SiO2 
 PCOD9064477
Probable space group: P -1
;
_chemical_formula_sum "Si O2"
_cell_formula_units_Z 16
_cell_length_a 9.183659
_cell_length_b 9.406091
_cell_length_c 11.526458
_cell_angle_alpha 73.690126
_cell_angle_beta 49.060937
_cell_angle_gamma 83.135643
_cell_volume 719.014461
_symmetry_space_group_name_H-M "P -1"
_symmetry_group_IT_number 2
_symmetry_cell_setting 'triclinic'
loop_
_space_group_symop_operation_xyz
x,y,z
-x,-y,-z
loop_
_atom_site_type_symbol
_atom_site_label
_atom_site_fract_x
_atom_site_fract_y
_atom_site_fract_z
Si Si1 0.369400 0.303679 0.260313
Si Si2 0.398684 0.152155 0.531195
Si Si3 0.003506 0.136113 0.876241
Si Si4 0.322928 0.448899 0.884207
Si Si5 0.430061 0.922031 0.936826
Si Si6 0.058556 0.480874 0.816530
Si Si7 0.054444 0.618072 0.544762
Si Si8 0.539380 0.215701 0.688125
O O1 0.396788 0.229656 0.389401
O O2 0.493318 0.461883 0.173307
O O3 0.143311 0.305998 0.353163
O O4 0.464147 0.218544 0.126291
O O5 0.502819 0.242448 0.564632
O O6 0.178902 0.124440 0.698710
O O7 0.500000 0.000000 0.500000
O O8 0.022972 0.301148 0.885386
O O9 0.796726 0.121668 0.926612
O O10 0.000000 0.000000 0.000000
O O11 0.398634 0.302503 0.823184
O O12 0.230996 0.530886 0.803203
O O13 0.136258 0.442812 0.066122
O O14 0.480377 0.043330 0.782102
O O15 0.500000 0.000000 0.000000
O O16 0.106379 0.523575 0.651085
O O17 0.000000 0.500000 0.500000
O O18 0.241769 0.732406 0.401672
#
# Coordination Sequence:
#
# PCOD9064477 Si02
#       8
#     2   2   2   2   2   2   2   2
#     4  12  26  48  72 107 143 193 237 300 356 429
#     4  12  25  46  75 104 144 184 241 294 352 419
#     4  12  23  47  76 106 140 187 245 291 352 421
#     4  11  24  45  78 102 141 178 250 292 355 418
#     4  12  29  47  71 105 148 190 236 296 364 430
#     4  11  25  45  73 111 138 186 236 303 358 421
#     4  12  28  44  71 105 148 188 236 293 367 429
#     4  12  26  49  71 106 142 193 238 298 360 421
#
# _framework density 22.252680999999999
#
# number of rings (size 3 to 8) (size 9 to 14) (size 15 to 20)
#    0.000    0.250    6.250    1.500    5.250    3.000 
#    0.000    0.000    0.000    0.000    0.000    0.000 
#    0.000    0.000    0.000    0.000    0.000    0.000 
#
# Total GULP energy -89519.116721 kJ/mol
# GULP energy per Si atom -5594.944795 kJ/mol
# Density = 2.220203 g / cm^3
# Si number density = 22.252681 Si / 1000 Ang^3
#
#
#
# Elastic Constant Matrix: (Units=GPa)
#
#
# Indices 1 2 3 4 5 6 
#
# 1 101.1879 15.2096 34.6533 6.9514 -31.8002 18.3125
# 2 15.2096 94.7412 20.0737 24.2304 -15.9649 6.6769
# 3 34.6533 20.0737 62.1160 16.4492 -15.9716 12.3374
# 4 6.9514 24.2304 16.4492 38.9540 -3.4484 -0.0566
# 5 -31.8002 -15.9649 -15.9716 -3.4484 64.8926 1.4082
# 6 18.3125 6.6769 12.3374 -0.0566 1.4082 35.6779
#
#
#
# Elastic Compliance Matrix: (Units=1/GPa)
#
#
# Indices 1 2 3 4 5 6 
#
# 1 0.014717 0.000222 -0.005594 0.000122 0.006025 -0.005899
# 2 0.000222 0.013345 -0.001279 -0.007563 0.002725 -0.002289
# 3 -0.005594 -0.001279 0.023330 -0.007855 0.002379 -0.005063
# 4 0.000122 -0.007563 -0.007855 0.033496 -0.002045 0.004203
# 5 0.006025 0.002725 0.002379 -0.002045 0.019622 -0.005203
# 6 -0.005899 -0.002289 -0.005063 0.004203 -0.005203 0.033448
#
#
# Mechanical properties :
#
#
# Convention : Reuss Voigt Hill
#
# Bulk Modulus (GPa) = 26.25233 44.21314 35.23274
# Shear Modulus (GPa) = 30.49583 40.44546 35.47064
#
# Velocity S-wave (km/s) = 3.70595 4.26790 3.99682
# Velocity P-wave (km/s) = 5.48955 6.64819 6.09646
#
# Compressibility (1/GPa) = 0.03809186
#
# Stress axis : x y z
#
# Youngs Moduli (GPa) = 67.94662 74.93421 42.86258
#
# Poissons Ratio (x) = -0.01665 0.23978
# Poissons Ratio (y) = -0.01510 0.05480
# Poissons Ratio (z) = 0.38010 0.09581
#
# Static dielectric constant tensor:
#      x y z
#    x 1.832430 -0.032120 0.028820 
#    y -0.032120 1.818860 -0.020880 
#    z 0.028820 -0.020880 1.826990 
# 
# From -- ./inp_files/188588.got.cif
#   From: 2010.05.17/outbox.cif.g08.bks.cpg/sg2_95_cif.got.tgz:188588.got - 2010.06.03 11:33:40.
