data_PCOD9064878
_publ_section_title
;
Structure prediction by ZEFSAII (Michael W. Deem and Ramdas Pophale) SiO2 
 PCOD9064878
Probable space group: P -1
;
_chemical_formula_sum "Si O2"
_cell_formula_units_Z 10
_cell_length_a 8.917116
_cell_length_b 15.497700
_cell_length_c 9.236738
_cell_angle_alpha 38.682019
_cell_angle_beta 30.474039
_cell_angle_gamma 41.430608
_cell_volume 392.487994
_symmetry_space_group_name_H-M "P -1"
_symmetry_group_IT_number 2
_symmetry_cell_setting 'triclinic'
loop_
_space_group_symop_operation_xyz
x,y,z
-x,-y,-z
loop_
_atom_site_type_symbol
_atom_site_label
_atom_site_fract_x
_atom_site_fract_y
_atom_site_fract_z
Si Si1 0.799641 0.045684 0.746092
Si Si2 0.947017 0.706697 0.362206
Si Si3 0.492827 0.632923 0.435629
Si Si4 0.674936 0.110297 0.275387
Si Si5 0.126254 0.572082 0.077430
O O1 0.722540 0.214201 0.620161
O O2 0.000000 0.000000 0.500000
O O3 0.016416 0.962156 0.801365
O O4 0.500000 0.000000 0.000000
O O5 0.596403 0.796149 0.522102
O O6 0.911929 0.587672 0.662044
O O7 0.090815 0.635362 0.185219
O O8 0.191244 0.798452 0.074842
O O9 0.500000 0.500000 0.500000
O O10 0.831977 0.655059 0.126601
O O11 0.410374 0.585857 0.727313
O O12 0.500000 0.000000 0.500000
#
# Coordination Sequence:
#
# PCOD9064878 Si02
#       5
#     2   2   2   2   2
#     4  12  26  48  78 106 148 203 255 303 374 463
#     4  11  24  46  75 107 147 196 248 306 375 454
#     4  12  26  45  74 107 150 191 252 315 375 439
#     4  12  26  45  74 110 157 192 249 315 378 444
#     4  11  24  46  75 104 145 193 250 306 371 451
#
# _framework density 25.478487000000001
#
# number of rings (size 3 to 8) (size 9 to 14) (size 15 to 20)
#    0.000    0.400    0.000    9.600    2.800    3.200 
#    7.200    0.000    0.000    0.000    0.000    0.000 
#    0.000    0.000    0.000    0.000    0.000    0.000 
#
# Total GULP energy -55977.141805 kJ/mol
# GULP energy per Si atom -5597.714181 kJ/mol
# Density = 2.542050 g / cm^3
# Si number density = 25.478487 Si / 1000 Ang^3
#
#
#
# Elastic Constant Matrix: (Units=GPa)
#
#
# Indices 1 2 3 4 5 6 
#
# 1 74.1439 42.1526 45.0299 5.6169 -8.6579 -1.0059
# 2 42.1526 157.6973 67.8746 -2.9021 4.1826 -2.1175
# 3 45.0299 67.8746 166.6709 0.7518 -36.4479 5.2932
# 4 5.6169 -2.9021 0.7518 45.6340 -3.0605 -2.6020
# 5 -8.6579 4.1826 -36.4479 -3.0605 39.7657 7.9029
# 6 -1.0059 -2.1175 5.2932 -2.6020 7.9029 40.7931
#
#
#
# Elastic Compliance Matrix: (Units=1/GPa)
#
#
# Indices 1 2 3 4 5 6 
#
# 1 0.017643 -0.003438 -0.003124 -0.002247 0.001106 0.000304
# 2 -0.003438 0.009282 -0.004228 0.000806 -0.005965 0.002153
# 3 -0.003124 -0.004228 0.011009 0.000433 0.010635 -0.003758
# 4 -0.002247 0.000806 0.000433 0.022386 0.001327 0.001101
# 5 0.001106 -0.005965 0.010635 0.001327 0.037627 -0.008867
# 6 0.000304 0.002153 -0.003758 0.001101 -0.008867 0.026909
#
#
# Mechanical properties :
#
#
# Convention : Reuss Voigt Hill
#
# Bulk Modulus (GPa) = 61.14853 78.73627 69.94240
# Shear Modulus (GPa) = 32.91950 41.46888 37.19419
#
# Velocity S-wave (km/s) = 3.59841 4.03873 3.82491
# Velocity P-wave (km/s) = 6.42782 7.26076 6.85695
#
# Compressibility (1/GPa) = 0.01635362
#
# Stress axis : x y z
#
# Youngs Moduli (GPa) = 56.68060 107.73847 90.83838
#
# Poissons Ratio (x) = 0.37038 0.28381
# Poissons Ratio (y) = 0.19485 0.38403
# Poissons Ratio (z) = 0.17709 0.45548
#
# Static dielectric constant tensor:
#      x y z
#    x 2.097490 0.011060 0.117480 
#    y 0.011060 2.109540 -0.085200 
#    z 0.117480 -0.085200 2.022730 
# 
# From -- ./inp_files/194787.got.cif
#   From: 2010.05.17/outbox.cif.g08.bks.cpg/sg2_98_cif.got.tgz:194787.got - 2010.06.03 11:33:40.
