data_PCOD9064853
_publ_section_title
;
Structure prediction by ZEFSAII (Michael W. Deem and Ramdas Pophale) SiO2 
 PCOD9064853
Probable space group: P -1
;
_chemical_formula_sum "Si O2"
_cell_formula_units_Z 13
_cell_length_a 9.182239
_cell_length_b 5.638762
_cell_length_c 14.601536
_cell_angle_alpha 58.714939
_cell_angle_beta 49.461615
_cell_angle_gamma 70.970204
_cell_volume 490.930588
_symmetry_space_group_name_H-M "P -1"
_symmetry_group_IT_number 2
_symmetry_cell_setting 'triclinic'
loop_
_space_group_symop_operation_xyz
x,y,z
-x,-y,-z
loop_
_atom_site_type_symbol
_atom_site_label
_atom_site_fract_x
_atom_site_fract_y
_atom_site_fract_z
Si Si1 0.286868 0.942935 0.564652
Si Si2 0.632576 0.166427 0.649797
Si Si3 0.210667 0.139788 0.006985
Si Si4 0.998159 0.266938 0.707498
Si Si5 0.000000 0.500000 0.500000
Si Si6 0.424371 0.651211 0.911972
Si Si7 0.204884 0.400696 0.785634
O O1 0.309422 0.810699 0.484161
O O2 0.194008 0.730694 0.717533
O O3 0.500000 0.000000 0.500000
O O4 0.142562 0.201357 0.573782
O O5 0.807167 0.283605 0.613461
O O6 0.431287 0.331151 0.710464
O O7 0.571420 0.849328 0.758160
O O8 0.338780 0.403569 0.934442
O O9 0.094110 0.284682 0.942651
O O10 0.290769 0.882833 0.966690
O O11 0.145574 0.980115 0.157565
O O12 0.118328 0.292769 0.746882
O O13 0.935953 0.548027 0.630097
O O14 0.500000 0.500000 0.000000
#
# Coordination Sequence:
#
# PCOD9064853 Si02
#       7
#     2   2   2   2   1   2   2
#     4  12  23  42  74 103 144 194 253 305 376 451
#     4  11  24  46  74 109 145 198 251 313 380 448
#     4  11  27  45  77 112 148 195 258 314 371 446
#     4  12  27  45  72 110 149 197 248 315 378 447
#     4  12  26  46  68 108 152 186 248 312 374 454
#     4  11  25  49  76 109 154 204 247 307 384 458
#     4  11  24  48  71 104 147 197 251 308 376 450
#
# _framework density 26.480322000000001
#
# number of rings (size 3 to 8) (size 9 to 14) (size 15 to 20)
#    0.000    0.615    3.077    4.154    4.308    4.923 
#    0.000    0.000    0.000    0.000    0.000    0.000 
#    0.000    0.000    0.000    0.000    0.000    0.000 
#
# Total GULP energy -72454.096163 kJ/mol
# GULP energy per Si atom -5573.392013 kJ/mol
# Density = 2.642005 g / cm^3
# Si number density = 26.480322 Si / 1000 Ang^3
#
#
#
# Elastic Constant Matrix: (Units=GPa)
#
#
# Indices 1 2 3 4 5 6 
#
# 1 138.2500 30.6968 34.1197 -8.4698 -2.7371 40.6852
# 2 30.6968 106.2122 35.0762 -5.9048 -20.6019 6.2327
# 3 34.1197 35.0762 176.1614 -44.7592 37.8497 1.5040
# 4 -8.4698 -5.9048 -44.7592 66.8255 3.6059 -10.0220
# 5 -2.7371 -20.6019 37.8497 3.6059 61.7901 -1.9125
# 6 40.6852 6.2327 1.5040 -10.0220 -1.9125 51.0644
#
#
#
# Elastic Compliance Matrix: (Units=1/GPa)
#
#
# Indices 1 2 3 4 5 6 
#
# 1 0.010583 -0.001657 -0.002334 -0.001699 0.001184 -0.008450
# 2 -0.001657 0.012496 -0.004223 -0.002345 0.006808 -0.000286
# 3 -0.002334 -0.004223 0.010605 0.007363 -0.008338 0.003195
# 4 -0.001699 -0.002345 0.007363 0.020603 -0.006408 0.005227
# 5 0.001184 0.006808 -0.008338 -0.006408 0.023929 -0.001890
# 6 -0.008450 -0.000286 0.003195 0.005227 -0.001890 0.027212
#
#
# Mechanical properties :
#
#
# Convention : Reuss Voigt Hill
#
# Bulk Modulus (GPa) = 57.95226 68.93434 63.44330
# Shear Modulus (GPa) = 39.18278 57.31806 48.25042
#
# Velocity S-wave (km/s) = 3.85085 4.65752 4.27326
# Velocity P-wave (km/s) = 6.45791 7.41702 6.95402
#
# Compressibility (1/GPa) = 0.01725558
#
# Stress axis : x y z
#
# Youngs Moduli (GPa) = 94.48808 80.02826 94.29938
#
# Poissons Ratio (x) = 0.13261 0.22008
# Poissons Ratio (y) = 0.15657 0.39824
# Poissons Ratio (z) = 0.22052 0.33797
#
# Static dielectric constant tensor:
#      x y z
#    x 2.684380 -0.392250 0.151870 
#    y -0.392250 2.307050 -0.056320 
#    z 0.151870 -0.056320 2.099580 
# 
# From -- ./inp_files/76804.got.cif
#   From: 2010.05.17/outbox.cif.g08.bks.cpg/sg2_39_cif.got.tgz:76804.got - 2010.06.03 11:33:40.
