data_PCOD9064244
_publ_section_title
;
Structure prediction by ZEFSAII (Michael W. Deem and Ramdas Pophale) SiO2 
 PCOD9064244
Probable space group: P -1
;
_chemical_formula_sum "Si O2"
_cell_formula_units_Z 16
_cell_length_a 4.880850
_cell_length_b 5.195972
_cell_length_c 24.996092
_cell_angle_alpha 75.342244
_cell_angle_beta 104.521971
_cell_angle_gamma 91.965240
_cell_volume 593.407278
_symmetry_space_group_name_H-M "P -1"
_symmetry_group_IT_number 2
_symmetry_cell_setting 'triclinic'
loop_
_space_group_symop_operation_xyz
x,y,z
-x,-y,-z
loop_
_atom_site_type_symbol
_atom_site_label
_atom_site_fract_x
_atom_site_fract_y
_atom_site_fract_z
Si Si1 0.776298 0.257404 0.889908
Si Si2 0.389635 0.293150 0.962487
Si Si3 0.854323 0.682991 0.791853
Si Si4 0.617175 0.013268 0.189279
Si Si5 0.733837 0.690985 0.314415
Si Si6 0.743879 0.802710 0.497884
Si Si7 0.386673 0.175412 0.332464
Si Si8 0.719680 0.288719 0.594559
O O1 0.534422 0.384833 0.909524
O O2 0.885234 0.397210 0.834060
O O3 0.595079 0.023104 0.868361
O O4 0.055298 0.255697 0.939994
O O5 0.500000 0.500000 0.000000
O O6 0.500000 0.000000 0.000000
O O7 0.851587 0.724383 0.726504
O O8 0.545609 0.777869 0.791483
O O9 0.087227 0.868626 0.818414
O O10 0.680022 0.762144 0.245315
O O11 0.585211 0.420846 0.338264
O O12 0.063810 0.666787 0.347400
O O13 0.569645 0.932320 0.325908
O O14 0.804357 0.526121 0.546486
O O15 0.615287 0.711160 0.439124
O O16 0.500000 0.000000 0.500000
O O17 0.000000 0.000000 0.500000
O O18 0.246351 0.037415 0.383889
#
# Coordination Sequence:
#
# PCOD9064244 Si02
#       8
#     2   2   2   2   2   2   2   2
#     4  12  26  48  80 106 154 201 248 318 376 446
#     4  12  30  52  79 112 151 202 262 313 370 435
#     4  11  24  45  72 111 153 200 243 305 379 456
#     4  11  24  45  72 111 153 200 243 305 379 456
#     4  11  25  45  71 110 153 195 247 305 378 455
#     4  11  28  49  74 104 145 198 263 309 384 436
#     4  11  25  45  71 110 153 195 247 305 378 455
#     4  11  26  44  75 104 149 200 246 320 372 454
#
# _framework density 26.96293
#
# number of rings (size 3 to 8) (size 9 to 14) (size 15 to 20)
#    0.000    0.750    2.500    3.000   12.250    1.000 
#    0.000    0.000    0.000    0.000    0.000    0.000 
#    0.000    0.000    0.000    0.000    0.000    0.000 
#
# Total GULP energy -89366.033413 kJ/mol
# GULP energy per Si atom -5585.377088 kJ/mol
# Density = 2.690156 g / cm^3
# Si number density = 26.962930 Si / 1000 Ang^3
#
#
#
# Elastic Constant Matrix: (Units=GPa)
#
#
# Indices 1 2 3 4 5 6 
#
# 1 137.6675 56.5246 27.5770 9.5555 23.7328 29.8187
# 2 56.5246 189.4922 41.2349 -0.0171 15.5074 38.0157
# 3 27.5770 41.2349 78.8313 12.9265 19.7177 19.5090
# 4 9.5555 -0.0171 12.9265 54.3669 17.0447 0.5388
# 5 23.7328 15.5074 19.7177 17.0447 43.4880 9.3216
# 6 29.8187 38.0157 19.5090 0.5388 9.3216 54.5929
#
#
#
# Elastic Compliance Matrix: (Units=1/GPa)
#
#
# Indices 1 2 3 4 5 6 
#
# 1 0.009402 -0.001759 -0.000698 -0.000400 -0.003370 -0.003082
# 2 -0.001759 0.006936 -0.002387 0.000960 -0.000165 -0.002998
# 3 -0.000698 -0.002387 0.016475 -0.002295 -0.004691 -0.003020
# 4 -0.000400 0.000960 -0.002295 0.021443 -0.007808 0.001491
# 5 -0.003370 -0.000165 -0.004691 -0.007808 0.030398 -0.001481
# 6 -0.003082 -0.002998 -0.003020 0.001491 -0.001481 0.023406
#
#
# Mechanical properties :
#
#
# Convention : Reuss Voigt Hill
#
# Bulk Modulus (GPa) = 43.24153 72.96268 58.10210
# Shear Modulus (GPa) = 39.85456 49.19986 44.52721
#
# Velocity S-wave (km/s) = 3.84881 4.27631 4.06818
# Velocity P-wave (km/s) = 5.98526 7.17646 6.60776
#
# Compressibility (1/GPa) = 0.02312592
#
# Stress axis : x y z
#
# Youngs Moduli (GPa) = 106.35972 144.16770 60.69695
#
# Poissons Ratio (x) = 0.25354 0.04236
# Poissons Ratio (y) = 0.18705 0.14491
# Poissons Ratio (z) = 0.07423 0.34418
#
# Static dielectric constant tensor:
#      x y z
#    x 1.931690 -0.137420 -0.468900 
#    y -0.137420 2.012960 -0.197570 
#    z -0.468900 -0.197570 1.646210 
# 
# From -- ./inp_files/614859.got.cif
#   From: 2010.05.17/outbox.cif.g08.bks.cpg/sg2_308_cif.got.tgz:614859.got - 2010.06.03 11:33:40.
