data_PCOD9064119
_publ_section_title
;
Structure prediction by ZEFSAII (Michael W. Deem and Ramdas Pophale) SiO2 
 PCOD9064119
Probable space group: P -1
;
_chemical_formula_sum "Si O2"
_cell_formula_units_Z 12
_cell_length_a 5.132585
_cell_length_b 19.876113
_cell_length_c 5.132586
_cell_angle_alpha 65.861478
_cell_angle_beta 77.679113
_cell_angle_gamma 89.845759
_cell_volume 464.710482
_symmetry_space_group_name_H-M "P -1"
_symmetry_group_IT_number 2
_symmetry_cell_setting 'triclinic'
loop_
_space_group_symop_operation_xyz
x,y,z
-x,-y,-z
loop_
_atom_site_type_symbol
_atom_site_label
_atom_site_fract_x
_atom_site_fract_y
_atom_site_fract_z
Si Si1 0.127209 0.657151 0.734182
Si Si2 0.112004 0.045591 0.652742
Si Si3 0.548484 0.157152 0.312907
Si Si4 0.142458 0.815395 0.290053
Si Si5 0.243924 0.545591 0.520822
Si Si6 0.579155 0.684605 0.988332
O O1 0.058440 0.727742 0.461360
O O2 0.119882 0.573645 0.769209
O O3 0.424485 0.674057 0.761255
O O4 0.875745 0.659595 0.981713
O O5 0.416497 0.073646 0.472589
O O6 0.037446 0.128471 0.616723
O O7 0.000000 0.000000 0.500000
O O8 0.000000 0.000000 0.000000
O O9 0.609368 0.174057 0.576373
O O10 0.416843 0.227742 0.102957
O O11 0.800905 0.159596 0.056554
O O12 0.500000 0.500000 0.500000
O O13 0.000000 0.500000 0.500000
O O14 0.373662 0.628471 0.280504
#
# Coordination Sequence:
#
# PCOD9064119 Si02
#       6
#     2   2   2   2   2   2
#     4  11  24  45  71 102 142 196 246 300 366 450
#     4  12  26  44  69 110 144 184 242 314 373 432
#     4  11  24  45  71 102 142 196 246 300 366 450
#     4  11  24  45  71 102 142 196 246 300 366 450
#     4  12  26  44  69 110 144 184 242 314 373 432
#     4  11  24  45  71 102 142 196 246 300 366 450
#
# _framework density 25.822528999999999
#
# number of rings (size 3 to 8) (size 9 to 14) (size 15 to 20)
#    0.000    0.667    3.333    4.000    0.000    8.000 
#    0.000    0.000    0.000    0.000    0.000    0.000 
#    0.000    0.000    0.000    0.000    0.000    0.000 
#
# Total GULP energy -66856.491998 kJ/mol
# GULP energy per Si atom -5571.374333 kJ/mol
# Density = 2.576376 g / cm^3
# Si number density = 25.822529 Si / 1000 Ang^3
#
#
#
# Elastic Constant Matrix: (Units=GPa)
#
#
# Indices 1 2 3 4 5 6 
#
# 1 92.1277 44.2965 5.0630 -4.2651 -11.8560 -3.0452
# 2 44.2965 181.6368 30.9789 -11.7724 -4.9320 -15.0332
# 3 5.0630 30.9789 141.0784 -27.3374 -14.1767 22.0049
# 4 -4.2651 -11.7724 -27.3374 50.0058 8.0935 -0.1588
# 5 -11.8560 -4.9320 -14.1767 8.0935 28.8724 -10.3461
# 6 -3.0452 -15.0332 22.0049 -0.1588 -10.3461 51.8142
#
#
#
# Elastic Compliance Matrix: (Units=1/GPa)
#
#
# Indices 1 2 3 4 5 6 
#
# 1 0.013016 -0.003086 0.000617 -0.000152 0.005410 0.000687
# 2 -0.003086 0.006775 -0.001695 0.000443 -0.000181 0.002469
# 3 0.000617 -0.001695 0.009067 0.004307 0.001799 -0.003934
# 4 -0.000152 0.000443 0.004307 0.023305 -0.005377 -0.002712
# 5 0.005410 -0.000181 0.001799 -0.005377 0.042040 0.007879
# 6 0.000687 0.002469 -0.003934 -0.002712 0.007879 0.023292
#
#
# Mechanical properties :
#
#
# Convention : Reuss Voigt Hill
#
# Bulk Modulus (GPa) = 48.70282 63.94662 56.32472
# Shear Modulus (GPa) = 37.68888 48.43878 43.06383
#
# Velocity S-wave (km/s) = 3.82453 4.33579 4.08816
# Velocity P-wave (km/s) = 6.19712 7.06279 6.64407
#
# Compressibility (1/GPa) = 0.02053269
#
# Stress axis : x y z
#
# Youngs Moduli (GPa) = 76.82807 147.59804 110.28858
#
# Poissons Ratio (x) = 0.45544 -0.06809
# Poissons Ratio (y) = 0.23707 0.18689
# Poissons Ratio (z) = -0.04743 0.25011
#
# Static dielectric constant tensor:
#      x y z
#    x 2.298020 -0.076890 -0.001100 
#    y -0.076890 2.072550 0.101980 
#    z -0.001100 0.101980 2.294400 
# 
# From -- ./inp_files/5822.got.cif
#   From: 2010.05.17/outbox.cif.g08.bks.cpg/sg2_3_cif.got.tgz:5822.got - 2010.06.03 11:33:40.
