data_PCOD9064420
_publ_section_title
;
Structure prediction by ZEFSAII (Michael W. Deem and Ramdas Pophale) SiO2 
 PCOD9064420
Probable space group: P -1
;
_chemical_formula_sum "Si O2"
_cell_formula_units_Z 16
_cell_length_a 7.779175
_cell_length_b 21.319531
_cell_length_c 11.433282
_cell_angle_alpha 159.722516
_cell_angle_beta 108.536554
_cell_angle_gamma 71.605826
_cell_volume 622.196016
_symmetry_space_group_name_H-M "P -1"
_symmetry_group_IT_number 2
_symmetry_cell_setting 'triclinic'
loop_
_space_group_symop_operation_xyz
x,y,z
-x,-y,-z
loop_
_atom_site_type_symbol
_atom_site_label
_atom_site_fract_x
_atom_site_fract_y
_atom_site_fract_z
Si Si1 0.054239 0.205995 0.880437
Si Si2 0.304697 0.591770 0.081786
Si Si3 0.001676 0.799689 0.891474
Si Si4 0.281855 0.987071 0.169244
Si Si5 0.542774 0.683027 0.101387
Si Si6 0.469748 0.286224 0.112227
Si Si7 0.070220 0.487664 0.178083
Si Si8 0.707810 0.030990 0.125084
O O1 0.963477 0.274255 0.101224
O O2 0.266058 0.231486 0.993053
O O3 0.000000 0.000000 0.500000
O O4 0.024411 0.314249 0.944074
O O5 0.358919 0.611276 0.990379
O O6 0.276923 0.782029 0.475955
O O7 0.500000 0.500000 0.000000
O O8 0.122693 0.485962 0.885067
O O9 0.071145 0.653312 0.556983
O O10 0.109442 0.979988 0.204783
O O11 0.797958 0.866731 0.932418
O O12 0.391702 0.162707 0.527237
O O13 0.409334 0.820993 0.954366
O O14 0.216667 0.969029 0.990941
O O15 0.495803 0.762491 0.102043
O O16 0.726252 0.550588 0.894879
O O17 0.500000 0.500000 0.500000
O O18 0.500000 0.000000 0.000000
#
# Coordination Sequence:
#
# PCOD9064420 Si02
#       8
#     2   2   2   2   2   2   2   2
#     4  11  24  45  75 107 145 192 244 303 375 435
#     4  12  28  46  77 104 147 194 241 303 361 443
#     4  12  26  45  74 106 144 193 237 309 367 433
#     4  12  25  45  74 104 146 188 243 304 363 440
#     4  11  26  48  73 110 142 194 243 296 376 428
#     4  11  26  45  75 110 146 186 245 312 362 439
#     4  11  27  47  72 108 149 186 245 305 361 438
#     4  12  25  48  70 106 144 191 248 291 369 442
#
# _framework density 25.715368999999999
#
# number of rings (size 3 to 8) (size 9 to 14) (size 15 to 20)
#    0.000    0.500    1.250    7.125    8.750    0.500 
#    0.000    0.000    0.000    0.000    0.000    0.000 
#    0.000    0.000    0.000    0.000    0.000    0.000 
#
# Total GULP energy -89551.691134 kJ/mol
# GULP energy per Si atom -5596.980696 kJ/mol
# Density = 2.565684 g / cm^3
# Si number density = 25.715369 Si / 1000 Ang^3
#
#
#
# Elastic Constant Matrix: (Units=GPa)
#
#
# Indices 1 2 3 4 5 6 
#
# 1 137.8714 -0.7991 24.3009 -9.3426 8.0168 -11.9052
# 2 -0.7991 84.9194 8.9311 -6.4009 -13.7931 6.1837
# 3 24.3009 8.9311 126.9668 -1.2705 -10.1696 -8.9381
# 4 -9.3426 -6.4009 -1.2705 34.5481 -0.3984 -9.4720
# 5 8.0168 -13.7931 -10.1696 -0.3984 40.2479 -3.9205
# 6 -11.9052 6.1837 -8.9381 -9.4720 -3.9205 48.8289
#
#
#
# Elastic Compliance Matrix: (Units=1/GPa)
#
#
# Indices 1 2 3 4 5 6 
#
# 1 0.007973 0.000000 -0.001495 0.002641 -0.001741 0.002043
# 2 0.000000 0.012744 -0.000613 0.002117 0.004138 -0.000983
# 3 -0.001495 -0.000613 0.008505 0.000236 0.002386 0.001507
# 4 0.002641 0.002117 0.000236 0.031914 0.001228 0.006708
# 5 -0.001741 0.004138 0.002386 0.001228 0.027414 0.001928
# 6 0.002043 -0.000983 0.001507 0.006708 0.001928 0.022834
#
#
# Mechanical properties :
#
#
# Convention : Reuss Voigt Hill
#
# Bulk Modulus (GPa) = 39.99210 46.06927 43.03068
# Shear Modulus (GPa) = 40.34377 45.87996 43.11187
#
# Velocity S-wave (km/s) = 3.96518 4.22850 4.09895
# Velocity P-wave (km/s) = 6.04559 6.46484 6.25873
#
# Compressibility (1/GPa) = 0.02500494
#
# Stress axis : x y z
#
# Youngs Moduli (GPa) = 125.41879 78.47116 117.57882
#
# Poissons Ratio (x) = 0.00001 0.17581
# Poissons Ratio (y) = 0.00002 0.07208
# Poissons Ratio (z) = 0.18753 0.04810
#
# Static dielectric constant tensor:
#      x y z
#    x 2.090300 0.020060 -0.003860 
#    y 0.020060 2.206560 -0.022280 
#    z -0.003860 -0.022280 2.000050 
# 
# From -- ./inp_files/406846.got.cif
#   From: 2010.05.17/outbox.cif.g08.bks.cpg/sg2_204_cif.got.tgz:406846.got - 2010.06.03 11:33:40.
