data_PCOD9064397
_publ_section_title
;
Structure prediction by ZEFSAII (Michael W. Deem and Ramdas Pophale) SiO2 
 PCOD9064397
Probable space group: P -1
;
_chemical_formula_sum "Si O2"
_cell_formula_units_Z 15
_cell_length_a 9.020674
_cell_length_b 26.442531
_cell_length_c 9.059815
_cell_angle_alpha 30.206848
_cell_angle_beta 49.484799
_cell_angle_gamma 39.359499
_cell_volume 688.361001
_symmetry_space_group_name_H-M "P -1"
_symmetry_group_IT_number 2
_symmetry_cell_setting 'triclinic'
loop_
_space_group_symop_operation_xyz
x,y,z
-x,-y,-z
loop_
_atom_site_type_symbol
_atom_site_label
_atom_site_fract_x
_atom_site_fract_y
_atom_site_fract_z
Si Si1 0.024784 0.800896 0.859729
Si Si2 0.037036 0.010072 0.779357
Si Si3 0.516831 0.723712 0.845114
Si Si4 0.411315 0.735042 0.205968
Si Si5 0.083379 0.361735 0.796292
Si Si6 0.311374 0.985251 0.236828
Si Si7 0.000000 0.500000 0.000000
Si Si8 0.251515 0.584315 0.857396
O O1 0.301771 0.737506 0.858581
O O2 0.934408 0.883474 0.561765
O O3 0.878508 0.899249 0.834842
O O4 0.984281 0.693610 0.152111
O O5 0.244594 0.877162 0.936168
O O6 0.822803 0.032823 0.761858
O O7 0.000000 0.000000 0.000000
O O8 0.447695 0.860797 0.553508
O O9 0.502421 0.676542 0.133867
O O10 0.774379 0.634890 0.841639
O O11 0.638921 0.709864 0.205034
O O12 0.285554 0.679445 0.509091
O O13 0.000000 0.500000 0.500000
O O14 0.954400 0.353963 0.043121
O O15 0.500000 0.000000 0.000000
O O16 0.827702 0.479070 0.047912
O O17 0.500000 0.500000 0.000000
#
# Coordination Sequence:
#
# PCOD9064397 Si02
#       8
#     2   2   2   2   2   2   1   2
#     4  11  24  50  76 102 154 201 246 324 396 458
#     4  11  24  45  74 112 143 191 253 320 390 458
#     4  11  24  48  72 109 148 199 261 313 384 469
#     4  12  25  47  75 102 156 192 254 326 375 471
#     4  12  27  47  72 106 148 200 253 310 395 457
#     4  11  25  45  73 110 151 196 252 322 382 465
#     4  12  28  44  80 106 148 212 262 308 400 470
#     4  12  27  49  70 111 155 197 261 326 380 466
#
# _framework density 21.790891999999999
#
# number of rings (size 3 to 8) (size 9 to 14) (size 15 to 20)
#    0.000    0.533    5.333    2.400    3.733    5.333 
#    0.000    0.000    0.000    0.000    0.000    0.000 
#    0.000    0.000    0.000    0.000    0.000    0.000 
#
# Total GULP energy -83518.960131 kJ/mol
# GULP energy per Si atom -5567.930675 kJ/mol
# Density = 2.174130 g / cm^3
# Si number density = 21.790892 Si / 1000 Ang^3
#
#
#
# Elastic Constant Matrix: (Units=GPa)
#
#
# Indices 1 2 3 4 5 6 
#
# 1 111.0603 37.9123 36.4510 -13.8432 -15.3905 -5.4889
# 2 37.9123 90.2872 38.5263 -9.0440 -7.7678 -8.9217
# 3 36.4510 38.5263 99.0414 1.7048 -15.1688 -2.3570
# 4 -13.8432 -9.0440 1.7048 38.7765 2.4339 4.6506
# 5 -15.3905 -7.7678 -15.1688 2.4339 25.7148 0.9322
# 6 -5.4889 -8.9217 -2.3570 4.6506 0.9322 41.5266
#
#
#
# Elastic Compliance Matrix: (Units=1/GPa)
#
#
# Indices 1 2 3 4 5 6 
#
# 1 0.011965 -0.003204 -0.002539 0.003328 0.004371 0.000278
# 2 -0.003204 0.014811 -0.004641 0.002274 -0.000478 0.002251
# 3 -0.002539 -0.004641 0.013713 -0.002892 0.005454 -0.000353
# 4 0.003328 0.002274 -0.002892 0.028015 -0.001594 -0.002337
# 5 0.004371 -0.000478 0.005454 -0.001594 0.044730 -0.000041
# 6 0.000278 0.002251 -0.000353 -0.002337 -0.000041 0.024844
#
#
# Mechanical properties :
#
#
# Convention : Reuss Voigt Hill
#
# Bulk Modulus (GPa) = 50.70477 58.46314 54.58395
# Shear Modulus (GPa) = 30.22635 33.70353 31.96494
#
# Velocity S-wave (km/s) = 3.72843 3.93705 3.83416
# Velocity P-wave (km/s) = 6.46949 6.89598 6.68614
#
# Compressibility (1/GPa) = 0.01972201
#
# Stress axis : x y z
#
# Youngs Moduli (GPa) = 83.57412 67.51903 72.92333
#
# Poissons Ratio (x) = 0.21635 0.18512
# Poissons Ratio (y) = 0.26779 0.33842
# Poissons Ratio (z) = 0.21216 0.31334
#
# Static dielectric constant tensor:
#      x y z
#    x 1.858510 0.023080 -0.028280 
#    y 0.023080 1.962710 0.055340 
#    z -0.028280 0.055340 1.882160 
# 
# From -- ./inp_files/227232.got.cif
#   From: 2010.05.17/outbox.cif.g08.bks.cpg/sg2_114_cif.got.tgz:227232.got - 2010.06.03 11:33:40.
