data_PCOD9064432
_publ_section_title
;
Structure prediction by ZEFSAII (Michael W. Deem and Ramdas Pophale) SiO2 
 PCOD9064432
Probable space group: P -1
;
_chemical_formula_sum "Si O2"
_cell_formula_units_Z 16
_cell_length_a 15.329076
_cell_length_b 12.588275
_cell_length_c 18.729620
_cell_angle_alpha 27.347126
_cell_angle_beta 27.793374
_cell_angle_gamma 27.827333
_cell_volume 687.288957
_symmetry_space_group_name_H-M "P -1"
_symmetry_group_IT_number 2
_symmetry_cell_setting 'triclinic'
loop_
_space_group_symop_operation_xyz
x,y,z
-x,-y,-z
loop_
_atom_site_type_symbol
_atom_site_label
_atom_site_fract_x
_atom_site_fract_y
_atom_site_fract_z
Si Si1 0.938153 0.305640 0.620640
Si Si2 0.523140 0.271262 0.328744
Si Si3 0.814121 0.129476 0.954331
Si Si4 0.419482 0.130507 0.763310
Si Si5 0.688290 0.159938 0.432258
Si Si6 0.171740 0.619766 0.066130
Si Si7 0.942026 0.417089 0.164898
Si Si8 0.172482 0.110063 0.304880
O O1 0.708033 0.482381 0.650405
O O2 0.000000 0.500000 0.500000
O O3 0.926580 0.130257 0.798654
O O4 0.122600 0.132317 0.537054
O O5 0.627820 0.259026 0.336747
O O6 0.659037 0.324177 0.136995
O O7 0.500000 0.000000 0.500000
O O8 0.790064 0.351694 0.894693
O O9 0.600539 0.131102 0.080995
O O10 0.950322 0.866286 0.057060
O O11 0.485405 0.193537 0.601988
O O12 0.197080 0.341222 0.828315
O O13 0.598003 0.098038 0.710694
O O14 0.789607 0.298162 0.324358
O O15 0.147169 0.362885 0.217798
O O16 0.145099 0.212426 0.182618
O O17 0.000000 0.500000 0.000000
O O18 0.000000 0.000000 0.500000
#
# Coordination Sequence:
#
# PCOD9064432 Si02
#       8
#     2   2   2   2   2   2   2   2
#     4  12  26  44  71 108 152 193 252 307 376 464
#     4  12  24  46  74 110 153 200 251 313 394 450
#     4  11  24  45  76 108 150 194 251 317 388 444
#     4  12  27  48  78 108 148 199 249 314 386 445
#     4  12  26  45  72 107 147 198 246 311 376 444
#     4  11  24  45  75 110 151 199 252 318 379 460
#     4  12  27  50  77 105 151 192 257 316 373 451
#     4  12  27  48  76 112 151 200 264 304 378 456
#
# _framework density 23.279872999999998
#
# number of rings (size 3 to 8) (size 9 to 14) (size 15 to 20)
#    0.000    0.250    5.000    3.375    1.750    4.500 
#    0.000    0.000    0.000    0.000    0.000    0.000 
#    0.000    0.000    0.000    0.000    0.000    0.000 
#
# Total GULP energy -89443.085223 kJ/mol
# GULP energy per Si atom -5590.192826 kJ/mol
# Density = 2.322689 g / cm^3
# Si number density = 23.279873 Si / 1000 Ang^3
#
#
#
# Elastic Constant Matrix: (Units=GPa)
#
#
# Indices 1 2 3 4 5 6 
#
# 1 131.4686 22.7237 23.7871 3.6008 -6.3295 -2.2451
# 2 22.7237 97.3301 14.4486 7.4473 3.3780 5.8538
# 3 23.7871 14.4486 101.5759 6.5835 -3.3299 18.5735
# 4 3.6008 7.4473 6.5835 33.5985 9.9857 -7.0898
# 5 -6.3295 3.3780 -3.3299 9.9857 51.6220 -5.7627
# 6 -2.2451 5.8538 18.5735 -7.0898 -5.7627 45.3346
#
#
#
# Elastic Compliance Matrix: (Units=1/GPa)
#
#
# Indices 1 2 3 4 5 6 
#
# 1 0.008356 -0.001788 -0.001940 -0.000150 0.001221 0.001571
# 2 -0.001788 0.011099 -0.000733 -0.002256 -0.000743 -0.001669
# 3 -0.001940 -0.000733 0.011572 -0.003162 0.000592 -0.005162
# 4 -0.000150 -0.002256 -0.003162 0.033965 -0.005960 0.006133
# 5 0.001221 -0.000743 0.000592 -0.005960 0.020945 0.001644
# 6 0.001571 -0.001669 -0.005162 0.006133 0.001644 0.025634
#
#
# Mechanical properties :
#
#
# Convention : Reuss Voigt Hill
#
# Bulk Modulus (GPa) = 45.23954 50.25482 47.74718
# Shear Modulus (GPa) = 39.10472 44.07202 41.58837
#
# Velocity S-wave (km/s) = 4.10294 4.35574 4.23123
# Velocity P-wave (km/s) = 6.47461 6.85060 6.66526
#
# Compressibility (1/GPa) = 0.02210456
#
# Stress axis : x y z
#
# Youngs Moduli (GPa) = 119.67114 90.09462 86.41844
#
# Poissons Ratio (x) = 0.16112 0.16765
# Poissons Ratio (y) = 0.21401 0.06335
# Poissons Ratio (z) = 0.23217 0.06604
#
# Static dielectric constant tensor:
#      x y z
#    x 1.830120 -0.123330 -0.138290 
#    y -0.123330 1.717590 -0.178330 
#    z -0.138290 -0.178330 1.664800 
# 
# From -- ./inp_files/573335.got.cif
#   From: 2010.05.17/outbox.cif.g08.bks.cpg/sg2_287_cif.got.tgz:573335.got - 2010.06.03 11:33:40.
