data_PCOD9064388
_publ_section_title
;
Structure prediction by ZEFSAII (Michael W. Deem and Ramdas Pophale) SiO2 
 PCOD9064388
Probable space group: P -1
;
_chemical_formula_sum "Si O2"
_cell_formula_units_Z 16
_cell_length_a 26.418389
_cell_length_b 15.691054
_cell_length_c 8.683303
_cell_angle_alpha 69.770572
_cell_angle_beta 119.225286
_cell_angle_gamma 163.403005
_cell_volume 782.225711
_symmetry_space_group_name_H-M "P -1"
_symmetry_group_IT_number 2
_symmetry_cell_setting 'triclinic'
loop_
_space_group_symop_operation_xyz
x,y,z
-x,-y,-z
loop_
_atom_site_type_symbol
_atom_site_label
_atom_site_fract_x
_atom_site_fract_y
_atom_site_fract_z
Si Si1 0.477766 0.364103 0.998463
Si Si2 0.769054 0.062848 0.381760
Si Si3 0.241553 0.682904 0.689459
Si Si4 0.333322 0.987956 0.441092
Si Si5 0.997714 0.369258 0.119174
Si Si6 0.244017 0.772581 0.936011
Si Si7 0.624272 0.419494 0.321987
Si Si8 0.725120 0.376022 0.513416
O O1 0.424073 0.273813 0.794188
O O2 0.500000 0.500000 0.000000
O O3 0.664046 0.574805 0.197444
O O4 0.251222 0.991725 0.978954
O O5 0.715673 0.006763 0.513287
O O6 0.805337 0.215003 0.254411
O O7 0.986637 0.330880 0.521575
O O8 0.378742 0.969162 0.628625
O O9 0.291591 0.762881 0.894288
O O10 0.278488 0.652623 0.656111
O O11 0.143961 0.661985 0.250271
O O12 0.528136 0.301658 0.418497
O O13 0.051985 0.459262 0.964426
O O14 0.085307 0.402936 0.278506
O O15 0.443074 0.099522 0.138995
O O16 0.769013 0.549187 0.488891
O O17 0.500000 0.000000 0.500000
#
# Coordination Sequence:
#
# PCOD9064388 Si02
#       8
#     2   2   2   2   2   2   2   2
#     4  11  24  39  53  76 105 147 196 228 251 304
#     4  10  19  31  53  83 109 136 177 224 278 319
#     4  10  18  27  50  81 120 135 165 207 277 338
#     4   9  16  30  54  84 107 134 164 222 286 323
#     4  10  20  33  56  78 115 139 175 219 275 329
#     4   9  18  28  51  85 107 139 169 218 279 319
#     4  10  21  33  55  79 114 139 179 216 277 321
#     4  11  18  35  49  85 118 142 165 212 282 345
#
# _framework density 20.454453999999998
#
# number of rings (size 3 to 8) (size 9 to 14) (size 15 to 20)
#    0.000    2.000    6.250    1.500    5.250    2.000 
#    0.000    1.250    0.000    0.000    0.000    1.750 
#    0.000    0.000    0.000    0.000    0.000    0.000 
#
# Total GULP energy -89167.638292 kJ/mol
# GULP energy per Si atom -5572.977393 kJ/mol
# Density = 2.040790 g / cm^3
# Si number density = 20.454454 Si / 1000 Ang^3
#
#
#
# Elastic Constant Matrix: (Units=GPa)
#
#
# Indices 1 2 3 4 5 6 
#
# 1 164.6925 26.0405 49.2576 -17.3294 -10.7563 12.6889
# 2 26.0405 14.8608 13.3386 -4.1198 -12.4972 8.6793
# 3 49.2576 13.3386 85.3055 -15.5065 -2.2486 8.9178
# 4 -17.3294 -4.1198 -15.5065 14.8848 13.4395 -3.9282
# 5 -10.7563 -12.4972 -2.2486 13.4395 51.5334 -13.2853
# 6 12.6889 8.6793 8.9178 -3.9282 -13.2853 35.4776
#
#
#
# Elastic Compliance Matrix: (Units=1/GPa)
#
#
# Indices 1 2 3 4 5 6 
#
# 1 0.009961 -0.017705 -0.001419 0.009532 -0.004649 0.000440
# 2 -0.017705 0.140574 -0.015193 -0.032496 0.034346 -0.014975
# 3 -0.001419 -0.015193 0.018758 0.021569 -0.009185 -0.001542
# 4 0.009532 -0.032496 0.021569 0.125812 -0.038072 -0.001208
# 5 -0.004649 0.034346 -0.009185 -0.038072 0.037702 0.005472
# 6 0.000440 -0.014975 -0.001542 -0.001208 0.005472 0.033996
#
#
# Mechanical properties :
#
#
# Convention : Reuss Voigt Hill
#
# Bulk Modulus (GPa) = 9.93469 49.12578 29.53024
# Shear Modulus (GPa) = 10.66119 32.12732 21.39425
#
# Velocity S-wave (km/s) = 2.28549 3.96747 3.23762
# Velocity P-wave (km/s) = 3.43979 6.71246 5.33335
#
# Compressibility (1/GPa) = 0.10065734
#
# Stress axis : x y z
#
# Youngs Moduli (GPa) = 100.38792 7.11370 53.31148
#
# Poissons Ratio (x) = 0.12595 0.07567
# Poissons Ratio (y) = 1.77738 0.80997
# Poissons Ratio (z) = 0.14249 0.10808
#
# Static dielectric constant tensor:
#      x y z
#    x 1.786230 0.000430 0.028380 
#    y 0.000430 1.746070 0.006870 
#    z 0.028380 0.006870 1.833330 
# 
# From -- ./inp_files/227385.got.cif
#   From: 2010.05.17/outbox.cif.g08.bks.cpg/sg2_114_cif.got.tgz:227385.got - 2010.06.03 11:33:40.
