data_PCOD9064629
_publ_section_title
;
Structure prediction by ZEFSAII (Michael W. Deem and Ramdas Pophale) SiO2 
 PCOD9064629
Probable space group: P -1
;
_chemical_formula_sum "Si O2"
_cell_formula_units_Z 14
_cell_length_a 8.797494
_cell_length_b 11.294902
_cell_length_c 6.599790
_cell_angle_alpha 99.560847
_cell_angle_beta 78.035812
_cell_angle_gamma 90.864378
_cell_volume 632.515951
_symmetry_space_group_name_H-M "P -1"
_symmetry_group_IT_number 2
_symmetry_cell_setting 'triclinic'
loop_
_space_group_symop_operation_xyz
x,y,z
-x,-y,-z
loop_
_atom_site_type_symbol
_atom_site_label
_atom_site_fract_x
_atom_site_fract_y
_atom_site_fract_z
Si Si1 0.406652 0.377531 0.018382
Si Si2 0.083660 0.111601 0.402969
Si Si3 0.140416 0.671448 0.538248
Si Si4 0.678292 0.995941 0.026314
Si Si5 0.590478 0.231045 0.272934
Si Si6 0.923053 0.506596 0.805602
Si Si7 0.341710 0.183840 0.647251
O O1 0.491007 0.298996 0.147531
O O2 0.231303 0.410924 0.139315
O O3 0.500000 0.500000 0.000000
O O4 0.387607 0.301157 0.795875
O O5 0.185547 0.185544 0.558027
O O6 0.953553 0.203677 0.382996
O O7 0.201544 0.060844 0.183882
O O8 0.000000 0.000000 0.500000
O O9 0.309276 0.683017 0.590191
O O10 0.130928 0.622338 0.298355
O O11 0.053677 0.569576 0.656130
O O12 0.680052 0.918373 0.208101
O O13 0.705826 0.134902 0.107202
O O14 0.500000 0.000000 0.000000
O O15 0.477860 0.162376 0.439698
O O16 0.000000 0.500000 0.000000
#
# Coordination Sequence:
#
# PCOD9064629 Si02
#       7
#     2   2   2   2   2   2   2
#     4  12  26  43  70 105 139 187 243 293 354 427
#     4  12  28  46  72 107 143 186 240 292 360 426
#     4  11  26  44  68 102 138 183 235 292 354 416
#     4  12  25  46  72 104 141 186 235 289 355 423
#     4  12  26  44  72 105 145 185 242 291 358 426
#     4  11  24  46  70  96 140 185 233 294 353 412
#     4  12  24  45  73  99 144 187 234 298 351 424
#
# _framework density 22.133828000000001
#
# number of rings (size 3 to 8) (size 9 to 14) (size 15 to 20)
#    0.000    0.286    2.857    5.571    2.000   10.286 
#    0.000    0.000    0.000    0.000    0.000    0.000 
#    0.000    0.000    0.000    0.000    0.000    0.000 
#
# Total GULP energy -78326.090540 kJ/mol
# GULP energy per Si atom -5594.720753 kJ/mol
# Density = 2.208345 g / cm^3
# Si number density = 22.133828 Si / 1000 Ang^3
#
#
#
# Elastic Constant Matrix: (Units=GPa)
#
#
# Indices 1 2 3 4 5 6 
#
# 1 113.1292 26.8681 56.0975 9.7332 29.1271 -0.7289
# 2 26.8681 86.1138 46.5039 5.5162 9.6356 0.2093
# 3 56.0975 46.5039 124.1062 7.3663 15.2590 -4.3932
# 4 9.7332 5.5162 7.3663 42.0230 4.0595 -0.4151
# 5 29.1271 9.6356 15.2590 4.0595 42.2350 7.3384
# 6 -0.7289 0.2093 -4.3932 -0.4151 7.3384 37.2523
#
#
#
# Elastic Compliance Matrix: (Units=1/GPa)
#
#
# Indices 1 2 3 4 5 6 
#
# 1 0.013411 -0.000691 -0.004762 -0.001451 -0.007431 0.001152
# 2 -0.000691 0.014714 -0.005064 -0.000804 -0.000882 -0.000529
# 3 -0.004762 -0.005064 0.012200 -0.000340 -0.000180 0.001406
# 4 -0.001451 -0.000804 -0.000340 0.024409 -0.001113 0.000427
# 5 -0.007431 -0.000882 -0.000180 -0.001113 0.030240 -0.006131
# 6 0.001152 -0.000529 0.001406 0.000427 -0.006131 0.028248
#
#
# Mechanical properties :
#
#
# Convention : Reuss Voigt Hill
#
# Bulk Modulus (GPa) = 51.83886 64.69870 58.26878
# Shear Modulus (GPa) = 33.18156 37.22735 35.20446
#
# Velocity S-wave (km/s) = 3.87607 4.10557 3.99247
# Velocity P-wave (km/s) = 6.59571 7.19503 6.90188
#
# Compressibility (1/GPa) = 0.01929055
#
# Stress axis : x y z
#
# Youngs Moduli (GPa) = 74.56813 67.96174 81.96903
#
# Poissons Ratio (x) = 0.04694 0.39036
# Poissons Ratio (y) = 0.05151 0.41508
# Poissons Ratio (z) = 0.35512 0.34415
#
# Static dielectric constant tensor:
#      x y z
#    x 1.787770 0.019940 0.006280 
#    y 0.019940 1.814070 0.064240 
#    z 0.006280 0.064240 1.881660 
# 
# From -- ./inp_files/26867.got.cif
#   From: 2010.05.17/outbox.cif.g08.bks.cpg/sg2_14_cif.got.tgz:26867.got - 2010.06.03 11:33:40.
