data_PCOD9064053
_publ_section_title
;
Structure prediction by ZEFSAII (Michael W. Deem and Ramdas Pophale) SiO2 
 PCOD9064053
Probable space group: P -1
;
_chemical_formula_sum "Si O2"
_cell_formula_units_Z 16
_cell_length_a 7.553035
_cell_length_b 8.772072
_cell_length_c 12.514356
_cell_angle_alpha 51.099363
_cell_angle_beta 90.203650
_cell_angle_gamma 100.423266
_cell_volume 628.029869
_symmetry_space_group_name_H-M "P -1"
_symmetry_group_IT_number 2
_symmetry_cell_setting 'triclinic'
loop_
_space_group_symop_operation_xyz
x,y,z
-x,-y,-z
loop_
_atom_site_type_symbol
_atom_site_label
_atom_site_fract_x
_atom_site_fract_y
_atom_site_fract_z
Si Si1 0.931382 0.698279 0.434832
Si Si2 0.161267 0.138342 0.204688
Si Si3 0.505143 0.230605 0.894672
Si Si4 0.576466 0.715745 0.357988
Si Si5 0.031527 0.348239 0.308064
Si Si6 0.087378 0.235624 0.932512
Si Si7 0.557985 0.294167 0.088881
Si Si8 0.652118 0.072615 0.376899
O O1 0.785558 0.714467 0.336380
O O2 0.000000 0.500000 0.500000
O O3 0.869831 0.669486 0.571187
O O4 0.071100 0.910295 0.333254
O O5 0.364661 0.136378 0.170082
O O6 0.146602 0.279802 0.242777
O O7 0.066028 0.220646 0.068133
O O8 0.541214 0.278704 0.749721
O O9 0.306461 0.274930 0.896068
O O10 0.634352 0.295430 0.969153
O O11 0.500000 0.000000 0.000000
O O12 0.500000 0.500000 0.500000
O O13 0.609049 0.890099 0.370822
O O14 0.986548 0.570913 0.195535
O O15 0.846761 0.165961 0.390369
O O16 0.000000 0.000000 0.000000
O O17 0.656392 0.257493 0.212446
O O18 0.500000 0.500000 0.000000
O O19 0.500000 0.000000 0.500000
#
# Coordination Sequence:
#
# PCOD9064053 Si02
#       8
#     2   2   2   2   2   2   2   2
#     4  12  27  47  73 103 146 193 247 301 362 437
#     4  11  24  45  70 103 143 190 247 292 367 432
#     4  11  24  48  69 101 145 184 242 290 366 432
#     4  12  29  46  73 109 143 194 247 300 372 435
#     4  12  26  48  74 104 146 198 243 299 365 443
#     4  11  25  43  71 104 140 186 237 302 354 430
#     4  11  26  44  73 107 145 192 239 306 362 432
#     4  12  27  46  74 107 150 191 245 307 363 436
#
# _framework density 25.476496999999998
#
# number of rings (size 3 to 8) (size 9 to 14) (size 15 to 20)
#    0.000    0.500    2.500    5.250    8.750    2.000 
#    0.000    0.000    0.000    0.000    0.000    0.000 
#    0.000    0.000    0.000    0.000    0.000    0.000 
#
# Total GULP energy -89310.544911 kJ/mol
# GULP energy per Si atom -5581.909057 kJ/mol
# Density = 2.541851 g / cm^3
# Si number density = 25.476497 Si / 1000 Ang^3
#
#
#
# Elastic Constant Matrix: (Units=GPa)
#
#
# Indices 1 2 3 4 5 6 
#
# 1 57.5434 7.0439 15.2359 0.0690 -5.6210 11.4943
# 2 7.0439 112.1884 54.7019 -1.5032 -13.9509 -10.8910
# 3 15.2359 54.7019 167.8516 9.8075 16.5212 4.7440
# 4 0.0690 -1.5032 9.8075 69.5665 8.4426 2.8366
# 5 -5.6210 -13.9509 16.5212 8.4426 37.3832 -3.0848
# 6 11.4943 -10.8910 4.7440 2.8366 -3.0848 41.2604
#
#
#
# Elastic Compliance Matrix: (Units=1/GPa)
#
#
# Indices 1 2 3 4 5 6 
#
# 1 0.019206 -0.000457 -0.001757 0.000052 0.003066 -0.005043
# 2 -0.000457 0.012694 -0.004933 -0.000097 0.007249 0.004594
# 3 -0.001757 -0.004933 0.008394 -0.000485 -0.005886 -0.002185
# 4 0.000052 -0.000097 -0.000485 0.014890 -0.003280 -0.001253
# 5 0.003066 0.007249 -0.005886 -0.003280 0.033627 0.004476
# 6 -0.005043 0.004594 -0.002185 -0.001253 0.004476 0.027526
#
#
# Mechanical properties :
#
#
# Convention : Reuss Voigt Hill
#
# Bulk Modulus (GPa) = 38.46090 54.61631 46.53861
# Shear Modulus (GPa) = 35.89436 47.01547 41.45491
#
# Velocity S-wave (km/s) = 3.75763 4.30052 4.03821
# Velocity P-wave (km/s) = 5.82716 6.79292 6.32849
#
# Compressibility (1/GPa) = 0.02600043
#
# Stress axis : x y z
#
# Youngs Moduli (GPa) = 52.06692 78.77914 119.13112
#
# Poissons Ratio (x) = 0.03601 0.20927
# Poissons Ratio (y) = 0.02380 0.58768
# Poissons Ratio (z) = 0.09146 0.38862
#
# Static dielectric constant tensor:
#      x y z
#    x 2.141940 -0.035770 0.062250 
#    y -0.035770 1.935660 0.039060 
#    z 0.062250 0.039060 2.003670 
# 
# From -- ./inp_files/244572.got.cif
#   From: 2010.05.17/outbox.cif.g08.bks.cpg/sg2_123_cif.got.tgz:244572.got - 2010.06.03 11:33:40.
