data_PCOD9064005
_publ_section_title
;
Structure prediction by ZEFSAII (Michael W. Deem and Ramdas Pophale) SiO2 
 PCOD9064005
Probable space group: P -1
;
_chemical_formula_sum "Si O2"
_cell_formula_units_Z 16
_cell_length_a 12.721334
_cell_length_b 9.851794
_cell_length_c 9.827427
_cell_angle_alpha 104.247687
_cell_angle_beta 104.983363
_cell_angle_gamma 44.349035
_cell_volume 828.259775
_symmetry_space_group_name_H-M "P -1"
_symmetry_group_IT_number 2
_symmetry_cell_setting 'triclinic'
loop_
_space_group_symop_operation_xyz
x,y,z
-x,-y,-z
loop_
_atom_site_type_symbol
_atom_site_label
_atom_site_fract_x
_atom_site_fract_y
_atom_site_fract_z
Si Si1 0.084904 0.821561 0.879205
Si Si2 0.559374 0.808816 0.897331
Si Si3 0.074455 0.039754 0.430645
Si Si4 0.546848 0.056657 0.409498
Si Si5 0.577151 0.376143 0.130327
Si Si6 0.100183 0.327486 0.604556
Si Si7 0.891521 0.511734 0.070058
Si Si8 0.574849 0.336292 0.595743
O O1 0.246708 0.743420 0.866888
O O2 0.084598 0.670115 0.916107
O O3 0.999632 0.881934 0.722603
O O4 0.000000 0.000000 0.000000
O O5 0.541015 0.857067 0.742122
O O6 0.463961 0.750967 0.884041
O O7 0.729448 0.644632 0.971625
O O8 0.500000 0.000000 0.000000
O O9 0.055323 0.205661 0.541051
O O10 0.244375 0.833851 0.404026
O O11 0.000000 0.000000 0.500000
O O12 0.528020 0.223400 0.513186
O O13 0.500000 0.000000 0.500000
O O14 0.718954 0.852816 0.394562
O O15 0.495469 0.541941 0.259673
O O16 0.500000 0.500000 0.000000
O O17 0.089974 0.413542 0.767194
O O18 0.000000 0.500000 0.500000
O O19 0.000000 0.500000 0.000000
O O20 0.500000 0.500000 0.500000
#
# Coordination Sequence:
#
# PCOD9064005 Si02
#       8
#     2   2   2   2   2   2   2   2
#     4  12  28  47  72 109 144 191 244 298 369 428
#     4  12  27  48  73 105 146 192 243 296 363 427
#     4  11  26  43  74 106 144 189 234 303 356 427
#     4  11  27  43  72 104 140 186 235 295 354 427
#     4  12  26  47  74 102 146 191 241 298 355 440
#     4  11  25  49  67 103 145 185 240 288 359 425
#     4  12  29  48  73 107 146 194 239 298 368 434
#     4  11  24  45  69 104 140 184 244 288 359 424
#
# _framework density 19.317612
#
# number of rings (size 3 to 8) (size 9 to 14) (size 15 to 20)
#    0.000    0.500    5.000    1.500   10.500    1.000 
#    0.000    0.000    0.000    0.000    0.000    0.000 
#    0.000    0.000    0.000    0.000    0.000    0.000 
#
# Total GULP energy -89159.350689 kJ/mol
# GULP energy per Si atom -5572.459418 kJ/mol
# Density = 1.927364 g / cm^3
# Si number density = 19.317612 Si / 1000 Ang^3
#
#
#
# Elastic Constant Matrix: (Units=GPa)
#
#
# Indices 1 2 3 4 5 6 
#
# 1 154.5746 102.6365 90.5569 3.8333 6.7655 50.8484
# 2 102.6365 174.3068 101.6766 -1.4222 3.9506 34.7670
# 3 90.5569 101.6766 177.6682 8.9405 22.3812 96.0025
# 4 3.8333 -1.4222 8.9405 58.3952 -4.9578 -9.8875
# 5 6.7655 3.9506 22.3812 -4.9578 5.2473 -75.3775
# 6 50.8484 34.7670 96.0025 -9.8875 -75.3775 -143.8453
#
#
#
# Elastic Compliance Matrix: (Units=1/GPa)
#
#
# Indices 1 2 3 4 5 6 
#
# 1 0.011630 -0.004994 -0.003227 -0.000267 0.001562 -0.000050
# 2 -0.004994 0.010635 -0.003013 0.000837 -0.000712 -0.000890
# 3 -0.003227 -0.003013 0.007633 -0.000487 0.002372 0.002016
# 4 -0.000267 0.000837 -0.000487 0.017003 -0.000241 -0.001260
# 5 0.001562 -0.000712 0.002372 -0.000241 0.024297 -0.010752
# 6 -0.000050 -0.000890 0.002016 -0.001260 -0.010752 -0.000118
#
#
# Mechanical properties :
#
#
# Convention : Reuss Voigt Hill
#
# Bulk Modulus (GPa) = 134.53896 121.80998 128.17447
# Shear Modulus (GPa) = 52.07018 -1.92861 25.07079
#
# Velocity S-wave (km/s) = 5.19743 -1.00027 3.60644
# Velocity P-wave (km/s) = 10.28663 7.86507 9.15625
#
# Compressibility (1/GPa) = 0.00743279
#
# Stress axis : x y z
#
# Youngs Moduli (GPa) = 85.98539 94.02730 131.00304
#
# Poissons Ratio (x) = 0.46953 0.42269
# Poissons Ratio (y) = 0.42937 0.39468
# Poissons Ratio (z) = 0.27744 0.28328
#
# Static dielectric constant tensor:
#      x y z
#    x 1.706180 -0.008090 0.036650 
#    y -0.008090 1.580820 -0.001980 
#    z 0.036650 -0.001980 1.608590 
# 
# From -- ./inp_files/184330.got.cif
#   From: 2010.05.17/outbox.cif.g08.bks.cpg/sg2_93_cif.got.tgz:184330.got - 2010.06.03 11:33:40.
