data_PCOD9064537
_publ_section_title
;
Structure prediction by ZEFSAII (Michael W. Deem and Ramdas Pophale) SiO2 
 PCOD9064537
Probable space group: P -1
;
_chemical_formula_sum "Si O2"
_cell_formula_units_Z 14
_cell_length_a 10.490689
_cell_length_b 5.434343
_cell_length_c 18.764621
_cell_angle_alpha 78.413310
_cell_angle_beta 36.296887
_cell_angle_gamma 65.174071
_cell_volume 555.596229
_symmetry_space_group_name_H-M "P -1"
_symmetry_group_IT_number 2
_symmetry_cell_setting 'triclinic'
loop_
_space_group_symop_operation_xyz
x,y,z
-x,-y,-z
loop_
_atom_site_type_symbol
_atom_site_label
_atom_site_fract_x
_atom_site_fract_y
_atom_site_fract_z
Si Si1 0.099323 0.491120 0.351452
Si Si2 0.626285 0.537773 0.635995
Si Si3 0.659045 0.410229 0.008096
Si Si4 0.445915 0.988812 0.148553
Si Si5 0.973972 0.010755 0.728256
Si Si6 0.438015 0.727891 0.453048
Si Si7 0.199637 0.049929 0.756503
O O1 0.232019 0.576912 0.348820
O O2 0.829571 0.570257 0.493344
O O3 0.109285 0.656394 0.266251
O O4 0.263100 0.156981 0.285872
O O5 0.546736 0.353509 0.631895
O O6 0.384142 0.824294 0.740592
O O7 0.619299 0.137702 0.061982
O O8 0.946991 0.297080 0.878703
O O9 0.500000 0.500000 0.000000
O O10 0.577820 0.658002 0.089856
O O11 0.242620 0.070941 0.173335
O O12 0.113262 0.897882 0.744588
O O13 0.158102 0.905584 0.586107
O O14 0.500000 0.500000 0.500000
O O15 0.625499 0.853822 0.370657
#
# Coordination Sequence:
#
# PCOD9064537 Si02
#       7
#     2   2   2   2   2   2   2
#     4  11  24  46  68 105 142 189 233 293 360 435
#     4  11  25  42  70 104 143 181 233 296 366 426
#     4  12  27  43  73 103 144 194 241 294 345 416
#     4  12  25  46  71 103 142 192 241 291 348 424
#     4  12  23  41  73 103 144 180 237 295 364 425
#     4  12  24  38  71 107 145 180 226 303 371 417
#     4  12  26  43  66 107 143 180 241 295 356 423
#
# _framework density 25.198153999999999
#
# number of rings (size 3 to 8) (size 9 to 14) (size 15 to 20)
#    0.000    0.286    7.143    1.714    4.000    1.714 
#    0.000    1.429    0.000    0.000    0.000    0.000 
#    0.000    0.000    0.000    0.000    0.000    0.000 
#
# Total GULP energy -78074.100740 kJ/mol
# GULP energy per Si atom -5576.721481 kJ/mol
# Density = 2.514080 g / cm^3
# Si number density = 25.198154 Si / 1000 Ang^3
#
#
#
# Elastic Constant Matrix: (Units=GPa)
#
#
# Indices 1 2 3 4 5 6 
#
# 1 91.8291 14.9441 11.5549 10.0816 -22.2951 7.2089
# 2 14.9441 85.2693 36.3845 14.0606 -3.2405 15.4770
# 3 11.5549 36.3845 153.6888 23.8528 -18.1023 2.6807
# 4 10.0816 14.0606 23.8528 37.5968 6.2780 5.3489
# 5 -22.2951 -3.2405 -18.1023 6.2780 33.5515 7.4725
# 6 7.2089 15.4770 2.6807 5.3489 7.4725 29.5801
#
#
#
# Elastic Compliance Matrix: (Units=1/GPa)
#
#
# Indices 1 2 3 4 5 6 
#
# 1 0.015187 -0.000815 0.001697 -0.006269 0.013365 -0.005671
# 2 -0.000815 0.014865 -0.002701 -0.002864 0.001580 -0.007215
# 3 0.001697 -0.002701 0.008777 -0.006095 0.006837 -0.000421
# 4 -0.006269 -0.002864 -0.006095 0.035531 -0.014565 0.000833
# 5 0.013365 0.001580 0.006837 -0.014565 0.048439 -0.014306
# 6 -0.005671 -0.007215 -0.000421 0.000833 -0.014306 0.042465
#
#
# Mechanical properties :
#
#
# Convention : Reuss Voigt Hill
#
# Bulk Modulus (GPa) = 28.41595 50.72825 39.57210
# Shear Modulus (GPa) = 27.68039 38.00593 32.84316
#
# Velocity S-wave (km/s) = 3.31797 3.88787 3.61417
# Velocity P-wave (km/s) = 5.09706 6.35055 5.75802
#
# Compressibility (1/GPa) = 0.03519150
#
# Stress axis : x y z
#
# Youngs Moduli (GPa) = 65.84450 67.27193 113.93195
#
# Poissons Ratio (x) = 0.05481 -0.19337
# Poissons Ratio (y) = 0.05365 0.30778
# Poissons Ratio (z) = -0.11175 0.18173
#
# Static dielectric constant tensor:
#      x y z
#    x 1.919360 0.022810 0.046110 
#    y 0.022810 2.148190 0.115560 
#    z 0.046110 0.115560 2.125810 
# 
# From -- ./inp_files/542863.got.cif
#   From: 2010.05.17/outbox.cif.g08.bks.cpg/sg2_272_cif.got.tgz:542863.got - 2010.06.03 11:33:40.
