data_PCOD9064214
_publ_section_title
;
Structure prediction by ZEFSAII (Michael W. Deem and Ramdas Pophale) SiO2 
 PCOD9064214
Probable space group: P -1
;
_chemical_formula_sum "Si O2"
_cell_formula_units_Z 16
_cell_length_a 9.248541
_cell_length_b 14.485782
_cell_length_c 9.290185
_cell_angle_alpha 140.928378
_cell_angle_beta 80.789425
_cell_angle_gamma 111.227715
_cell_volume 715.564739
_symmetry_space_group_name_H-M "P -1"
_symmetry_group_IT_number 2
_symmetry_cell_setting 'triclinic'
loop_
_space_group_symop_operation_xyz
x,y,z
-x,-y,-z
loop_
_atom_site_type_symbol
_atom_site_label
_atom_site_fract_x
_atom_site_fract_y
_atom_site_fract_z
Si Si1 0.637243 0.163961 0.731983
Si Si2 0.838594 0.980680 0.424342
Si Si3 0.644410 0.855962 0.705205
Si Si4 0.115700 0.622158 0.517382
Si Si5 0.164754 0.525259 0.081947
Si Si6 0.403346 0.814856 0.917660
Si Si7 0.997207 0.887931 0.733189
Si Si8 0.634804 0.664986 0.217881
O O1 0.700657 0.306454 0.781892
O O2 0.500000 0.000000 0.500000
O O3 0.783511 0.109394 0.662375
O O4 0.608100 0.232617 0.971396
O O5 0.701349 0.808838 0.267414
O O6 0.000000 0.000000 0.500000
O O7 0.876745 0.025122 0.305716
O O8 0.566686 0.817365 0.827754
O O9 0.821604 0.860465 0.671306
O O10 0.567273 0.727773 0.440056
O O11 0.613753 0.014673 0.866919
O O12 0.146865 0.531366 0.264219
O O13 0.270385 0.717608 0.704814
O O14 0.000000 0.500000 0.500000
O O15 0.038039 0.741634 0.608916
O O16 0.215677 0.386114 0.848375
O O17 0.000000 0.500000 0.000000
O O18 0.000000 0.000000 0.000000
O O19 0.500000 0.500000 0.000000
#
# Coordination Sequence:
#
# PCOD9064214 Si02
#       8
#     2   2   2   2   2   2   2   2
#     4  12  26  45  73 108 141 194 251 299 366 440
#     4  12  24  46  76 105 143 193 250 300 357 443
#     4  11  24  45  72 104 148 193 245 303 367 443
#     4  12  27  48  74 111 151 196 244 310 384 435
#     4  12  26  46  72 104 150 188 240 305 365 436
#     4  11  25  46  73 104 150 196 246 305 375 442
#     4  12  25  45  75 109 142 192 254 301 362 446
#     4  12  25  45  71 108 146 187 241 302 371 427
#
# _framework density 22.359960000000001
#
# number of rings (size 3 to 8) (size 9 to 14) (size 15 to 20)
#    0.000    0.250    5.000    3.750    7.000    0.000 
#    0.000    1.250    0.000    0.000    0.000    0.000 
#    0.000    0.000    0.000    0.000    0.000    0.000 
#
# Total GULP energy -89420.482670 kJ/mol
# GULP energy per Si atom -5588.780167 kJ/mol
# Density = 2.230907 g / cm^3
# Si number density = 22.359960 Si / 1000 Ang^3
#
#
#
# Elastic Constant Matrix: (Units=GPa)
#
#
# Indices 1 2 3 4 5 6 
#
# 1 66.2538 12.8573 19.7740 -3.5655 -18.4451 -0.5023
# 2 12.8573 160.4467 46.3103 -20.0674 -14.9128 20.4500
# 3 19.7740 46.3103 144.8793 -22.7058 -6.7903 15.7870
# 4 -3.5655 -20.0674 -22.7058 47.3808 3.4184 -10.3588
# 5 -18.4451 -14.9128 -6.7903 3.4184 41.4807 -3.7169
# 6 -0.5023 20.4500 15.7870 -10.3588 -3.7169 31.8206
#
#
#
# Elastic Compliance Matrix: (Units=1/GPa)
#
#
# Indices 1 2 3 4 5 6 
#
# 1 0.018013 -0.000395 -0.002232 0.000127 0.007724 0.002590
# 2 -0.000395 0.007527 -0.001670 0.001501 0.001836 -0.003312
# 3 -0.002232 -0.001670 0.008384 0.002681 -0.000650 -0.002325
# 4 0.000127 0.001501 0.002681 0.024285 -0.000468 0.005558
# 5 0.007724 0.001836 -0.000650 -0.000468 0.028352 0.002423
# 6 0.002590 -0.003312 -0.002325 0.005558 0.002423 0.036841
#
#
# Mechanical properties :
#
#
# Convention : Reuss Voigt Hill
#
# Bulk Modulus (GPa) = 39.48074 58.82924 49.15499
# Shear Modulus (GPa) = 35.60252 43.64564 39.62408
#
# Velocity S-wave (km/s) = 3.99462 4.42289 4.21420
# Velocity P-wave (km/s) = 6.24269 7.24222 6.76095
#
# Compressibility (1/GPa) = 0.02532881
#
# Stress axis : x y z
#
# Youngs Moduli (GPa) = 55.51450 132.85874 119.27826
#
# Poissons Ratio (x) = 0.05253 0.26628
# Poissons Ratio (y) = 0.02195 0.19916
# Poissons Ratio (z) = 0.12393 0.22184
#
# Static dielectric constant tensor:
#      x y z
#    x 1.990580 -0.006860 0.148470 
#    y -0.006860 1.835680 -0.059440 
#    z 0.148470 -0.059440 1.783490 
# 
# From -- ./inp_files/209295.got.cif
#   From: 2010.05.17/outbox.cif.g08.bks.cpg/sg2_105_cif.got.tgz:209295.got - 2010.06.03 11:33:40.
