data_PCOD9064923
_publ_section_title
;
Structure prediction by ZEFSAII (Michael W. Deem and Ramdas Pophale) SiO2 
 PCOD9064923
Probable space group: P -1
;
_chemical_formula_sum "Si O2"
_cell_formula_units_Z 15
_cell_length_a 6.328228
_cell_length_b 15.322243
_cell_length_c 9.113638
_cell_angle_alpha 95.012411
_cell_angle_beta 50.379870
_cell_angle_gamma 87.567269
_cell_volume 672.516682
_symmetry_space_group_name_H-M "P -1"
_symmetry_group_IT_number 2
_symmetry_cell_setting 'triclinic'
loop_
_space_group_symop_operation_xyz
x,y,z
-x,-y,-z
loop_
_atom_site_type_symbol
_atom_site_label
_atom_site_fract_x
_atom_site_fract_y
_atom_site_fract_z
Si Si1 0.455219 0.473895 0.850957
Si Si2 0.941644 0.195940 0.965912
Si Si3 0.030636 0.950755 0.637690
Si Si4 0.000000 0.000000 0.000000
Si Si5 0.083831 0.613732 0.868650
Si Si6 0.848903 0.348436 0.472001
Si Si7 0.351433 0.199065 0.256794
Si Si8 0.520996 0.805093 0.459867
O O1 0.352671 0.562461 0.819276
O O2 0.723140 0.414113 0.662474
O O3 0.500000 0.500000 0.000000
O O4 0.192811 0.419033 0.951377
O O5 0.176076 0.201995 0.743496
O O6 0.939568 0.281803 0.081660
O O7 0.630017 0.202069 0.041399
O O8 0.005152 0.106096 0.016495
O O9 0.328919 0.891053 0.497371
O O10 0.800092 0.883886 0.731491
O O11 0.000000 0.000000 0.500000
O O12 0.003437 0.004102 0.811378
O O13 0.111399 0.595551 0.682063
O O14 0.627593 0.280029 0.526941
O O15 0.135764 0.287025 0.363455
O O16 0.453511 0.185106 0.376318
#
# Coordination Sequence:
#
# PCOD9064923 Si02
#       8
#     2   2   2   1   2   2   2   2
#     4  11  27  46  74 110 143 192 252 300 375 455
#     4  12  25  46  77 105 152 200 242 316 377 441
#     4  11  26  50  73 112 150 203 262 320 379 453
#     4  12  26  50  76 108 158 202 250 314 380 446
#     4  11  25  48  72 107 149 188 248 308 375 450
#     4  11  24  46  76 105 147 195 240 307 381 451
#     4  11  25  45  74 109 145 196 257 301 385 449
#     4  11  24  48  74 106 154 194 249 316 375 447
#
# _framework density 22.304279999999999
#
# number of rings (size 3 to 8) (size 9 to 14) (size 15 to 20)
#    0.000    0.800    4.000    2.000    5.600    2.133 
#    7.200    0.000    0.000    0.000    0.000    0.000 
#    0.000    0.000    0.000    0.000    0.000    0.000 
#
# Total GULP energy -83684.509540 kJ/mol
# GULP energy per Si atom -5578.967303 kJ/mol
# Density = 2.225351 g / cm^3
# Si number density = 22.304280 Si / 1000 Ang^3
#
#
#
# Elastic Constant Matrix: (Units=GPa)
#
#
# Indices 1 2 3 4 5 6 
#
# 1 84.4608 17.7555 42.1309 9.3775 6.9508 -10.5722
# 2 17.7555 92.1154 19.8897 5.9096 11.5007 -0.9370
# 3 42.1309 19.8897 132.9091 11.2383 -5.8497 -4.0594
# 4 9.3775 5.9096 11.2383 22.6354 5.9590 10.2352
# 5 6.9508 11.5007 -5.8497 5.9590 53.3283 -5.6003
# 6 -10.5722 -0.9370 -4.0594 10.2352 -5.6003 31.7525
#
#
#
# Elastic Compliance Matrix: (Units=1/GPa)
#
#
# Indices 1 2 3 4 5 6 
#
# 1 0.015885 -0.001587 -0.004012 -0.007131 -0.000645 0.006914
# 2 -0.001587 0.011801 -0.001307 -0.000918 -0.002429 -0.000480
# 3 -0.004012 -0.001307 0.009493 -0.004079 0.002469 0.001589
# 4 -0.007131 -0.000918 -0.004079 0.062971 -0.008961 -0.024802
# 5 -0.000645 -0.002429 0.002469 -0.008961 0.021333 0.006680
# 6 0.006914 -0.000480 0.001589 -0.024802 0.006680 0.043157
#
#
# Mechanical properties :
#
#
# Convention : Reuss Voigt Hill
#
# Bulk Modulus (GPa) = 42.79454 52.11529 47.45491
# Shear Modulus (GPa) = 26.84651 36.85719 31.85185
#
# Velocity S-wave (km/s) = 3.47313 4.06947 3.78307
# Velocity P-wave (km/s) = 5.94238 6.74515 6.35645
#
# Compressibility (1/GPa) = 0.02336747
#
# Stress axis : x y z
#
# Youngs Moduli (GPa) = 62.95191 84.73571 105.33622
#
# Poissons Ratio (x) = 0.13449 0.42263
# Poissons Ratio (y) = 0.09992 0.13766
# Poissons Ratio (z) = 0.25257 0.11074
#
# Static dielectric constant tensor:
#      x y z
#    x 1.819610 -0.001000 -0.012220 
#    y -0.001000 1.813370 -0.021040 
#    z -0.012220 -0.021040 1.828690 
# 
# From -- ./inp_files/135215.got.cif
#   From: 2010.05.17/outbox.cif.g08.bks.cpg/sg2_68_cif.got.tgz:135215.got - 2010.06.03 11:33:40.
