data_PCOD9064566
_publ_section_title
;
Structure prediction by ZEFSAII (Michael W. Deem and Ramdas Pophale) SiO2 
 PCOD9064566
Probable space group: P -1
;
_chemical_formula_sum "Si O2"
_cell_formula_units_Z 14
_cell_length_a 11.864953
_cell_length_b 11.224912
_cell_length_c 6.678055
_cell_angle_alpha 49.632396
_cell_angle_beta 82.024162
_cell_angle_gamma 72.725119
_cell_volume 645.316057
_symmetry_space_group_name_H-M "P -1"
_symmetry_group_IT_number 2
_symmetry_cell_setting 'triclinic'
loop_
_space_group_symop_operation_xyz
x,y,z
-x,-y,-z
loop_
_atom_site_type_symbol
_atom_site_label
_atom_site_fract_x
_atom_site_fract_y
_atom_site_fract_z
Si Si1 0.719702 0.537982 0.366238
Si Si2 0.822676 0.168374 0.822329
Si Si3 0.394123 0.933239 0.991313
Si Si4 0.944562 0.941721 0.385760
Si Si5 0.669564 0.735027 0.550169
Si Si6 0.874012 0.631607 0.893683
Si Si7 0.520361 0.634211 0.004829
O O1 0.779590 0.362146 0.629893
O O2 0.654920 0.651339 0.437178
O O3 0.811185 0.615543 0.138244
O O4 0.622278 0.529757 0.236930
O O5 0.717630 0.100703 0.824038
O O6 0.943441 0.131128 0.706974
O O7 0.857305 0.082669 0.122692
O O8 0.437815 0.765971 0.033170
O O9 0.500000 0.000000 0.000000
O O10 0.330375 0.084597 0.702010
O O11 0.889885 0.805081 0.639771
O O12 0.000000 0.000000 0.500000
O O13 0.783977 0.614771 0.758597
O O14 0.567669 0.749915 0.719183
O O15 0.000000 0.500000 0.000000
O O16 0.500000 0.500000 0.000000
#
# Coordination Sequence:
#
# PCOD9064566 Si02
#       7
#     2   2   2   2   2   2   2
#     4  11  25  44  72 104 141 185 241 296 357 431
#     4  11  26  45  68 105 139 185 240 292 357 429
#     4  12  25  46  73 104 145 192 239 298 358 432
#     4  11  26  45  69 100 144 184 235 295 363 424
#     4  11  25  45  71 102 141 187 242 293 368 428
#     4  11  24  46  69 105 138 186 240 298 360 428
#     4  11  26  45  70 103 144 187 240 298 356 426
#
# _framework density 21.694796
#
# number of rings (size 3 to 8) (size 9 to 14) (size 15 to 20)
#    0.000    0.857    4.286    1.286    6.000    2.857 
#    0.000    0.000    0.000    0.000    0.000    0.000 
#    0.000    0.000    0.000    0.000    0.000    0.000 
#
# Total GULP energy -78008.660584 kJ/mol
# GULP energy per Si atom -5572.047185 kJ/mol
# Density = 2.164542 g / cm^3
# Si number density = 21.694796 Si / 1000 Ang^3
#
#
#
# Elastic Constant Matrix: (Units=GPa)
#
#
# Indices 1 2 3 4 5 6 
#
# 1 74.8257 21.7474 35.2970 3.0283 5.8720 6.5834
# 2 21.7474 82.4168 42.2083 -13.0303 21.9637 2.8057
# 3 35.2970 42.2083 135.6758 -21.6716 -0.3704 0.5732
# 4 3.0283 -13.0303 -21.6716 40.1706 2.5188 6.9382
# 5 5.8720 21.9637 -0.3704 2.5188 28.6595 -2.9945
# 6 6.5834 2.8057 0.5732 6.9382 -2.9945 30.8765
#
#
#
# Elastic Compliance Matrix: (Units=1/GPa)
#
#
# Indices 1 2 3 4 5 6 
#
# 1 0.016494 -0.002281 -0.004163 -0.003685 -0.001629 -0.002562
# 2 -0.002281 0.020740 -0.004926 0.006009 -0.016464 -0.004254
# 3 -0.004163 -0.004926 0.010645 0.004064 0.004477 0.000659
# 4 -0.003685 0.006009 0.004064 0.031072 -0.007315 -0.007527
# 5 -0.001629 -0.016464 0.004477 -0.007315 0.049400 0.008195
# 6 -0.002562 -0.004254 0.000659 -0.007527 0.008195 0.035794
#
#
# Mechanical properties :
#
#
# Convention : Reuss Voigt Hill
#
# Bulk Modulus (GPa) = 39.78100 54.60261 47.19180
# Shear Modulus (GPa) = 25.60608 32.85237 29.22922
#
# Velocity S-wave (km/s) = 3.43926 3.89562 3.67453
# Velocity P-wave (km/s) = 5.84361 6.74223 6.30894
#
# Compressibility (1/GPa) = 0.02513763
#
# Stress axis : x y z
#
# Youngs Moduli (GPa) = 60.62879 48.21486 93.94312
#
# Poissons Ratio (x) = 0.10999 0.39113
# Poissons Ratio (y) = 0.13831 0.46276
# Poissons Ratio (z) = 0.25243 0.23750
#
# Static dielectric constant tensor:
#      x y z
#    x 1.860680 0.060860 -0.011130 
#    y 0.060860 1.819480 -0.002950 
#    z -0.011130 -0.002950 1.772820 
# 
# From -- ./inp_files/40267.got.cif
#   From: 2010.05.17/outbox.cif.g08.bks.cpg/sg2_21_cif.got.tgz:40267.got - 2010.06.03 11:33:40.
