data_PCOD9064674
_publ_section_title
;
Structure prediction by ZEFSAII (Michael W. Deem and Ramdas Pophale) SiO2 
 PCOD9064674
Probable space group: P -1
;
_chemical_formula_sum "Si O2"
_cell_formula_units_Z 13
_cell_length_a 9.309011
_cell_length_b 12.536338
_cell_length_c 8.468558
_cell_angle_alpha 146.778259
_cell_angle_beta 110.802033
_cell_angle_gamma 78.734603
_cell_volume 496.080265
_symmetry_space_group_name_H-M "P -1"
_symmetry_group_IT_number 2
_symmetry_cell_setting 'triclinic'
loop_
_space_group_symop_operation_xyz
x,y,z
-x,-y,-z
loop_
_atom_site_type_symbol
_atom_site_label
_atom_site_fract_x
_atom_site_fract_y
_atom_site_fract_z
Si Si1 0.063719 0.923893 0.768611
Si Si2 0.566097 0.295388 0.040909
Si Si3 0.310266 0.506575 0.099539
Si Si4 0.000000 0.000000 0.500000
Si Si5 0.175148 0.514000 0.384814
Si Si6 0.371168 0.971919 0.780800
Si Si7 0.149504 0.694155 0.031422
O O1 0.123125 0.721778 0.583902
O O2 0.950335 0.929240 0.581391
O O3 0.223630 0.044546 0.896117
O O4 0.000000 0.000000 0.000000
O O5 0.461522 0.409223 0.033256
O O6 0.671578 0.441799 0.391265
O O7 0.444714 0.120630 0.857213
O O8 0.702361 0.217014 0.904971
O O9 0.216489 0.427551 0.125281
O O10 0.199783 0.503828 0.900728
O O11 0.360277 0.742884 0.443308
O O12 0.890084 0.162801 0.671614
O O13 0.015414 0.372714 0.206427
O O14 0.500000 0.000000 0.000000
#
# Coordination Sequence:
#
# PCOD9064674 Si02
#       7
#     2   2   2   1   2   2   2
#     4  11  25  47  74 110 147 200 250 312 380 451
#     4  12  26  48  78 108 151 204 246 318 389 451
#     4  11  25  47  72 111 147 196 250 317 383 449
#     4  12  26  46  76 108 150 198 254 310 382 446
#     4  11  24  48  72 106 150 195 256 310 378 456
#     4  11  24  46  71 107 149 190 256 302 379 457
#     4  12  27  48  72 113 150 195 260 309 386 456
#
# _framework density 26.205435999999999
#
# number of rings (size 3 to 8) (size 9 to 14) (size 15 to 20)
#    0.000    0.615    6.154    2.769    2.154    1.846 
#    0.000    0.000    0.000    0.000    0.000    0.000 
#    0.000    0.000    0.000    0.000    0.000    0.000 
#
# Total GULP energy -72516.646314 kJ/mol
# GULP energy per Si atom -5578.203563 kJ/mol
# Density = 2.614579 g / cm^3
# Si number density = 26.205436 Si / 1000 Ang^3
#
#
#
# Elastic Constant Matrix: (Units=GPa)
#
#
# Indices 1 2 3 4 5 6 
#
# 1 188.4950 29.3845 45.2011 22.5549 -0.5845 27.7164
# 2 29.3845 118.0188 11.0146 8.4704 3.1590 6.5806
# 3 45.2011 11.0146 50.5366 -6.1136 2.5712 14.0446
# 4 22.5549 8.4704 -6.1136 35.5476 0.8271 -8.6590
# 5 -0.5845 3.1590 2.5712 0.8271 37.0907 -9.8554
# 6 27.7164 6.5806 14.0446 -8.6590 -9.8554 57.0825
#
#
#
# Elastic Compliance Matrix: (Units=1/GPa)
#
#
# Indices 1 2 3 4 5 6 
#
# 1 0.008592 -0.000722 -0.007483 -0.007387 -0.000015 -0.003370
# 2 -0.000722 0.008993 -0.001291 -0.002090 -0.000863 -0.000834
# 3 -0.007483 -0.001291 0.028701 0.009491 -0.002828 -0.002328
# 4 -0.007387 -0.002090 0.009491 0.036676 0.000483 0.007139
# 5 -0.000015 -0.000863 -0.002828 0.000483 0.028772 0.005843
# 6 -0.003370 -0.000834 -0.002328 0.007139 0.005843 0.021916
#
#
# Mechanical properties :
#
#
# Convention : Reuss Voigt Hill
#
# Bulk Modulus (GPa) = 36.63992 58.69454 47.66723
# Shear Modulus (GPa) = 30.91344 44.04084 37.47714
#
# Velocity S-wave (km/s) = 3.43834 4.10396 3.78581
# Velocity P-wave (km/s) = 5.45665 6.70098 6.11057
#
# Compressibility (1/GPa) = 0.02729264
#
# Stress axis : x y z
#
# Youngs Moduli (GPa) = 116.39054 111.19545 34.84152
#
# Poissons Ratio (x) = 0.08031 0.26074
# Poissons Ratio (y) = 0.08406 0.04498
# Poissons Ratio (z) = 0.87100 0.14357
#
# Static dielectric constant tensor:
#      x y z
#    x 2.157330 0.018500 0.170340 
#    y 0.018500 2.158990 -0.025740 
#    z 0.170340 -0.025740 2.138860 
# 
# From -- ./inp_files/183633.got.cif
#   From: 2010.05.17/outbox.cif.g08.bks.cpg/sg2_92_cif.got.tgz:183633.got - 2010.06.03 11:33:40.
