data_PCOD9064717
_publ_section_title
;
Structure prediction by ZEFSAII (Michael W. Deem and Ramdas Pophale) SiO2 
 PCOD9064717
Probable space group: P -1
;
_chemical_formula_sum "Si O2"
_cell_formula_units_Z 16
_cell_length_a 5.266805
_cell_length_b 22.007834
_cell_length_c 19.337265
_cell_angle_alpha 157.251914
_cell_angle_beta 68.959551
_cell_angle_gamma 121.350943
_cell_volume 688.878047
_symmetry_space_group_name_H-M "P -1"
_symmetry_group_IT_number 2
_symmetry_cell_setting 'triclinic'
loop_
_space_group_symop_operation_xyz
x,y,z
-x,-y,-z
loop_
_atom_site_type_symbol
_atom_site_label
_atom_site_fract_x
_atom_site_fract_y
_atom_site_fract_z
Si Si1 0.632566 0.511128 0.833725
Si Si2 0.188649 0.198628 0.371903
Si Si3 0.056789 0.568534 0.985996
Si Si4 0.626788 0.166626 0.460932
Si Si5 0.711980 0.526723 0.576837
Si Si6 0.234721 0.862749 0.074972
Si Si7 0.804844 0.907724 0.991615
Si Si8 0.701390 0.019934 0.567839
O O1 0.538067 0.316141 0.603869
O O2 0.332542 0.535131 0.896989
O O3 0.778725 0.506482 0.890205
O O4 0.911643 0.681798 0.941851
O O5 0.501064 0.371310 0.491023
O O6 0.994788 0.255666 0.500056
O O7 0.203556 0.029347 0.224247
O O8 0.962393 0.089269 0.214291
O O9 0.177965 0.781683 0.205080
O O10 0.000000 0.500000 0.000000
O O11 0.445755 0.966995 0.231785
O O12 0.532872 0.125455 0.506145
O O13 0.500000 0.500000 0.500000
O O14 0.834301 0.728656 0.808813
O O15 0.000000 0.500000 0.500000
O O16 0.431255 0.825137 0.958696
O O17 0.000000 0.000000 0.000000
O O18 0.500000 0.000000 0.500000
O O19 0.000000 0.000000 0.500000
#
# Coordination Sequence:
#
# PCOD9064717 Si02
#       8
#     2   2   2   2   2   2   2   2
#     4  12  26  46  73 101 149 187 234 298 349 426
#     4  11  26  45  75 102 145 191 234 296 353 426
#     4  12  25  46  71 108 143 184 241 295 357 419
#     4  11  26  46  70 105 144 186 240 289 359 422
#     4  12  27  46  73 107 145 184 239 295 351 423
#     4  11  26  45  72 105 143 191 235 295 353 429
#     4  11  24  46  72 104 144 186 239 292 356 418
#     4  12  25  44  73 104 140 188 237 293 350 417
#
# _framework density 23.226171000000001
#
# number of rings (size 3 to 8) (size 9 to 14) (size 15 to 20)
#    0.000    0.500    2.500    4.875    8.750    2.000 
#    0.000    0.000    0.000    0.000    0.000    0.000 
#    0.000    0.000    0.000    0.000    0.000    0.000 
#
# Total GULP energy -89412.184235 kJ/mol
# GULP energy per Si atom -5588.261515 kJ/mol
# Density = 2.317331 g / cm^3
# Si number density = 23.226171 Si / 1000 Ang^3
#
#
#
# Elastic Constant Matrix: (Units=GPa)
#
#
# Indices 1 2 3 4 5 6 
#
# 1 115.6267 42.1145 9.4414 -24.9711 -27.4600 21.2038
# 2 42.1145 191.5760 32.0332 8.9879 -24.6873 22.0866
# 3 9.4414 32.0332 125.9653 7.3139 -33.4466 23.5672
# 4 -24.9711 8.9879 7.3139 41.2561 1.9983 -14.4135
# 5 -27.4600 -24.6873 -33.4466 1.9983 46.1875 -12.6483
# 6 21.2038 22.0866 23.5672 -14.4135 -12.6483 40.0286
#
#
#
# Elastic Compliance Matrix: (Units=1/GPa)
#
#
# Indices 1 2 3 4 5 6 
#
# 1 0.012776 -0.002331 0.001244 0.007153 0.006508 -0.001582
# 2 -0.002331 0.006489 -0.000350 -0.003936 0.001123 -0.003202
# 3 0.001244 -0.000350 0.011181 -0.003630 0.007136 -0.006102
# 4 0.007153 -0.003936 -0.003630 0.034727 0.001734 0.013573
# 5 0.006508 0.001123 0.007136 0.001734 0.031878 0.002429
# 6 -0.001582 -0.003202 -0.006102 0.013573 0.002429 0.036834
#
#
# Mechanical properties :
#
#
# Convention : Reuss Voigt Hill
#
# Bulk Modulus (GPa) = 36.26702 66.70513 51.48607
# Shear Modulus (GPa) = 34.25793 48.79970 41.52881
#
# Velocity S-wave (km/s) = 3.84470 4.58871 4.23308
# Velocity P-wave (km/s) = 5.94623 7.54037 6.79024
#
# Compressibility (1/GPa) = 0.02757326
#
# Stress axis : x y z
#
# Youngs Moduli (GPa) = 78.26897 154.09912 89.43347
#
# Poissons Ratio (x) = 0.35923 -0.11125
# Poissons Ratio (y) = 0.18246 0.03128
# Poissons Ratio (z) = -0.09736 0.05390
#
# Static dielectric constant tensor:
#      x y z
#    x 1.878530 -0.010330 0.033040 
#    y -0.010330 1.892600 0.009350 
#    z 0.033040 0.009350 1.861480 
# 
# From -- ./inp_files/52294.got.cif
#   From: 2010.05.17/outbox.cif.g08.bks.cpg/sg2_27_cif.got.tgz:52294.got - 2010.06.03 11:33:40.
