data_PCOD9064641
_publ_section_title
;
Structure prediction by ZEFSAII (Michael W. Deem and Ramdas Pophale) SiO2 
 PCOD9064641
Probable space group: P -1
;
_chemical_formula_sum "Si O2"
_cell_formula_units_Z 16
_cell_length_a 9.117465
_cell_length_b 27.728952
_cell_length_c 12.404561
_cell_angle_alpha 148.180552
_cell_angle_beta 142.656910
_cell_angle_gamma 26.661291
_cell_volume 733.473202
_symmetry_space_group_name_H-M "P -1"
_symmetry_group_IT_number 2
_symmetry_cell_setting 'triclinic'
loop_
_space_group_symop_operation_xyz
x,y,z
-x,-y,-z
loop_
_atom_site_type_symbol
_atom_site_label
_atom_site_fract_x
_atom_site_fract_y
_atom_site_fract_z
Si Si1 0.108271 0.617217 0.277025
Si Si2 0.141500 0.906666 0.692866
Si Si3 0.170740 0.445305 0.165212
Si Si4 0.134646 0.213363 0.095311
Si Si5 0.973055 0.909541 0.373474
Si Si6 0.820846 0.490197 0.468326
Si Si7 0.223865 0.119674 0.394743
Si Si8 0.104467 0.832786 0.936380
O O1 0.147213 0.540087 0.255002
O O2 0.429808 0.597025 0.425373
O O3 0.801985 0.764246 0.388640
O O4 0.070914 0.566024 0.051687
O O5 0.494738 0.849692 0.836090
O O6 0.199546 0.852704 0.504134
O O7 0.956082 0.883721 0.617949
O O8 0.912181 0.055997 0.833980
O O9 0.095280 0.493536 0.333945
O O10 0.537098 0.306626 0.111008
O O11 0.919303 0.359060 0.264713
O O12 0.133442 0.157533 0.100067
O O13 0.980831 0.185317 0.863063
O O14 0.602203 0.994240 0.363663
O O15 0.000000 0.000000 0.500000
O O16 0.000000 0.500000 0.500000
O O17 0.034275 0.142560 0.217794
#
# Coordination Sequence:
#
# PCOD9064641 Si02
#       8
#     2   2   2   2   2   2   2   2
#     4  11  24  46  71 101 132 181 238 275 342 401
#     4  12  26  45  68 106 140 178 229 282 352 409
#     4  11  25  45  74  97 131 184 233 287 329 409
#     4  12  26  44  70 100 136 186 225 284 343 407
#     4  12  26  45  70 103 141 181 229 282 343 412
#     4  12  26  44  69 102 140 178 227 284 345 403
#     4  12  25  43  73 101 141 182 224 287 346 413
#     4  12  22  45  73  95 136 179 233 279 343 409
#
# _framework density 21.814021
#
# number of rings (size 3 to 8) (size 9 to 14) (size 15 to 20)
#    0.000    0.250    5.000    4.500    0.000    2.500 
#    0.000    0.000    0.000    0.000    0.000    0.000 
#    0.000    0.000    0.000    0.000    0.000    0.000 
#
# Total GULP energy -89603.148854 kJ/mol
# GULP energy per Si atom -5600.196803 kJ/mol
# Density = 2.176437 g / cm^3
# Si number density = 21.814021 Si / 1000 Ang^3
#
#
#
# Elastic Constant Matrix: (Units=GPa)
#
#
# Indices 1 2 3 4 5 6 
#
# 1 79.9964 -1.9960 44.6910 -17.2603 -15.2879 12.7089
# 2 -1.9960 20.1771 59.0118 27.0004 25.6113 -14.3648
# 3 44.6910 59.0118 43.9937 -49.0498 -79.9186 51.0479
# 4 -17.2603 27.0004 -49.0498 29.9133 -22.7609 16.0429
# 5 -15.2879 25.6113 -79.9186 -22.7609 -9.2371 31.6419
# 6 12.7089 -14.3648 51.0479 16.0429 31.6419 -10.9763
#
#
#
# Elastic Compliance Matrix: (Units=1/GPa)
#
#
# Indices 1 2 3 4 5 6 
#
# 1 0.020609 0.009152 -0.008100 0.001149 0.002712 -0.016291
# 2 0.009152 0.033922 -0.004093 -0.006166 0.009278 -0.035099
# 3 -0.008100 -0.004093 0.007629 -0.000940 -0.004667 0.016628
# 4 0.001149 -0.006166 -0.000940 0.023082 -0.007329 0.017635
# 5 0.002712 0.009278 -0.004667 -0.007329 0.019208 0.013952
# 6 -0.016291 -0.035099 0.016628 0.017635 0.013952 0.079295
#
#
# Mechanical properties :
#
#
# Convention : Reuss Voigt Hill
#
# Bulk Modulus (GPa) = 17.83270 38.62008 28.22639
# Shear Modulus (GPa) = 23.97860 4.77067 14.37464
#
# Velocity S-wave (km/s) = 3.31906 1.48045 2.56981
# Velocity P-wave (km/s) = 4.78339 4.54587 4.66614
#
# Compressibility (1/GPa) = 0.05607676
#
# Stress axis : x y z
#
# Youngs Moduli (GPa) = 48.52354 29.47916 131.08572
#
# Poissons Ratio (x) = -0.26978 1.06184
# Poissons Ratio (y) = -0.44407 0.53649
# Poissons Ratio (z) = 0.39306 0.12065
#
# Static dielectric constant tensor:
#      x y z
#    x 1.770240 -0.015760 -0.015650 
#    y -0.015760 1.818160 0.012290 
#    z -0.015650 0.012290 1.826260 
# 
# From -- ./inp_files/273638.got.cif
#   From: 2010.05.17/outbox.cif.g08.bks.cpg/sg2_137_cif.got.tgz:273638.got - 2010.06.03 11:33:40.
