data_PCOD9064434
_publ_section_title
;
Structure prediction by ZEFSAII (Michael W. Deem and Ramdas Pophale) SiO2 
 PCOD9064434
Probable space group: P -1
;
_chemical_formula_sum "Si O2"
_cell_formula_units_Z 16
_cell_length_a 11.115475
_cell_length_b 21.293446
_cell_length_c 8.471025
_cell_angle_alpha 58.742737
_cell_angle_beta 121.965744
_cell_angle_gamma 157.218770
_cell_volume 655.736940
_symmetry_space_group_name_H-M "P -1"
_symmetry_group_IT_number 2
_symmetry_cell_setting 'triclinic'
loop_
_space_group_symop_operation_xyz
x,y,z
-x,-y,-z
loop_
_atom_site_type_symbol
_atom_site_label
_atom_site_fract_x
_atom_site_fract_y
_atom_site_fract_z
Si Si1 0.673110 0.388259 0.466988
Si Si2 0.255176 0.912403 0.197058
Si Si3 0.382282 0.123960 0.161074
Si Si4 0.101599 0.789301 0.917514
Si Si5 0.481588 0.316457 0.086539
Si Si6 0.627703 0.518637 0.719765
Si Si7 0.220970 0.673733 0.138824
Si Si8 0.942055 0.321517 0.451089
O O1 0.469631 0.315314 0.269666
O O2 0.564847 0.276367 0.660416
O O3 0.794865 0.515058 0.480233
O O4 0.000000 0.500000 0.500000
O O5 0.117406 0.784649 0.375552
O O6 0.235905 0.979313 0.192013
O O7 0.620378 0.064133 0.204636
O O8 0.108925 0.840962 0.012672
O O9 0.258080 0.146191 0.099357
O O10 0.608741 0.207586 0.357025
O O11 0.588229 0.240020 0.001005
O O12 0.770816 0.637484 0.796937
O O13 0.169342 0.734348 0.082016
O O14 0.863644 0.478507 0.120660
O O15 0.439862 0.369049 0.878895
O O16 0.500000 0.500000 0.500000
O O17 0.932847 0.623282 0.712821
#
# Coordination Sequence:
#
# PCOD9064434 Si02
#       8
#     2   2   2   2   2   2   2   2
#     4  10  18  27  51  78 111 137 160 226 286 328
#     4  10  20  32  51  84 113 141 170 219 289 319
#     4  11  18  28  51  80 115 131 165 229 275 327
#     4   9  19  35  53  77 115 140 175 222 268 335
#     4  10  18  32  49  77 108 135 178 222 275 315
#     4  11  23  38  56  76 108 152 186 221 259 312
#     4   9  15  28  45  74 105 138 161 213 282 319
#     4  12  19  32  52  85 113 141 179 218 273 332
#
# _framework density 24.400029
#
# number of rings (size 3 to 8) (size 9 to 14) (size 15 to 20)
#    0.000    1.750    6.250    3.750    0.000    0.000 
#    0.000    2.500    0.000    1.500    0.000    0.000 
#    0.000    0.000    0.000    0.000    0.000    0.000 
#
# Total GULP energy -89280.318511 kJ/mol
# GULP energy per Si atom -5580.019907 kJ/mol
# Density = 2.434449 g / cm^3
# Si number density = 24.400029 Si / 1000 Ang^3
#
#
#
# Elastic Constant Matrix: (Units=GPa)
#
#
# Indices 1 2 3 4 5 6 
#
# 1 42.3403 11.7987 22.4787 7.6983 4.4941 -16.5764
# 2 11.7987 51.2215 34.6460 23.6273 -6.1181 -26.9685
# 3 22.4787 34.6460 185.3872 9.2237 15.2091 -13.9944
# 4 7.6983 23.6273 9.2237 24.4788 -3.3665 -15.3366
# 5 4.4941 -6.1181 15.2091 -3.3665 31.3400 4.3393
# 6 -16.5764 -26.9685 -13.9944 -15.3366 4.3393 35.0771
#
#
#
# Elastic Compliance Matrix: (Units=1/GPa)
#
#
# Indices 1 2 3 4 5 6 
#
# 1 0.031346 0.004013 -0.002776 -0.003390 -0.004933 0.015919
# 2 0.004013 0.051990 -0.007284 -0.032933 0.006277 0.023787
# 3 -0.002776 -0.007284 0.007074 0.003371 -0.003797 -0.002146
# 4 -0.003390 -0.032933 0.003371 0.077659 -0.000404 0.008428
# 5 -0.004933 0.006277 -0.003797 -0.000404 0.036148 -0.003668
# 6 0.015919 0.023787 -0.002146 0.008428 -0.003668 0.057602
#
#
# Mechanical properties :
#
#
# Convention : Reuss Voigt Hill
#
# Bulk Modulus (GPa) = 12.76854 46.31066 29.53960
# Shear Modulus (GPa) = 16.66572 32.18091 24.42331
#
# Velocity S-wave (km/s) = 2.61630 3.63559 3.16722
# Velocity P-wave (km/s) = 3.79092 6.05345 5.05051
#
# Compressibility (1/GPa) = 0.07831750
#
# Stress axis : x y z
#
# Youngs Moduli (GPa) = 31.90209 19.23448 141.36853
#
# Poissons Ratio (x) = -0.07719 0.39240
# Poissons Ratio (y) = -0.12803 1.02967
# Poissons Ratio (z) = 0.08855 0.14010
#
# Static dielectric constant tensor:
#      x y z
#    x 2.096360 -0.001510 0.196550 
#    y -0.001510 2.034440 -0.025490 
#    z 0.196550 -0.025490 2.241810 
# 
# From -- ./inp_files/305803.got.cif
#   From: 2010.05.17/outbox.cif.g08.bks.cpg/sg2_153_cif.got.tgz:305803.got - 2010.06.03 11:33:40.
