data_PCOD9064223
_publ_section_title
;
Structure prediction by ZEFSAII (Michael W. Deem and Ramdas Pophale) SiO2 
 PCOD9064223
Probable space group: P -1
;
_chemical_formula_sum "Si O2"
_cell_formula_units_Z 14
_cell_length_a 5.120340
_cell_length_b 6.806060
_cell_length_c 15.280762
_cell_angle_alpha 89.701239
_cell_angle_beta 106.331869
_cell_angle_gamma 77.338920
_cell_volume 497.337649
_symmetry_space_group_name_H-M "P -1"
_symmetry_group_IT_number 2
_symmetry_cell_setting 'triclinic'
loop_
_space_group_symop_operation_xyz
x,y,z
-x,-y,-z
loop_
_atom_site_type_symbol
_atom_site_label
_atom_site_fract_x
_atom_site_fract_y
_atom_site_fract_z
Si Si1 0.549425 0.780230 0.214770
Si Si2 0.314602 0.326575 0.235223
Si Si3 0.913850 0.917346 0.107821
Si Si4 0.846529 0.319425 0.297612
Si Si5 0.571788 0.685792 0.954049
Si Si6 0.951480 0.772729 0.490668
Si Si7 0.380647 0.682965 0.375675
O O1 0.800066 0.843446 0.187855
O O2 0.434416 0.825754 0.301833
O O3 0.253563 0.862605 0.134762
O O4 0.280540 0.857374 0.922347
O O5 0.619346 0.186193 0.274309
O O6 0.296586 0.373147 0.130555
O O7 0.328444 0.492899 0.312737
O O8 0.080602 0.229882 0.251432
O O9 0.794621 0.782582 0.025718
O O10 0.695527 0.536962 0.240331
O O11 0.928762 0.325629 0.405604
O O12 0.500000 0.500000 0.000000
O O13 0.129195 0.709012 0.419826
O O14 0.651040 0.712075 0.457679
O O15 0.000000 0.000000 0.500000
#
# Coordination Sequence:
#
# PCOD9064223 Si02
#       7
#     2   2   2   2   2   2   2
#     4  11  24  48  77 110 151 201 254 315 381 451
#     4  11  25  45  76 111 144 194 257 315 380 459
#     4  11  27  51  79 112 157 204 256 319 380 459
#     4  11  25  46  73 107 149 200 255 312 383 454
#     4  11  27  52  81 115 155 202 257 317 389 463
#     4  12  27  46  71 109 154 203 257 316 381 457
#     4  11  24  45  72 105 150 198 252 312 380 449
#
# _framework density 28.149889999999999
#
# number of rings (size 3 to 8) (size 9 to 14) (size 15 to 20)
#    0.000    0.857    0.000    7.286    0.000   16.000 
#    0.000   13.571    0.000    0.000    0.000    0.000 
#    0.000    0.000    0.000    0.000    0.000    0.000 
#
# Total GULP energy -78158.489381 kJ/mol
# GULP energy per Si atom -5582.749242 kJ/mol
# Density = 2.808582 g / cm^3
# Si number density = 28.149890 Si / 1000 Ang^3
#
#
#
# Elastic Constant Matrix: (Units=GPa)
#
#
# Indices 1 2 3 4 5 6 
#
# 1 165.3705 9.2764 12.7121 -0.4224 -15.6566 7.8326
# 2 9.2764 148.0848 25.3272 -5.2522 -10.9201 -9.3239
# 3 12.7121 25.3272 141.9130 13.6403 -26.3651 -3.3471
# 4 -0.4224 -5.2522 13.6403 40.3708 -3.0179 -5.6172
# 5 -15.6566 -10.9201 -26.3651 -3.0179 70.2074 -11.1236
# 6 7.8326 -9.3239 -3.3471 -5.6172 -11.1236 34.2615
#
#
#
# Elastic Compliance Matrix: (Units=1/GPa)
#
#
# Indices 1 2 3 4 5 6 
#
# 1 0.006246 -0.000332 -0.000343 0.000046 0.001022 -0.001212
# 2 -0.000332 0.007283 -0.001175 0.001785 0.001105 0.002594
# 3 -0.000343 -0.001175 0.008081 -0.002529 0.002834 0.001054
# 4 0.000046 0.001785 -0.002529 0.026650 0.001278 0.005012
# 5 0.001022 0.001105 0.002834 0.001278 0.016710 0.005979
# 6 -0.001212 0.002594 0.001054 0.005012 0.005979 0.033036
#
#
# Mechanical properties :
#
#
# Convention : Reuss Voigt Hill
#
# Bulk Modulus (GPa) = 55.83489 61.11109 58.47299
# Shear Modulus (GPa) = 46.43493 56.17142 51.30317
#
# Velocity S-wave (km/s) = 4.06588 4.47188 4.27371
# Velocity P-wave (km/s) = 6.47455 6.95844 6.72085
#
# Compressibility (1/GPa) = 0.01790995
#
# Stress axis : x y z
#
# Youngs Moduli (GPa) = 160.09304 137.30977 123.74111
#
# Poissons Ratio (x) = 0.04557 0.04249
# Poissons Ratio (y) = 0.05313 0.14540
# Poissons Ratio (z) = 0.05497 0.16134
#
# Static dielectric constant tensor:
#      x y z
#    x 2.505760 -0.027780 0.070540 
#    y -0.027780 2.367830 0.062550 
#    z 0.070540 0.062550 2.207700 
# 
# From -- ./inp_files/360871.got.cif
#   From: 2010.05.17/outbox.cif.g08.bks.cpg/sg2_181_cif.got.tgz:360871.got - 2010.06.03 11:33:40.
