data_PCOD9064064
_publ_section_title
;
Structure prediction by ZEFSAII (Michael W. Deem and Ramdas Pophale) SiO2 
 PCOD9064064
Probable space group: P -1
;
_chemical_formula_sum "Si O2"
_cell_formula_units_Z 16
_cell_length_a 8.620192
_cell_length_b 9.577839
_cell_length_c 11.331946
_cell_angle_alpha 121.771784
_cell_angle_beta 121.518911
_cell_angle_gamma 75.351594
_cell_volume 677.729528
_symmetry_space_group_name_H-M "P -1"
_symmetry_group_IT_number 2
_symmetry_cell_setting 'triclinic'
loop_
_space_group_symop_operation_xyz
x,y,z
-x,-y,-z
loop_
_atom_site_type_symbol
_atom_site_label
_atom_site_fract_x
_atom_site_fract_y
_atom_site_fract_z
Si Si1 0.729561 0.317811 0.140411
Si Si2 0.744964 0.381066 0.612521
Si Si3 0.391174 0.461074 0.606789
Si Si4 0.111590 0.485794 0.913750
Si Si5 0.037333 0.979468 0.868308
Si Si6 0.681970 0.901594 0.554232
Si Si7 0.786243 0.008382 0.419922
Si Si8 0.670175 0.830778 0.074823
O O1 0.696113 0.474727 0.279715
O O2 0.773099 0.368964 0.044074
O O3 0.889611 0.204290 0.200375
O O4 0.542854 0.210225 0.038708
O O5 0.611550 0.461825 0.691523
O O6 0.673815 0.427651 0.476427
O O7 0.740003 0.184887 0.531445
O O8 0.949133 0.444708 0.739740
O O9 0.343614 0.272403 0.470927
O O10 0.240292 0.332778 0.912523
O O11 0.000000 0.500000 0.000000
O O12 0.851739 0.997315 0.727038
O O13 0.199139 0.107551 0.951953
O O14 0.000000 0.000000 0.000000
O O15 0.500000 0.000000 0.500000
O O16 0.731683 0.863641 0.422618
O O17 0.696779 0.975926 0.245184
O O18 0.000000 0.000000 0.500000
#
# Coordination Sequence:
#
# PCOD9064064 Si02
#       8
#     2   2   2   2   2   2   2   2
#     4  12  28  47  72 109 149 197 241 304 372 445
#     4  11  24  45  70 105 145 192 237 309 361 436
#     4  11  26  45  73 105 147 188 250 297 373 435
#     4  12  25  45  72 103 149 189 244 299 367 436
#     4  12  28  49  74 109 152 195 244 307 374 437
#     4  12  26  47  77 108 141 194 248 303 365 442
#     4  12  23  45  75 105 143 187 250 303 364 429
#     4  12  26  46  73 107 146 195 245 300 365 441
#
# _framework density 23.608236999999999
#
# number of rings (size 3 to 8) (size 9 to 14) (size 15 to 20)
#    0.000    0.250    3.750    4.500    1.750    4.000 
#    0.000    0.000    0.000    0.000    0.000    0.000 
#    0.000    0.000    0.000    0.000    0.000    0.000 
#
# Total GULP energy -89425.428525 kJ/mol
# GULP energy per Si atom -5589.089283 kJ/mol
# Density = 2.355450 g / cm^3
# Si number density = 23.608237 Si / 1000 Ang^3
#
#
#
# Elastic Constant Matrix: (Units=GPa)
#
#
# Indices 1 2 3 4 5 6 
#
# 1 127.7398 48.3377 51.7096 -12.8689 6.8734 3.0613
# 2 48.3377 124.5180 16.9973 -6.6592 9.7830 -2.8037
# 3 51.7096 16.9973 74.9286 -4.1601 5.1793 -7.8022
# 4 -12.8689 -6.6592 -4.1601 27.2341 2.7488 1.7670
# 5 6.8734 9.7830 5.1793 2.7488 39.0664 -3.9875
# 6 3.0613 -2.8037 -7.8022 1.7670 -3.9875 59.1081
#
#
#
# Elastic Compliance Matrix: (Units=1/GPa)
#
#
# Indices 1 2 3 4 5 6 
#
# 1 0.013019 -0.003710 -0.008071 0.004229 -0.000803 -0.002096
# 2 -0.003710 0.009588 0.000619 0.000833 -0.001830 0.000580
# 3 -0.008071 0.000619 0.019097 -0.000844 -0.000908 0.002932
# 4 0.004229 0.000833 -0.000844 0.039285 -0.003780 -0.001720
# 5 -0.000803 -0.001830 -0.000908 -0.003780 0.026762 0.001753
# 6 -0.002096 0.000580 0.002932 -0.001720 0.001753 0.017611
#
#
# Mechanical properties :
#
#
# Convention : Reuss Voigt Hill
#
# Bulk Modulus (GPa) = 51.60272 62.36397 56.98335
# Shear Modulus (GPa) = 32.43656 39.09118 35.76387
#
# Velocity S-wave (km/s) = 3.71071 4.07360 3.89638
# Velocity P-wave (km/s) = 6.34543 6.97131 6.66572
#
# Compressibility (1/GPa) = 0.01937882
#
# Stress axis : x y z
#
# Youngs Moduli (GPa) = 76.81068 104.29509 52.36452
#
# Poissons Ratio (x) = 0.38696 0.42263
# Poissons Ratio (y) = 0.28498 -0.03239
# Poissons Ratio (z) = 0.61994 -0.06451
#
# Static dielectric constant tensor:
#      x y z
#    x 1.956780 0.031730 0.050380 
#    y 0.031730 1.861610 0.017710 
#    z 0.050380 0.017710 1.972140 
# 
# From -- ./inp_files/383380.got.cif
#   From: 2010.05.17/outbox.cif.g08.bks.cpg/sg2_192_cif.got.tgz:383380.got - 2010.06.03 11:33:40.
