data_PCOD9064465
_publ_section_title
;
Structure prediction by ZEFSAII (Michael W. Deem and Ramdas Pophale) SiO2 
 PCOD9064465
Probable space group: P -1
;
_chemical_formula_sum "Si O2"
_cell_formula_units_Z 16
_cell_length_a 8.567277
_cell_length_b 12.398822
_cell_length_c 20.636753
_cell_angle_alpha 150.214220
_cell_angle_beta 142.095454
_cell_angle_gamma 53.346738
_cell_volume 640.697233
_symmetry_space_group_name_H-M "P -1"
_symmetry_group_IT_number 2
_symmetry_cell_setting 'triclinic'
loop_
_space_group_symop_operation_xyz
x,y,z
-x,-y,-z
loop_
_atom_site_type_symbol
_atom_site_label
_atom_site_fract_x
_atom_site_fract_y
_atom_site_fract_z
Si Si1 0.071475 0.020836 0.243219
Si Si2 0.570721 0.608269 0.351406
Si Si3 0.748278 0.289320 0.954382
Si Si4 0.883632 0.193894 0.088531
Si Si5 0.417270 0.817115 0.799659
Si Si6 0.888114 0.405875 0.542604
Si Si7 0.840231 0.971184 0.367627
Si Si8 0.058498 0.726009 0.205671
O O1 0.166715 0.921734 0.158829
O O2 0.993871 0.810511 0.159072
O O3 0.301813 0.214426 0.456629
O O4 0.821661 0.122085 0.208851
O O5 0.454965 0.351370 0.207026
O O6 0.350519 0.695655 0.289069
O O7 0.812885 0.592134 0.377285
O O8 0.432508 0.222929 0.816561
O O9 0.838862 0.326664 0.078423
O O10 0.868535 0.498947 0.055882
O O11 0.081382 0.361446 0.289608
O O12 0.611011 0.051204 0.958979
O O13 0.000000 0.000000 0.000000
O O14 0.280067 0.661950 0.612877
O O15 0.773480 0.200166 0.446516
O O16 0.019754 0.916773 0.341235
O O17 0.000000 0.000000 0.500000
#
# Coordination Sequence:
#
# PCOD9064465 Si02
#       8
#     2   2   2   2   2   2   2   2
#     4  11  24  45  77 103 145 197 250 304 373 432
#     4  11  25  45  78 107 144 193 258 304 365 440
#     4  12  27  45  69 113 151 191 248 314 367 440
#     4  12  28  46  74 111 153 198 246 302 378 449
#     4  11  25  51  75 107 148 198 248 309 364 444
#     4  11  25  48  75 106 148 199 247 306 369 435
#     4  12  25  46  74 103 153 198 243 307 374 441
#     4  12  24  46  71 113 144 195 251 304 371 440
#
# _framework density 24.972794
#
# number of rings (size 3 to 8) (size 9 to 14) (size 15 to 20)
#    0.000    0.500    3.750    4.875    7.000    3.000 
#    0.000    0.000    0.000    0.000    0.000    0.000 
#    0.000    0.000    0.000    0.000    0.000    0.000 
#
# Total GULP energy -89747.182305 kJ/mol
# GULP energy per Si atom -5609.198894 kJ/mol
# Density = 2.491595 g / cm^3
# Si number density = 24.972794 Si / 1000 Ang^3
#
#
#
# Elastic Constant Matrix: (Units=GPa)
#
#
# Indices 1 2 3 4 5 6 
#
# 1 56.0279 23.4101 18.4057 -3.6445 -15.6578 14.5399
# 2 23.4101 115.6603 24.5591 13.4243 2.6328 6.6678
# 3 18.4057 24.5591 100.3853 19.7181 -18.6202 7.5894
# 4 -3.6445 13.4243 19.7181 42.0275 2.4213 4.8088
# 5 -15.6578 2.6328 -18.6202 2.4213 47.9252 7.8141
# 6 14.5399 6.6678 7.5894 4.8088 7.8141 40.4999
#
#
#
# Elastic Compliance Matrix: (Units=1/GPa)
#
#
# Indices 1 2 3 4 5 6 
#
# 1 0.026567 -0.005179 -0.002107 0.005630 0.009625 -0.010816
# 2 -0.005179 0.010380 -0.001666 -0.002970 -0.002986 0.001391
# 3 -0.002107 -0.001666 0.012954 -0.005825 0.005003 -0.001670
# 4 0.005630 -0.002970 -0.005825 0.028440 -0.001110 -0.003603
# 5 0.009625 -0.002986 0.005003 -0.001110 0.027659 -0.009106
# 6 -0.010816 0.001391 -0.001670 -0.003603 -0.009106 0.030843
#
#
# Mechanical properties :
#
#
# Convention : Reuss Voigt Hill
#
# Bulk Modulus (GPa) = 31.25126 44.98036 38.11581
# Shear Modulus (GPa) = 30.22743 39.80377 35.01560
#
# Velocity S-wave (km/s) = 3.48288 3.99668 3.74859
# Velocity P-wave (km/s) = 5.35865 6.27286 5.83369
#
# Compressibility (1/GPa) = 0.03199871
#
# Stress axis : x y z
#
# Youngs Moduli (GPa) = 37.64054 96.33499 77.19690
#
# Poissons Ratio (x) = 0.49891 0.16264
# Poissons Ratio (y) = 0.19494 0.12858
# Poissons Ratio (z) = 0.07930 0.16046
#
# Static dielectric constant tensor:
#      x y z
#    x 1.895060 -0.000450 -0.039710 
#    y -0.000450 1.956610 0.026470 
#    z -0.039710 0.026470 1.954370 
# 
# From -- ./inp_files/589752.got.cif
#   From: 2010.05.17/outbox.cif.g08.bks.cpg/sg2_295_cif.got.tgz:589752.got - 2010.06.03 11:33:40.
