data_PCOD9064109
_publ_section_title
;
Structure prediction by ZEFSAII (Michael W. Deem and Ramdas Pophale) SiO2 
 PCOD9064109
Probable space group: P -1
;
_chemical_formula_sum "Si O2"
_cell_formula_units_Z 14
_cell_length_a 8.266617
_cell_length_b 8.483543
_cell_length_c 12.199478
_cell_angle_alpha 64.870926
_cell_angle_beta 110.906964
_cell_angle_gamma 124.487306
_cell_volume 630.631587
_symmetry_space_group_name_H-M "P -1"
_symmetry_group_IT_number 2
_symmetry_cell_setting 'triclinic'
loop_
_space_group_symop_operation_xyz
x,y,z
-x,-y,-z
loop_
_atom_site_type_symbol
_atom_site_label
_atom_site_fract_x
_atom_site_fract_y
_atom_site_fract_z
Si Si1 0.807659 0.945205 0.262342
Si Si2 0.862995 0.079504 0.991253
Si Si3 0.464062 0.164771 0.383016
Si Si4 0.027839 0.522324 0.870868
Si Si5 0.141183 0.262245 0.372188
Si Si6 0.168008 0.432026 0.567636
Si Si7 0.533900 0.103201 0.173165
O O1 0.591867 0.926048 0.233959
O O2 0.923899 0.068484 0.362574
O O3 0.879035 0.072770 0.129315
O O4 0.849277 0.760908 0.315595
O O5 0.631630 0.942418 0.944684
O O6 0.949585 0.293269 0.889821
O O7 0.000000 0.000000 0.000000
O O8 0.283612 0.183955 0.384083
O O9 0.650765 0.379011 0.389574
O O10 0.444589 0.113886 0.265120
O O11 0.500000 0.000000 0.500000
O O12 0.881173 0.586645 0.759932
O O13 0.257091 0.687360 0.851289
O O14 0.000000 0.500000 0.000000
O O15 0.197480 0.371691 0.469589
O O16 0.000000 0.500000 0.500000
#
# Coordination Sequence:
#
# PCOD9064109 Si02
#       7
#     2   2   2   2   2   2   2
#     4  11  24  47  69 106 138 187 238 293 360 423
#     4  12  27  44  73 107 148 189 236 297 358 435
#     4  12  27  46  68 106 142 190 243 295 356 429
#     4  11  25  47  72 106 144 188 240 292 367 425
#     4  11  24  45  71 101 144 183 234 302 348 430
#     4  12  26  43  73 102 138 189 239 293 362 427
#     4  11  26  47  74 104 150 187 239 300 357 434
#
# _framework density 22.199967000000001
#
# number of rings (size 3 to 8) (size 9 to 14) (size 15 to 20)
#    0.000    0.571    2.857    5.571    8.000    0.571 
#    0.000    0.000    0.000    0.000    0.000    0.000 
#    0.000    0.000    0.000    0.000    0.000    0.000 
#
# Total GULP energy -78168.713569 kJ/mol
# GULP energy per Si atom -5583.479541 kJ/mol
# Density = 2.214944 g / cm^3
# Si number density = 22.199967 Si / 1000 Ang^3
#
#
#
# Elastic Constant Matrix: (Units=GPa)
#
#
# Indices 1 2 3 4 5 6 
#
# 1 133.6558 14.3908 25.3704 -14.7921 23.3939 -28.4394
# 2 14.3908 96.5576 27.5194 -21.8102 17.6074 -19.3871
# 3 25.3704 27.5194 103.2707 -17.8521 12.9847 -14.5969
# 4 -14.7921 -21.8102 -17.8521 40.5446 -9.7392 9.3534
# 5 23.3939 17.6074 12.9847 -9.7392 40.6654 3.0661
# 6 -28.4394 -19.3871 -14.5969 9.3534 3.0661 41.1111
#
#
#
# Elastic Compliance Matrix: (Units=1/GPa)
#
#
# Indices 1 2 3 4 5 6 
#
# 1 0.010489 0.001771 -0.000885 0.000859 -0.006923 0.008098
# 2 0.001771 0.014013 -0.001706 0.004462 -0.005975 0.006659
# 3 -0.000885 -0.001706 0.011379 0.002833 -0.001867 0.002118
# 4 0.000859 0.004462 0.002833 0.030458 0.004231 -0.003541
# 5 -0.006923 -0.005975 -0.001867 0.004231 0.033656 -0.011743
# 6 0.008098 0.006659 0.002118 -0.003541 -0.011743 0.035500
#
#
# Mechanical properties :
#
#
# Convention : Reuss Voigt Hill
#
# Bulk Modulus (GPa) = 29.20359 52.00504 40.60431
# Shear Modulus (GPa) = 33.65905 42.21111 37.93508
#
# Velocity S-wave (km/s) = 3.89803 4.36524 4.13824
# Velocity P-wave (km/s) = 5.78298 6.99169 6.41586
#
# Compressibility (1/GPa) = 0.03424237
#
# Stress axis : x y z
#
# Youngs Moduli (GPa) = 95.33619 71.36249 87.88034
#
# Poissons Ratio (x) = -0.12641 0.07780
# Poissons Ratio (y) = -0.16888 0.14989
# Poissons Ratio (z) = 0.08440 0.12171
#
# Static dielectric constant tensor:
#      x y z
#    x 1.864560 -0.082960 -0.016390 
#    y -0.082960 1.705620 -0.146500 
#    z -0.016390 -0.146500 1.763550 
# 
# From -- ./inp_files/271133.got.cif
#   From: 2010.05.17/outbox.cif.g08.bks.cpg/sg2_136_cif.got.tgz:271133.got - 2010.06.03 11:33:40.
