data_PCOD9064004
_publ_section_title
;
Structure prediction by ZEFSAII (Michael W. Deem and Ramdas Pophale) SiO2 
 PCOD9064004
Probable space group: P -1
;
_chemical_formula_sum "Si O2"
_cell_formula_units_Z 16
_cell_length_a 17.375632
_cell_length_b 8.954981
_cell_length_c 9.111670
_cell_angle_alpha 67.437598
_cell_angle_beta 73.118119
_cell_angle_gamma 32.847151
_cell_volume 708.690779
_symmetry_space_group_name_H-M "P -1"
_symmetry_group_IT_number 2
_symmetry_cell_setting 'triclinic'
loop_
_space_group_symop_operation_xyz
x,y,z
-x,-y,-z
loop_
_atom_site_type_symbol
_atom_site_label
_atom_site_fract_x
_atom_site_fract_y
_atom_site_fract_z
Si Si1 0.500840 0.691390 0.897695
Si Si2 0.899356 0.301593 0.572408
Si Si3 0.249253 0.772192 0.276400
Si Si4 0.731219 0.687236 0.233330
Si Si5 0.142382 0.301384 0.075986
Si Si6 0.452911 0.297465 0.799745
Si Si7 0.222199 0.894017 0.577129
Si Si8 0.752751 0.804509 0.646826
O O1 0.628108 0.507992 0.783293
O O2 0.361897 0.002569 0.784469
O O3 0.500000 0.500000 0.000000
O O4 0.518486 0.752731 0.022428
O O5 0.878457 0.146156 0.676127
O O6 0.841229 0.443640 0.387735
O O7 0.788576 0.580701 0.631438
O O8 0.060607 0.093695 0.592096
O O9 0.284371 0.745346 0.437381
O O10 0.222977 0.995237 0.143297
O O11 0.626710 0.717575 0.230881
O O12 0.798963 0.641997 0.063630
O O13 0.129607 0.365490 0.228084
O O14 0.000000 0.500000 0.000000
O O15 0.336461 0.632211 0.722809
O O16 0.602407 0.067046 0.717078
O O17 0.224915 0.081923 0.515289
#
# Coordination Sequence:
#
# PCOD9064004 Si02
#       8
#     2   2   2   2   2   2   2   2
#     4  12  25  45  70 104 138 187 235 290 348 422
#     4  12  27  45  74 105 141 185 238 290 349 416
#     4  11  24  45  69 104 137 182 237 282 351 413
#     4  12  25  45  71 101 147 183 232 293 351 416
#     4  11  25  46  73  96 145 193 233 286 354 418
#     4  12  26  44  72 106 143 183 233 293 353 413
#     4  11  25  47  71 101 146 183 231 290 352 420
#     4  11  25  46  70 106 139 186 238 285 353 422
#
# _framework density 22.576840000000001
#
# number of rings (size 3 to 8) (size 9 to 14) (size 15 to 20)
#    0.000    0.500    3.750    4.500    7.000    2.000 
#    0.000    1.250    0.000    0.000    0.000    0.000 
#    0.000    0.000    0.000    0.000    0.000    0.000 
#
# Total GULP energy -89385.550304 kJ/mol
# GULP energy per Si atom -5586.596894 kJ/mol
# Density = 2.252545 g / cm^3
# Si number density = 22.576840 Si / 1000 Ang^3
#
#
#
# Elastic Constant Matrix: (Units=GPa)
#
#
# Indices 1 2 3 4 5 6 
#
# 1 74.5857 5.7808 12.3994 -0.2117 -0.1979 10.0577
# 2 5.7808 68.5373 21.9716 10.2765 9.3032 -2.6648
# 3 12.3994 21.9716 49.0055 -9.0393 3.4493 -13.8942
# 4 -0.2117 10.2765 -9.0393 19.8856 -4.5771 7.8239
# 5 -0.1979 9.3032 3.4493 -4.5771 32.9679 -1.0633
# 6 10.0577 -2.6648 -13.8942 7.8239 -1.0633 30.0924
#
#
#
# Elastic Compliance Matrix: (Units=1/GPa)
#
#
# Indices 1 2 3 4 5 6 
#
# 1 0.015546 0.000252 -0.006313 0.000506 0.000488 -0.008203
# 2 0.000252 0.022896 -0.013249 -0.019941 -0.007818 0.000735
# 3 -0.006313 -0.013249 0.034590 0.018387 0.003029 0.012234
# 4 0.000506 -0.019941 0.018387 0.077318 0.014020 -0.013052
# 5 0.000488 -0.007818 0.003029 0.014020 0.034110 -0.001897
# 6 -0.008203 0.000735 0.012234 -0.013052 -0.001897 0.045013
#
#
# Mechanical properties :
#
#
# Convention : Reuss Voigt Hill
#
# Bulk Modulus (GPa) = 29.05944 30.27022 29.66483
# Shear Modulus (GPa) = 17.88491 26.72097 22.30294
#
# Velocity S-wave (km/s) = 2.81762 3.44402 3.14645
# Velocity P-wave (km/s) = 4.84609 5.40849 5.13500
#
# Compressibility (1/GPa) = 0.03441222
#
# Stress axis : x y z
#
# Youngs Moduli (GPa) = 64.32415 43.67503 28.90985
#
# Poissons Ratio (x) = -0.01098 0.18251
# Poissons Ratio (y) = -0.01618 0.38302
# Poissons Ratio (z) = 0.40608 0.57864
#
# Static dielectric constant tensor:
#      x y z
#    x 1.876560 0.100350 -0.058400 
#    y 0.100350 1.538860 0.106180 
#    z -0.058400 0.106180 1.828730 
# 
# From -- ./inp_files/297851.got.cif
#   From: 2010.05.17/outbox.cif.g08.bks.cpg/sg2_149_cif.got.tgz:297851.got - 2010.06.03 11:33:40.
