data_PCOD9064665
_publ_section_title
;
Structure prediction by ZEFSAII (Michael W. Deem and Ramdas Pophale) SiO2 
 PCOD9064665
Probable space group: P -1
;
_chemical_formula_sum "Si O2"
_cell_formula_units_Z 16
_cell_length_a 15.423590
_cell_length_b 11.540640
_cell_length_c 8.360481
_cell_angle_alpha 60.315044
_cell_angle_beta 112.818848
_cell_angle_gamma 148.814456
_cell_volume 667.321787
_symmetry_space_group_name_H-M "P -1"
_symmetry_group_IT_number 2
_symmetry_cell_setting 'triclinic'
loop_
_space_group_symop_operation_xyz
x,y,z
-x,-y,-z
loop_
_atom_site_type_symbol
_atom_site_label
_atom_site_fract_x
_atom_site_fract_y
_atom_site_fract_z
Si Si1 0.130330 0.636209 0.352016
Si Si2 0.919989 0.993486 0.588741
Si Si3 0.629847 0.267672 0.373099
Si Si4 0.223081 0.301343 0.838312
Si Si5 0.317941 0.481741 0.125535
Si Si6 0.332549 0.773350 0.939015
Si Si7 0.107746 0.766822 0.771274
Si Si8 0.710992 0.930629 0.997792
O O1 0.223328 0.613748 0.491405
O O2 0.000000 0.500000 0.500000
O O3 0.053819 0.507998 0.212015
O O4 0.242822 0.901261 0.216841
O O5 0.887733 0.107384 0.437343
O O6 0.057551 0.140170 0.728616
O O7 0.740072 0.713331 0.682664
O O8 0.000000 0.000000 0.500000
O O9 0.624695 0.419701 0.298730
O O10 0.652571 0.266869 0.201754
O O11 0.500000 0.000000 0.500000
O O12 0.269401 0.200641 0.945342
O O13 0.208183 0.330499 0.990175
O O14 0.518863 0.720813 0.068898
O O15 0.260945 0.553684 0.118607
O O16 0.244449 0.810216 0.828497
O O17 0.500000 0.000000 0.000000
O O18 0.150382 0.883202 0.891552
#
# Coordination Sequence:
#
# PCOD9064665 Si02
#       8
#     2   2   2   2   2   2   2   2
#     4  12  26  46  75 108 146 191 247 305 360 435
#     4  12  27  48  71 111 147 190 246 299 366 438
#     4  11  25  46  74 108 146 189 244 305 360 433
#     4  11  25  47  73 108 147 194 245 300 368 441
#     4  11  27  48  76 104 148 195 241 306 365 434
#     4  11  24  46  71 106 141 190 242 296 369 431
#     4  12  26  47  73 108 150 194 243 304 366 437
#     4  12  27  49  73 110 150 196 243 299 376 438
#
# _framework density 23.976438999999999
#
# number of rings (size 3 to 8) (size 9 to 14) (size 15 to 20)
#    0.000    0.500    5.000    2.625    3.500    3.500 
#    0.000    0.000    0.000    0.000    0.000    0.000 
#    0.000    0.000    0.000    0.000    0.000    0.000 
#
# Total GULP energy -89223.111821 kJ/mol
# GULP energy per Si atom -5576.444489 kJ/mol
# Density = 2.392187 g / cm^3
# Si number density = 23.976439 Si / 1000 Ang^3
#
#
#
# Elastic Constant Matrix: (Units=GPa)
#
#
# Indices 1 2 3 4 5 6 
#
# 1 96.4437 44.7746 43.7646 -20.5886 37.3020 -24.4473
# 2 44.7746 143.0653 59.4208 -12.8844 10.6770 -21.8028
# 3 43.7646 59.4208 120.6580 -38.9407 31.6574 -5.2136
# 4 -20.5886 -12.8844 -38.9407 72.6722 -6.9309 10.7415
# 5 37.3020 10.6770 31.6574 -6.9309 50.6140 -10.0974
# 6 -24.4473 -21.8028 -5.2136 10.7415 -10.0974 43.6350
#
#
#
# Elastic Compliance Matrix: (Units=1/GPa)
#
#
# Indices 1 2 3 4 5 6 
#
# 1 0.018562 -0.003436 -0.001300 0.002112 -0.010752 0.005520
# 2 -0.003436 0.010526 -0.005662 -0.002351 0.004379 0.004250
# 3 -0.001300 -0.005662 0.015607 0.007026 -0.007685 -0.005200
# 4 0.002112 -0.002351 0.007026 0.017999 -0.003885 -0.004482
# 5 -0.010752 0.004379 -0.007685 -0.003885 0.031740 0.003547
# 6 0.005520 0.004250 -0.005200 -0.004482 0.003547 0.029436
#
#
# Mechanical properties :
#
#
# Convention : Reuss Voigt Hill
#
# Bulk Modulus (GPa) = 41.83952 72.89855 57.36903
# Shear Modulus (GPa) = 32.75885 47.53135 40.14510
#
# Velocity S-wave (km/s) = 3.70035 4.45727 4.09633
# Velocity P-wave (km/s) = 5.97871 7.54718 6.80826
#
# Compressibility (1/GPa) = 0.02390085
#
# Stress axis : x y z
#
# Youngs Moduli (GPa) = 53.87259 95.00569 64.07521
#
# Poissons Ratio (x) = 0.32641 0.08328
# Poissons Ratio (y) = 0.18509 0.36276
# Poissons Ratio (z) = 0.07002 0.53788
#
# Static dielectric constant tensor:
#      x y z
#    x 1.814920 0.453960 -0.498640 
#    y 0.453960 1.123510 1.158110 
#    z -0.498640 1.158110 0.463710 
# 
# From -- ./inp_files/332936.got.cif
#   From: 2010.05.17/outbox.cif.g08.bks.cpg/sg2_167_cif.got.tgz:332936.got - 2010.06.03 11:33:40.
