data_PCOD9064090
_publ_section_title
;
Structure prediction by ZEFSAII (Michael W. Deem and Ramdas Pophale) SiO2 
 PCOD9064090
Probable space group: P -1
;
_chemical_formula_sum "Si O2"
_cell_formula_units_Z 16
_cell_length_a 7.098622
_cell_length_b 20.555298
_cell_length_c 20.555582
_cell_angle_alpha 159.307024
_cell_angle_beta 63.586572
_cell_angle_gamma 104.953649
_cell_volume 822.260274
_symmetry_space_group_name_H-M "P -1"
_symmetry_group_IT_number 2
_symmetry_cell_setting 'triclinic'
loop_
_space_group_symop_operation_xyz
x,y,z
-x,-y,-z
loop_
_atom_site_type_symbol
_atom_site_label
_atom_site_fract_x
_atom_site_fract_y
_atom_site_fract_z
Si Si1 0.788986 0.440948 0.977602
Si Si2 0.583115 0.775220 0.981292
Si Si3 0.260127 0.545570 0.462343
Si Si4 0.083235 0.435570 0.141612
Si Si5 0.760143 0.277440 0.694247
Si Si6 0.903328 0.181579 0.848130
Si Si7 0.403297 0.248616 0.415183
Si Si8 0.710966 0.766570 0.729922
O O1 0.823765 0.282966 0.765093
O O2 0.794573 0.337434 0.948913
O O3 0.524244 0.643981 0.195733
O O4 0.000000 0.500000 0.000000
O O5 0.316706 0.809345 0.068811
O O6 0.550927 0.004690 0.186532
O O7 0.693739 0.621201 0.758483
O O8 0.749887 0.668966 0.918998
O O9 0.424410 0.650219 0.522489
O O10 0.323763 0.411150 0.393250
O O11 0.975748 0.719944 0.668157
O O12 0.193721 0.547883 0.185149
O O13 0.816840 0.614383 0.373853
O O14 0.051040 0.262550 0.944350
O O15 0.924418 0.052993 0.425313
O O16 0.294703 0.256563 0.368016
O O17 0.500000 0.000000 0.000000
#
# Coordination Sequence:
#
# PCOD9064090 Si02
#       8
#     2   2   2   2   2   2   2   2
#     4  11  24  45  70  97 135 175 221 271 329 390
#     4  12  25  42  67  99 130 175 222 271 329 393
#     4  11  25  44  68  99 134 171 220 276 323 394
#     4  12  25  42  67  99 130 175 222 271 329 393
#     4  11  25  44  68  99 134 171 220 276 323 394
#     4  12  25  43  70  97 133 174 221 271 334 390
#     4  12  25  43  70  97 133 174 221 271 334 390
#     4  11  24  45  70  97 135 175 221 271 329 390
#
# _framework density 19.458561
#
# number of rings (size 3 to 8) (size 9 to 14) (size 15 to 20)
#    0.000    0.500    7.500    0.750    0.000    6.000 
#    0.000    0.000    0.000    0.000    0.000    0.000 
#    0.000    0.000    0.000    0.000    0.000    0.000 
#
# Total GULP energy -89514.427899 kJ/mol
# GULP energy per Si atom -5594.651744 kJ/mol
# Density = 1.941427 g / cm^3
# Si number density = 19.458561 Si / 1000 Ang^3
#
#
#
# Elastic Constant Matrix: (Units=GPa)
#
#
# Indices 1 2 3 4 5 6 
#
# 1 63.6697 -7.9748 7.5235 4.1100 -9.4167 19.0385
# 2 -7.9748 45.1858 -21.3351 -4.0630 -2.5311 1.2322
# 3 7.5235 -21.3351 73.7457 -10.3533 -14.0806 6.6375
# 4 4.1100 -4.0630 -10.3533 28.4444 5.0143 -2.6954
# 5 -9.4167 -2.5311 -14.0806 5.0143 23.4216 -6.8996
# 6 19.0385 1.2322 6.6375 -2.6954 -6.8996 38.9217
#
#
#
# Elastic Compliance Matrix: (Units=1/GPa)
#
#
# Indices 1 2 3 4 5 6 
#
# 1 0.020225 0.004217 0.000779 -0.004183 0.007251 -0.009163
# 2 0.004217 0.029067 0.010789 0.005564 0.009310 -0.002787
# 3 0.000779 0.010789 0.019862 0.006467 0.011560 -0.001613
# 4 -0.004183 0.005564 0.006467 0.040040 -0.004982 0.002657
# 5 0.007251 0.009310 0.011560 -0.004982 0.055730 0.003721
# 6 -0.009163 -0.002787 -0.001613 0.002657 0.003721 0.031382
#
#
# Mechanical properties :
#
#
# Convention : Reuss Voigt Hill
#
# Bulk Modulus (GPa) = 9.92818 15.44759 12.68788
# Shear Modulus (GPa) = 25.21300 31.78338 28.49819
#
# Velocity S-wave (km/s) = 3.60353 4.04590 3.83111
# Velocity P-wave (km/s) = 4.73573 5.45726 5.10925
#
# Compressibility (1/GPa) = 0.10072343
#
# Stress axis : x y z
#
# Youngs Moduli (GPa) = 49.44417 34.40321 50.34669
#
# Poissons Ratio (x) = -0.14508 -0.03921
# Poissons Ratio (y) = -0.20851 -0.54318
# Poissons Ratio (z) = -0.03850 -0.37117
#
# Static dielectric constant tensor:
#      x y z
#    x 1.653150 0.002310 -0.007900 
#    y 0.002310 1.664450 -0.009070 
#    z -0.007900 -0.009070 1.651200 
# 
# From -- ./inp_files/120379.got.cif
#   From: 2010.05.17/outbox.cif.g08.bks.cpg/sg2_61_cif.got.tgz:120379.got - 2010.06.03 11:33:40.
