data_PCOD9064982
_publ_section_title
;
Structure prediction by ZEFSAII (Michael W. Deem and Ramdas Pophale) SiO2 
 PCOD9064982
Probable space group: P -1
;
_chemical_formula_sum "Si O2"
_cell_formula_units_Z 11
_cell_length_a 10.659145
_cell_length_b 10.596167
_cell_length_c 7.280413
_cell_angle_alpha 44.207645
_cell_angle_beta 124.297324
_cell_angle_gamma 135.560705
_cell_volume 399.179109
_symmetry_space_group_name_H-M "P -1"
_symmetry_group_IT_number 2
_symmetry_cell_setting 'triclinic'
loop_
_space_group_symop_operation_xyz
x,y,z
-x,-y,-z
loop_
_atom_site_type_symbol
_atom_site_label
_atom_site_fract_x
_atom_site_fract_y
_atom_site_fract_z
Si Si1 0.147472 0.938957 0.697748
Si Si2 0.715585 0.062134 0.783732
Si Si3 0.522178 0.355515 0.524820
Si Si4 0.696317 0.289987 0.066727
Si Si5 0.000000 0.000000 0.000000
Si Si6 0.761790 0.509916 0.240752
O O1 0.140437 0.749194 0.775226
O O2 0.335306 0.138529 0.577405
O O3 0.181867 0.924919 0.955698
O O4 0.000000 0.000000 0.500000
O O5 0.763288 0.294763 0.515408
O O6 0.499194 0.902554 0.811042
O O7 0.796530 0.956216 0.833439
O O8 0.500000 0.500000 0.500000
O O9 0.596686 0.463476 0.280442
O O10 0.654763 0.311387 0.798236
O O11 0.750568 0.492501 0.029071
O O12 0.918347 0.741072 0.196373
#
# Coordination Sequence:
#
# PCOD9064982 Si02
#       6
#     2   2   2   2   1   2
#     4  11  24  46  78 121 156 197 263 328 397 474
#     4  11  24  49  79 109 163 205 252 334 396 468
#     4  11  24  48  78 110 158 207 255 321 399 474
#     4  11  24  49  80 116 152 206 265 319 399 479
#     4  12  30  46  72 120 154 204 270 322 386 462
#     4  12  25  50  80 108 162 211 257 323 396 466
#
# _framework density 27.556550999999999
#
# number of rings (size 3 to 8) (size 9 to 14) (size 15 to 20)
#    0.000    0.727    3.636    4.364    2.545    4.364 
#    3.273    2.727    0.000    0.000    0.000    0.000 
#    0.000    0.000    0.000    0.000    0.000    0.000 
#
# Total GULP energy -61376.606163 kJ/mol
# GULP energy per Si atom -5579.691469 kJ/mol
# Density = 2.749383 g / cm^3
# Si number density = 27.556551 Si / 1000 Ang^3
#
#
#
# Elastic Constant Matrix: (Units=GPa)
#
#
# Indices 1 2 3 4 5 6 
#
# 1 107.7083 -0.7099 32.4642 29.5766 22.3330 4.5631
# 2 -0.7099 81.6732 41.8550 -1.4499 -9.7208 -0.0537
# 3 32.4642 41.8550 113.0046 14.8371 9.2203 -3.2970
# 4 29.5766 -1.4499 14.8371 46.2826 -1.1081 -10.8038
# 5 22.3330 -9.7208 9.2203 -1.1081 65.4385 -2.5102
# 6 4.5631 -0.0537 -3.2970 -10.8038 -2.5102 35.6535
#
#
#
# Elastic Compliance Matrix: (Units=1/GPa)
#
#
# Indices 1 2 3 4 5 6 
#
# 1 0.013845 0.000887 -0.002877 -0.009208 -0.004541 -0.005147
# 2 0.000887 0.016127 -0.006767 0.002223 0.003091 0.000176
# 3 -0.002877 -0.006767 0.012654 -0.002310 -0.001819 0.000700
# 4 -0.009208 0.002223 -0.002310 0.030904 0.004731 0.010666
# 5 -0.004541 0.003091 -0.001819 0.004731 0.017746 0.003101
# 6 -0.005147 0.000176 0.000700 0.010666 0.003101 0.032222
#
#
# Mechanical properties :
#
#
# Convention : Reuss Voigt Hill
#
# Bulk Modulus (GPa) = 39.81906 49.95607 44.88756
# Shear Modulus (GPa) = 33.47125 44.72673 39.09899
#
# Velocity S-wave (km/s) = 3.48895 4.03313 3.77087
# Velocity P-wave (km/s) = 5.54181 6.31317 5.94002
#
# Compressibility (1/GPa) = 0.02511360
#
# Stress axis : x y z
#
# Youngs Moduli (GPa) = 72.22586 62.00833 79.02553
#
# Poissons Ratio (x) = -0.05502 0.22734
# Poissons Ratio (y) = -0.06408 0.53476
# Poissons Ratio (z) = 0.20778 0.41960
#
# Static dielectric constant tensor:
#      x y z
#    x 2.475940 0.373650 -0.089650 
#    y 0.373650 2.137770 0.154150 
#    z -0.089650 0.154150 2.140350 
# 
# From -- ./inp_files/251544.got.cif
#   From: 2010.05.17/outbox.cif.g08.bks.cpg/sg2_126_cif.got.tgz:251544.got - 2010.06.03 11:33:40.
