data_PCOD9064487
_publ_section_title
;
Structure prediction by ZEFSAII (Michael W. Deem and Ramdas Pophale) SiO2 
 PCOD9064487
Probable space group: P -1
;
_chemical_formula_sum "Si O2"
_cell_formula_units_Z 12
_cell_length_a 8.145002
_cell_length_b 12.714541
_cell_length_c 8.625287
_cell_angle_alpha 60.756072
_cell_angle_beta 40.851831
_cell_angle_gamma 51.029961
_cell_volume 454.110390
_symmetry_space_group_name_H-M "P -1"
_symmetry_group_IT_number 2
_symmetry_cell_setting 'triclinic'
loop_
_space_group_symop_operation_xyz
x,y,z
-x,-y,-z
loop_
_atom_site_type_symbol
_atom_site_label
_atom_site_fract_x
_atom_site_fract_y
_atom_site_fract_z
Si Si1 0.168677 0.587318 0.359115
Si Si2 0.339865 0.421263 0.820174
Si Si3 0.321063 0.744344 0.592212
Si Si4 0.524202 0.042880 0.777320
Si Si5 0.075777 0.839718 0.017591
Si Si6 0.815742 0.756491 0.770764
O O1 0.501724 0.514124 0.229403
O O2 0.000000 0.500000 0.500000
O O3 0.137401 0.711271 0.180191
O O4 0.011536 0.653837 0.580465
O O5 0.543450 0.627906 0.401160
O O6 0.406012 0.285106 0.966838
O O7 0.000000 0.500000 0.000000
O O8 0.295856 0.878603 0.428940
O O9 0.026765 0.745862 0.764156
O O10 0.316399 0.778790 0.753857
O O11 0.223234 0.134340 0.856985
O O12 0.669510 0.900189 0.690828
O O13 0.500000 0.000000 0.000000
O O14 0.000000 0.000000 0.000000
#
# Coordination Sequence:
#
# PCOD9064487 Si02
#       6
#     2   2   2   2   2   2
#     4  11  29  53  79 117 175 217 266 345 421 478
#     4  11  26  51  80 112 151 221 289 326 394 501
#     4  11  24  45  78 113 160 205 274 337 410 477
#     4  12  23  43  78 118 154 207 273 334 405 493
#     4  12  27  47  81 124 163 206 269 348 417 479
#     4  11  24  46  77 114 159 212 275 330 402 499
#
# _framework density 26.425294000000001
#
# number of rings (size 3 to 8) (size 9 to 14) (size 15 to 20)
#    0.000    0.667    3.333    2.500    2.333   11.333 
#    0.000    5.000    0.000    0.000    0.000    0.000 
#    0.000    0.000    0.000    0.000    0.000    0.000 
#
# Total GULP energy -66956.082712 kJ/mol
# GULP energy per Si atom -5579.673559 kJ/mol
# Density = 2.636515 g / cm^3
# Si number density = 26.425294 Si / 1000 Ang^3
#
#
#
# Elastic Constant Matrix: (Units=GPa)
#
#
# Indices 1 2 3 4 5 6 
#
# 1 135.2053 67.7835 64.6713 -2.6687 -15.1056 -3.9453
# 2 67.7835 154.4866 42.3584 5.5151 -4.4511 8.5987
# 3 64.6713 42.3584 153.4779 -36.0556 4.5814 8.7526
# 4 -2.6687 5.5151 -36.0556 55.3282 -2.8875 -1.4491
# 5 -15.1056 -4.4511 4.5814 -2.8875 53.5150 2.9132
# 6 -3.9453 8.5987 8.7526 -1.4491 2.9132 56.0153
#
#
#
# Elastic Compliance Matrix: (Units=1/GPa)
#
#
# Indices 1 2 3 4 5 6 
#
# 1 0.011939 -0.003936 -0.004573 -0.001792 0.003232 0.001945
# 2 -0.003936 0.008624 -0.001048 -0.001788 -0.000321 -0.001467
# 3 -0.004573 -0.001048 0.010408 0.006531 -0.001834 -0.001523
# 4 -0.001792 -0.001788 0.006531 0.022415 0.000012 -0.000293
# 5 0.003232 -0.000321 -0.001834 0.000012 0.019755 -0.000464
# 6 0.001945 -0.001467 -0.001523 -0.000293 -0.000464 0.018469
#
#
# Mechanical properties :
#
#
# Convention : Reuss Voigt Hill
#
# Bulk Modulus (GPa) = 84.34511 88.08847 86.21679
# Shear Modulus (GPa) = 43.60148 50.86211 47.23179
#
# Velocity S-wave (km/s) = 4.06641 4.39196 4.23232
# Velocity P-wave (km/s) = 7.35087 7.68936 7.52202
#
# Compressibility (1/GPa) = 0.01185605
#
# Stress axis : x y z
#
# Youngs Moduli (GPa) = 83.75838 115.96044 96.08284
#
# Poissons Ratio (x) = 0.45640 0.43939
# Poissons Ratio (y) = 0.32966 0.10073
# Poissons Ratio (z) = 0.38303 0.12157
#
# Static dielectric constant tensor:
#      x y z
#    x 2.112790 0.024810 -0.063230 
#    y 0.024810 2.261870 -0.101720 
#    z -0.063230 -0.101720 2.196080 
# 
# From -- ./inp_files/395157.got.cif
#   From: 2010.05.17/outbox.cif.g08.bks.cpg/sg2_198_cif.got.tgz:395157.got - 2010.06.03 11:33:40.
