data_PCOD9064451
_publ_section_title
;
Structure prediction by ZEFSAII (Michael W. Deem and Ramdas Pophale) SiO2 
 PCOD9064451
Probable space group: P -1
;
_chemical_formula_sum "Si O2"
_cell_formula_units_Z 14
_cell_length_a 13.698200
_cell_length_b 26.591678
_cell_length_c 11.716561
_cell_angle_alpha 154.011455
_cell_angle_beta 30.834640
_cell_angle_gamma 161.004283
_cell_volume 607.586267
_symmetry_space_group_name_H-M "P -1"
_symmetry_group_IT_number 2
_symmetry_cell_setting 'triclinic'
loop_
_space_group_symop_operation_xyz
x,y,z
-x,-y,-z
loop_
_atom_site_type_symbol
_atom_site_label
_atom_site_fract_x
_atom_site_fract_y
_atom_site_fract_z
Si Si1 0.835430 0.696040 0.527732
Si Si2 0.658773 0.413826 0.730508
Si Si3 0.807914 0.235688 0.222882
Si Si4 0.029628 0.586299 0.941124
Si Si5 0.060963 0.150709 0.693657
Si Si6 0.007524 0.316818 0.429244
Si Si7 0.604503 0.718754 0.611907
O O1 0.500000 0.500000 0.500000
O O2 0.011546 0.776119 0.634144
O O3 0.792018 0.788335 0.682054
O O4 0.976728 0.662994 0.238827
O O5 0.600049 0.249657 0.451027
O O6 0.340792 0.323241 0.843374
O O7 0.878360 0.551169 0.687608
O O8 0.837832 0.521158 0.886398
O O9 0.824856 0.199125 0.260301
O O10 0.808373 0.130348 0.920418
O O11 0.921194 0.409734 0.735778
O O12 0.381325 0.724270 0.843420
O O13 0.182508 0.193171 0.530661
O O14 0.000000 0.000000 0.500000
O O15 0.358013 0.499954 0.416172
#
# Coordination Sequence:
#
# PCOD9064451 Si02
#       7
#     2   2   2   2   2   2   2
#     4  10  18  27  51  83 111 130 161 219 278 304
#     4  10  19  34  57  78 103 143 170 225 277 299
#     4  10  19  35  56  80 108 132 185 221 261 323
#     4   9  18  30  49  80 111 127 169 215 265 318
#     4  12  24  35  53  79 110 146 178 218 266 319
#     4   8  17  30  49  81 105 132 167 217 268 302
#     4   9  19  33  48  77 106 138 173 209 265 306
#
# _framework density 23.041998
#
# number of rings (size 3 to 8) (size 9 to 14) (size 15 to 20)
#    0.857    1.429    1.429    2.571    4.000    0.571 
#    0.000    0.000    0.000    0.857    0.000    3.000 
#    0.000    0.000    0.000    0.000    0.000    0.000 
#
# Total GULP energy -78040.561747 kJ/mol
# GULP energy per Si atom -5574.325839 kJ/mol
# Density = 2.298955 g / cm^3
# Si number density = 23.041998 Si / 1000 Ang^3
#
#
#
# Elastic Constant Matrix: (Units=GPa)
#
#
# Indices 1 2 3 4 5 6 
#
# 1 159.7308 29.8942 12.4336 -16.6821 5.0337 -17.0684
# 2 29.8942 26.4159 27.4769 -10.2426 1.0295 -8.7483
# 3 12.4336 27.4769 83.1934 -25.4456 -5.6845 -4.4124
# 4 -16.6821 -10.2426 -25.4456 35.8551 2.0294 -5.1279
# 5 5.0337 1.0295 -5.6845 2.0294 24.1702 -8.3431
# 6 -17.0684 -8.7483 -4.4124 -5.1279 -8.3431 26.5312
#
#
#
# Elastic Compliance Matrix: (Units=1/GPa)
#
#
# Indices 1 2 3 4 5 6 
#
# 1 0.008879 -0.011340 0.003905 0.004148 0.000433 0.003560
# 2 -0.011340 0.081971 -0.023421 0.003909 -0.001389 0.016157
# 3 0.003905 -0.023421 0.023281 0.011715 0.005604 0.002688
# 4 0.004148 0.003909 0.011715 0.041194 0.003425 0.014944
# 5 0.000433 -0.001389 0.005604 0.003425 0.048080 0.016534
# 6 0.003560 0.016157 0.002688 0.014944 0.016534 0.053844
#
#
# Mechanical properties :
#
#
# Convention : Reuss Voigt Hill
#
# Bulk Modulus (GPa) = 19.07674 45.43886 32.25780
# Shear Modulus (GPa) = 14.86186 30.61366 22.73776
#
# Velocity S-wave (km/s) = 2.54242 3.64895 3.14474
# Velocity P-wave (km/s) = 4.11286 6.12503 5.21688
#
# Compressibility (1/GPa) = 0.05241987
#
# Stress axis : x y z
#
# Youngs Moduli (GPa) = 112.62827 12.19949 42.95411
#
# Poissons Ratio (x) = 0.13834 -0.16775
# Poissons Ratio (y) = 1.27715 1.00602
# Poissons Ratio (z) = -0.43985 0.28572
#
# Static dielectric constant tensor:
#      x y z
#    x 1.899490 0.026030 -0.015000 
#    y 0.026030 1.952590 0.063490 
#    z -0.015000 0.063490 1.917910 
# 
# From -- ./inp_files/458283.got.cif
#   From: 2010.05.17/outbox.cif.g08.bks.cpg/sg2_230_cif.got.tgz:458283.got - 2010.06.03 11:33:40.
