data_PCOD9064315
_publ_section_title
;
Structure prediction by ZEFSAII (Michael W. Deem and Ramdas Pophale) SiO2 
 PCOD9064315
Probable space group: P -1
;
_chemical_formula_sum "Si O2"
_cell_formula_units_Z 16
_cell_length_a 9.416291
_cell_length_b 12.829739
_cell_length_c 11.341110
_cell_angle_alpha 109.599873
_cell_angle_beta 142.526442
_cell_angle_gamma 52.116175
_cell_volume 624.115107
_symmetry_space_group_name_H-M "P -1"
_symmetry_group_IT_number 2
_symmetry_cell_setting 'triclinic'
loop_
_space_group_symop_operation_xyz
x,y,z
-x,-y,-z
loop_
_atom_site_type_symbol
_atom_site_label
_atom_site_fract_x
_atom_site_fract_y
_atom_site_fract_z
Si Si1 0.341987 0.872441 0.435257
Si Si2 0.761062 0.559842 0.694733
Si Si3 0.813171 0.279945 0.047060
Si Si4 0.926403 0.388991 0.387434
Si Si5 0.661930 0.046187 0.049340
Si Si6 0.693946 0.462396 0.847907
Si Si7 0.253626 0.319430 0.780779
Si Si8 0.644762 0.017708 0.746944
O O1 0.451657 0.962016 0.582989
O O2 0.932890 0.340422 0.239441
O O3 0.401447 0.867943 0.332101
O O4 0.999284 0.960826 0.275680
O O5 0.524162 0.717833 0.553701
O O6 0.651532 0.505363 0.701175
O O7 0.935487 0.448551 0.664227
O O8 0.037641 0.541922 0.930378
O O9 0.801186 0.314291 0.913839
O O10 0.487534 0.342167 0.897611
O O11 0.035894 0.116085 0.141323
O O12 0.610047 0.439788 0.245067
O O13 0.000000 0.500000 0.500000
O O14 0.161836 0.269070 0.589344
O O15 0.434683 0.214304 0.967907
O O16 0.668502 0.026734 0.905428
O O17 0.500000 0.000000 0.000000
#
# Coordination Sequence:
#
# PCOD9064315 Si02
#       8
#     2   2   2   2   2   2   2   2
#     4  11  26  51  82 109 154 209 263 316 391 468
#     4  11  26  49  76 116 156 206 251 323 399 456
#     4  12  24  49  78 113 156 205 265 319 384 468
#     4  12  26  42  76 116 155 199 259 324 389 458
#     4  12  31  51  76 117 162 204 260 326 390 468
#     4  11  24  45  73 110 160 200 251 316 391 460
#     4  12  28  47  76 115 160 204 263 319 389 462
#     4  11  27  50  82 110 153 212 267 314 389 467
#
# _framework density 25.636296000000002
#
# number of rings (size 3 to 8) (size 9 to 14) (size 15 to 20)
#    0.000    0.500    5.000    1.500    7.000    2.000 
#    0.000    0.000    0.000    0.000    0.000    0.000 
#    0.000    0.000    0.000    0.000    0.000    0.000 
#
# Total GULP energy -89419.176681 kJ/mol
# GULP energy per Si atom -5588.698543 kJ/mol
# Density = 2.557795 g / cm^3
# Si number density = 25.636296 Si / 1000 Ang^3
#
#
#
# Elastic Constant Matrix: (Units=GPa)
#
#
# Indices 1 2 3 4 5 6 
#
# 1 196.5378 56.9206 65.2079 -11.9762 -0.2006 40.2751
# 2 56.9206 81.7043 46.6618 -9.2686 -7.0738 21.4468
# 3 65.2079 46.6618 180.8971 -18.6758 10.3307 14.8732
# 4 -11.9762 -9.2686 -18.6758 36.5690 -1.0907 -0.0899
# 5 -0.2006 -7.0738 10.3307 -1.0907 51.3383 -5.6113
# 6 40.2751 21.4468 14.8732 -0.0899 -5.6113 28.7903
#
#
#
# Elastic Compliance Matrix: (Units=1/GPa)
#
#
# Indices 1 2 3 4 5 6 
#
# 1 0.008210 -0.002477 -0.001379 0.001304 -0.001001 -0.009118
# 2 -0.002477 0.018305 -0.003051 0.002319 0.002286 -0.008142
# 3 -0.001379 -0.003051 0.007145 0.002371 -0.001795 0.000168
# 4 0.001304 0.002319 0.002371 0.029559 -0.000037 -0.004692
# 5 -0.001001 0.002286 -0.001795 -0.000037 0.020658 0.004651
# 6 -0.009118 -0.008142 0.000168 -0.004692 0.004651 0.054360
#
#
# Mechanical properties :
#
#
# Convention : Reuss Voigt Hill
#
# Bulk Modulus (GPa) = 50.38454 88.52442 69.45448
# Shear Modulus (GPa) = 31.51235 42.69612 37.10424
#
# Velocity S-wave (km/s) = 3.50981 4.08543 3.80851
# Velocity P-wave (km/s) = 6.01010 7.54057 6.81841
#
# Compressibility (1/GPa) = 0.01984736
#
# Stress axis : x y z
#
# Youngs Moduli (GPa) = 121.80127 54.62846 139.94849
#
# Poissons Ratio (x) = 0.13533 0.19298
# Poissons Ratio (y) = 0.30174 0.42692
# Poissons Ratio (z) = 0.16796 0.16665
#
# Static dielectric constant tensor:
#      x y z
#    x 2.011280 -0.006070 -0.065030 
#    y -0.006070 2.238730 -0.023170 
#    z -0.065030 -0.023170 2.147060 
# 
# From -- ./inp_files/397517.got.cif
#   From: 2010.05.17/outbox.cif.g08.bks.cpg/sg2_199_cif.got.tgz:397517.got - 2010.06.03 11:33:40.
