data_PCOD9064968
_publ_section_title
;
Structure prediction by ZEFSAII (Michael W. Deem and Ramdas Pophale) SiO2 
 PCOD9064968
Probable space group: P -1
;
_chemical_formula_sum "Si O2"
_cell_formula_units_Z 16
_cell_length_a 13.640609
_cell_length_b 8.971369
_cell_length_c 16.248090
_cell_angle_alpha 143.239891
_cell_angle_beta 147.597437
_cell_angle_gamma 41.310716
_cell_volume 620.106949
_symmetry_space_group_name_H-M "P -1"
_symmetry_group_IT_number 2
_symmetry_cell_setting 'triclinic'
loop_
_space_group_symop_operation_xyz
x,y,z
-x,-y,-z
loop_
_atom_site_type_symbol
_atom_site_label
_atom_site_fract_x
_atom_site_fract_y
_atom_site_fract_z
Si Si1 0.777937 0.301440 0.258738
Si Si2 0.851555 0.008382 0.327961
Si Si3 0.601363 0.462105 0.643618
Si Si4 0.455290 0.996195 0.111182
Si Si5 0.292263 0.235013 0.376157
Si Si6 0.885969 0.055218 0.753831
Si Si7 0.908247 0.431975 0.088357
Si Si8 0.450259 0.735797 0.163683
O O1 0.653817 0.572819 0.264558
O O2 0.866610 0.248492 0.387480
O O3 0.932647 0.155128 0.239694
O O4 0.627796 0.123447 0.077221
O O5 0.888592 0.730228 0.186717
O O6 0.658296 0.029452 0.248333
O O7 0.000000 0.000000 0.500000
O O8 0.500000 0.500000 0.500000
O O9 0.660879 0.722596 0.822777
O O10 0.437434 0.414627 0.567171
O O11 0.777883 0.226643 0.678861
O O12 0.454042 0.800649 0.098725
O O13 0.093972 0.348123 0.239805
O O14 0.250212 0.102714 0.370764
O O15 0.401341 0.008737 0.294097
O O16 0.924076 0.247324 0.937992
O O17 0.721400 0.392726 0.987393
#
# Coordination Sequence:
#
# PCOD9064968 Si02
#       8
#     2   2   2   2   2   2   2   2
#     4  12  27  48  76 110 144 190 250 298 359 438
#     4  12  29  47  71 106 154 193 237 300 372 428
#     4  12  27  47  71 106 153 190 242 299 363 431
#     4  12  25  46  77 104 144 199 240 298 363 427
#     4  11  24  48  76 106 147 194 241 300 362 428
#     4  11  27  46  79 110 139 195 247 302 359 424
#     4  11  24  49  79 107 143 190 253 298 354 436
#     4  11  24  46  78 106 148 190 246 297 357 436
#
# _framework density 25.802002000000002
#
# number of rings (size 3 to 8) (size 9 to 14) (size 15 to 20)
#    0.000    0.500    2.500    5.625    8.750    1.000 
#    2.250    1.250    0.000    0.000    0.000    0.000 
#    0.000    0.000    0.000    0.000    0.000    0.000 
#
# Total GULP energy -89715.001049 kJ/mol
# GULP energy per Si atom -5607.187566 kJ/mol
# Density = 2.574328 g / cm^3
# Si number density = 25.802002 Si / 1000 Ang^3
#
#
#
# Elastic Constant Matrix: (Units=GPa)
#
#
# Indices 1 2 3 4 5 6 
#
# 1 115.8744 46.2665 6.0058 -11.6664 17.4347 -8.3568
# 2 46.2665 195.0608 18.4678 -19.8573 -3.2358 1.0165
# 3 6.0058 18.4678 59.9127 -1.2119 5.8334 -0.5246
# 4 -11.6664 -19.8573 -1.2119 45.1990 6.7949 1.1328
# 5 17.4347 -3.2358 5.8334 6.7949 31.0926 -3.7977
# 6 -8.3568 1.0165 -0.5246 1.1328 -3.7977 41.7581
#
#
#
# Elastic Compliance Matrix: (Units=1/GPa)
#
#
# Indices 1 2 3 4 5 6 
#
# 1 0.011043 -0.002500 0.000409 0.002767 -0.006942 0.001570
# 2 -0.002500 0.006098 -0.001787 0.001709 0.001932 -0.000542
# 3 0.000409 -0.001787 0.017577 0.000362 -0.003793 -0.000009
# 4 0.002767 0.001709 0.000362 0.024660 -0.006927 -0.000782
# 5 -0.006942 0.001932 -0.003793 -0.006927 0.038753 0.002228
# 6 0.001570 -0.000542 -0.000009 -0.000782 0.002228 0.024499
#
#
# Mechanical properties :
#
#
# Convention : Reuss Voigt Hill
#
# Bulk Modulus (GPa) = 37.08820 56.92534 47.00677
# Shear Modulus (GPa) = 35.87483 43.61713 39.74598
#
# Velocity S-wave (km/s) = 3.73284 4.11597 3.92908
# Velocity P-wave (km/s) = 5.74318 6.68570 6.23228
#
# Compressibility (1/GPa) = 0.02696275
#
# Stress axis : x y z
#
# Youngs Moduli (GPa) = 90.55258 163.99997 56.89111
#
# Poissons Ratio (x) = 0.40995 -0.02328
# Poissons Ratio (y) = 0.22636 0.10168
# Poissons Ratio (z) = -0.03705 0.29311
#
# Static dielectric constant tensor:
#      x y z
#    x 2.020850 -0.023850 -0.025680 
#    y -0.023850 2.068570 0.029030 
#    z -0.025680 0.029030 2.055190 
# 
# From -- ./inp_files/572948.got.cif
#   From: 2010.05.17/outbox.cif.g08.bks.cpg/sg2_287_cif.got.tgz:572948.got - 2010.06.03 11:33:40.
