data_PCOD9064839
_publ_section_title
;
Structure prediction by ZEFSAII (Michael W. Deem and Ramdas Pophale) SiO2 
 PCOD9064839
Probable space group: P -1
;
_chemical_formula_sum "Si O2"
_cell_formula_units_Z 12
_cell_length_a 5.125875
_cell_length_b 15.915077
_cell_length_c 7.121453
_cell_angle_alpha 123.327810
_cell_angle_beta 109.340032
_cell_angle_gamma 61.907718
_cell_volume 426.154586
_symmetry_space_group_name_H-M "P -1"
_symmetry_group_IT_number 2
_symmetry_cell_setting 'triclinic'
loop_
_space_group_symop_operation_xyz
x,y,z
-x,-y,-z
loop_
_atom_site_type_symbol
_atom_site_label
_atom_site_fract_x
_atom_site_fract_y
_atom_site_fract_z
Si Si1 0.737566 0.020792 0.710857
Si Si2 0.217463 0.747415 0.086643
Si Si3 0.346773 0.161098 0.067276
Si Si4 0.178690 0.591373 0.540552
Si Si5 0.728047 0.561979 0.152301
Si Si6 0.106370 0.798714 0.646277
O O1 0.582583 0.049792 0.912853
O O2 0.016618 0.907757 0.636364
O O3 0.500000 0.000000 0.500000
O O4 0.780997 0.131934 0.805198
O O5 0.207324 0.661552 0.814921
O O6 0.866290 0.784953 0.095620
O O7 0.503352 0.683587 0.198402
O O8 0.555442 0.225790 0.244723
O O9 0.142800 0.164099 0.201276
O O10 0.500000 0.500000 0.500000
O O11 0.119830 0.679112 0.460114
O O12 0.898279 0.556353 0.384187
O O13 0.500000 0.500000 0.000000
O O14 0.000000 0.500000 0.000000
#
# Coordination Sequence:
#
# PCOD9064839 Si02
#       6
#     2   2   2   2   2   2
#     4  12  26  48  77 112 155 196 251 325 385 449
#     4  11  27  49  77 112 155 196 261 310 383 460
#     4  11  24  46  74 106 149 198 249 310 374 455
#     4  11  24  49  80 110 151 207 253 308 385 451
#     4  12  29  49  75 112 156 196 257 318 376 454
#     4  11  26  47  76 109 150 199 260 304 378 462
#
# _framework density 28.158794
#
# number of rings (size 3 to 8) (size 9 to 14) (size 15 to 20)
#    0.000    0.667    5.000    2.000    7.000    4.000 
#    6.000    0.000    0.000    0.000    0.000    0.000 
#    0.000    0.000    0.000    0.000    0.000    0.000 
#
# Total GULP energy -66934.114488 kJ/mol
# GULP energy per Si atom -5577.842874 kJ/mol
# Density = 2.809470 g / cm^3
# Si number density = 28.158794 Si / 1000 Ang^3
#
#
#
# Elastic Constant Matrix: (Units=GPa)
#
#
# Indices 1 2 3 4 5 6 
#
# 1 119.7218 14.9961 32.8348 -5.4344 23.1711 -10.9950
# 2 14.9961 201.4394 25.6956 0.6766 20.0235 -30.3056
# 3 32.8348 25.6956 171.9257 -13.4742 30.0101 1.2441
# 4 -5.4344 0.6766 -13.4742 54.1484 -20.9815 2.0441
# 5 23.1711 20.0235 30.0101 -20.9815 53.2273 -7.4348
# 6 -10.9950 -30.3056 1.2441 2.0441 -7.4348 37.7180
#
#
#
# Elastic Compliance Matrix: (Units=1/GPa)
#
#
# Indices 1 2 3 4 5 6 
#
# 1 0.009541 0.000152 -0.001321 -0.000800 -0.003459 0.002308
# 2 0.000152 0.005897 -0.000738 -0.001053 -0.001650 0.004539
# 3 -0.001321 -0.000738 0.006757 0.000451 -0.003034 -0.001823
# 4 -0.000800 -0.001053 0.000451 0.022065 0.009119 -0.000492
# 5 -0.003459 -0.001650 -0.003034 0.009119 0.026569 0.002509
# 6 0.002308 0.004539 -0.001823 -0.000492 0.002509 0.031414
#
#
# Mechanical properties :
#
#
# Convention : Reuss Voigt Hill
#
# Bulk Modulus (GPa) = 54.39853 71.12664 62.76259
# Shear Modulus (GPa) = 44.56962 56.98945 50.77953
#
# Velocity S-wave (km/s) = 3.98275 4.50361 4.25117
# Velocity P-wave (km/s) = 6.36476 7.23584 6.81423
#
# Compressibility (1/GPa) = 0.01838285
#
# Stress axis : x y z
#
# Youngs Moduli (GPa) = 104.81099 169.56453 147.99244
#
# Poissons Ratio (x) = -0.02577 0.19543
# Poissons Ratio (y) = -0.01593 0.10920
# Poissons Ratio (z) = 0.13840 0.12511
#
# Static dielectric constant tensor:
#      x y z
#    x 2.338060 0.203510 -0.081650 
#    y 0.203510 2.441240 -0.027100 
#    z -0.081650 -0.027100 2.327300 
# 
# From -- ./inp_files/370483.got.cif
#   From: 2010.05.17/outbox.cif.g08.bks.cpg/sg2_186_cif.got.tgz:370483.got - 2010.06.03 11:33:40.
