data_PCOD9064997
_publ_section_title
;
Structure prediction by ZEFSAII (Michael W. Deem and Ramdas Pophale) SiO2 
 PCOD9064997
Probable space group: P -1
;
_chemical_formula_sum "Si O2"
_cell_formula_units_Z 16
_cell_length_a 14.920238
_cell_length_b 12.570598
_cell_length_c 9.291898
_cell_angle_alpha 145.427332
_cell_angle_beta 60.614784
_cell_angle_gamma 137.458092
_cell_volume 637.353532
_symmetry_space_group_name_H-M "P -1"
_symmetry_group_IT_number 2
_symmetry_cell_setting 'triclinic'
loop_
_space_group_symop_operation_xyz
x,y,z
-x,-y,-z
loop_
_atom_site_type_symbol
_atom_site_label
_atom_site_fract_x
_atom_site_fract_y
_atom_site_fract_z
Si Si1 0.657496 0.075370 0.544747
Si Si2 0.592543 0.411506 0.934167
Si Si3 0.806244 0.598473 0.432785
Si Si4 0.387007 0.940275 0.129957
Si Si5 0.029841 0.578808 0.230893
Si Si6 0.215684 0.271377 0.111242
Si Si7 0.022983 0.735393 0.814554
Si Si8 0.357347 0.316119 0.501570
O O1 0.672054 0.309798 0.753738
O O2 0.808571 0.192542 0.603216
O O3 0.566068 0.850618 0.253529
O O4 0.565732 0.971536 0.647026
O O5 0.661338 0.604721 0.961729
O O6 0.614117 0.549114 0.218027
O O7 0.737349 0.547469 0.585751
O O8 0.774955 0.750021 0.542589
O O9 0.953243 0.682775 0.440864
O O10 0.731192 0.359007 0.121819
O O11 0.329723 0.065368 0.261933
O O12 0.500000 0.000000 0.000000
O O13 0.976895 0.339001 0.103461
O O14 0.000000 0.500000 0.000000
O O15 0.096119 0.253872 0.110664
O O16 0.152853 0.005012 0.938366
O O17 0.000000 0.500000 0.500000
O O18 0.500000 0.500000 0.500000
#
# Coordination Sequence:
#
# PCOD9064997 Si02
#       8
#     2   2   2   2   2   2   2   2
#     4  11  24  46  81 119 161 218 271 343 413 481
#     4  11  24  50  79 121 166 211 277 346 410 495
#     4  12  26  48  76 117 155 213 270 332 409 483
#     4  12  24  48  78 111 157 206 269 336 414 487
#     4  12  24  48  80 117 165 218 276 334 413 487
#     4  11  26  48  79 119 161 214 276 339 406 496
#     4  11  25  50  75 116 163 218 271 332 412 485
#     4  12  27  50  76 119 159 210 272 337 418 494
#
# _framework density 25.103805000000001
#
# number of rings (size 3 to 8) (size 9 to 14) (size 15 to 20)
#    0.000    0.500    6.250    0.750    1.750    2.500 
#    2.250    1.250    0.000    0.000    0.000    0.000 
#    0.000    0.000    0.000    0.000    0.000    0.000 
#
# Total GULP energy -89500.963562 kJ/mol
# GULP energy per Si atom -5593.810223 kJ/mol
# Density = 2.504667 g / cm^3
# Si number density = 25.103805 Si / 1000 Ang^3
#
#
#
# Elastic Constant Matrix: (Units=GPa)
#
#
# Indices 1 2 3 4 5 6 
#
# 1 155.9588 44.8561 63.4801 5.4840 -18.6494 -22.6673
# 2 44.8561 135.1420 47.3486 -6.2432 -3.3517 -16.6821
# 3 63.4801 47.3486 101.8558 -8.1513 -6.9324 -7.0866
# 4 5.4840 -6.2432 -8.1513 43.8013 -13.4539 -0.1401
# 5 -18.6494 -3.3517 -6.9324 -13.4539 46.9924 8.3181
# 6 -22.6673 -16.6821 -7.0866 -0.1401 8.3181 49.9397
#
#
#
# Elastic Compliance Matrix: (Units=1/GPa)
#
#
# Indices 1 2 3 4 5 6 
#
# 1 0.009576 -0.000987 -0.005312 -0.001725 0.001933 0.002936
# 2 -0.000987 0.009250 -0.003509 0.000656 -0.000455 0.002222
# 3 -0.005312 -0.003509 0.014982 0.003279 0.001079 -0.001628
# 4 -0.001725 0.000656 0.003279 0.026060 0.007534 -0.001280
# 5 0.001933 -0.000455 0.001079 0.007534 0.024906 -0.003249
# 6 0.002936 0.002222 -0.001628 -0.001280 -0.003249 0.022406
#
#
# Mechanical properties :
#
#
# Convention : Reuss Voigt Hill
#
# Bulk Modulus (GPa) = 70.45466 78.25846 74.35656
# Shear Modulus (GPa) = 38.01545 43.96480 40.99013
#
# Velocity S-wave (km/s) = 3.89566 4.18942 4.04521
# Velocity P-wave (km/s) = 6.95422 7.39211 7.17650
#
# Compressibility (1/GPa) = 0.01419352
#
# Stress axis : x y z
#
# Youngs Moduli (GPa) = 104.42308 108.11095 66.74688
#
# Poissons Ratio (x) = 0.10668 0.35455
# Poissons Ratio (y) = 0.10304 0.23419
# Poissons Ratio (z) = 0.55468 0.37933
#
# Static dielectric constant tensor:
#      x y z
#    x 1.499210 0.361430 0.255870 
#    y 0.361430 1.853780 -0.128610 
#    z 0.255870 -0.128610 1.873070 
# 
# From -- ./inp_files/308756.got.cif
#   From: 2010.05.17/outbox.cif.g08.bks.cpg/sg2_155_cif.got.tgz:308756.got - 2010.06.03 11:33:40.
