data_PCOD9064475
_publ_section_title
;
Structure prediction by ZEFSAII (Michael W. Deem and Ramdas Pophale) SiO2 
 PCOD9064475
Probable space group: P -1
;
_chemical_formula_sum "Si O2"
_cell_formula_units_Z 12
_cell_length_a 9.783618
_cell_length_b 5.426530
_cell_length_c 21.855722
_cell_angle_alpha 107.613974
_cell_angle_beta 25.631169
_cell_angle_gamma 110.042855
_cell_volume 471.479934
_symmetry_space_group_name_H-M "P -1"
_symmetry_group_IT_number 2
_symmetry_cell_setting 'triclinic'
loop_
_space_group_symop_operation_xyz
x,y,z
-x,-y,-z
loop_
_atom_site_type_symbol
_atom_site_label
_atom_site_fract_x
_atom_site_fract_y
_atom_site_fract_z
Si Si1 0.771961 0.882620 0.418058
Si Si2 0.690884 0.630610 0.752011
Si Si3 0.051606 0.046989 0.055110
Si Si4 0.852789 0.734984 0.503681
Si Si5 0.291772 0.489049 0.793908
Si Si6 0.666862 0.377829 0.867953
O O1 0.661303 0.756206 0.518802
O O2 0.976672 0.699488 0.282516
O O3 0.500000 0.000000 0.500000
O O4 0.038434 0.123981 0.350490
O O5 0.377250 0.608502 0.836268
O O6 0.651932 0.585719 0.835667
O O7 0.840015 0.380004 0.650882
O O8 0.917169 0.319059 0.139799
O O9 0.423760 0.113560 0.927375
O O10 0.869567 0.809583 0.151797
O O11 0.000000 0.000000 0.000000
O O12 0.623659 0.539820 0.626153
O O13 0.000000 0.000000 0.500000
O O14 0.500000 0.500000 0.000000
#
# Coordination Sequence:
#
# PCOD9064475 Si02
#       6
#     2   2   2   2   2   2
#     4  11  27  50  82 110 161 212 270 334 409 487
#     4  11  24  46  77 111 162 201 268 341 401 476
#     4  12  26  46  79 113 159 207 270 332 404 485
#     4  11  24  45  77 120 155 206 269 339 407 476
#     4  12  25  44  80 119 154 205 267 336 406 478
#     4  11  28  52  76 114 162 216 266 333 409 491
#
# _framework density 25.451771999999998
#
# number of rings (size 3 to 8) (size 9 to 14) (size 15 to 20)
#    0.000    0.667    3.333    3.000    4.667    6.000 
#    0.000    0.000    0.000    0.000    0.000    0.000 
#    0.000    0.000    0.000    0.000    0.000    0.000 
#
# Total GULP energy -67211.861572 kJ/mol
# GULP energy per Si atom -5600.988464 kJ/mol
# Density = 2.539384 g / cm^3
# Si number density = 25.451772 Si / 1000 Ang^3
#
#
#
# Elastic Constant Matrix: (Units=GPa)
#
#
# Indices 1 2 3 4 5 6 
#
# 1 130.2802 37.9872 71.7762 19.9757 0.9184 -30.1554
# 2 37.9872 105.4100 39.7996 -7.4290 2.1204 -20.2199
# 3 71.7762 39.7996 120.2158 -4.3704 12.0337 -16.6991
# 4 19.9757 -7.4290 -4.3704 63.2241 -0.7540 5.9454
# 5 0.9184 2.1204 12.0337 -0.7540 62.3399 1.0196
# 6 -30.1554 -20.2199 -16.6991 5.9454 1.0196 49.0110
#
#
#
# Elastic Compliance Matrix: (Units=1/GPa)
#
#
# Indices 1 2 3 4 5 6 
#
# 1 0.014846 -0.001616 -0.007756 -0.006017 0.001154 0.006531
# 2 -0.001616 0.011631 -0.002453 0.001446 0.000073 0.002791
# 3 -0.007756 -0.002453 0.013930 0.003226 -0.002430 -0.001379
# 4 -0.006017 0.001446 0.003226 0.018507 -0.000290 -0.004245
# 5 0.001154 0.000073 -0.002430 -0.000290 0.016494 -0.000396
# 6 0.006531 0.002791 -0.001379 -0.004245 -0.000396 0.025627
#
#
# Mechanical properties :
#
#
# Convention : Reuss Voigt Hill
#
# Bulk Modulus (GPa) = 59.67438 72.78134 66.22786
# Shear Modulus (GPa) = 38.38144 48.67122 43.52633
#
# Velocity S-wave (km/s) = 3.88752 4.37772 4.13988
# Velocity P-wave (km/s) = 6.60662 7.36277 6.99492
#
# Compressibility (1/GPa) = 0.01675761
#
# Stress axis : x y z
#
# Youngs Moduli (GPa) = 67.35656 85.97556 71.78608
#
# Poissons Ratio (x) = 0.13896 0.55678
# Poissons Ratio (y) = 0.10887 0.17607
# Poissons Ratio (z) = 0.52243 0.21087
#
# Static dielectric constant tensor:
#      x y z
#    x 2.075390 -0.042520 -0.069090 
#    y -0.042520 2.107110 0.070140 
#    z -0.069090 0.070140 2.056530 
# 
# From -- ./inp_files/372700.got.cif
#   From: 2010.05.17/outbox.cif.g08.bks.cpg/sg2_187_cif.got.tgz:372700.got - 2010.06.03 11:33:40.
