data_PCOD9064557
_publ_section_title
;
Structure prediction by ZEFSAII (Michael W. Deem and Ramdas Pophale) SiO2 
 PCOD9064557
Probable space group: P -1
;
_chemical_formula_sum "Si O2"
_cell_formula_units_Z 16
_cell_length_a 17.806473
_cell_length_b 10.781135
_cell_length_c 9.798952
_cell_angle_alpha 122.032321
_cell_angle_beta 49.819953
_cell_angle_gamma 151.331390
_cell_volume 686.224085
_symmetry_space_group_name_H-M "P -1"
_symmetry_group_IT_number 2
_symmetry_cell_setting 'triclinic'
loop_
_space_group_symop_operation_xyz
x,y,z
-x,-y,-z
loop_
_atom_site_type_symbol
_atom_site_label
_atom_site_fract_x
_atom_site_fract_y
_atom_site_fract_z
Si Si1 0.705876 0.798660 0.240597
Si Si2 0.126850 0.053310 0.586211
Si Si3 0.361435 0.529662 0.396341
Si Si4 0.430313 0.914664 0.184556
Si Si5 0.866951 0.273866 0.634224
Si Si6 0.752261 0.325911 0.248470
Si Si7 0.734556 0.594338 0.863921
Si Si8 0.976646 0.336455 0.096140
O O1 0.743062 0.793448 0.347322
O O2 0.542212 0.704678 0.356347
O O3 0.881215 0.096229 0.156002
O O4 0.676691 0.625015 0.073871
O O5 0.210065 0.252551 0.487349
O O6 0.104743 0.859992 0.447130
O O7 0.937889 0.869460 0.753453
O O8 0.307676 0.632466 0.543040
O O9 0.366802 0.500219 0.213141
O O10 0.320551 0.928280 0.330592
O O11 0.302221 0.619544 0.181765
O O12 0.585145 0.095624 0.215492
O O13 0.500000 0.000000 0.000000
O O14 0.000000 0.500000 0.500000
O O15 0.895426 0.407290 0.812077
O O16 0.827785 0.266548 0.180438
O O17 0.908840 0.579259 0.115901
#
# Coordination Sequence:
#
# PCOD9064557 Si02
#       8
#     2   2   2   2   2   2   2   2
#     4  12  26  45  72 100 141 180 232 284 346 406
#     4  12  26  44  73 101 140 184 228 283 342 414
#     4  12  28  46  70 104 139 184 228 287 342 412
#     4  12  26  44  72 105 135 183 230 287 340 407
#     4  12  23  45  72 103 137 176 235 282 346 402
#     4  11  26  44  71 100 141 178 235 279 347 410
#     4  12  27  47  70 101 142 183 228 283 349 408
#     4  11  24  46  69 102 136 186 223 288 344 411
#
# _framework density 23.315998
#
# number of rings (size 3 to 8) (size 9 to 14) (size 15 to 20)
#    0.000    0.250    3.750    4.500    3.500    3.000 
#    0.000    0.000    0.000    0.000    0.000    0.000 
#    0.000    0.000    0.000    0.000    0.000    0.000 
#
# Total GULP energy -89679.763652 kJ/mol
# GULP energy per Si atom -5604.985228 kJ/mol
# Density = 2.326293 g / cm^3
# Si number density = 23.315998 Si / 1000 Ang^3
#
#
#
# Elastic Constant Matrix: (Units=GPa)
#
#
# Indices 1 2 3 4 5 6 
#
# 1 53.3266 6.2616 -0.8962 8.0555 6.9391 22.1745
# 2 6.2616 58.7680 9.1979 3.1808 1.5141 5.6946
# 3 -0.8962 9.1979 51.0730 11.5007 -5.3126 -3.7697
# 4 8.0555 3.1808 11.5007 40.6928 3.2038 4.1869
# 5 6.9391 1.5141 -5.3126 3.2038 44.3506 -8.3614
# 6 22.1745 5.6946 -3.7697 4.1869 -8.3614 48.3973
#
#
#
# Elastic Compliance Matrix: (Units=1/GPa)
#
#
# Indices 1 2 3 4 5 6 
#
# 1 0.025208 -0.001154 -0.000170 -0.003125 -0.005998 -0.012193
# 2 -0.001154 0.017924 -0.003568 0.000150 -0.001264 -0.002089
# 3 -0.000170 -0.003568 0.022399 -0.006692 0.003976 0.003508
# 4 -0.003125 0.000150 -0.006692 0.027483 -0.002670 -0.001946
# 5 -0.005998 -0.001264 0.003976 -0.002670 0.025683 0.007875
# 6 -0.012193 -0.002089 0.003508 -0.001946 0.007875 0.028297
#
#
# Mechanical properties :
#
#
# Convention : Reuss Voigt Hill
#
# Bulk Modulus (GPa) = 17.93811 21.36601 19.65206
# Shear Modulus (GPa) = 28.51287 36.59509 32.55398
#
# Velocity S-wave (km/s) = 3.50078 3.96602 3.74064
# Velocity P-wave (km/s) = 4.90416 5.49145 5.20609
#
# Compressibility (1/GPa) = 0.05574724
#
# Stress axis : x y z
#
# Youngs Moduli (GPa) = 39.67048 55.79010 44.64528
#
# Poissons Ratio (x) = 0.06438 0.00759
# Poissons Ratio (y) = 0.04578 0.15928
# Poissons Ratio (z) = 0.00674 0.19905
#
# Static dielectric constant tensor:
#      x y z
#    x 1.824240 0.014470 0.017510 
#    y 0.014470 1.857500 0.019550 
#    z 0.017510 0.019550 1.820910 
# 
# From -- ./inp_files/333598.got.cif
#   From: 2010.05.17/outbox.cif.g08.bks.cpg/sg2_167_cif.got.tgz:333598.got - 2010.06.03 11:33:40.
