data_PCOD9064602
_publ_section_title
;
Structure prediction by ZEFSAII (Michael W. Deem and Ramdas Pophale) SiO2 
 PCOD9064602
Probable space group: P -1
;
_chemical_formula_sum "Si O2"
_cell_formula_units_Z 13
_cell_length_a 6.746559
_cell_length_b 29.807210
_cell_length_c 9.383620
_cell_angle_alpha 151.843235
_cell_angle_beta 131.926227
_cell_angle_gamma 39.559162
_cell_volume 566.687132
_symmetry_space_group_name_H-M "P -1"
_symmetry_group_IT_number 2
_symmetry_cell_setting 'triclinic'
loop_
_space_group_symop_operation_xyz
x,y,z
-x,-y,-z
loop_
_atom_site_type_symbol
_atom_site_label
_atom_site_fract_x
_atom_site_fract_y
_atom_site_fract_z
Si Si1 0.877295 0.765810 0.216544
Si Si2 0.500000 0.500000 0.500000
Si Si3 0.728730 0.884692 0.204648
Si Si4 0.046102 0.549874 0.853783
Si Si5 0.841883 0.143899 0.911517
Si Si6 0.302567 0.610321 0.409907
Si Si7 0.859458 0.107126 0.132808
O O1 0.946667 0.789876 0.157233
O O2 0.028950 0.814114 0.529908
O O3 0.997511 0.640827 0.966321
O O4 0.501504 0.830436 0.221236
O O5 0.757767 0.533421 0.674167
O O6 0.333055 0.546549 0.391626
O O7 0.500000 0.000000 0.500000
O O8 0.509551 0.845632 0.917788
O O9 0.919460 0.908431 0.248586
O O10 0.368476 0.440748 0.659257
O O11 0.085325 0.596311 0.153070
O O12 0.809090 0.263098 0.254819
O O13 0.957822 0.081871 0.944342
O O14 0.000000 0.000000 0.000000
#
# Coordination Sequence:
#
# PCOD9064602 Si02
#       7
#     2   1   2   2   2   2   2
#     4  11  24  46  70 103 141 185 232 285 357 413
#     4  12  24  42  70 100 136 188 236 274 352 398
#     4  11  26  48  68 103 140 183 239 294 352 415
#     4  11  25  46  70 101 146 185 227 293 338 423
#     4  11  26  45  74 103 143 184 235 289 351 421
#     4  11  25  46  68 106 141 183 233 284 349 414
#     4  11  24  48  72 105 138 183 234 292 350 417
#
# _framework density 22.940349999999999
#
# number of rings (size 3 to 8) (size 9 to 14) (size 15 to 20)
#    0.000    0.923    4.615    0.923    2.154    5.538 
#    2.769    0.000    0.000    0.000    0.000    0.000 
#    0.000    0.000    0.000    0.000    0.000    0.000 
#
# Total GULP energy -72554.672540 kJ/mol
# GULP energy per Si atom -5581.128657 kJ/mol
# Density = 2.288814 g / cm^3
# Si number density = 22.940350 Si / 1000 Ang^3
#
#
#
# Elastic Constant Matrix: (Units=GPa)
#
#
# Indices 1 2 3 4 5 6 
#
# 1 128.8523 31.1519 27.7464 -6.7131 11.0945 19.4346
# 2 31.1519 90.3723 31.1177 -24.4670 -1.2921 23.8857
# 3 27.7464 31.1177 95.7500 -18.4435 16.0795 -15.0853
# 4 -6.7131 -24.4670 -18.4435 45.2826 -4.2086 5.1218
# 5 11.0945 -1.2921 16.0795 -4.2086 31.9151 -5.3551
# 6 19.4346 23.8857 -15.0853 5.1218 -5.3551 46.8068
#
#
#
# Elastic Compliance Matrix: (Units=1/GPa)
#
#
# Indices 1 2 3 4 5 6 
#
# 1 0.009539 -0.001284 -0.002593 -0.000094 -0.002821 -0.004454
# 2 -0.001284 0.019717 -0.006803 0.009443 0.003851 -0.012314
# 3 -0.002593 -0.006803 0.015959 0.000890 -0.005798 0.008931
# 4 -0.000094 0.009443 0.000890 0.028597 0.002507 -0.007335
# 5 -0.002821 0.003851 -0.005798 0.002507 0.035919 0.001172
# 6 -0.004454 -0.012314 0.008931 -0.007335 0.001172 0.033312
#
#
# Mechanical properties :
#
#
# Convention : Reuss Voigt Hill
#
# Bulk Modulus (GPa) = 41.92287 55.00074 48.46180
# Shear Modulus (GPa) = 29.00992 39.79814 34.40403
#
# Velocity S-wave (km/s) = 3.55995 4.16968 3.87682
# Velocity P-wave (km/s) = 5.93398 6.87089 6.41955
#
# Compressibility (1/GPa) = 0.02385333
#
# Stress axis : x y z
#
# Youngs Moduli (GPa) = 104.82801 50.71861 62.66208
#
# Poissons Ratio (x) = 0.06513 0.16248
# Poissons Ratio (y) = 0.13462 0.42632
# Poissons Ratio (z) = 0.27182 0.34506
#
# Static dielectric constant tensor:
#      x y z
#    x 1.840790 0.016680 -0.029320 
#    y 0.016680 1.865620 0.023010 
#    z -0.029320 0.023010 1.889200 
# 
# From -- ./inp_files/143464.got.cif
#   From: 2010.05.17/outbox.cif.g08.bks.cpg/sg2_72_cif.got.tgz:143464.got - 2010.06.03 11:33:40.
