data_PCOD9064977
_publ_section_title
;
Structure prediction by ZEFSAII (Michael W. Deem and Ramdas Pophale) SiO2 
 PCOD9064977
Probable space group: P -1
;
_chemical_formula_sum "Si O2"
_cell_formula_units_Z 12
_cell_length_a 13.216102
_cell_length_b 5.128051
_cell_length_c 10.573249
_cell_angle_alpha 111.815493
_cell_angle_beta 132.239683
_cell_angle_gamma 59.303584
_cell_volume 455.722776
_symmetry_space_group_name_H-M "P -1"
_symmetry_group_IT_number 2
_symmetry_cell_setting 'triclinic'
loop_
_space_group_symop_operation_xyz
x,y,z
-x,-y,-z
loop_
_atom_site_type_symbol
_atom_site_label
_atom_site_fract_x
_atom_site_fract_y
_atom_site_fract_z
Si Si1 0.405450 0.938492 0.523827
Si Si2 0.654149 0.401133 0.778995
Si Si3 0.638398 0.775717 0.213620
Si Si4 0.961324 0.356178 0.066565
Si Si5 0.923668 0.813899 0.316235
Si Si6 0.329212 0.857096 0.984816
O O1 0.509029 0.658168 0.646843
O O2 0.335115 0.202386 0.611075
O O3 0.500000 0.000000 0.500000
O O4 0.291800 0.832132 0.334468
O O5 0.782108 0.508779 0.945799
O O6 0.633378 0.229226 0.853448
O O7 0.773968 0.827779 0.267356
O O8 0.645821 0.446137 0.127312
O O9 0.461089 0.970011 0.077980
O O10 0.006700 0.480131 0.259903
O O11 0.000000 0.500000 0.000000
O O12 0.000000 0.000000 0.000000
O O13 0.846701 0.993712 0.157477
O O14 0.000000 0.000000 0.500000
#
# Coordination Sequence:
#
# PCOD9064977 Si02
#       6
#     2   2   2   2   2   2
#     4  11  25  42  74 115 149 192 251 334 393 469
#     4  11  25  47  73 109 153 196 266 319 401 468
#     4  11  25  43  78 109 155 202 262 327 408 471
#     4  12  29  52  79 110 159 222 272 324 399 489
#     4  12  29  50  76 116 163 210 269 334 404 480
#     4  11  24  46  78 112 151 205 264 329 401 483
#
# _framework density 26.331796000000001
#
# number of rings (size 3 to 8) (size 9 to 14) (size 15 to 20)
#    0.000    0.667    3.333    2.500    9.333    2.000 
#    0.000    0.000    0.000    0.000    0.000    0.000 
#    0.000    0.000    0.000    0.000    0.000    0.000 
#
# Total GULP energy -66897.198439 kJ/mol
# GULP energy per Si atom -5574.766537 kJ/mol
# Density = 2.627186 g / cm^3
# Si number density = 26.331796 Si / 1000 Ang^3
#
#
#
# Elastic Constant Matrix: (Units=GPa)
#
#
# Indices 1 2 3 4 5 6 
#
# 1 137.9064 17.4326 54.8385 -0.1125 -4.7574 10.6030
# 2 17.4326 90.6049 59.6419 12.0702 -12.6155 -12.3802
# 3 54.8385 59.6419 246.1820 44.8838 -16.1790 -14.0056
# 4 -0.1125 12.0702 44.8838 55.4733 -2.9029 -13.4506
# 5 -4.7574 -12.6155 -16.1790 -2.9029 51.8353 7.3938
# 6 10.6030 -12.3802 -14.0056 -13.4506 7.3938 44.8287
#
#
#
# Elastic Compliance Matrix: (Units=1/GPa)
#
#
# Indices 1 2 3 4 5 6 
#
# 1 0.008356 -0.000726 -0.002026 0.001227 0.000384 -0.002505
# 2 -0.000726 0.013721 -0.002899 0.000134 0.001980 0.002769
# 3 -0.002026 -0.002899 0.006035 -0.004172 0.000731 0.000192
# 4 0.001227 0.000134 -0.004172 0.022637 -0.000651 0.005343
# 5 0.000384 0.001980 0.000731 -0.000651 0.020411 -0.002877
# 6 -0.002505 0.002769 0.000192 0.005343 -0.002877 0.025802
#
#
# Mechanical properties :
#
#
# Convention : Reuss Voigt Hill
#
# Bulk Modulus (GPa) = 59.49184 82.05770 70.77477
# Shear Modulus (GPa) = 43.91016 53.27948 48.59482
#
# Velocity S-wave (km/s) = 4.08802 4.50309 4.30057
# Velocity P-wave (km/s) = 6.70259 7.63333 7.18305
#
# Compressibility (1/GPa) = 0.01680903
#
# Stress axis : x y z
#
# Youngs Moduli (GPa) = 119.67848 72.87923 165.68971
#
# Poissons Ratio (x) = 0.05292 0.33576
# Poissons Ratio (y) = 0.08690 0.48037
# Poissons Ratio (z) = 0.24252 0.21129
#
# Static dielectric constant tensor:
#      x y z
#    x 2.279590 0.113200 0.017840 
#    y 0.113200 2.722390 -0.119820 
#    z 0.017840 -0.119820 2.262910 
# 
# From -- ./inp_files/441465.got.cif
#   From: 2010.05.17/outbox.cif.g08.bks.cpg/sg2_221_cif.got.tgz:441465.got - 2010.06.03 11:33:40.
