data_PCOD9064410
_publ_section_title
;
Structure prediction by ZEFSAII (Michael W. Deem and Ramdas Pophale) SiO2 
 PCOD9064410
Probable space group: P -1
;
_chemical_formula_sum "Si O2"
_cell_formula_units_Z 16
_cell_length_a 9.034948
_cell_length_b 23.758997
_cell_length_c 9.419214
_cell_angle_alpha 140.372543
_cell_angle_beta 76.489014
_cell_angle_gamma 133.181221
_cell_volume 729.565786
_symmetry_space_group_name_H-M "P -1"
_symmetry_group_IT_number 2
_symmetry_cell_setting 'triclinic'
loop_
_space_group_symop_operation_xyz
x,y,z
-x,-y,-z
loop_
_atom_site_type_symbol
_atom_site_label
_atom_site_fract_x
_atom_site_fract_y
_atom_site_fract_z
Si Si1 0.909544 0.852435 0.805903
Si Si2 0.808483 0.894826 0.205416
Si Si3 0.555979 0.438562 0.278875
Si Si4 0.161680 0.666220 0.239549
Si Si5 0.679880 0.564022 0.217261
Si Si6 0.562817 0.836448 0.730799
Si Si7 0.603555 0.148959 0.753654
Si Si8 0.089151 0.629464 0.649552
O O1 0.771723 0.693801 0.535020
O O2 0.725722 0.822673 0.684550
O O3 0.930488 0.917548 0.074504
O O4 0.208854 0.984543 0.945018
O O5 0.635451 0.900899 0.240817
O O6 0.611961 0.722514 0.946831
O O7 0.000000 0.000000 0.500000
O O8 0.500000 0.500000 0.500000
O O9 0.510758 0.429397 0.105098
O O10 0.857789 0.555604 0.460995
O O11 0.410228 0.781807 0.513555
O O12 0.282876 0.750366 0.220697
O O13 0.941558 0.636325 0.256098
O O14 0.000000 0.500000 0.000000
O O15 0.500000 0.500000 0.000000
O O16 0.340028 0.729264 0.691276
O O17 0.500000 0.000000 0.500000
O O18 0.834716 0.265452 0.042863
O O19 0.000000 0.500000 0.500000
#
# Coordination Sequence:
#
# PCOD9064410 Si02
#       8
#     2   2   2   2   2   2   2   2
#     4  11  25  47  74 109 150 201 247 317 392 458
#     4  12  26  49  75 109 155 196 253 315 390 458
#     4  12  26  47  79 110 143 204 261 316 387 459
#     4  12  26  48  74 108 150 199 258 319 384 461
#     4  12  28  46  73 110 150 195 258 318 384 458
#     4  11  24  45  75 101 147 198 247 306 392 452
#     4  12  29  45  75 110 150 199 253 319 383 455
#     4  12  24  49  76 105 150 202 258 317 384 464
#
# _framework density 21.930854
#
# number of rings (size 3 to 8) (size 9 to 14) (size 15 to 20)
#    0.000    0.250    5.000    3.000    5.250    3.500 
#    0.000    0.000    0.000    0.000    0.000    0.000 
#    0.000    0.000    0.000    0.000    0.000    0.000 
#
# Total GULP energy -89395.776391 kJ/mol
# GULP energy per Si atom -5587.236024 kJ/mol
# Density = 2.188094 g / cm^3
# Si number density = 21.930854 Si / 1000 Ang^3
#
#
#
# Elastic Constant Matrix: (Units=GPa)
#
#
# Indices 1 2 3 4 5 6 
#
# 1 110.5647 34.1440 55.9585 -1.2975 11.7442 0.8068
# 2 34.1440 138.9615 39.3604 3.8841 5.6003 -4.3589
# 3 55.9585 39.3604 113.1579 2.7935 2.8714 -4.4695
# 4 -1.2975 3.8841 2.7935 39.8325 -10.2323 3.5071
# 5 11.7442 5.6003 2.8714 -10.2323 51.4283 1.7059
# 6 0.8068 -4.3589 -4.4695 3.5071 1.7059 35.3949
#
#
#
# Elastic Compliance Matrix: (Units=1/GPa)
#
#
# Indices 1 2 3 4 5 6 
#
# 1 0.012659 -0.001436 -0.005759 0.000469 -0.002282 -0.001129
# 2 -0.001436 0.008218 -0.002072 -0.000955 -0.000672 0.000910
# 3 -0.005759 -0.002072 0.012470 -0.000831 0.000629 0.001503
# 4 0.000469 -0.000955 -0.000831 0.026967 0.005514 -0.003171
# 5 -0.002282 -0.000672 0.000629 0.005514 0.021151 -0.001517
# 6 -0.001129 0.000910 0.001503 -0.003171 -0.001517 0.028968
#
#
# Mechanical properties :
#
#
# Convention : Reuss Voigt Hill
#
# Bulk Modulus (GPa) = 67.50640 69.06776 68.28708
# Shear Modulus (GPa) = 37.34035 40.87923 39.10979
#
# Velocity S-wave (km/s) = 4.13078 4.32210 4.22752
# Velocity P-wave (km/s) = 7.32116 7.51460 7.41851
#
# Compressibility (1/GPa) = 0.01481341
#
# Stress axis : x y z
#
# Youngs Moduli (GPa) = 78.99763 121.68067 80.19483
#
# Poissons Ratio (x) = 0.17470 0.46182
# Poissons Ratio (y) = 0.11342 0.16616
# Poissons Ratio (z) = 0.45493 0.25212
#
# Static dielectric constant tensor:
#      x y z
#    x 1.802130 -0.030040 -0.032340 
#    y -0.030040 1.949370 -0.036190 
#    z -0.032340 -0.036190 1.878210 
# 
# From -- ./inp_files/226639.got.cif
#   From: 2010.05.17/outbox.cif.g08.bks.cpg/sg2_114_cif.got.tgz:226639.got - 2010.06.03 11:33:40.
