data_PCOD9064522
_publ_section_title
;
Structure prediction by ZEFSAII (Michael W. Deem and Ramdas Pophale) SiO2 
 PCOD9064522
Probable space group: P -1
;
_chemical_formula_sum "Si O2"
_cell_formula_units_Z 16
_cell_length_a 8.247883
_cell_length_b 10.947747
_cell_length_c 14.315396
_cell_angle_alpha 128.080919
_cell_angle_beta 128.134327
_cell_angle_gamma 45.411617
_cell_volume 684.229135
_symmetry_space_group_name_H-M "P -1"
_symmetry_group_IT_number 2
_symmetry_cell_setting 'triclinic'
loop_
_space_group_symop_operation_xyz
x,y,z
-x,-y,-z
loop_
_atom_site_type_symbol
_atom_site_label
_atom_site_fract_x
_atom_site_fract_y
_atom_site_fract_z
Si Si1 0.650668 0.557045 0.514930
Si Si2 0.763516 0.034509 0.488844
Si Si3 0.130488 0.598442 0.135118
Si Si4 0.949116 0.409793 0.221595
Si Si5 0.217904 0.021875 0.120973
Si Si6 0.322496 0.671498 0.755521
Si Si7 0.905760 0.044701 0.755968
Si Si8 0.730896 0.765743 0.217178
O O1 0.500000 0.500000 0.500000
O O2 0.466128 0.766660 0.521143
O O3 0.886590 0.532757 0.636758
O O4 0.731882 0.426114 0.393454
O O5 0.810792 0.026032 0.612460
O O6 0.718319 0.882701 0.357481
O O7 0.000000 0.000000 0.500000
O O8 0.392357 0.440325 0.185052
O O9 0.144571 0.752478 0.153889
O O10 0.968079 0.716261 0.220221
O O11 0.000000 0.500000 0.000000
O O12 0.793825 0.360331 0.209521
O O13 0.771906 0.573049 0.170092
O O14 0.145488 0.220811 0.155778
O O15 0.489610 0.875438 0.122074
O O16 0.213307 0.001796 0.222559
O O17 0.000000 0.000000 0.000000
O O18 0.187363 0.885524 0.787497
#
# Coordination Sequence:
#
# PCOD9064522 Si02
#       8
#     2   2   2   2   2   2   2   2
#     4  12  23  41  72 107 150 181 239 299 359 444
#     4  12  22  43  70 109 147 181 234 297 371 424
#     4  12  28  45  70 107 141 192 249 299 359 426
#     4  11  25  45  71 105 139 194 235 293 369 428
#     4  11  28  49  71 104 146 198 249 293 354 435
#     4  11  24  46  68 100 145 188 238 293 361 429
#     4  11  25  47  74 103 149 191 236 306 363 429
#     4  12  26  45  76 104 145 188 237 306 364 428
#
# _framework density 23.383980000000001
#
# number of rings (size 3 to 8) (size 9 to 14) (size 15 to 20)
#    0.000    0.500    3.750    4.125    5.250    3.500 
#    0.000    0.000    0.000    0.000    0.000    0.000 
#    0.000    0.000    0.000    0.000    0.000    0.000 
#
# Total GULP energy -89570.857979 kJ/mol
# GULP energy per Si atom -5598.178624 kJ/mol
# Density = 2.333076 g / cm^3
# Si number density = 23.383980 Si / 1000 Ang^3
#
#
#
# Elastic Constant Matrix: (Units=GPa)
#
#
# Indices 1 2 3 4 5 6 
#
# 1 41.3747 10.8763 5.9365 -9.7894 -1.7916 -11.9156
# 2 10.8763 179.3524 30.8402 0.0287 15.4844 -10.8400
# 3 5.9365 30.8402 82.1861 -2.7207 23.2840 -9.1778
# 4 -9.7894 0.0287 -2.7207 31.1067 -5.1626 12.1419
# 5 -1.7916 15.4844 23.2840 -5.1626 36.4272 -6.5803
# 6 -11.9156 -10.8400 -9.1778 12.1419 -6.5803 41.1246
#
#
#
# Elastic Compliance Matrix: (Units=1/GPa)
#
#
# Indices 1 2 3 4 5 6 
#
# 1 0.028615 -0.001474 -0.002162 0.007344 0.005566 0.006142
# 2 -0.001474 0.006150 -0.001679 -0.001248 -0.001623 0.000928
# 3 -0.002162 -0.001679 0.015720 -0.001388 -0.009394 0.001346
# 4 0.007344 -0.001248 -0.001388 0.038814 0.005642 -0.009068
# 5 0.005566 -0.001623 -0.009394 0.005642 0.035788 0.003149
# 6 0.006142 0.000928 0.001346 -0.009068 0.003149 0.029822
#
#
# Mechanical properties :
#
#
# Convention : Reuss Voigt Hill
#
# Bulk Modulus (GPa) = 25.09144 44.24656 34.66900
# Shear Modulus (GPa) = 27.96053 38.74905 33.35479
#
# Velocity S-wave (km/s) = 3.46166 4.07514 3.78086
# Velocity P-wave (km/s) = 5.17020 6.41133 5.82392
#
# Compressibility (1/GPa) = 0.03985423
#
# Stress axis : x y z
#
# Youngs Moduli (GPa) = 34.94732 162.59765 63.61519
#
# Poissons Ratio (x) = 0.23967 0.13751
# Poissons Ratio (y) = 0.05151 0.10683
# Poissons Ratio (z) = 0.07554 0.27306
#
# Static dielectric constant tensor:
#      x y z
#    x 1.914730 0.008480 0.003290 
#    y 0.008480 1.908440 0.014770 
#    z 0.003290 0.014770 1.873820 
# 
# From -- ./inp_files/259002.got.cif
#   From: 2010.05.17/outbox.cif.g08.bks.cpg/sg2_130_cif.got.tgz:259002.got - 2010.06.03 11:33:40.
