data_PCOD9064690
_publ_section_title
;
Structure prediction by ZEFSAII (Michael W. Deem and Ramdas Pophale) SiO2 
 PCOD9064690
Probable space group: P -1
;
_chemical_formula_sum "Si O2"
_cell_formula_units_Z 14
_cell_length_a 19.920782
_cell_length_b 14.207750
_cell_length_c 6.026360
_cell_angle_alpha 95.152625
_cell_angle_beta 95.095141
_cell_angle_gamma 20.169252
_cell_volume 585.667508
_symmetry_space_group_name_H-M "P -1"
_symmetry_group_IT_number 2
_symmetry_cell_setting 'triclinic'
loop_
_space_group_symop_operation_xyz
x,y,z
-x,-y,-z
loop_
_atom_site_type_symbol
_atom_site_label
_atom_site_fract_x
_atom_site_fract_y
_atom_site_fract_z
Si Si1 0.933897 0.008447 0.164369
Si Si2 0.307767 0.316855 0.995153
Si Si3 0.070727 0.148346 0.211465
Si Si4 0.727979 0.938254 0.562872
Si Si5 0.950106 0.490712 0.789529
Si Si6 0.688469 0.312178 0.550307
Si Si7 0.647897 0.557086 0.707415
O O1 0.120840 0.746041 0.320498
O O2 0.758503 0.265285 0.328886
O O3 0.895455 0.960205 0.019557
O O4 0.000000 0.000000 0.000000
O O5 0.158024 0.459596 0.145157
O O6 0.377818 0.328409 0.092203
O O7 0.160390 0.521641 0.784837
O O8 0.500000 0.000000 0.000000
O O9 0.202385 0.068804 0.256620
O O10 0.145925 0.976747 0.381093
O O11 0.804104 0.739475 0.638881
O O12 0.854072 0.790092 0.345437
O O13 0.504307 0.225946 0.488207
O O14 0.000000 0.500000 0.000000
O O15 0.500000 0.500000 0.500000
O O16 0.625834 0.475558 0.740194
#
# Coordination Sequence:
#
# PCOD9064690 Si02
#       7
#     2   2   2   2   2   2   2
#     4  11  26  48  71 105 151 190 242 303 360 433
#     4  11  26  47  70 108 144 188 245 302 364 431
#     4  11  25  45  73 106 144 194 235 305 367 445
#     4  11  25  45  72 104 139 195 240 299 368 430
#     4  11  24  46  71  99 147 188 245 300 359 437
#     4  12  26  48  75 110 151 193 247 299 371 446
#     4  11  25  45  71 108 143 190 240 303 364 437
#
# _framework density 23.904349
#
# number of rings (size 3 to 8) (size 9 to 14) (size 15 to 20)
#    0.000    0.857    4.286    1.286    6.000    2.286 
#   10.286    0.000    0.000    0.000    0.000    0.000 
#    0.000    0.000    0.000    0.000    0.000    0.000 
#
# Total GULP energy -78161.780123 kJ/mol
# GULP energy per Si atom -5582.984294 kJ/mol
# Density = 2.384994 g / cm^3
# Si number density = 23.904349 Si / 1000 Ang^3
#
#
#
# Elastic Constant Matrix: (Units=GPa)
#
#
# Indices 1 2 3 4 5 6 
#
# 1 121.5570 38.1674 49.6861 -4.9659 17.5834 7.4418
# 2 38.1674 151.2357 51.1997 -29.5215 -6.1867 -0.2946
# 3 49.6861 51.1997 71.3252 -10.3896 11.5636 -19.1336
# 4 -4.9659 -29.5215 -10.3896 37.5093 -3.6821 8.5328
# 5 17.5834 -6.1867 11.5636 -3.6821 49.3279 -10.5957
# 6 7.4418 -0.2946 -19.1336 8.5328 -10.5957 37.5114
#
#
#
# Elastic Compliance Matrix: (Units=1/GPa)
#
#
# Indices 1 2 3 4 5 6 
#
# 1 0.014502 0.000556 -0.012532 0.000891 -0.004396 -0.010709
# 2 0.000556 0.011290 -0.009338 0.007966 0.002751 -0.005820
# 3 -0.012532 -0.009338 0.034521 -0.004243 -0.000644 0.020804
# 4 0.000891 0.007966 -0.004243 0.034237 0.002203 -0.009444
# 5 -0.004396 0.002751 -0.000644 0.002203 0.023968 0.006834
# 6 -0.010709 -0.005820 0.020804 -0.009444 0.006834 0.043428
#
#
# Mechanical properties :
#
#
# Convention : Reuss Voigt Hill
#
# Bulk Modulus (GPa) = 56.54731 69.13604 62.84168
# Shear Modulus (GPa) = 23.75653 38.54070 31.14861
#
# Velocity S-wave (km/s) = 3.15590 4.01969 3.61370
# Velocity P-wave (km/s) = 6.08167 7.10835 6.61495
#
# Compressibility (1/GPa) = 0.01768431
#
# Stress axis : x y z
#
# Youngs Moduli (GPa) = 68.95442 88.57778 28.96816
#
# Poissons Ratio (x) = -0.04924 0.36303
# Poissons Ratio (y) = -0.03833 0.27051
# Poissons Ratio (z) = 0.86413 0.82714
#
# Static dielectric constant tensor:
#      x y z
#    x 1.922350 0.032750 0.011510 
#    y 0.032750 1.934310 -0.022850 
#    z 0.011510 -0.022850 2.014430 
# 
# From -- ./inp_files/119483.got.cif
#   From: 2010.05.17/outbox.cif.g08.bks.cpg/sg2_60_cif.got.tgz:119483.got - 2010.06.03 11:33:40.
