data_PCOD9064975
_publ_section_title
;
Structure prediction by ZEFSAII (Michael W. Deem and Ramdas Pophale) SiO2 
 PCOD9064975
Probable space group: P -1
;
_chemical_formula_sum "Si O2"
_cell_formula_units_Z 14
_cell_length_a 12.008605
_cell_length_b 5.244215
_cell_length_c 8.803220
_cell_angle_alpha 93.464673
_cell_angle_beta 98.246129
_cell_angle_gamma 96.747179
_cell_volume 543.170141
_symmetry_space_group_name_H-M "P -1"
_symmetry_group_IT_number 2
_symmetry_cell_setting 'triclinic'
loop_
_space_group_symop_operation_xyz
x,y,z
-x,-y,-z
loop_
_atom_site_type_symbol
_atom_site_label
_atom_site_fract_x
_atom_site_fract_y
_atom_site_fract_z
Si Si1 0.405721 0.245448 0.564744
Si Si2 0.345148 0.599083 0.821130
Si Si3 0.835437 0.994777 0.519929
Si Si4 0.118548 0.862233 0.799547
Si Si5 0.111057 0.474801 0.280104
Si Si6 0.555945 0.907076 0.753682
Si Si7 0.243607 0.245853 0.047649
O O1 0.349440 0.452523 0.657230
O O2 0.439993 0.285702 0.397647
O O3 0.300696 0.014068 0.525138
O O4 0.507048 0.150124 0.678716
O O5 0.236910 0.746934 0.813901
O O6 0.462411 0.785800 0.851026
O O7 0.325422 0.390944 0.942734
O O8 0.890965 0.017963 0.365348
O O9 0.879576 0.243133 0.637685
O O10 0.856528 0.731771 0.596491
O O11 0.015643 0.640309 0.797760
O O12 0.138098 0.079532 0.939172
O O13 0.196455 0.447296 0.157835
O O14 0.679794 0.932958 0.850576
#
# Coordination Sequence:
#
# PCOD9064975 Si02
#       7
#     2   2   2   2   2   2   2
#     4  11  24  46  78 108 155 193 269 317 386 452
#     4  12  25  45  73 109 156 205 251 319 386 458
#     4  12  25  52  80 113 149 202 265 319 377 453
#     4  12  28  49  76 110 157 200 257 322 385 456
#     4  12  30  50  82 114 154 205 264 316 384 456
#     4  11  25  46  74 110 150 204 259 316 390 455
#     4  12  28  46  74 111 161 199 255 313 397 460
#
# _framework density 25.774609999999999
#
# number of rings (size 3 to 8) (size 9 to 14) (size 15 to 20)
#    0.000    0.286    4.286    3.000    4.000    6.286 
#    0.000    0.000    0.000    0.000    0.000    0.000 
#    0.000    0.000    0.000    0.000    0.000    0.000 
#
# Total GULP energy -78557.238945 kJ/mol
# GULP energy per Si atom -5611.231353 kJ/mol
# Density = 2.571595 g / cm^3
# Si number density = 25.774610 Si / 1000 Ang^3
#
#
#
# Elastic Constant Matrix: (Units=GPa)
#
#
# Indices 1 2 3 4 5 6 
#
# 1 103.5236 8.4878 33.3504 4.3296 -8.4511 13.8581
# 2 8.4878 66.7467 31.3156 7.3584 -4.9277 4.3456
# 3 33.3504 31.3156 97.9207 14.0478 9.9823 7.3209
# 4 4.3296 7.3584 14.0478 32.2742 2.4358 -9.9112
# 5 -8.4511 -4.9277 9.9823 2.4358 23.5704 1.7229
# 6 13.8581 4.3456 7.3209 -9.9112 1.7229 39.4479
#
#
#
# Elastic Compliance Matrix: (Units=1/GPa)
#
#
# Indices 1 2 3 4 5 6 
#
# 1 0.012381 0.001786 -0.004953 -0.001827 0.007421 -0.004410
# 2 0.001786 0.019088 -0.006917 -0.002970 0.008053 -0.002544
# 3 -0.004953 -0.006917 0.015756 -0.004240 -0.009378 -0.001078
# 4 -0.001827 -0.002970 -0.004240 0.037562 -0.004193 0.011376
# 5 0.007421 0.008053 -0.009378 -0.004193 0.051545 -0.005059
# 6 -0.004410 -0.002544 -0.001078 0.011376 -0.005059 0.030459
#
#
# Mechanical properties :
#
#
# Convention : Reuss Voigt Hill
#
# Bulk Modulus (GPa) = 36.95947 46.05541 41.50744
# Shear Modulus (GPa) = 25.51291 32.06099 28.78695
#
# Velocity S-wave (km/s) = 3.14960 3.53072 3.34559
# Velocity P-wave (km/s) = 5.25331 5.87611 5.57341
#
# Compressibility (1/GPa) = 0.02705666
#
# Stress axis : x y z
#
# Youngs Moduli (GPa) = 80.76656 52.38922 63.46710
#
# Poissons Ratio (x) = -0.09355 0.31433
# Poissons Ratio (y) = -0.14422 0.43902
# Poissons Ratio (z) = 0.40001 0.36239
#
# Static dielectric constant tensor:
#      x y z
#    x 2.005180 0.047270 0.029740 
#    y 0.047270 2.043670 -0.006120 
#    z 0.029740 -0.006120 2.022220 
# 
# From -- ./inp_files/229918.got.cif
#   From: 2010.05.17/outbox.cif.g08.bks.cpg/sg2_115_cif.got.tgz:229918.got - 2010.06.03 11:33:40.
