data_PCOD9064864
_publ_section_title
;
Structure prediction by ZEFSAII (Michael W. Deem and Ramdas Pophale) SiO2 
 PCOD9064864
Probable space group: P -1
;
_chemical_formula_sum "Si O2"
_cell_formula_units_Z 16
_cell_length_a 18.124837
_cell_length_b 12.316493
_cell_length_c 22.103371
_cell_angle_alpha 26.716157
_cell_angle_beta 163.694211
_cell_angle_gamma 145.919379
_cell_volume 606.077279
_symmetry_space_group_name_H-M "P -1"
_symmetry_group_IT_number 2
_symmetry_cell_setting 'triclinic'
loop_
_space_group_symop_operation_xyz
x,y,z
-x,-y,-z
loop_
_atom_site_type_symbol
_atom_site_label
_atom_site_fract_x
_atom_site_fract_y
_atom_site_fract_z
Si Si1 0.280792 0.054371 0.163181
Si Si2 0.525081 0.461311 0.965247
Si Si3 0.218244 0.093683 0.856253
Si Si4 0.335583 0.332863 0.640831
Si Si5 0.372355 0.231130 0.326502
Si Si6 0.987243 0.082691 0.562684
Si Si7 0.408897 0.796117 0.269361
Si Si8 0.957678 0.621874 0.739085
O O1 0.554389 0.886742 0.491668
O O2 0.279896 0.952700 0.146083
O O3 0.356454 0.324513 0.081450
O O4 0.000000 0.000000 0.000000
O O5 0.285502 0.352488 0.801088
O O6 0.757631 0.210726 0.271145
O O7 0.500000 0.500000 0.000000
O O8 0.450538 0.911149 0.091003
O O9 0.225658 0.914649 0.009839
O O10 0.962216 0.113666 0.600728
O O11 0.461747 0.558515 0.646007
O O12 0.178844 0.272778 0.604887
O O13 0.161244 0.418243 0.399205
O O14 0.500000 0.000000 0.500000
O O15 0.087610 0.379278 0.000734
O O16 0.144893 0.816238 0.791535
O O17 0.500000 0.500000 0.500000
O O18 0.717563 0.817066 0.488957
#
# Coordination Sequence:
#
# PCOD9064864 Si02
#       8
#     2   2   2   2   2   2   2   2
#     4  12  28  53  77 113 168 211 261 331 405 468
#     4  12  26  51  74 110 159 203 257 327 404 468
#     4  11  24  46  76 114 148 198 266 324 385 477
#     4  11  24  46  74 112 160 194 255 331 389 469
#     4  12  30  45  73 115 157 206 263 319 397 472
#     4  12  24  42  80 113 145 203 261 323 390 465
#     4  11  25  51  79 107 157 212 260 328 396 471
#     4  11  25  48  77 111 152 202 269 325 396 472
#
# _framework density 26.399276
#
# number of rings (size 3 to 8) (size 9 to 14) (size 15 to 20)
#    0.000    0.500    5.000    3.000    7.000    1.000 
#    2.250    0.000    0.000    0.000    0.000    0.000 
#    0.000    0.000    0.000    0.000    0.000    0.000 
#
# Total GULP energy -89239.439179 kJ/mol
# GULP energy per Si atom -5577.464949 kJ/mol
# Density = 2.633919 g / cm^3
# Si number density = 26.399276 Si / 1000 Ang^3
#
#
#
# Elastic Constant Matrix: (Units=GPa)
#
#
# Indices 1 2 3 4 5 6 
#
# 1 58.6874 -20.3689 21.3763 9.5153 -7.1330 -15.1297
# 2 -20.3689 155.4816 42.4024 -17.4768 -13.4265 -23.3199
# 3 21.3763 42.4024 153.0532 -4.8735 -38.3865 12.4086
# 4 9.5153 -17.4768 -4.8735 45.3406 -6.8209 -19.5456
# 5 -7.1330 -13.4265 -38.3865 -6.8209 45.3701 2.1602
# 6 -15.1297 -23.3199 12.4086 -19.5456 2.1602 38.0017
#
#
#
# Elastic Compliance Matrix: (Units=1/GPa)
#
#
# Indices 1 2 3 4 5 6 
#
# 1 0.029476 0.011113 -0.008915 0.008279 0.000401 0.025701
# 2 0.011113 0.014337 -0.006584 0.011902 0.001188 0.021426
# 3 -0.008915 -0.006584 0.012424 -0.004431 0.007178 -0.014333
# 4 0.008279 0.011902 -0.004431 0.038938 0.005417 0.031765
# 5 0.000401 0.001188 0.007178 0.005417 0.029359 -0.000338
# 6 0.025701 0.021426 -0.014333 0.031765 -0.000338 0.070733
#
#
# Mechanical properties :
#
#
# Convention : Reuss Voigt Hill
#
# Bulk Modulus (GPa) = 21.06854 50.44906 35.75880
# Shear Modulus (GPa) = 22.74170 47.32997 35.03583
#
# Velocity S-wave (km/s) = 2.93823 4.23880 3.64696
# Velocity P-wave (km/s) = 4.41690 6.56567 5.59540
#
# Compressibility (1/GPa) = 0.04746412
#
# Stress axis : x y z
#
# Youngs Moduli (GPa) = 33.92630 69.74929 80.48836
#
# Poissons Ratio (x) = -0.77510 0.71755
# Poissons Ratio (y) = -0.37701 0.52995
# Poissons Ratio (z) = 0.30245 0.45924
#
# Static dielectric constant tensor:
#      x y z
#    x 0.725880 -1.137020 0.946110 
#    y -1.137020 0.469040 0.446630 
#    z 0.946110 0.446630 1.490190 
# 
# From -- ./inp_files/600031.got.cif
#   From: 2010.05.17/outbox.cif.g08.bks.cpg/sg2_301_cif.got.tgz:600031.got - 2010.06.03 11:33:40.
