data_PCOD9064901
_publ_section_title
;
Structure prediction by ZEFSAII (Michael W. Deem and Ramdas Pophale) SiO2 
 PCOD9064901
Probable space group: P -1
;
_chemical_formula_sum "Si O2"
_cell_formula_units_Z 14
_cell_length_a 5.596886
_cell_length_b 12.457336
_cell_length_c 8.856508
_cell_angle_alpha 90.238552
_cell_angle_beta 100.614286
_cell_angle_gamma 102.093949
_cell_volume 592.872174
_symmetry_space_group_name_H-M "P -1"
_symmetry_group_IT_number 2
_symmetry_cell_setting 'triclinic'
loop_
_space_group_symop_operation_xyz
x,y,z
-x,-y,-z
loop_
_atom_site_type_symbol
_atom_site_label
_atom_site_fract_x
_atom_site_fract_y
_atom_site_fract_z
Si Si1 0.219571 0.930532 0.504087
Si Si2 0.568041 0.219667 0.255626
Si Si3 0.045587 0.596060 0.783903
Si Si4 0.723569 0.936189 0.012689
Si Si5 0.174394 0.216209 0.733804
Si Si6 0.762068 0.579437 0.062752
Si Si7 0.635929 0.629935 0.522448
O O1 0.266329 0.859009 0.653096
O O2 0.096726 0.840945 0.362770
O O3 0.500000 0.000000 0.500000
O O4 0.000000 0.000000 0.500000
O O5 0.488174 0.299232 0.372457
O O6 0.727147 0.304070 0.158393
O O7 0.346950 0.146762 0.136970
O O8 0.903678 0.624121 0.622125
O O9 0.128428 0.481242 0.786802
O O10 0.883020 0.582196 0.913740
O O11 0.723421 0.881788 0.178209
O O12 0.500000 0.000000 0.000000
O O13 0.000000 0.000000 0.000000
O O14 0.190874 0.297639 0.876173
O O15 0.327455 0.294307 0.622455
O O16 0.500000 0.500000 0.000000
O O17 0.500000 0.500000 0.500000
#
# Coordination Sequence:
#
# PCOD9064901 Si02
#       7
#     2   2   2   2   2   2   2
#     4  12  27  51  77 112 156 206 272 333 397 471
#     4  12  27  49  78 108 164 207 259 338 411 467
#     4  11  24  46  75 108 159 201 259 316 403 483
#     4  12  30  53  83 117 157 212 287 341 401 478
#     4  12  26  49  81 114 157 213 266 332 416 467
#     4  11  25  48  74 114 155 206 258 323 395 498
#     4  12  27  46  78 119 163 208 263 324 410 506
#
# _framework density 23.613859000000001
#
# number of rings (size 3 to 8) (size 9 to 14) (size 15 to 20)
#    0.000    0.286    1.429    6.857    6.000    3.429 
#    5.143    0.000    0.000    0.000    0.000    0.000 
#    0.000    0.000    0.000    0.000    0.000    0.000 
#
# Total GULP energy -78224.324444 kJ/mol
# GULP energy per Si atom -5587.451746 kJ/mol
# Density = 2.356011 g / cm^3
# Si number density = 23.613859 Si / 1000 Ang^3
#
#
#
# Elastic Constant Matrix: (Units=GPa)
#
#
# Indices 1 2 3 4 5 6 
#
# 1 121.0683 79.9017 35.8439 2.6999 7.3132 13.5765
# 2 79.9017 152.0377 57.1091 -4.0565 11.6801 15.8542
# 3 35.8439 57.1091 103.7608 -15.1290 22.5932 -0.4975
# 4 2.6999 -4.0565 -15.1290 65.8336 2.3720 17.5136
# 5 7.3132 11.6801 22.5932 2.3720 37.9106 -4.2916
# 6 13.5765 15.8542 -0.4975 17.5136 -4.2916 43.7771
#
#
#
# Elastic Compliance Matrix: (Units=1/GPa)
#
#
# Indices 1 2 3 4 5 6 
#
# 1 0.012875 -0.006203 -0.001157 -0.000792 0.000003 -0.001442
# 2 -0.006203 0.011719 -0.004146 0.000752 -0.000295 -0.002697
# 3 -0.001157 -0.004146 0.014400 0.003375 -0.007297 -0.000042
# 4 -0.000792 0.000752 0.003375 0.018237 -0.004101 -0.007686
# 5 0.000003 -0.000295 -0.007297 -0.004101 0.031613 0.004763
# 6 -0.001442 -0.002697 -0.000042 -0.007686 0.004763 0.027808
#
#
# Mechanical properties :
#
#
# Convention : Reuss Voigt Hill
#
# Bulk Modulus (GPa) = 62.56946 80.28625 71.42785
# Shear Modulus (GPa) = 34.48500 43.10507 38.79504
#
# Velocity S-wave (km/s) = 3.82563 4.27712 4.05766
# Velocity P-wave (km/s) = 6.78737 7.64625 7.22957
#
# Compressibility (1/GPa) = 0.01598224
#
# Stress axis : x y z
#
# Youngs Moduli (GPa) = 77.66840 85.33513 69.44469
#
# Poissons Ratio (x) = 0.52932 0.08034
# Poissons Ratio (y) = 0.48177 0.28792
# Poissons Ratio (z) = 0.08985 0.35380
#
# Static dielectric constant tensor:
#      x y z
#    x 2.028390 -0.106050 0.015450 
#    y -0.106050 1.900340 -0.065400 
#    z 0.015450 -0.065400 1.854860 
# 
# From -- ./inp_files/131673.got.cif
#   From: 2010.05.17/outbox.cif.g08.bks.cpg/sg2_66_cif.got.tgz:131673.got - 2010.06.03 11:33:40.
