data_PCOD9064994
_publ_section_title
;
Structure prediction by ZEFSAII (Michael W. Deem and Ramdas Pophale) SiO2 
 PCOD9064994
Probable space group: P -1
;
_chemical_formula_sum "Si O2"
_cell_formula_units_Z 12
_cell_length_a 8.923300
_cell_length_b 6.222046
_cell_length_c 8.944022
_cell_angle_alpha 102.749306
_cell_angle_beta 98.105004
_cell_angle_gamma 87.419564
_cell_volume 479.451795
_symmetry_space_group_name_H-M "P -1"
_symmetry_group_IT_number 2
_symmetry_cell_setting 'triclinic'
loop_
_space_group_symop_operation_xyz
x,y,z
-x,-y,-z
loop_
_atom_site_type_symbol
_atom_site_label
_atom_site_fract_x
_atom_site_fract_y
_atom_site_fract_z
Si Si1 0.085866 0.955109 0.235953
Si Si2 0.680485 0.711344 0.733921
Si Si3 0.359215 0.890293 0.731404
Si Si4 0.353067 0.346627 0.930800
Si Si5 0.846295 0.269602 0.091767
Si Si6 0.118513 0.655944 0.454461
O O1 0.037795 0.823660 0.354004
O O2 0.242612 0.078904 0.300303
O O3 0.112302 0.783634 0.079654
O O4 0.978144 0.150093 0.186412
O O5 0.503006 0.741619 0.687488
O O6 0.765614 0.498956 0.647363
O O7 0.696987 0.718701 0.917723
O O8 0.305191 0.844311 0.886745
O O9 0.223035 0.803172 0.598454
O O10 0.390384 0.149418 0.790254
O O11 0.206983 0.478876 0.864932
O O12 0.500000 0.500000 0.000000
O O13 0.000000 0.500000 0.500000
#
# Coordination Sequence:
#
# PCOD9064994 Si02
#       6
#     2   2   2   2   2   2
#     4  11  26  49  78 114 161 207 265 328 390 468
#     4  12  25  48  80 116 158 205 265 328 393 466
#     4  12  27  47  81 121 154 207 263 327 397 463
#     4  12  24  47  83 121 158 201 263 329 393 469
#     4  11  24  46  80 119 151 210 262 320 393 467
#     4  12  30  55  77 114 164 213 261 326 398 472
#
# _framework density 25.028586000000001
#
# number of rings (size 3 to 8) (size 9 to 14) (size 15 to 20)
#    0.000    0.333    5.000    3.000    0.000    8.000 
#    0.000    0.833    0.000    0.000    0.000    0.000 
#    0.000    0.000    0.000    0.000    0.000    0.000 
#
# Total GULP energy -67137.454760 kJ/mol
# GULP energy per Si atom -5594.787897 kJ/mol
# Density = 2.497162 g / cm^3
# Si number density = 25.028586 Si / 1000 Ang^3
#
#
#
# Elastic Constant Matrix: (Units=GPa)
#
#
# Indices 1 2 3 4 5 6 
#
# 1 123.6026 48.4835 50.8966 3.3082 0.9391 -6.6853
# 2 48.4835 110.4683 87.5363 2.4122 16.3714 -3.9117
# 3 50.8966 87.5363 114.9306 12.7464 -4.1228 -4.8080
# 4 3.3082 2.4122 12.7464 56.0703 -1.9669 -10.5612
# 5 0.9391 16.3714 -4.1228 -1.9669 37.5371 2.1630
# 6 -6.6853 -3.9117 -4.8080 -10.5612 2.1630 51.6337
#
#
#
# Elastic Compliance Matrix: (Units=1/GPa)
#
#
# Indices 1 2 3 4 5 6 
#
# 1 0.010162 -0.002409 -0.002643 0.000296 0.000468 0.000928
# 2 -0.002409 0.031138 -0.023595 0.003852 -0.015985 0.001307
# 3 -0.002643 -0.023595 0.028844 -0.005116 0.013317 -0.001048
# 4 0.000296 0.003852 -0.005116 0.019499 -0.001453 0.003903
# 5 0.000468 -0.015985 0.013317 -0.001453 0.035083 -0.001677
# 6 0.000928 0.001307 -0.001048 0.003903 -0.001677 0.020357
#
#
# Mechanical properties :
#
#
# Convention : Reuss Voigt Hill
#
# Bulk Modulus (GPa) = 77.82046 80.31491 79.06769
# Shear Modulus (GPa) = 24.19425 39.85389 32.02407
#
# Velocity S-wave (km/s) = 3.11250 3.99474 3.58089
# Velocity P-wave (km/s) = 6.63905 7.31000 6.98259
#
# Compressibility (1/GPa) = 0.01285009
#
# Stress axis : x y z
#
# Youngs Moduli (GPa) = 98.40270 32.11526 34.66966
#
# Poissons Ratio (x) = 0.07736 0.09163
# Poissons Ratio (y) = 0.23705 0.81803
# Poissons Ratio (z) = 0.26006 0.75776
#
# Static dielectric constant tensor:
#      x y z
#    x 1.997280 0.037220 0.015120 
#    y 0.037220 2.095400 -0.034940 
#    z 0.015120 -0.034940 1.993690 
# 
# From -- ./inp_files/143812.got.cif
#   From: 2010.05.17/outbox.cif.g08.bks.cpg/sg2_72_cif.got.tgz:143812.got - 2010.06.03 11:33:40.
