data_PCOD9064827
_publ_section_title
;
Structure prediction by ZEFSAII (Michael W. Deem and Ramdas Pophale) SiO2 
 PCOD9064827
Probable space group: P -1
;
_chemical_formula_sum "Si O2"
_cell_formula_units_Z 16
_cell_length_a 8.240985
_cell_length_b 16.610417
_cell_length_c 9.133505
_cell_angle_alpha 121.036336
_cell_angle_beta 79.850956
_cell_angle_gamma 137.450172
_cell_volume 678.220865
_symmetry_space_group_name_H-M "P -1"
_symmetry_group_IT_number 2
_symmetry_cell_setting 'triclinic'
loop_
_space_group_symop_operation_xyz
x,y,z
-x,-y,-z
loop_
_atom_site_type_symbol
_atom_site_label
_atom_site_fract_x
_atom_site_fract_y
_atom_site_fract_z
Si Si1 0.657931 0.488953 0.879530
Si Si2 0.368042 0.728855 0.737345
Si Si3 0.619267 0.822841 0.283589
Si Si4 0.847316 0.936587 0.656644
Si Si5 0.500491 0.050886 0.891862
Si Si6 0.800135 0.548959 0.573461
Si Si7 0.839325 0.239841 0.786777
Si Si8 0.974054 0.780320 0.554559
O O1 0.517816 0.330660 0.785338
O O2 0.694567 0.518956 0.727035
O O3 0.500000 0.500000 0.000000
O O4 0.934012 0.607436 0.024079
O O5 0.616998 0.863680 0.729960
O O6 0.326864 0.598666 0.618937
O O7 0.103146 0.654635 0.644629
O O8 0.426096 0.808527 0.952417
O O9 0.760883 0.927609 0.500385
O O10 0.402050 0.800675 0.252230
O O11 0.858006 0.904618 0.214475
O O12 0.855034 0.826581 0.568122
O O13 0.723603 0.115910 0.806649
O O14 0.229097 0.917144 0.733724
O O15 0.500000 0.000000 0.000000
O O16 0.798627 0.638591 0.552755
O O17 0.946564 0.241056 0.623498
#
# Coordination Sequence:
#
# PCOD9064827 Si02
#       8
#     2   2   2   2   2   2   2   2
#     4  12  26  50  76 116 151 198 249 318 379 447
#     4  11  24  46  74 104 152 199 246 308 374 453
#     4  11  25  46  71 111 151 199 248 308 374 448
#     4  11  25  45  75 106 151 194 252 308 382 424
#     4  12  25  45  74 110 146 198 249 306 376 446
#     4  11  25  49  77 109 151 199 254 302 390 448
#     4  12  26  47  77 110 150 200 259 303 383 453
#     4  12  26  47  74 115 145 198 253 315 371 450
#
# _framework density 23.591135000000001
#
# number of rings (size 3 to 8) (size 9 to 14) (size 15 to 20)
#    0.000    0.500    5.000    2.250    1.750    5.000 
#    2.250    0.000    0.000    0.000    0.000    0.000 
#    0.000    0.000    0.000    0.000    0.000    0.000 
#
# Total GULP energy -89565.619172 kJ/mol
# GULP energy per Si atom -5597.851198 kJ/mol
# Density = 2.353744 g / cm^3
# Si number density = 23.591135 Si / 1000 Ang^3
#
#
#
# Elastic Constant Matrix: (Units=GPa)
#
#
# Indices 1 2 3 4 5 6 
#
# 1 57.8962 62.1781 31.6791 -6.9677 -0.8807 7.4067
# 2 62.1781 184.7660 56.4836 -10.0283 -5.2338 10.8786
# 3 31.6791 56.4836 139.4922 3.7835 -4.3230 -4.7122
# 4 -6.9677 -10.0283 3.7835 45.9404 9.4280 2.3947
# 5 -0.8807 -5.2338 -4.3230 9.4280 34.5913 1.0195
# 6 7.4067 10.8786 -4.7122 2.3947 1.0195 42.8966
#
#
#
# Elastic Compliance Matrix: (Units=1/GPa)
#
#
# Indices 1 2 3 4 5 6 
#
# 1 0.028950 -0.008351 -0.003455 0.003396 -0.001784 -0.003407
# 2 -0.008351 0.008873 -0.001728 0.000714 0.000751 -0.001056
# 3 -0.003455 -0.001728 0.008816 -0.001989 0.001233 0.002085
# 4 0.003396 0.000714 -0.001989 0.024059 -0.006547 -0.002173
# 5 -0.001784 0.000751 0.001233 -0.006547 0.030919 -0.000116
# 6 -0.003407 -0.001056 0.002085 -0.002173 -0.000116 0.024521
#
#
# Mechanical properties :
#
#
# Convention : Reuss Voigt Hill
#
# Bulk Modulus (GPa) = 51.10153 75.87069 63.48611
# Shear Modulus (GPa) = 31.30274 40.13990 35.72132
#
# Velocity S-wave (km/s) = 3.64660 4.12938 3.89547
# Velocity P-wave (km/s) = 6.28001 7.41392 6.87040
#
# Compressibility (1/GPa) = 0.01956888
#
# Stress axis : x y z
#
# Youngs Moduli (GPa) = 34.54286 112.69962 113.43157
#
# Poissons Ratio (x) = 0.94121 0.39194
# Poissons Ratio (y) = 0.28848 0.19601
# Poissons Ratio (z) = 0.11936 0.19475
#
# Static dielectric constant tensor:
#      x y z
#    x 1.958890 0.018460 -0.025940 
#    y 0.018460 1.970660 -0.025020 
#    z -0.025940 -0.025020 1.876520 
# 
# From -- ./inp_files/218261.got.cif
#   From: 2010.05.17/outbox.cif.g08.bks.cpg/sg2_110_cif.got.tgz:218261.got - 2010.06.03 11:33:40.
