data_PCOD9064183
_publ_section_title
;
Structure prediction by ZEFSAII (Michael W. Deem and Ramdas Pophale) SiO2 
 PCOD9064183
Probable space group: P -1
;
_chemical_formula_sum "Si O2"
_cell_formula_units_Z 12
_cell_length_a 9.615082
_cell_length_b 14.683665
_cell_length_c 8.656292
_cell_angle_alpha 119.373158
_cell_angle_beta 69.557422
_cell_angle_gamma 148.662964
_cell_volume 547.302936
_symmetry_space_group_name_H-M "P -1"
_symmetry_group_IT_number 2
_symmetry_cell_setting 'triclinic'
loop_
_space_group_symop_operation_xyz
x,y,z
-x,-y,-z
loop_
_atom_site_type_symbol
_atom_site_label
_atom_site_fract_x
_atom_site_fract_y
_atom_site_fract_z
Si Si1 0.299540 0.995762 0.745403
Si Si2 0.309797 0.665105 0.325056
Si Si3 0.762187 0.719136 0.531706
Si Si4 0.262458 0.755384 0.739254
Si Si5 0.738195 0.930468 0.872632
Si Si6 0.694044 0.693739 0.174444
O O1 0.581969 0.177720 0.695846
O O2 0.269867 0.874136 0.758735
O O3 0.283117 0.082199 0.945052
O O4 0.044077 0.848047 0.605887
O O5 0.297241 0.699540 0.532394
O O6 0.538661 0.712233 0.258836
O O7 0.016786 0.439410 0.227457
O O8 0.500000 0.500000 0.500000
O O9 0.710796 0.804574 0.690536
O O10 0.772586 0.717683 0.341557
O O11 0.510540 0.874862 0.852482
O O12 0.032714 0.143236 0.891590
O O13 0.500000 0.500000 0.000000
#
# Coordination Sequence:
#
# PCOD9064183 Si02
#       6
#     2   2   2   2   2   2
#     4  12  26  45  74 106 142 188 238 290 353 427
#     4  11  24  45  72 100 145 185 236 292 353 417
#     4  12  25  43  72 107 139 185 237 293 351 419
#     4  11  25  47  70 104 144 192 230 291 357 420
#     4  12  25  47  72 104 146 181 237 296 351 417
#     4  12  25  46  74 105 140 188 235 296 356 417
#
# _framework density 21.925701
#
# number of rings (size 3 to 8) (size 9 to 14) (size 15 to 20)
#    0.000    0.333    3.333    6.000    4.667    0.667 
#    0.000    0.000    0.000    0.000    0.000    0.000 
#    0.000    0.000    0.000    0.000    0.000    0.000 
#
# Total GULP energy -67142.653096 kJ/mol
# GULP energy per Si atom -5595.221091 kJ/mol
# Density = 2.187580 g / cm^3
# Si number density = 21.925701 Si / 1000 Ang^3
#
#
#
# Elastic Constant Matrix: (Units=GPa)
#
#
# Indices 1 2 3 4 5 6 
#
# 1 107.1205 58.8240 31.0705 20.1987 20.6671 7.3053
# 2 58.8240 200.3006 35.9606 5.4677 22.3817 1.9153
# 3 31.0705 35.9606 128.2226 8.3005 23.6374 0.9335
# 4 20.1987 5.4677 8.3005 38.7586 -4.4610 -6.9395
# 5 20.6671 22.3817 23.6374 -4.4610 15.9515 3.8365
# 6 7.3053 1.9153 0.9335 -6.9395 3.8365 29.8809
#
#
#
# Elastic Compliance Matrix: (Units=1/GPa)
#
#
# Indices 1 2 3 4 5 6 
#
# 1 0.017545 -0.002323 0.001826 -0.012773 -0.024792 -0.003981
# 2 -0.002323 0.006365 -0.000102 -0.000201 -0.006040 0.000892
# 3 0.001826 -0.000102 0.011680 -0.005784 -0.021289 0.000585
# 4 -0.012773 -0.000201 -0.005784 0.039115 0.034421 0.007981
# 5 -0.024792 -0.006040 -0.021289 0.034421 0.145312 -0.003550
# 6 -0.003981 0.000892 0.000585 0.007981 -0.003550 0.036673
#
#
# Mechanical properties :
#
#
# Convention : Reuss Voigt Hill
#
# Bulk Modulus (GPa) = 29.07731 76.37265 52.72498
# Shear Modulus (GPa) = 18.56314 37.57077 28.06696
#
# Velocity S-wave (km/s) = 2.91286 4.14400 3.58172
# Velocity P-wave (km/s) = 4.96020 7.60296 6.41906
#
# Compressibility (1/GPa) = 0.03439107
#
# Stress axis : x y z
#
# Youngs Moduli (GPa) = 56.99792 157.10916 85.61878
#
# Poissons Ratio (x) = 0.36502 -0.15638
# Poissons Ratio (y) = 0.13242 0.00875
# Poissons Ratio (z) = -0.10410 0.01605
#
# Static dielectric constant tensor:
#      x y z
#    x 1.821780 -0.028530 -0.011480 
#    y -0.028530 1.916520 -0.208240 
#    z -0.011480 -0.208240 1.972900 
# 
# From -- ./inp_files/148872.got.cif
#   From: 2010.05.17/outbox.cif.g08.bks.cpg/sg2_75_cif.got.tgz:148872.got - 2010.06.03 11:33:40.
