data_PCOD9064797
_publ_section_title
;
Structure prediction by ZEFSAII (Michael W. Deem and Ramdas Pophale) SiO2 
 PCOD9064797
Probable space group: P -1
;
_chemical_formula_sum "Si O2"
_cell_formula_units_Z 16
_cell_length_a 5.149938
_cell_length_b 18.893049
_cell_length_c 7.675859
_cell_angle_alpha 59.203277
_cell_angle_beta 77.213969
_cell_angle_gamma 74.030336
_cell_volume 613.840957
_symmetry_space_group_name_H-M "P -1"
_symmetry_group_IT_number 2
_symmetry_cell_setting 'triclinic'
loop_
_space_group_symop_operation_xyz
x,y,z
-x,-y,-z
loop_
_atom_site_type_symbol
_atom_site_label
_atom_site_fract_x
_atom_site_fract_y
_atom_site_fract_z
Si Si1 0.039435 0.315590 0.979626
Si Si2 0.290546 0.091470 0.796064
Si Si3 0.782576 0.081008 0.484633
Si Si4 0.872578 0.506776 0.704887
Si Si5 0.818425 0.088706 0.092311
Si Si6 0.971851 0.772383 0.590373
Si Si7 0.283519 0.613621 0.607243
Si Si8 0.374639 0.730262 0.153874
O O1 0.303970 0.301019 0.839035
O O2 0.915964 0.413506 0.892177
O O3 0.804978 0.270774 0.993649
O O4 0.178629 0.274841 0.188598
O O5 0.590930 0.076067 0.684584
O O6 0.173805 0.183623 0.613642
O O7 0.208473 0.004712 0.844517
O O8 0.139402 0.093887 0.004813
O O9 0.659641 0.102297 0.283955
O O10 0.951518 0.149691 0.423297
O O11 0.000000 0.000000 0.500000
O O12 0.561021 0.551302 0.682500
O O13 0.000000 0.500000 0.500000
O O14 0.038824 0.564238 0.716695
O O15 0.680425 0.172046 0.899571
O O16 0.234460 0.699762 0.613887
O O17 0.271219 0.655853 0.365894
#
# Coordination Sequence:
#
# PCOD9064797 Si02
#       8
#     2   2   2   2   2   2   2   2
#     4  12  27  43  76 104 142 189 249 302 373 454
#     4  11  26  47  70 107 152 191 257 312 371 453
#     4  12  26  46  73 106 149 201 252 313 377 446
#     4  12  24  47  76 108 141 190 248 311 378 455
#     4  11  24  46  73 107 147 202 249 310 381 444
#     4  12  28  46  67 109 147 193 248 308 378 445
#     4  12  26  45  76 105 149 185 242 318 372 443
#     4  12  23  44  72 110 138 192 247 300 365 452
#
# _framework density 26.065384000000002
#
# number of rings (size 3 to 8) (size 9 to 14) (size 15 to 20)
#    0.000    0.250    6.250    2.250    3.500    2.500 
#    0.000    0.000    0.000    0.000    0.000    0.000 
#    0.000    0.000    0.000    0.000    0.000    0.000 
#
# Total GULP energy -89258.348463 kJ/mol
# GULP energy per Si atom -5578.646779 kJ/mol
# Density = 2.600606 g / cm^3
# Si number density = 26.065384 Si / 1000 Ang^3
#
#
#
# Elastic Constant Matrix: (Units=GPa)
#
#
# Indices 1 2 3 4 5 6 
#
# 1 72.2281 30.2176 30.4392 -5.1879 -2.6121 -12.5041
# 2 30.2176 137.0533 28.6486 -28.0710 6.0645 -10.9113
# 3 30.4392 28.6486 92.3645 -38.0907 4.8289 -7.0042
# 4 -5.1879 -28.0710 -38.0907 49.3337 4.6336 3.1957
# 5 -2.6121 6.0645 4.8289 4.6336 16.5276 -6.7853
# 6 -12.5041 -10.9113 -7.0042 3.1957 -6.7853 33.2758
#
#
#
# Elastic Compliance Matrix: (Units=1/GPa)
#
#
# Indices 1 2 3 4 5 6 
#
# 1 0.021004 -0.004561 -0.009574 -0.009602 0.013817 0.008121
# 2 -0.004561 0.009659 0.001741 0.007020 -0.006844 -0.000250
# 3 -0.009574 0.001741 0.021459 0.018161 -0.014862 -0.003284
# 4 -0.009602 0.007020 0.018161 0.039829 -0.023031 -0.006005
# 5 0.013817 -0.006844 -0.014862 -0.023031 0.083853 0.019130
# 6 0.008121 -0.000250 -0.003284 -0.006005 0.019130 0.036808
#
#
# Mechanical properties :
#
#
# Convention : Reuss Voigt Hill
#
# Bulk Modulus (GPa) = 36.58406 53.36185 44.97296
# Shear Modulus (GPa) = 20.28307 33.98345 27.13326
#
# Velocity S-wave (km/s) = 2.79258 3.61470 3.22991
# Velocity P-wave (km/s) = 4.94611 6.15940 5.58579
#
# Compressibility (1/GPa) = 0.02733431
#
# Stress axis : x y z
#
# Youngs Moduli (GPa) = 47.61027 103.53196 46.59997
#
# Poissons Ratio (x) = 0.47224 0.44613
# Poissons Ratio (y) = 0.21716 -0.08113
# Poissons Ratio (z) = 0.45580 -0.18025
#
# Static dielectric constant tensor:
#      x y z
#    x 2.123280 0.009400 0.126750 
#    y 0.009400 2.084990 0.154950 
#    z 0.126750 0.154950 2.383310 
# 
# From -- ./inp_files/111715.got.cif
#   From: 2010.05.17/outbox.cif.g08.bks.cpg/sg2_56_cif.got.tgz:111715.got - 2010.06.03 11:33:40.
