data_PCOD9064505
_publ_section_title
;
Structure prediction by ZEFSAII (Michael W. Deem and Ramdas Pophale) SiO2 
 PCOD9064505
Probable space group: P -1
;
_chemical_formula_sum "Si O2"
_cell_formula_units_Z 16
_cell_length_a 5.975327
_cell_length_b 9.699430
_cell_length_c 17.182030
_cell_angle_alpha 75.550693
_cell_angle_beta 105.401946
_cell_angle_gamma 129.385260
_cell_volume 737.630192
_symmetry_space_group_name_H-M "P -1"
_symmetry_group_IT_number 2
_symmetry_cell_setting 'triclinic'
loop_
_space_group_symop_operation_xyz
x,y,z
-x,-y,-z
loop_
_atom_site_type_symbol
_atom_site_label
_atom_site_fract_x
_atom_site_fract_y
_atom_site_fract_z
Si Si1 0.230052 0.951478 0.037169
Si Si2 0.256162 0.724771 0.296367
Si Si3 0.188540 0.469105 0.960034
Si Si4 0.756413 0.984005 0.797914
Si Si5 0.159430 0.014456 0.433569
Si Si6 0.118751 0.948326 0.749364
Si Si7 0.232816 0.710090 0.474395
Si Si8 0.171032 0.645826 0.778537
O O1 0.027337 0.738603 0.051046
O O2 0.351097 0.025106 0.124525
O O3 0.500000 0.000000 0.000000
O O4 0.000000 0.000000 0.000000
O O5 0.333261 0.723570 0.392783
O O6 0.044444 0.526334 0.270487
O O7 0.113618 0.827954 0.258043
O O8 0.554052 0.870551 0.257546
O O9 0.228916 0.578873 0.871374
O O10 0.500000 0.500000 0.000000
O O11 0.000000 0.500000 0.000000
O O12 0.486827 0.812100 0.750762
O O13 0.010138 0.964411 0.819812
O O14 0.497374 0.182908 0.456105
O O15 0.039430 0.046515 0.341886
O O16 0.116507 0.828606 0.448188
O O17 0.000000 0.000000 0.500000
O O18 0.046859 0.755128 0.769102
O O19 0.000000 0.500000 0.500000
#
# Coordination Sequence:
#
# PCOD9064505 Si02
#       8
#     2   2   2   2   2   2   2   2
#     4  12  27  48  76 107 149 197 243 303 376 448
#     4  11  24  46  66 104 139 183 241 302 361 439
#     4  12  27  49  74 111 148 190 248 307 367 452
#     4  11  25  47  69  98 143 187 236 294 365 433
#     4  11  24  46  65  99 141 188 236 300 364 434
#     4  11  26  44  72 100 144 189 240 303 370 439
#     4  11  26  41  71 100 141 185 246 298 368 436
#     4  11  27  44  71 103 143 181 240 297 371 430
#
# _framework density 21.691085000000001
#
# number of rings (size 3 to 8) (size 9 to 14) (size 15 to 20)
#    0.000    0.750    3.750    2.250   10.500    3.500 
#    0.000    0.000    0.000    0.000    0.000    0.000 
#    0.000    0.000    0.000    0.000    0.000    0.000 
#
# Total GULP energy -89170.890498 kJ/mol
# GULP energy per Si atom -5573.180656 kJ/mol
# Density = 2.164172 g / cm^3
# Si number density = 21.691085 Si / 1000 Ang^3
#
#
#
# Elastic Constant Matrix: (Units=GPa)
#
#
# Indices 1 2 3 4 5 6 
#
# 1 110.1226 45.0315 46.5165 3.0357 -3.5454 -19.2801
# 2 45.0315 210.9344 30.9750 4.2368 4.2663 -15.6286
# 3 46.5165 30.9750 87.8459 7.6983 0.6094 -2.6405
# 4 3.0357 4.2368 7.6983 28.8695 -5.2331 3.8505
# 5 -3.5454 4.2663 0.6094 -5.2331 44.0359 0.4523
# 6 -19.2801 -15.6286 -2.6405 3.8505 0.4523 20.3955
#
#
#
# Elastic Compliance Matrix: (Units=1/GPa)
#
#
# Indices 1 2 3 4 5 6 
#
# 1 0.014704 -0.001223 -0.006913 -0.000943 0.001160 0.012220
# 2 -0.001223 0.005421 -0.001086 -0.000919 -0.000749 0.003047
# 3 -0.006913 -0.001086 0.015533 -0.002786 -0.000948 -0.004809
# 4 -0.000943 -0.000919 -0.002786 0.037677 0.004623 -0.009172
# 5 0.001160 -0.000749 -0.000948 0.004623 0.023447 -0.000993
# 6 0.012220 0.003047 -0.004809 -0.009172 -0.000993 0.064048
#
#
# Mechanical properties :
#
#
# Convention : Reuss Voigt Hill
#
# Bulk Modulus (GPa) = 58.09468 72.66099 65.37783
# Shear Modulus (GPa) = 27.02518 37.75218 32.38868
#
# Velocity S-wave (km/s) = 3.53358 4.17639 3.86836
# Velocity P-wave (km/s) = 6.59463 7.53838 7.08224
#
# Compressibility (1/GPa) = 0.01721328
#
# Stress axis : x y z
#
# Youngs Moduli (GPa) = 68.01013 184.47286 64.37769
#
# Poissons Ratio (x) = 0.22562 0.44503
# Poissons Ratio (y) = 0.08318 0.06994
# Poissons Ratio (z) = 0.47014 0.20041
#
# Static dielectric constant tensor:
#      x y z
#    x 1.865370 0.024220 0.010130 
#    y 0.024220 1.735820 0.020500 
#    z 0.010130 0.020500 1.831560 
# 
# From -- ./inp_files/548048.got.cif
#   From: 2010.05.17/outbox.cif.g08.bks.cpg/sg2_275_cif.got.tgz:548048.got - 2010.06.03 11:33:40.
