data_PCOD9064584
_publ_section_title
;
Structure prediction by ZEFSAII (Michael W. Deem and Ramdas Pophale) SiO2 
 PCOD9064584
Probable space group: P -1
;
_chemical_formula_sum "Si O2"
_cell_formula_units_Z 16
_cell_length_a 18.829415
_cell_length_b 8.020853
_cell_length_c 13.327391
_cell_angle_alpha 146.288067
_cell_angle_beta 144.107186
_cell_angle_gamma 37.644071
_cell_volume 610.416880
_symmetry_space_group_name_H-M "P -1"
_symmetry_group_IT_number 2
_symmetry_cell_setting 'triclinic'
loop_
_space_group_symop_operation_xyz
x,y,z
-x,-y,-z
loop_
_atom_site_type_symbol
_atom_site_label
_atom_site_fract_x
_atom_site_fract_y
_atom_site_fract_z
Si Si1 0.190471 0.184847 0.498164
Si Si2 0.513472 0.598263 0.941303
Si Si3 0.394836 0.309788 0.488738
Si Si4 0.183602 0.639809 0.881546
Si Si5 0.151724 0.217556 0.816352
Si Si6 0.852332 0.444366 0.554536
Si Si7 0.499820 0.145941 0.315905
Si Si8 0.946390 0.274478 0.890843
O O1 0.141483 0.511637 0.667419
O O2 0.145799 0.282604 0.383692
O O3 0.345994 0.062295 0.605474
O O4 0.134334 0.929898 0.351767
O O5 0.665247 0.413997 0.992720
O O6 0.463802 0.985147 0.097382
O O7 0.500000 0.500000 0.000000
O O8 0.438926 0.558404 0.733304
O O9 0.248230 0.395206 0.393917
O O10 0.411173 0.184772 0.330614
O O11 0.500000 0.000000 0.500000
O O12 0.183833 0.367146 0.826101
O O13 0.072538 0.994099 0.946245
O O14 0.997110 0.294015 0.682215
O O15 0.197256 0.831372 0.687219
O O16 0.163194 0.467678 0.036691
O O17 0.500000 0.500000 0.500000
O O18 0.000000 0.500000 0.000000
#
# Coordination Sequence:
#
# PCOD9064584 Si02
#       8
#     2   2   2   2   2   2   2   2
#     4  11  24  46  69  98 143 180 230 292 353 424
#     4  11  25  46  72 106 142 186 240 296 359 426
#     4  12  24  44  78 103 141 194 236 293 364 425
#     4  11  25  45  72  98 143 181 229 295 353 413
#     4  11  27  43  71 104 137 182 234 294 347 417
#     4  11  25  46  71 100 142 182 236 283 358 423
#     4  11  27  45  69 107 142 188 240 299 360 424
#     4  12  27  42  69 104 134 184 235 286 351 421
#
# _framework density 26.211594999999999
#
# number of rings (size 3 to 8) (size 9 to 14) (size 15 to 20)
#    0.000    0.750    3.750    2.250   10.500    2.500 
#    0.000    0.000    0.000    0.000    0.000    0.000 
#    0.000    0.000    0.000    0.000    0.000    0.000 
#
# Total GULP energy -89130.897452 kJ/mol
# GULP energy per Si atom -5570.681091 kJ/mol
# Density = 2.615194 g / cm^3
# Si number density = 26.211595 Si / 1000 Ang^3
#
#
#
# Elastic Constant Matrix: (Units=GPa)
#
#
# Indices 1 2 3 4 5 6 
#
# 1 138.4226 25.4330 30.4657 10.5806 15.5473 -18.8225
# 2 25.4330 56.0181 10.0583 21.5787 5.9042 -14.7446
# 3 30.4657 10.0583 142.9220 12.3009 -9.9716 -10.7100
# 4 10.5806 21.5787 12.3009 44.6339 -5.5490 4.8930
# 5 15.5473 5.9042 -9.9716 -5.5490 45.3096 6.4522
# 6 -18.8225 -14.7446 -10.7100 4.8930 6.4522 37.8274
#
#
#
# Elastic Compliance Matrix: (Units=1/GPa)
#
#
# Indices 1 2 3 4 5 6 
#
# 1 0.009074 -0.001436 -0.001615 -0.002019 -0.004165 0.004470
# 2 -0.001436 0.029210 0.000199 -0.016283 -0.007268 0.014073
# 3 -0.001615 0.000199 0.007708 -0.001763 0.001813 0.001375
# 4 -0.002019 -0.016283 -0.001763 0.033799 0.008513 -0.013675
# 5 -0.004165 -0.007268 0.001813 0.008513 0.027335 -0.010156
# 6 0.004470 0.014073 0.001375 -0.013675 -0.010156 0.038036
#
#
# Mechanical properties :
#
#
# Convention : Reuss Voigt Hill
#
# Bulk Modulus (GPa) = 24.82096 52.14188 38.48142
# Shear Modulus (GPa) = 30.43314 43.64789 37.04052
#
# Velocity S-wave (km/s) = 3.41112 4.08513 3.76325
# Velocity P-wave (km/s) = 5.00044 6.49514 5.79617
#
# Compressibility (1/GPa) = 0.04028852
#
# Stress axis : x y z
#
# Youngs Moduli (GPa) = 110.21047 34.23459 129.72923
#
# Poissons Ratio (x) = 0.04917 0.20951
# Poissons Ratio (y) = 0.15829 -0.02587
# Poissons Ratio (z) = 0.17799 -0.00683
#
# Static dielectric constant tensor:
#      x y z
#    x 1.985290 0.045460 0.031630 
#    y 0.045460 1.959940 0.090670 
#    z 0.031630 0.090670 2.285380 
# 
# From -- ./inp_files/537708.got.cif
#   From: 2010.05.17/outbox.cif.g08.bks.cpg/sg2_269_cif.got.tgz:537708.got - 2010.06.03 11:33:40.
