data_PCOD9064275
_publ_section_title
;
Structure prediction by ZEFSAII (Michael W. Deem and Ramdas Pophale) SiO2 
 PCOD9064275
Probable space group: P -1
;
_chemical_formula_sum "Si O2"
_cell_formula_units_Z 16
_cell_length_a 9.046253
_cell_length_b 11.584127
_cell_length_c 16.325624
_cell_angle_alpha 144.173331
_cell_angle_beta 137.515769
_cell_angle_gamma 56.366672
_cell_volume 672.118698
_symmetry_space_group_name_H-M "P -1"
_symmetry_group_IT_number 2
_symmetry_cell_setting 'triclinic'
loop_
_space_group_symop_operation_xyz
x,y,z
-x,-y,-z
loop_
_atom_site_type_symbol
_atom_site_label
_atom_site_fract_x
_atom_site_fract_y
_atom_site_fract_z
Si Si1 0.534758 0.840128 0.492437
Si Si2 0.761360 0.039708 0.274973
Si Si3 0.925614 0.854597 0.083560
Si Si4 0.773348 0.757568 0.258493
Si Si5 0.254095 0.837211 0.930279
Si Si6 0.100761 0.547479 0.158547
Si Si7 0.119347 0.363622 0.585221
Si Si8 0.320344 0.857118 0.146323
O O1 0.304984 0.710004 0.328812
O O2 0.738447 0.726053 0.479677
O O3 0.500000 0.000000 0.500000
O O4 0.575641 0.935734 0.654008
O O5 0.860409 0.266134 0.423615
O O6 0.903772 0.913725 0.201652
O O7 0.806774 0.969736 0.345812
O O8 0.510224 0.945739 0.096308
O O9 0.161345 0.792703 0.118785
O O10 0.784752 0.650867 0.885211
O O11 0.869203 0.037806 0.112481
O O12 0.810063 0.729151 0.353043
O O13 0.507584 0.719332 0.121825
O O14 0.922968 0.618355 0.190069
O O15 0.188451 0.867974 0.015304
O O16 0.191039 0.601314 0.752055
O O17 0.000000 0.500000 0.000000
#
# Coordination Sequence:
#
# PCOD9064275 Si02
#       8
#     2   2   2   2   2   2   2   2
#     4  12  24  44  70 108 148 186 234 298 367 432
#     4  11  24  45  73 103 146 184 238 308 353 424
#     4  12  24  50  69 102 144 192 246 296 357 432
#     4  11  25  41  72 111 141 184 238 296 370 437
#     4  11  28  47  74 102 144 197 250 294 353 433
#     4  12  26  42  74 108 145 186 235 301 374 426
#     4  12  25  45  74 110 145 191 239 295 372 430
#     4  11  25  46  70 101 150 187 232 307 360 417
#
# _framework density 23.805320999999999
#
# number of rings (size 3 to 8) (size 9 to 14) (size 15 to 20)
#    0.000    0.500    3.750    4.125    5.250    3.000 
#    2.250    0.625    0.000    0.000    0.000    0.000 
#    0.000    0.000    0.000    0.000    0.000    0.000 
#
# Total GULP energy -89267.043885 kJ/mol
# GULP energy per Si atom -5579.190243 kJ/mol
# Density = 2.375114 g / cm^3
# Si number density = 23.805321 Si / 1000 Ang^3
#
#
#
# Elastic Constant Matrix: (Units=GPa)
#
#
# Indices 1 2 3 4 5 6 
#
# 1 142.2267 28.6270 37.9982 5.6047 -9.5270 3.1184
# 2 28.6270 67.5323 40.8786 24.4533 3.1612 7.9441
# 3 37.9982 40.8786 148.1424 22.8663 4.1063 -7.3655
# 4 5.6047 24.4533 22.8663 26.9255 3.3553 1.5633
# 5 -9.5270 3.1612 4.1063 3.3553 41.8093 -9.6465
# 6 3.1184 7.9441 -7.3655 1.5633 -9.6465 21.1967
#
#
#
# Elastic Compliance Matrix: (Units=1/GPa)
#
#
# Indices 1 2 3 4 5 6 
#
# 1 0.008211 -0.003646 -0.001543 0.002616 0.002186 0.000424
# 2 -0.003646 0.027400 -0.004069 -0.019571 -0.003543 -0.011316
# 3 -0.001543 -0.004069 0.009171 -0.004178 0.000672 0.005553
# 4 0.002616 -0.019571 -0.004178 0.058169 -0.002127 0.000241
# 5 0.002186 -0.003543 0.000672 -0.002127 0.028057 0.014165
# 6 0.000424 -0.011316 0.005553 0.000241 0.014165 0.059714
#
#
# Mechanical properties :
#
#
# Convention : Reuss Voigt Hill
#
# Bulk Modulus (GPa) = 38.07219 63.65653 50.86436
# Shear Modulus (GPa) = 22.93642 34.67949 28.80796
#
# Velocity S-wave (km/s) = 3.10740 3.82094 3.48249
# Velocity P-wave (km/s) = 5.37610 6.80181 6.13054
#
# Compressibility (1/GPa) = 0.02626589
#
# Stress axis : x y z
#
# Youngs Moduli (GPa) = 121.78384 36.49636 109.03555
#
# Poissons Ratio (x) = 0.13306 0.16828
# Poissons Ratio (y) = 0.44401 0.44368
# Poissons Ratio (z) = 0.18796 0.14851
#
# Static dielectric constant tensor:
#      x y z
#    x 1.908920 -0.007770 0.100630 
#    y -0.007770 1.943430 0.028800 
#    z 0.100630 0.028800 2.128770 
# 
# From -- ./inp_files/560213.got.cif
#   From: 2010.05.17/outbox.cif.g08.bks.cpg/sg2_281_cif.got.tgz:560213.got - 2010.06.03 11:33:40.
