data_PCOD9064048
_publ_section_title
;
Structure prediction by ZEFSAII (Michael W. Deem and Ramdas Pophale) SiO2 
 PCOD9064048
Probable space group: P -1
;
_chemical_formula_sum "Si O2"
_cell_formula_units_Z 16
_cell_length_a 11.691366
_cell_length_b 5.951372
_cell_length_c 16.817616
_cell_angle_alpha 90.244172
_cell_angle_beta 58.435970
_cell_angle_gamma 50.335804
_cell_volume 657.506195
_symmetry_space_group_name_H-M "P -1"
_symmetry_group_IT_number 2
_symmetry_cell_setting 'triclinic'
loop_
_space_group_symop_operation_xyz
x,y,z
-x,-y,-z
loop_
_atom_site_type_symbol
_atom_site_label
_atom_site_fract_x
_atom_site_fract_y
_atom_site_fract_z
Si Si1 0.228178 0.888458 0.766094
Si Si2 0.195727 0.741960 0.079087
Si Si3 0.077139 0.241480 0.254303
Si Si4 0.201537 0.099511 0.945702
Si Si5 0.520114 0.039661 0.883909
Si Si6 0.382604 0.047805 0.616806
Si Si7 0.922736 0.850485 0.558792
Si Si8 0.497247 0.813464 0.293426
O O1 0.290992 0.556023 0.756600
O O2 0.286385 0.933846 0.827593
O O3 0.345295 0.832769 0.646881
O O4 0.987292 0.205023 0.848353
O O5 0.176816 0.923357 0.162796
O O6 0.405384 0.349906 0.986666
O O7 0.151931 0.944500 0.016030
O O8 0.056695 0.186933 0.353035
O O9 0.852844 0.578233 0.304813
O O10 0.238154 0.246369 0.192766
O O11 0.380221 0.995733 0.930273
O O12 0.000000 0.500000 0.000000
O O13 0.496293 0.153776 0.801859
O O14 0.516640 0.957554 0.643626
O O15 0.500000 0.000000 0.500000
O O16 0.000000 0.500000 0.500000
O O17 0.684178 0.131059 0.624713
O O18 0.000000 0.000000 0.500000
#
# Coordination Sequence:
#
# PCOD9064048 Si02
#       8
#     2   2   2   2   2   2   2   2
#     4  12  24  42  73 104 147 190 254 310 369 462
#     4  12  24  43  68 109 147 187 234 304 384 450
#     4  11  27  48  69 113 148 188 252 313 384 451
#     4  12  22  39  72 102 145 198 245 292 369 467
#     4  11  24  45  70 102 148 195 238 297 376 468
#     4  12  27  47  72 102 143 189 253 321 381 432
#     4  11  28  53  81 107 149 205 264 320 386 456
#     4  11  24  45  74 103 141 196 254 303 373 464
#
# _framework density 24.334371000000001
#
# number of rings (size 3 to 8) (size 9 to 14) (size 15 to 20)
#    0.000    0.500    5.000    3.000    3.500    3.000 
#    2.250    0.000    0.000    0.000    0.000    0.000 
#    0.000    0.000    0.000    0.000    0.000    0.000 
#
# Total GULP energy -89368.224418 kJ/mol
# GULP energy per Si atom -5585.514026 kJ/mol
# Density = 2.427898 g / cm^3
# Si number density = 24.334371 Si / 1000 Ang^3
#
#
#
# Elastic Constant Matrix: (Units=GPa)
#
#
# Indices 1 2 3 4 5 6 
#
# 1 131.2169 27.9562 47.1471 -10.7463 -13.4219 -12.0457
# 2 27.9562 66.7505 30.2324 -14.5961 -6.5417 -13.5092
# 3 47.1471 30.2324 131.3590 -27.5150 -12.7762 4.7938
# 4 -10.7463 -14.5961 -27.5150 38.6983 -0.9272 -3.7138
# 5 -13.4219 -6.5417 -12.7762 -0.9272 53.3320 2.6961
# 6 -12.0457 -13.5092 4.7938 -3.7138 2.6961 29.7250
#
#
#
# Elastic Compliance Matrix: (Units=1/GPa)
#
#
# Indices 1 2 3 4 5 6 
#
# 1 0.009532 -0.001774 -0.002963 0.000233 0.001301 0.003445
# 2 -0.001774 0.020504 -0.003090 0.006004 0.000939 0.009763
# 3 -0.002963 -0.003090 0.010826 0.005383 0.001756 -0.003838
# 4 0.000233 0.006004 0.005383 0.032612 0.002357 0.005815
# 5 0.001301 0.000939 0.001756 0.002357 0.019696 -0.000821
# 6 0.003445 0.009763 -0.003838 0.005815 -0.000821 0.040895
#
#
# Mechanical properties :
#
#
# Convention : Reuss Voigt Hill
#
# Bulk Modulus (GPa) = 39.67056 59.99976 49.83516
# Shear Modulus (GPa) = 31.62104 39.28378 35.45241
#
# Velocity S-wave (km/s) = 3.60868 4.02224 3.82106
# Velocity P-wave (km/s) = 5.80527 6.80302 6.32385
#
# Compressibility (1/GPa) = 0.02520761
#
# Stress axis : x y z
#
# Youngs Moduli (GPa) = 104.90760 48.77014 92.37211
#
# Poissons Ratio (x) = 0.08654 0.27373
# Poissons Ratio (y) = 0.18615 0.28539
# Poissons Ratio (z) = 0.31088 0.15068
#
# Static dielectric constant tensor:
#      x y z
#    x 1.836090 -0.524440 -0.379470 
#    y -0.524440 -0.281380 -1.331250 
#    z -0.379470 -1.331250 1.151730 
# 
# From -- ./inp_files/564455.got.cif
#   From: 2010.05.17/outbox.cif.g08.bks.cpg/sg2_283_cif.got.tgz:564455.got - 2010.06.03 11:33:40.
