data_PCOD9064096
_publ_section_title
;
Structure prediction by ZEFSAII (Michael W. Deem and Ramdas Pophale) SiO2 
 PCOD9064096
Probable space group: P -1
;
_chemical_formula_sum "Si O2"
_cell_formula_units_Z 16
_cell_length_a 15.447041
_cell_length_b 12.603032
_cell_length_c 11.937117
_cell_angle_alpha 79.721001
_cell_angle_beta 60.972984
_cell_angle_gamma 26.949382
_cell_volume 706.691687
_symmetry_space_group_name_H-M "P -1"
_symmetry_group_IT_number 2
_symmetry_cell_setting 'triclinic'
loop_
_space_group_symop_operation_xyz
x,y,z
-x,-y,-z
loop_
_atom_site_type_symbol
_atom_site_label
_atom_site_fract_x
_atom_site_fract_y
_atom_site_fract_z
Si Si1 0.892056 0.362074 0.199789
Si Si2 0.891828 0.600766 0.176018
Si Si3 0.206924 0.230467 0.260533
Si Si4 0.722864 0.337538 0.463302
Si Si5 0.657613 0.355795 0.748040
Si Si6 0.538276 0.671774 0.895157
Si Si7 0.596867 0.623383 0.106802
Si Si8 0.347632 0.262132 0.353016
O O1 0.771030 0.602606 0.258272
O O2 0.790281 0.380082 0.350917
O O3 0.804434 0.415305 0.120366
O O4 0.227788 0.030222 0.051532
O O5 0.135159 0.357579 0.161883
O O6 0.646454 0.936712 0.284685
O O7 0.000000 0.500000 0.000000
O O8 0.328463 0.193233 0.278027
O O9 0.909940 0.494874 0.448908
O O10 0.401181 0.927638 0.186658
O O11 0.500000 0.500000 0.500000
O O12 0.617071 0.452724 0.634907
O O13 0.017126 0.974745 0.358791
O O14 0.501796 0.586473 0.893949
O O15 0.566603 0.324312 0.798498
O O16 0.662546 0.613927 0.726861
O O17 0.716756 0.502907 0.928132
#
# Coordination Sequence:
#
# PCOD9064096 Si02
#       8
#     2   2   2   2   2   2   2   2
#     4  12  25  42  70 101 132 177 229 275 337 400
#     4  12  23  44  70  98 134 175 223 275 342 398
#     4  11  25  45  69  98 135 172 229 275 338 400
#     4  11  24  45  70  99 130 184 223 278 333 396
#     4  11  26  45  70  99 137 177 226 272 340 396
#     4  12  27  43  67 101 138 176 226 277 334 400
#     4  12  24  45  71  96 134 182 218 281 336 401
#     4  11  26  43  67 102 131 176 223 281 333 402
#
# _framework density 22.640708
#
# number of rings (size 3 to 8) (size 9 to 14) (size 15 to 20)
#    0.000    0.500    6.250    0.750    7.000    2.500 
#    0.000    0.000    0.000    0.000    0.000    0.000 
#    0.000    0.000    0.000    0.000    0.000    0.000 
#
# Total GULP energy -89569.770125 kJ/mol
# GULP energy per Si atom -5598.110633 kJ/mol
# Density = 2.258918 g / cm^3
# Si number density = 22.640708 Si / 1000 Ang^3
#
#
#
# Elastic Constant Matrix: (Units=GPa)
#
#
# Indices 1 2 3 4 5 6 
#
# 1 95.0861 28.0798 0.6404 -13.5777 10.2323 -4.7852
# 2 28.0798 90.8285 21.3955 -40.3151 7.6107 -12.0151
# 3 0.6404 21.3955 46.2929 -24.7378 -0.2476 6.0282
# 4 -13.5777 -40.3151 -24.7378 31.5939 -3.3197 -0.8941
# 5 10.2323 7.6107 -0.2476 -3.3197 30.7525 -0.9527
# 6 -4.7852 -12.0151 6.0282 -0.8941 -0.9527 36.4109
#
#
#
# Elastic Compliance Matrix: (Units=1/GPa)
#
#
# Indices 1 2 3 4 5 6 
#
# 1 0.012142 -0.002066 0.003332 0.004891 -0.002961 0.000405
# 2 -0.002066 0.031724 0.009096 0.046811 -0.001734 0.009795
# 3 0.003332 0.009096 0.042494 0.046446 0.001921 -0.002405
# 4 0.004891 0.046811 0.046446 0.130350 0.001593 0.011643
# 5 -0.002961 -0.001734 0.001921 0.001593 0.034109 -0.000348
# 6 0.000405 0.009795 -0.002405 0.011643 -0.000348 0.031425
#
#
# Mechanical properties :
#
#
# Convention : Reuss Voigt Hill
#
# Bulk Modulus (GPa) = 9.33839 36.93765 23.13802
# Shear Modulus (GPa) = 16.82289 31.89091 24.35690
#
# Velocity S-wave (km/s) = 2.72883 3.75716 3.28350
# Velocity P-wave (km/s) = 3.74996 5.93058 4.96155
#
# Compressibility (1/GPa) = 0.10708489
#
# Stress axis : x y z
#
# Youngs Moduli (GPa) = 82.35947 31.52175 23.53251
#
# Poissons Ratio (x) = 0.06512 -0.07841
# Poissons Ratio (y) = 0.17015 -0.21406
# Poissons Ratio (z) = -0.27442 -0.28673
#
# Static dielectric constant tensor:
#      x y z
#    x 1.816240 -0.005260 0.004270 
#    y -0.005260 1.858810 -0.021330 
#    z 0.004270 -0.021330 1.832760 
# 
# From -- ./inp_files/272483.got.cif
#   From: 2010.05.17/outbox.cif.g08.bks.cpg/sg2_137_cif.got.tgz:272483.got - 2010.06.03 11:33:40.
