data_PCOD9064623
_publ_section_title
;
Structure prediction by ZEFSAII (Michael W. Deem and Ramdas Pophale) SiO2 
 PCOD9064623
Probable space group: P -1
;
_chemical_formula_sum "Si O2"
_cell_formula_units_Z 14
_cell_length_a 12.443489
_cell_length_b 6.777894
_cell_length_c 17.723032
_cell_angle_alpha 124.443506
_cell_angle_beta 37.688199
_cell_angle_gamma 135.586307
_cell_volume 639.543107
_symmetry_space_group_name_H-M "P -1"
_symmetry_group_IT_number 2
_symmetry_cell_setting 'triclinic'
loop_
_space_group_symop_operation_xyz
x,y,z
-x,-y,-z
loop_
_atom_site_type_symbol
_atom_site_label
_atom_site_fract_x
_atom_site_fract_y
_atom_site_fract_z
Si Si1 0.124938 0.255481 0.040607
Si Si2 0.725643 0.125123 0.940070
Si Si3 0.505856 0.498104 0.404769
Si Si4 0.475258 0.263899 0.904838
Si Si5 0.951000 0.022219 0.253552
Si Si6 0.804749 0.406166 0.495489
Si Si7 0.747226 0.157070 0.634293
O O1 0.140344 0.543635 0.075581
O O2 0.354727 0.310069 0.916344
O O3 0.036919 0.158602 0.153135
O O4 0.000000 0.000000 0.000000
O O5 0.865926 0.997703 0.811797
O O6 0.500000 0.000000 0.000000
O O7 0.670932 0.035043 0.038082
O O8 0.500000 0.500000 0.500000
O O9 0.744356 0.711124 0.294722
O O10 0.363744 0.601307 0.467994
O O11 0.400101 0.177540 0.365178
O O12 0.674301 0.270355 0.768274
O O13 0.500000 0.500000 0.000000
O O14 0.881745 0.207060 0.377052
O O15 0.723281 0.289902 0.599157
O O16 0.009879 0.716138 0.460120
#
# Coordination Sequence:
#
# PCOD9064623 Si02
#       7
#     2   2   2   2   2   2   2
#     4  11  27  42  69 102 142 183 236 297 363 420
#     4  11  25  45  72 102 138 191 239 288 364 435
#     4  12  27  46  73 109 144 192 244 297 368 431
#     4  11  24  46  70 107 140 188 240 291 357 433
#     4  11  27  45  72 102 146 188 240 294 367 432
#     4  11  26  48  71 106 146 194 240 300 359 434
#     4  11  26  45  74 105 149 185 248 295 362 437
#
# _framework density 21.890628
#
# number of rings (size 3 to 8) (size 9 to 14) (size 15 to 20)
#    0.000    0.857    2.857    2.571    8.000    1.143 
#    2.571    0.000    0.000    0.000    0.000    0.000 
#    0.000    0.000    0.000    0.000    0.000    0.000 
#
# Total GULP energy -78211.556859 kJ/mol
# GULP energy per Si atom -5586.539776 kJ/mol
# Density = 2.184080 g / cm^3
# Si number density = 21.890628 Si / 1000 Ang^3
#
#
#
# Elastic Constant Matrix: (Units=GPa)
#
#
# Indices 1 2 3 4 5 6 
#
# 1 102.1813 31.7172 30.6952 11.8384 -22.8517 -1.5558
# 2 31.7172 153.6866 46.9299 -4.1772 -3.6314 4.9285
# 3 30.6952 46.9299 97.1703 -4.0317 -9.4142 -8.3597
# 4 11.8384 -4.1772 -4.0317 32.2534 1.3245 2.3572
# 5 -22.8517 -3.6314 -9.4142 1.3245 36.7076 -1.3297
# 6 -1.5558 4.9285 -8.3597 2.3572 -1.3297 43.0641
#
#
#
# Elastic Compliance Matrix: (Units=1/GPa)
#
#
# Indices 1 2 3 4 5 6 
#
# 1 0.013708 -0.001976 -0.002799 -0.006015 0.007864 0.000750
# 2 -0.001976 0.008046 -0.003494 0.001522 -0.001450 -0.001799
# 3 -0.002799 -0.003494 0.013319 0.001978 0.001358 0.002818
# 4 -0.006015 0.001522 0.001978 0.033983 -0.004385 -0.002003
# 5 0.007864 -0.001450 0.001358 -0.004385 0.032572 0.001960
# 6 0.000750 -0.001799 0.002818 -0.002003 0.001960 0.024171
#
#
# Mechanical properties :
#
#
# Convention : Reuss Voigt Hill
#
# Bulk Modulus (GPa) = 53.95142 63.52477 58.73809
# Shear Modulus (GPa) = 33.66647 38.65142 36.15894
#
# Velocity S-wave (km/s) = 3.92591 4.20654 4.06864
# Velocity P-wave (km/s) = 6.72680 7.25778 6.99733
#
# Compressibility (1/GPa) = 0.01853519
#
# Stress axis : x y z
#
# Youngs Moduli (GPa) = 72.95144 124.28176 75.08104
#
# Poissons Ratio (x) = 0.24558 0.21015
# Poissons Ratio (y) = 0.14415 0.26233
# Poissons Ratio (z) = 0.20418 0.43424
#
# Static dielectric constant tensor:
#      x y z
#    x 1.814610 -0.008560 -0.026100 
#    y -0.008560 1.810130 -0.024590 
#    z -0.026100 -0.024590 1.846340 
# 
# From -- ./inp_files/516142.got.cif
#   From: 2010.05.17/outbox.cif.g08.bks.cpg/sg2_259_cif.got.tgz:516142.got - 2010.06.03 11:33:40.
