data_PCOD9064753
_publ_section_title
;
Structure prediction by ZEFSAII (Michael W. Deem and Ramdas Pophale) SiO2 
 PCOD9064753
Probable space group: P -1
;
_chemical_formula_sum "Si O2"
_cell_formula_units_Z 16
_cell_length_a 8.948759
_cell_length_b 12.329738
_cell_length_c 19.121811
_cell_angle_alpha 150.008469
_cell_angle_beta 51.019685
_cell_angle_gamma 142.318011
_cell_volume 633.605325
_symmetry_space_group_name_H-M "P -1"
_symmetry_group_IT_number 2
_symmetry_cell_setting 'triclinic'
loop_
_space_group_symop_operation_xyz
x,y,z
-x,-y,-z
loop_
_atom_site_type_symbol
_atom_site_label
_atom_site_fract_x
_atom_site_fract_y
_atom_site_fract_z
Si Si1 0.716708 0.978529 0.783820
Si Si2 0.603070 0.945979 0.527759
Si Si3 0.593084 0.443686 0.511046
Si Si4 0.248372 0.365522 0.776165
Si Si5 0.081351 0.657885 0.938202
Si Si6 0.890496 0.407420 0.597373
Si Si7 0.012815 0.983837 0.905122
Si Si8 0.454364 0.733193 0.063264
O O1 0.511528 0.987524 0.813360
O O2 0.959425 0.111753 0.739046
O O3 0.825183 0.213574 0.940984
O O4 0.645229 0.699366 0.682528
O O5 0.590627 0.844496 0.553148
O O6 0.646928 0.774141 0.367231
O O7 0.326268 0.826910 0.522419
O O8 0.804595 0.265641 0.621034
O O9 0.500000 0.500000 0.500000
O O10 0.850133 0.508659 0.455432
O O11 0.388670 0.543013 0.906096
O O12 0.223489 0.535151 0.818667
O O13 0.126227 0.903008 0.017567
O O14 0.786112 0.427583 0.906071
O O15 0.907410 0.678822 0.741630
O O16 0.309890 0.184385 0.917794
O O17 0.000000 0.000000 0.000000
#
# Coordination Sequence:
#
# PCOD9064753 Si02
#       8
#     2   2   2   2   2   2   2   2
#     4   9  18  39  64  93 130 164 221 266 317 399
#     4  11  24  46  72  95 133 178 225 276 319 396
#     4  12  25  43  67 100 136 176 219 275 338 393
#     4   9  18  40  69  97 122 167 221 271 318 385
#     4   9  20  37  67  93 124 174 214 265 326 385
#     4  11  26  47  66  98 134 179 225 266 330 398
#     4  12  24  41  58  95 136 163 215 271 326 392
#     4   9  19  37  64  95 129 166 209 268 333 383
#
# _framework density 25.252313000000001
#
# number of rings (size 3 to 8) (size 9 to 14) (size 15 to 20)
#    0.000    1.750    1.250    4.500    0.000    2.500 
#   11.250    3.125    0.000    0.000    0.000    0.000 
#    0.000    0.000    0.000    0.000    0.000    0.000 
#
# Total GULP energy -89436.985177 kJ/mol
# GULP energy per Si atom -5589.811574 kJ/mol
# Density = 2.519484 g / cm^3
# Si number density = 25.252313 Si / 1000 Ang^3
#
#
#
# Elastic Constant Matrix: (Units=GPa)
#
#
# Indices 1 2 3 4 5 6 
#
# 1 74.9160 24.4475 19.7637 5.4468 -24.4155 -10.1982
# 2 24.4475 91.3529 20.9909 3.4715 -7.7672 -10.7302
# 3 19.7637 20.9909 73.2947 17.1069 -22.1929 -2.4507
# 4 5.4468 3.4715 17.1069 34.8058 -5.6505 -12.4465
# 5 -24.4155 -7.7672 -22.1929 -5.6505 34.7926 10.9360
# 6 -10.1982 -10.7302 -2.4507 -12.4465 10.9360 41.4571
#
#
#
# Elastic Compliance Matrix: (Units=1/GPa)
#
#
# Indices 1 2 3 4 5 6 
#
# 1 0.018617 -0.003872 -0.000206 -0.000382 0.011910 0.000309
# 2 -0.003872 0.012978 -0.003991 0.002054 -0.003171 0.003624
# 3 -0.000206 -0.003991 0.020743 -0.009929 0.012513 -0.006139
# 4 -0.000382 0.002054 -0.009929 0.037134 -0.003892 0.012026
# 5 0.011910 -0.003171 0.012513 -0.003892 0.047120 -0.010749
# 6 0.000309 0.003624 -0.006139 0.012026 -0.010749 0.031219
#
#
# Mechanical properties :
#
#
# Convention : Reuss Voigt Hill
#
# Bulk Modulus (GPa) = 27.62327 41.10753 34.36540
# Shear Modulus (GPa) = 25.50833 33.83520 29.67177
#
# Velocity S-wave (km/s) = 3.18172 3.66442 3.43156
# Velocity P-wave (km/s) = 4.94575 5.84961 5.41657
#
# Compressibility (1/GPa) = 0.03620136
#
# Stress axis : x y z
#
# Youngs Moduli (GPa) = 53.71346 77.05513 48.20921
#
# Poissons Ratio (x) = 0.29833 0.00991
# Poissons Ratio (y) = 0.20796 0.19241
# Poissons Ratio (z) = 0.01104 0.30754
#
# Static dielectric constant tensor:
#      x y z
#    x 2.121160 0.000350 0.038140 
#    y 0.000350 2.104100 0.114130 
#    z 0.038140 0.114130 2.234630 
# 
# From -- ./inp_files/589707.got.cif
#   From: 2010.05.17/outbox.cif.g08.bks.cpg/sg2_295_cif.got.tgz:589707.got - 2010.06.03 11:33:40.
