data_PCOD9064450
_publ_section_title
;
Structure prediction by ZEFSAII (Michael W. Deem and Ramdas Pophale) SiO2 
 PCOD9064450
Probable space group: P -1
;
_chemical_formula_sum "Si O2"
_cell_formula_units_Z 16
_cell_length_a 11.524460
_cell_length_b 6.296348
_cell_length_c 17.552809
_cell_angle_alpha 129.423432
_cell_angle_beta 131.044412
_cell_angle_gamma 70.416755
_cell_volume 734.684329
_symmetry_space_group_name_H-M "P -1"
_symmetry_group_IT_number 2
_symmetry_cell_setting 'triclinic'
loop_
_space_group_symop_operation_xyz
x,y,z
-x,-y,-z
loop_
_atom_site_type_symbol
_atom_site_label
_atom_site_fract_x
_atom_site_fract_y
_atom_site_fract_z
Si Si1 0.442892 0.081073 0.822741
Si Si2 0.016050 0.363646 0.249148
Si Si3 0.385112 0.409110 0.209877
Si Si4 0.386319 0.140724 0.642237
Si Si5 0.058444 0.325292 0.560216
Si Si6 0.367472 0.612505 0.419277
Si Si7 0.257504 0.446267 0.925635
Si Si8 0.904221 0.745595 0.033401
O O1 0.383254 0.012058 0.695793
O O2 0.313365 0.204644 0.843306
O O3 0.497980 0.801908 0.811486
O O4 0.595950 0.313077 0.947213
O O5 0.191876 0.490426 0.337153
O O6 0.967087 0.474702 0.334840
O O7 0.889767 0.450786 0.155088
O O8 0.005815 0.033781 0.161779
O O9 0.444606 0.677240 0.246924
O O10 0.396552 0.521572 0.325723
O O11 0.214132 0.250115 0.086400
O O12 0.237157 0.301149 0.612232
O O13 0.377210 0.933043 0.520127
O O14 0.000000 0.500000 0.500000
O O15 0.000000 0.000000 0.500000
O O16 0.500000 0.500000 0.500000
O O17 0.204169 0.329577 0.957713
O O18 0.000000 0.500000 0.000000
#
# Coordination Sequence:
#
# PCOD9064450 Si02
#       8
#     2   2   2   2   2   2   2   2
#     4  11  24  45  76 107 150 192 245 319 391 472
#     4  12  28  48  76 109 150 203 258 324 394 479
#     4  12  27  46  75 107 147 200 255 319 393 472
#     4  12  26  48  77 109 150 200 257 325 395 469
#     4  12  30  52  80 118 162 212 268 331 398 475
#     4  12  28  48  74 102 151 203 267 317 395 469
#     4  11  25  47  72 110 150 189 253 311 398 474
#     4  12  29  46  75 109 151 200 256 327 396 473
#
# _framework density 21.778061999999998
#
# number of rings (size 3 to 8) (size 9 to 14) (size 15 to 20)
#    0.000    0.250    6.250    1.125   10.500    2.500 
#    0.000    0.000    0.000    0.000    0.000    0.000 
#    0.000    0.000    0.000    0.000    0.000    0.000 
#
# Total GULP energy -89288.837557 kJ/mol
# GULP energy per Si atom -5580.552347 kJ/mol
# Density = 2.172849 g / cm^3
# Si number density = 21.778062 Si / 1000 Ang^3
#
#
#
# Elastic Constant Matrix: (Units=GPa)
#
#
# Indices 1 2 3 4 5 6 
#
# 1 45.3834 10.9549 5.2058 6.8823 -9.9105 -18.4206
# 2 10.9549 63.2998 32.4592 4.1703 -6.3443 -20.2214
# 3 5.2058 32.4592 90.7039 13.1893 -11.0808 1.6295
# 4 6.8823 4.1703 13.1893 47.8817 -8.2861 -4.4696
# 5 -9.9105 -6.3443 -11.0808 -8.2861 41.0544 -4.2892
# 6 -18.4206 -20.2214 1.6295 -4.4696 -4.2892 35.9927
#
#
#
# Elastic Compliance Matrix: (Units=1/GPa)
#
#
# Indices 1 2 3 4 5 6 
#
# 1 0.031265 0.002298 -0.001690 -0.000928 0.009176 0.018347
# 2 0.002298 0.026019 -0.009574 0.002365 0.004248 0.017027
# 3 -0.001690 -0.009574 0.015306 -0.003694 0.000735 -0.007308
# 4 -0.000928 0.002365 -0.003694 0.022972 0.004238 0.004379
# 5 0.009176 0.004248 0.000735 0.004238 0.029441 0.011084
# 6 0.018347 0.017027 -0.007308 0.004379 0.011084 0.048935
#
#
# Mechanical properties :
#
#
# Convention : Reuss Voigt Hill
#
# Bulk Modulus (GPa) = 18.29601 32.95855 25.62728
# Shear Modulus (GPa) = 23.79936 35.03691 29.41813
#
# Velocity S-wave (km/s) = 3.30936 4.01536 3.67933
# Velocity P-wave (km/s) = 4.79811 6.05509 5.46287
#
# Compressibility (1/GPa) = 0.05465672
#
# Stress axis : x y z
#
# Youngs Moduli (GPa) = 31.98481 38.43365 65.33286
#
# Poissons Ratio (x) = -0.08831 0.11044
# Poissons Ratio (y) = -0.07349 0.62549
# Poissons Ratio (z) = 0.05407 0.36796
#
# Static dielectric constant tensor:
#      x y z
#    x 1.768510 0.015200 0.018570 
#    y 0.015200 1.825140 -0.013560 
#    z 0.018570 -0.013560 1.812920 
# 
# From -- ./inp_files/364138.got.cif
#   From: 2010.05.17/outbox.cif.g08.bks.cpg/sg2_183_cif.got.tgz:364138.got - 2010.06.03 11:33:40.
