data_PCOD9064837
_publ_section_title
;
Structure prediction by ZEFSAII (Michael W. Deem and Ramdas Pophale) SiO2 
 PCOD9064837
Probable space group: P -1
;
_chemical_formula_sum "Si O2"
_cell_formula_units_Z 16
_cell_length_a 11.845340
_cell_length_b 9.519027
_cell_length_c 15.639703
_cell_angle_alpha 66.066301
_cell_angle_beta 110.383602
_cell_angle_gamma 52.916193
_cell_volume 748.424010
_symmetry_space_group_name_H-M "P -1"
_symmetry_group_IT_number 2
_symmetry_cell_setting 'triclinic'
loop_
_space_group_symop_operation_xyz
x,y,z
-x,-y,-z
loop_
_atom_site_type_symbol
_atom_site_label
_atom_site_fract_x
_atom_site_fract_y
_atom_site_fract_z
Si Si1 0.453386 0.688037 0.374467
Si Si2 0.279270 0.354725 0.878965
Si Si3 0.289767 0.685593 0.167103
Si Si4 0.038966 0.709360 0.423014
Si Si5 0.426869 0.190463 0.355473
Si Si6 0.956322 0.590233 0.588778
Si Si7 0.590978 0.431652 0.137973
Si Si8 0.946059 0.618678 0.863577
O O1 0.500000 0.500000 0.500000
O O2 0.365863 0.724950 0.249372
O O3 0.706697 0.495288 0.479495
O O4 0.251430 0.026809 0.274355
O O5 0.350204 0.453247 0.865529
O O6 0.051760 0.561133 0.707506
O O7 0.187273 0.414594 0.933825
O O8 0.500000 0.000000 0.000000
O O9 0.380987 0.421833 0.295433
O O10 0.414586 0.578104 0.133899
O O11 0.000000 0.000000 0.000000
O O12 0.963686 0.675282 0.335784
O O13 0.064546 0.571723 0.545912
O O14 0.836426 0.059980 0.302079
O O15 0.176983 0.391755 0.210130
O O16 0.500000 0.000000 0.500000
O O17 0.663534 0.916179 0.424695
O O18 0.500000 0.500000 0.000000
O O19 0.000000 0.500000 0.000000
#
# Coordination Sequence:
#
# PCOD9064837 Si02
#       8
#     2   2   2   2   2   2   2   2
#     4  12  27  47  76 110 147 196 248 308 373 443
#     4  12  29  47  76 106 149 195 250 301 376 445
#     4  12  30  48  76 110 156 200 250 311 379 446
#     4  11  25  45  75 106 147 185 249 304 371 434
#     4  12  24  47  76 107 141 195 250 304 365 440
#     4  11  24  46  74 106 141 192 243 306 362 443
#     4  12  29  49  75 108 152 199 250 310 376 452
#     4  12  28  46  75 107 150 192 245 306 369 444
#
# _framework density 21.378257000000001
#
# number of rings (size 3 to 8) (size 9 to 14) (size 15 to 20)
#    0.000    0.250    3.750    3.750   12.250    1.000 
#    0.000    0.000    0.000    0.000    0.000    0.000 
#    0.000    0.000    0.000    0.000    0.000    0.000 
#
# Total GULP energy -89520.446974 kJ/mol
# GULP energy per Si atom -5595.027936 kJ/mol
# Density = 2.132960 g / cm^3
# Si number density = 21.378257 Si / 1000 Ang^3
#
#
#
# Elastic Constant Matrix: (Units=GPa)
#
#
# Indices 1 2 3 4 5 6 
#
# 1 177.1155 64.5943 45.6829 -13.8311 -2.8060 -7.9724
# 2 64.5943 105.0287 24.0255 -19.7094 2.1645 1.8941
# 3 45.6829 24.0255 65.0562 -6.7090 1.8264 -7.6044
# 4 -13.8311 -19.7094 -6.7090 57.7477 -2.8017 2.9532
# 5 -2.8060 2.1645 1.8264 -2.8017 25.2373 0.0671
# 6 -7.9724 1.8941 -7.6044 2.9532 0.0671 52.2911
#
#
#
# Elastic Compliance Matrix: (Units=1/GPa)
#
#
# Indices 1 2 3 4 5 6 
#
# 1 0.008337 -0.004182 -0.004251 0.000113 0.001604 0.000796
# 2 -0.004182 0.013162 -0.001733 0.003316 -0.001096 -0.001552
# 3 -0.004251 -0.001733 0.019347 0.000444 -0.001681 0.002205
# 4 0.000113 0.003316 0.000444 0.018669 0.001772 -0.001095
# 5 0.001604 -0.001096 -0.001681 0.001772 0.040215 -0.000112
# 6 0.000796 -0.001552 0.002205 -0.001095 -0.000112 0.019684
#
#
# Mechanical properties :
#
#
# Convention : Reuss Voigt Hill
#
# Bulk Modulus (GPa) = 48.74327 68.42285 58.58306
# Shear Modulus (GPa) = 34.11018 41.24842 37.67930
#
# Velocity S-wave (km/s) = 3.99877 4.39732 4.20278
# Velocity P-wave (km/s) = 6.64606 7.60639 7.14239
#
# Compressibility (1/GPa) = 0.02051565
#
# Stress axis : x y z
#
# Youngs Moduli (GPa) = 119.94044 75.97529 51.68759
#
# Poissons Ratio (x) = 0.31769 0.21971
# Poissons Ratio (y) = 0.50153 0.08959
# Poissons Ratio (z) = 0.50983 0.13169
#
# Static dielectric constant tensor:
#      x y z
#    x 1.788400 -0.021660 -0.009160 
#    y -0.021660 1.840630 0.017740 
#    z -0.009160 0.017740 1.750330 
# 
# From -- ./inp_files/515387.got.cif
#   From: 2010.05.17/outbox.cif.g08.bks.cpg/sg2_258_cif.got.tgz:515387.got - 2010.06.03 11:33:40.
