data_PCOD9064638
_publ_section_title
;
Structure prediction by ZEFSAII (Michael W. Deem and Ramdas Pophale) SiO2 
 PCOD9064638
Probable space group: P -1
;
_chemical_formula_sum "Si O2"
_cell_formula_units_Z 15
_cell_length_a 11.716342
_cell_length_b 8.857338
_cell_length_c 9.246110
_cell_angle_alpha 46.738848
_cell_angle_beta 70.454631
_cell_angle_gamma 71.708160
_cell_volume 653.474157
_symmetry_space_group_name_H-M "P -1"
_symmetry_group_IT_number 2
_symmetry_cell_setting 'triclinic'
loop_
_space_group_symop_operation_xyz
x,y,z
-x,-y,-z
loop_
_atom_site_type_symbol
_atom_site_label
_atom_site_fract_x
_atom_site_fract_y
_atom_site_fract_z
Si Si1 0.287581 0.635046 0.056186
Si Si2 0.863115 0.444561 0.080807
Si Si3 0.150144 0.709775 0.351713
Si Si4 0.145869 0.955609 0.465246
Si Si5 0.802029 0.695383 0.207067
Si Si6 0.595951 0.941124 0.305794
Si Si7 0.358391 0.185239 0.301892
Si Si8 0.000000 0.000000 0.000000
O O1 0.252956 0.639408 0.235324
O O2 0.368443 0.425582 0.107381
O O3 0.163039 0.614452 0.034100
O O4 0.341175 0.845394 0.857718
O O5 0.830122 0.236916 0.309499
O O6 0.792096 0.626878 0.089118
O O7 0.000000 0.500000 0.000000
O O8 0.186136 0.878623 0.340081
O O9 0.140171 0.508202 0.590719
O O10 0.035322 0.822200 0.235852
O O11 0.220641 0.138510 0.363888
O O12 0.000000 0.000000 0.500000
O O13 0.670122 0.784044 0.267318
O O14 0.888605 0.874782 0.074890
O O15 0.453938 0.019153 0.287676
O O16 0.611469 0.845723 0.521612
#
# Coordination Sequence:
#
# PCOD9064638 Si02
#       8
#     2   2   2   2   2   2   2   1
#     4  12  23  44  72 100 134 179 233 284 341 410
#     4  11  25  42  65 104 140 175 228 283 347 407
#     4  11  26  42  67 102 138 179 230 279 349 408
#     4  11  26  45  68 101 142 179 224 288 349 407
#     4  11  25  45  65 100 138 184 226 285 344 408
#     4  11  24  46  71 100 137 187 229 286 342 413
#     4  11  25  45  71 102 139 179 235 285 346 403
#     4  12  24  38  72  94 140 176 230 270 342 408
#
# _framework density 22.954235000000001
#
# number of rings (size 3 to 8) (size 9 to 14) (size 15 to 20)
#    0.000    0.800    4.000    2.400    7.467    2.133 
#    0.000    6.667    0.000    0.000    0.000    0.000 
#    0.000    0.000    0.000    0.000    0.000    0.000 
#
# Total GULP energy -83565.043948 kJ/mol
# GULP energy per Si atom -5571.002930 kJ/mol
# Density = 2.290199 g / cm^3
# Si number density = 22.954235 Si / 1000 Ang^3
#
#
#
# Elastic Constant Matrix: (Units=GPa)
#
#
# Indices 1 2 3 4 5 6 
#
# 1 58.2099 2.1157 -7.2210 3.2108 -5.5079 -2.8462
# 2 2.1157 74.4055 1.6241 16.6871 3.6768 -15.8145
# 3 -7.2210 1.6241 62.2755 -8.4243 7.2261 4.6892
# 4 3.2108 16.6871 -8.4243 40.1327 4.2414 -4.1938
# 5 -5.5079 3.6768 7.2261 4.2414 24.1706 -1.2566
# 6 -2.8462 -15.8145 4.6892 -4.1938 -1.2566 23.2652
#
#
#
# Elastic Compliance Matrix: (Units=1/GPa)
#
#
# Indices 1 2 3 4 5 6 
#
# 1 0.017889 -0.000026 0.001278 -0.001382 0.004039 0.001882
# 2 -0.000026 0.017285 -0.002120 -0.006449 -0.000298 0.010995
# 3 0.001278 -0.002120 0.017895 0.004692 -0.005786 -0.004358
# 4 -0.001382 -0.006449 0.004692 0.029261 -0.005899 -0.000543
# 5 0.004039 -0.000298 -0.005786 -0.005899 0.045251 0.002838
# 6 0.001882 0.010995 -0.004358 -0.000543 0.002838 0.051620
#
#
# Mechanical properties :
#
#
# Convention : Reuss Voigt Hill
#
# Bulk Modulus (GPa) = 19.48051 20.88094 20.18073
# Shear Modulus (GPa) = 25.24628 30.73851 27.99239
#
# Velocity S-wave (km/s) = 3.32000 3.66337 3.49590
# Velocity P-wave (km/s) = 4.81681 5.19714 5.01058
#
# Compressibility (1/GPa) = 0.05133335
#
# Stress axis : x y z
#
# Youngs Moduli (GPa) = 55.89994 57.85394 55.88054
#
# Poissons Ratio (x) = 0.00151 -0.07139
# Poissons Ratio (y) = 0.00146 0.11844
# Poissons Ratio (z) = -0.07142 0.12262
#
# Static dielectric constant tensor:
#      x y z
#    x 1.854930 -0.077120 0.041730 
#    y -0.077120 1.878670 -0.029160 
#    z 0.041730 -0.029160 1.875010 
# 
# From -- ./inp_files/201853.got.cif
#   From: 2010.05.17/outbox.cif.g08.bks.cpg/sg2_101_cif.got.tgz:201853.got - 2010.06.03 11:33:40.
