data_PCOD9064301
_publ_section_title
;
Structure prediction by ZEFSAII (Michael W. Deem and Ramdas Pophale) SiO2 
 PCOD9064301
Probable space group: P -1
;
_chemical_formula_sum "Si O2"
_cell_formula_units_Z 16
_cell_length_a 8.674875
_cell_length_b 16.631060
_cell_length_c 9.105553
_cell_angle_alpha 94.875216
_cell_angle_beta 34.440077
_cell_angle_gamma 82.742562
_cell_volume 693.829644
_symmetry_space_group_name_H-M "P -1"
_symmetry_group_IT_number 2
_symmetry_cell_setting 'triclinic'
loop_
_space_group_symop_operation_xyz
x,y,z
-x,-y,-z
loop_
_atom_site_type_symbol
_atom_site_label
_atom_site_fract_x
_atom_site_fract_y
_atom_site_fract_z
Si Si1 0.393922 0.297305 0.365032
Si Si2 0.415789 0.449757 0.925841
Si Si3 0.061850 0.722144 0.508499
Si Si4 0.861612 0.679956 0.926567
Si Si5 0.356127 0.890775 0.942537
Si Si6 0.139173 0.616303 0.994574
Si Si7 0.330619 0.006875 0.479780
Si Si8 0.572036 0.169446 0.790522
O O1 0.571968 0.196510 0.224286
O O2 0.620159 0.342357 0.142698
O O3 0.160976 0.301131 0.423639
O O4 0.178711 0.344006 0.674161
O O5 0.701279 0.370374 0.651356
O O6 0.276274 0.516838 0.916640
O O7 0.500000 0.500000 0.000000
O O8 0.197697 0.398246 0.121503
O O9 0.174588 0.791049 0.356978
O O10 0.908071 0.750010 0.789717
O O11 0.085610 0.639383 0.869971
O O12 0.557224 0.751584 0.222019
O O13 0.011134 0.939966 0.223988
O O14 0.523702 0.946818 0.743338
O O15 0.470211 0.863810 0.015242
O O16 0.359630 0.914654 0.375084
O O17 0.500000 0.000000 0.500000
#
# Coordination Sequence:
#
# PCOD9064301 Si02
#       8
#     2   2   2   2   2   2   2   2
#     4  12  26  47  74 107 144 194 248 300 364 438
#     4  11  24  45  73 106 147 197 253 301 360 438
#     4  11  24  46  74 106 146 196 250 304 357 436
#     4  11  27  44  72 108 149 193 242 310 368 429
#     4  12  26  49  76 107 146 194 248 291 366 441
#     4  12  28  45  74 107 154 193 241 309 373 429
#     4  12  29  48  76 113 150 188 238 307 368 436
#     4  11  26  47  75 107 148 194 246 299 363 442
#
# _framework density 23.060417999999999
#
# number of rings (size 3 to 8) (size 9 to 14) (size 15 to 20)
#    0.000    0.500    2.500    4.500   10.500    1.500 
#    0.000    0.000    0.000    0.000    0.000    0.000 
#    0.000    0.000    0.000    0.000    0.000    0.000 
#
# Total GULP energy -89179.348498 kJ/mol
# GULP energy per Si atom -5573.709281 kJ/mol
# Density = 2.300793 g / cm^3
# Si number density = 23.060418 Si / 1000 Ang^3
#
#
#
# Elastic Constant Matrix: (Units=GPa)
#
#
# Indices 1 2 3 4 5 6 
#
# 1 101.6637 49.5935 11.4916 -5.6732 0.9779 -31.5528
# 2 49.5935 193.2041 88.7942 -0.3208 -17.4059 -8.9001
# 3 11.4916 88.7942 234.5373 37.5257 -25.4696 -5.6989
# 4 -5.6732 -0.3208 37.5257 54.7211 -4.8774 0.5548
# 5 0.9779 -17.4059 -25.4696 -4.8774 29.6329 -3.3678
# 6 -31.5528 -8.9001 -5.6989 0.5548 -3.3678 34.7242
#
#
#
# Elastic Compliance Matrix: (Units=1/GPa)
#
#
# Indices 1 2 3 4 5 6 
#
# 1 0.015880 -0.003870 0.000831 0.000881 -0.000401 0.013521
# 2 -0.003870 0.007556 -0.002748 0.001749 0.002284 -0.001837
# 3 0.000831 -0.002748 0.006289 -0.003966 0.003278 0.001464
# 4 0.000881 0.001749 -0.003966 0.021192 0.001120 0.000368
# 5 -0.000401 0.002284 0.003278 0.001120 0.038612 0.004486
# 6 0.013521 -0.001837 0.001464 0.000368 0.004486 0.041283
#
#
# Mechanical properties :
#
#
# Convention : Reuss Voigt Hill
#
# Bulk Modulus (GPa) = 55.09018 92.12931 73.60975
# Shear Modulus (GPa) = 33.68467 49.11737 41.40102
#
# Velocity S-wave (km/s) = 3.82608 4.62014 4.24173
# Velocity P-wave (km/s) = 6.59241 8.27641 7.48194
#
# Compressibility (1/GPa) = 0.01815205
#
# Stress axis : x y z
#
# Youngs Moduli (GPa) = 62.97371 132.34488 159.00095
#
# Poissons Ratio (x) = 0.51217 -0.13215
# Poissons Ratio (y) = 0.24370 0.43687
# Poissons Ratio (z) = -0.05234 0.36363
#
# Static dielectric constant tensor:
#      x y z
#    x 1.913230 0.033260 -0.012040 
#    y 0.033260 1.820010 -0.055380 
#    z -0.012040 -0.055380 1.876440 
# 
# From -- ./inp_files/207255.got.cif
#   From: 2010.05.17/outbox.cif.g08.bks.cpg/sg2_104_cif.got.tgz:207255.got - 2010.06.03 11:33:40.
