data_PCOD9064791
_publ_section_title
;
Structure prediction by ZEFSAII (Michael W. Deem and Ramdas Pophale) SiO2 
 PCOD9064791
Probable space group: P -1
;
_chemical_formula_sum "Si O2"
_cell_formula_units_Z 15
_cell_length_a 7.012702
_cell_length_b 12.137664
_cell_length_c 19.308757
_cell_angle_alpha 35.057982
_cell_angle_beta 42.343089
_cell_angle_gamma 63.438236
_cell_volume 580.540554
_symmetry_space_group_name_H-M "P -1"
_symmetry_group_IT_number 2
_symmetry_cell_setting 'triclinic'
loop_
_space_group_symop_operation_xyz
x,y,z
-x,-y,-z
loop_
_atom_site_type_symbol
_atom_site_label
_atom_site_fract_x
_atom_site_fract_y
_atom_site_fract_z
Si Si1 0.868523 0.279327 0.188009
Si Si2 0.123640 0.818780 0.052822
Si Si3 0.000000 0.500000 0.500000
Si Si4 0.641622 0.145681 0.675711
Si Si5 0.271144 0.131204 0.643942
Si Si6 0.928299 0.402610 0.259493
Si Si7 0.834468 0.807508 0.591470
Si Si8 0.227008 0.768728 0.201478
O O1 0.994373 0.320313 0.211181
O O2 0.500562 0.212403 0.327459
O O3 0.897316 0.095141 0.229671
O O4 0.000000 0.500000 0.000000
O O5 0.078438 0.716615 0.193238
O O6 0.980383 0.644215 0.122867
O O7 0.481005 0.947162 0.870751
O O8 0.000000 0.000000 0.000000
O O9 0.735121 0.355834 0.585943
O O10 0.717950 0.416839 0.682215
O O11 0.395136 0.117455 0.694723
O O12 0.946387 0.152204 0.553658
O O13 0.580351 0.262827 0.450728
O O14 0.027045 0.239920 0.664361
O O15 0.161254 0.383434 0.265211
O O16 0.000000 0.000000 0.500000
O O17 0.500000 0.000000 0.000000
#
# Coordination Sequence:
#
# PCOD9064791 Si02
#       8
#     2   2   1   2   2   2   2   2
#     4  12  27  48  78 111 149 199 255 322 391 465
#     4  12  26  48  75 108 154 200 258 321 382 463
#     4  12  28  44  72 112 146 202 248 314 382 458
#     4  11  24  46  73 105 150 194 251 314 382 450
#     4  11  25  48  73 107 150 196 253 314 386 466
#     4  11  27  46  77 113 148 205 254 317 399 461
#     4  11  25  49  77 106 154 198 258 316 391 468
#     4  12  27  46  75 111 150 199 260 309 387 464
#
# _framework density 25.837986000000001
#
# number of rings (size 3 to 8) (size 9 to 14) (size 15 to 20)
#    0.000    0.533    5.333    2.800    3.733    3.733 
#    0.000    0.000    0.000    0.000    0.000    0.000 
#    0.000    0.000    0.000    0.000    0.000    0.000 
#
# Total GULP energy -83886.225599 kJ/mol
# GULP energy per Si atom -5592.415040 kJ/mol
# Density = 2.577918 g / cm^3
# Si number density = 25.837986 Si / 1000 Ang^3
#
#
#
# Elastic Constant Matrix: (Units=GPa)
#
#
# Indices 1 2 3 4 5 6 
#
# 1 104.2847 41.7882 11.6866 3.5162 14.9554 15.1954
# 2 41.7882 164.8542 44.9876 -24.0545 -1.8572 29.9495
# 3 11.6866 44.9876 133.9414 -9.6903 16.0238 24.4256
# 4 3.5162 -24.0545 -9.6903 55.7462 11.6885 -4.0632
# 5 14.9554 -1.8572 16.0238 11.6885 39.2669 9.9688
# 6 15.1954 29.9495 24.4256 -4.0632 9.9688 47.2772
#
#
#
# Elastic Compliance Matrix: (Units=1/GPa)
#
#
# Indices 1 2 3 4 5 6 
#
# 1 0.011584 -0.003098 0.000686 -0.001176 -0.004147 -0.001341
# 2 -0.003098 0.008488 -0.002023 0.002712 0.002522 -0.003635
# 3 0.000686 -0.002023 0.009128 0.001257 -0.003757 -0.002755
# 4 -0.001176 0.002712 0.001257 0.020835 -0.006432 0.001157
# 5 -0.004147 0.002522 -0.003757 -0.006432 0.032044 -0.005633
# 6 -0.001341 -0.003635 -0.002755 0.001157 -0.005633 0.026596
#
#
# Mechanical properties :
#
#
# Convention : Reuss Voigt Hill
#
# Bulk Modulus (GPa) = 49.19233 66.66724 57.92979
# Shear Modulus (GPa) = 40.21815 48.76592 44.49203
#
# Velocity S-wave (km/s) = 3.94960 4.34910 4.15415
# Velocity P-wave (km/s) = 6.31500 7.14686 6.74377
#
# Compressibility (1/GPa) = 0.02032837
#
# Stress axis : x y z
#
# Youngs Moduli (GPa) = 86.32872 117.81418 109.54760
#
# Poissons Ratio (x) = 0.36500 -0.07510
# Poissons Ratio (y) = 0.26745 0.22165
# Poissons Ratio (z) = -0.05918 0.23837
#
# Static dielectric constant tensor:
#      x y z
#    x 3.047140 -0.804040 0.739710 
#    y -0.804040 2.622370 -0.560490 
#    z 0.739710 -0.560490 2.633230 
# 
# From -- ./inp_files/589454.got.cif
#   From: 2010.05.17/outbox.cif.g08.bks.cpg/sg2_295_cif.got.tgz:589454.got - 2010.06.03 11:33:40.
