data_PCOD9064387
_publ_section_title
;
Structure prediction by ZEFSAII (Michael W. Deem and Ramdas Pophale) SiO2 
 PCOD9064387
Probable space group: P -1
;
_chemical_formula_sum "Si O2"
_cell_formula_units_Z 16
_cell_length_a 9.361379
_cell_length_b 11.419461
_cell_length_c 8.365761
_cell_angle_alpha 123.368181
_cell_angle_beta 100.832857
_cell_angle_gamma 62.549597
_cell_volume 660.196848
_symmetry_space_group_name_H-M "P -1"
_symmetry_group_IT_number 2
_symmetry_cell_setting 'triclinic'
loop_
_space_group_symop_operation_xyz
x,y,z
-x,-y,-z
loop_
_atom_site_type_symbol
_atom_site_label
_atom_site_fract_x
_atom_site_fract_y
_atom_site_fract_z
Si Si1 0.688192 0.890389 0.929312
Si Si2 0.608476 0.624708 0.751310
Si Si3 0.962546 0.737371 0.097575
Si Si4 0.734063 0.272235 0.400965
Si Si5 0.453128 0.356094 0.880680
Si Si6 0.916359 0.834389 0.658995
Si Si7 0.787314 0.126315 0.646365
Si Si8 0.879665 0.581802 0.271352
O O1 0.689469 0.724617 0.765997
O O2 0.783500 0.924116 0.831650
O O3 0.796412 0.868860 0.092673
O O4 0.500000 0.000000 0.000000
O O5 0.696857 0.444375 0.588733
O O6 0.422343 0.698224 0.712744
O O7 0.611851 0.646263 0.957836
O O8 0.928985 0.655508 0.182978
O O9 0.095919 0.798547 0.209369
O O10 0.029822 0.603211 0.874316
O O11 0.755171 0.168935 0.485513
O O12 0.901005 0.200567 0.285954
O O13 0.614574 0.207876 0.757266
O O14 0.309797 0.377119 0.746090
O O15 0.500000 0.500000 0.000000
O O16 0.916835 0.670596 0.489781
O O17 0.868459 0.946157 0.576825
#
# Coordination Sequence:
#
# PCOD9064387 Si02
#       8
#     2   2   2   2   2   2   2   2
#     4  12  29  49  69 104 150 194 235 304 364 432
#     4  11  25  46  72 105 145 190 237 302 359 426
#     4  11  24  46  77  99 146 192 241 298 357 429
#     4  11  25  46  72 106 147 182 244 302 362 420
#     4  12  23  44  74 106 143 186 243 286 361 428
#     4  12  29  45  73 107 146 192 244 297 365 431
#     4  12  26  47  72 108 145 195 239 299 357 431
#     4  11  24  45  74 110 138 188 247 296 352 434
#
# _framework density 24.235196999999999
#
# number of rings (size 3 to 8) (size 9 to 14) (size 15 to 20)
#    0.000    0.500    5.000    1.875    5.250    3.000 
#    0.000    0.000    0.000    0.000    0.000    0.000 
#    0.000    0.000    0.000    0.000    0.000    0.000 
#
# Total GULP energy -89684.035119 kJ/mol
# GULP energy per Si atom -5605.252195 kJ/mol
# Density = 2.418004 g / cm^3
# Si number density = 24.235197 Si / 1000 Ang^3
#
#
#
# Elastic Constant Matrix: (Units=GPa)
#
#
# Indices 1 2 3 4 5 6 
#
# 1 130.3408 33.8427 20.1635 10.6396 -7.6814 -25.3966
# 2 33.8427 86.4444 17.4721 7.7167 -3.7109 -9.3109
# 3 20.1635 17.4721 59.2561 15.6504 0.6010 -1.0535
# 4 10.6396 7.7167 15.6504 33.1038 4.5537 -0.8661
# 5 -7.6814 -3.7109 0.6010 4.5537 44.1005 2.5568
# 6 -25.3966 -9.3109 -1.0535 -0.8661 2.5568 50.6772
#
#
#
# Elastic Compliance Matrix: (Units=1/GPa)
#
#
# Indices 1 2 3 4 5 6 
#
# 1 0.009737 -0.002743 -0.002015 -0.001621 0.001414 0.004235
# 2 -0.002743 0.013426 -0.002744 -0.001027 0.000739 0.000980
# 3 -0.002015 -0.002744 0.020591 -0.008491 0.000086 -0.001236
# 4 -0.001621 -0.001027 -0.008491 0.035509 -0.003898 -0.000374
# 5 0.001414 0.000739 0.000086 -0.003898 0.023409 -0.000401
# 6 0.004235 0.000980 -0.001236 -0.000374 -0.000401 0.022023
#
#
# Mechanical properties :
#
#
# Convention : Reuss Voigt Hill
#
# Bulk Modulus (GPa) = 34.78503 46.55532 40.67017
# Shear Modulus (GPa) = 33.49361 39.21382 36.35372
#
# Velocity S-wave (km/s) = 3.72159 4.02687 3.87723
# Velocity P-wave (km/s) = 5.73160 6.39315 6.07139
#
# Compressibility (1/GPa) = 0.02874800
#
# Stress axis : x y z
#
# Youngs Moduli (GPa) = 102.70086 74.48448 48.56570
#
# Poissons Ratio (x) = 0.20432 0.09788
# Poissons Ratio (y) = 0.28172 0.13327
# Poissons Ratio (z) = 0.20698 0.20440
#
# Static dielectric constant tensor:
#      x y z
#    x 1.904010 0.026540 -0.027320 
#    y 0.026540 1.952930 0.003050 
#    z -0.027320 0.003050 1.925730 
# 
# From -- ./inp_files/190165.got.cif
#   From: 2010.05.17/outbox.cif.g08.bks.cpg/sg2_96_cif.got.tgz:190165.got - 2010.06.03 11:33:40.
