data_PCOD9064038
_publ_section_title
;
Structure prediction by ZEFSAII (Michael W. Deem and Ramdas Pophale) SiO2 
 PCOD9064038
Probable space group: P -1
;
_chemical_formula_sum "Si O2"
_cell_formula_units_Z 16
_cell_length_a 9.046505
_cell_length_b 6.366452
_cell_length_c 18.257435
_cell_angle_alpha 136.839514
_cell_angle_beta 102.174964
_cell_angle_gamma 82.242459
_cell_volume 702.829311
_symmetry_space_group_name_H-M "P -1"
_symmetry_group_IT_number 2
_symmetry_cell_setting 'triclinic'
loop_
_space_group_symop_operation_xyz
x,y,z
-x,-y,-z
loop_
_atom_site_type_symbol
_atom_site_label
_atom_site_fract_x
_atom_site_fract_y
_atom_site_fract_z
Si Si1 0.172775 0.158245 0.233982
Si Si2 0.819546 0.500813 0.980421
Si Si3 0.311757 0.245609 0.819505
Si Si4 0.430218 0.320645 0.096351
Si Si5 0.925397 0.599697 0.288724
Si Si6 0.169247 0.077308 0.381182
Si Si7 0.419068 0.604171 0.323867
Si Si8 0.268109 0.517780 0.618105
O O1 0.126765 0.078808 0.292012
O O2 0.308174 0.409594 0.315737
O O3 0.032901 0.310411 0.217527
O O4 0.224305 0.858929 0.121306
O O5 0.742672 0.659684 0.943025
O O6 0.754657 0.664900 0.086313
O O7 0.000000 0.500000 0.000000
O O8 0.474292 0.410113 0.866907
O O9 0.204292 0.383551 0.780964
O O10 0.309069 0.879052 0.716428
O O11 0.445821 0.393854 0.201893
O O12 0.500000 0.000000 0.000000
O O13 0.849998 0.569213 0.352430
O O14 0.036830 0.894487 0.364375
O O15 0.200918 0.404933 0.505188
O O16 0.323041 0.887886 0.357829
O O17 0.579718 0.662796 0.392921
#
# Coordination Sequence:
#
# PCOD9064038 Si02
#       8
#     2   2   2   2   2   2   2   2
#     4  11  25  46  69 102 144 180 237 293 353 423
#     4  12  25  43  74 103 140 183 234 291 357 423
#     4  12  27  45  71 105 143 187 235 292 358 420
#     4  12  25  47  72 102 146 188 235 294 357 423
#     4  11  25  45  71 104 143 184 237 288 354 426
#     4  11  25  46  71 103 142 189 232 295 351 416
#     4  11  24  45  70 101 138 185 237 290 351 420
#     4  12  25  45  72 104 142 184 240 290 352 423
#
# _framework density 22.765128000000001
#
# number of rings (size 3 to 8) (size 9 to 14) (size 15 to 20)
#    0.000    0.500    2.500    5.625    3.500    5.000 
#    0.000    0.000    0.000    0.000    0.000    0.000 
#    0.000    0.000    0.000    0.000    0.000    0.000 
#
# Total GULP energy -89628.173345 kJ/mol
# GULP energy per Si atom -5601.760834 kJ/mol
# Density = 2.271331 g / cm^3
# Si number density = 22.765128 Si / 1000 Ang^3
#
#
#
# Elastic Constant Matrix: (Units=GPa)
#
#
# Indices 1 2 3 4 5 6 
#
# 1 98.4230 18.6372 -0.9277 7.1181 13.4546 -13.4406
# 2 18.6372 69.9145 22.6892 16.5280 0.4082 -5.7400
# 3 -0.9277 22.6892 98.2202 5.1833 3.4486 -3.2344
# 4 7.1181 16.5280 5.1833 17.0147 -2.9139 9.4974
# 5 13.4546 0.4082 3.4486 -2.9139 16.9112 -9.9669
# 6 -13.4406 -5.7400 -3.2344 9.4974 -9.9669 45.3991
#
#
#
# Elastic Compliance Matrix: (Units=1/GPa)
#
#
# Indices 1 2 3 4 5 6 
#
# 1 0.012825 -0.001800 0.001378 -0.007435 -0.009929 0.003043
# 2 -0.001800 0.022088 -0.003717 -0.023312 0.001942 0.007298
# 3 0.001378 -0.003717 0.011236 -0.001091 -0.003350 0.000231
# 4 -0.007435 -0.023312 -0.001091 0.099923 0.009784 -0.023982
# 5 -0.009929 0.001942 -0.003350 0.009784 0.076290 0.011769
# 6 0.003043 0.007298 0.000231 -0.023982 0.011769 0.031468
#
#
# Mechanical properties :
#
#
# Convention : Reuss Voigt Hill
#
# Bulk Modulus (GPa) = 26.40611 38.59501 32.50056
# Shear Modulus (GPa) = 18.19958 30.94229 24.57093
#
# Velocity S-wave (km/s) = 2.83052 3.69073 3.28887
# Velocity P-wave (km/s) = 4.72303 5.92894 5.36001
#
# Compressibility (1/GPa) = 0.03787002
#
# Stress axis : x y z
#
# Youngs Moduli (GPa) = 77.97466 45.27278 89.00193
#
# Poissons Ratio (x) = 0.08151 -0.12266
# Poissons Ratio (y) = 0.14039 0.33083
# Poissons Ratio (z) = -0.10747 0.16828
#
# Static dielectric constant tensor:
#      x y z
#    x 1.846270 0.004130 0.013150 
#    y 0.004130 1.829600 0.030140 
#    z 0.013150 0.030140 1.817460 
# 
# From -- ./inp_files/52455.got.cif
#   From: 2010.05.17/outbox.cif.g08.bks.cpg/sg2_27_cif.got.tgz:52455.got - 2010.06.03 11:33:40.
