data_PCOD9064747
_publ_section_title
;
Structure prediction by ZEFSAII (Michael W. Deem and Ramdas Pophale) SiO2 
 PCOD9064747
Probable space group: P -1
;
_chemical_formula_sum "Si O2"
_cell_formula_units_Z 15
_cell_length_a 11.726940
_cell_length_b 9.110932
_cell_length_c 11.063367
_cell_angle_alpha 102.700867
_cell_angle_beta 113.882224
_cell_angle_gamma 130.695407
_cell_volume 586.894737
_symmetry_space_group_name_H-M "P -1"
_symmetry_group_IT_number 2
_symmetry_cell_setting 'triclinic'
loop_
_space_group_symop_operation_xyz
x,y,z
-x,-y,-z
loop_
_atom_site_type_symbol
_atom_site_label
_atom_site_fract_x
_atom_site_fract_y
_atom_site_fract_z
Si Si1 0.769234 0.704152 0.496147
Si Si2 0.173185 0.665501 0.854041
Si Si3 0.361920 0.076530 0.152549
Si Si4 0.954306 0.009636 0.114754
Si Si5 0.289060 0.776731 0.275342
Si Si6 0.000000 0.500000 0.500000
Si Si7 0.319691 0.552523 0.033174
Si Si8 0.797113 0.002263 0.394244
O O1 0.744822 0.848512 0.462026
O O2 0.136459 0.689223 0.710113
O O3 0.822154 0.745539 0.667801
O O4 0.987775 0.852575 0.553063
O O5 0.948585 0.471296 0.802903
O O6 0.224375 0.541243 0.873231
O O7 0.393168 0.959299 0.065186
O O8 0.565256 0.391879 0.318050
O O9 0.289078 0.930560 0.222676
O O10 0.187528 0.985949 0.974473
O O11 0.816348 0.737025 0.065491
O O12 0.000000 0.000000 0.000000
O O13 0.300848 0.646151 0.161316
O O14 0.500000 0.000000 0.500000
O O15 0.140558 0.761405 0.519724
O O16 0.577814 0.768400 0.176636
#
# Coordination Sequence:
#
# PCOD9064747 Si02
#       8
#     2   2   2   2   2   1   2   2
#     4  11  27  51  71 106 152 192 243 303 376 434
#     4  11  25  48  71 111 148 191 245 302 366 440
#     4  11  25  47  76 109 144 197 238 304 378 431
#     4  12  25  44  75 107 148 187 245 302 368 444
#     4  11  25  45  79 105 152 192 240 304 374 428
#     4  12  26  46  76 102 148 190 252 294 354 436
#     4  11  24  46  72 110 144 187 247 310 358 430
#     4  11  26  48  73 103 145 196 245 305 362 437
#
# _framework density 25.558244999999999
#
# number of rings (size 3 to 8) (size 9 to 14) (size 15 to 20)
#    0.000    0.800    1.333    5.600    9.333    2.667 
#    7.200    0.000    0.000    0.000    0.000    0.000 
#    0.000    0.000    0.000    0.000    0.000    0.000 
#
# Total GULP energy -83746.666268 kJ/mol
# GULP energy per Si atom -5583.111085 kJ/mol
# Density = 2.550007 g / cm^3
# Si number density = 25.558245 Si / 1000 Ang^3
#
#
#
# Elastic Constant Matrix: (Units=GPa)
#
#
# Indices 1 2 3 4 5 6 
#
# 1 40.9606 29.4980 25.5379 -6.4844 -13.7895 5.1300
# 2 29.4980 181.5093 77.3988 -7.7218 -7.2668 -21.1450
# 3 25.5379 77.3988 165.2789 -14.8765 -28.3148 -0.0811
# 4 -6.4844 -7.7218 -14.8765 51.1465 1.6902 -12.7790
# 5 -13.7895 -7.2668 -28.3148 1.6902 39.2729 -4.3551
# 6 5.1300 -21.1450 -0.0811 -12.7790 -4.3551 29.7851
#
#
#
# Elastic Compliance Matrix: (Units=1/GPa)
#
#
# Indices 1 2 3 4 5 6 
#
# 1 0.033130 -0.005525 -0.000915 0.000812 0.009033 -0.007962
# 2 -0.005525 0.008735 -0.003442 0.001562 -0.002039 0.007516
# 3 -0.000915 -0.003442 0.008844 0.001557 0.005260 -0.000825
# 4 0.000812 0.001562 0.001557 0.023066 0.001941 0.011154
# 5 0.009033 -0.002039 0.005260 0.001941 0.032250 0.002559
# 6 -0.007962 0.007516 -0.000825 0.011154 0.002559 0.045438
#
#
# Mechanical properties :
#
#
# Convention : Reuss Voigt Hill
#
# Bulk Modulus (GPa) = 32.31519 72.51314 52.41416
# Shear Modulus (GPa) = 27.54166 41.06183 34.30174
#
# Velocity S-wave (km/s) = 3.28625 4.01259 3.66744
# Velocity P-wave (km/s) = 5.20293 7.06407 6.20369
#
# Compressibility (1/GPa) = 0.03094520
#
# Stress axis : x y z
#
# Youngs Moduli (GPa) = 30.18430 114.47616 113.06498
#
# Poissons Ratio (x) = 0.63252 0.10345
# Poissons Ratio (y) = 0.16678 0.38917
# Poissons Ratio (z) = 0.02762 0.39403
#
# Static dielectric constant tensor:
#      x y z
#    x 2.103060 -0.071460 0.090990 
#    y -0.071460 1.931560 0.044910 
#    z 0.090990 0.044910 1.961670 
# 
# From -- ./inp_files/526518.got.cif
#   From: 2010.05.17/outbox.cif.g08.bks.cpg/sg2_264_cif.got.tgz:526518.got - 2010.06.03 11:33:40.
