data_PCOD9064292
_publ_section_title
;
Structure prediction by ZEFSAII (Michael W. Deem and Ramdas Pophale) SiO2 
 PCOD9064292
Probable space group: P -1
;
_chemical_formula_sum "Si O2"
_cell_formula_units_Z 15
_cell_length_a 15.687012
_cell_length_b 13.147410
_cell_length_c 25.137496
_cell_angle_alpha 26.176687
_cell_angle_beta 161.615495
_cell_angle_gamma 153.535286
_cell_volume 685.034960
_symmetry_space_group_name_H-M "P -1"
_symmetry_group_IT_number 2
_symmetry_cell_setting 'triclinic'
loop_
_space_group_symop_operation_xyz
x,y,z
-x,-y,-z
loop_
_atom_site_type_symbol
_atom_site_label
_atom_site_fract_x
_atom_site_fract_y
_atom_site_fract_z
Si Si1 0.429205 0.228864 0.874601
Si Si2 0.774543 0.452731 0.659567
Si Si3 0.500000 0.500000 0.000000
Si Si4 0.473403 0.907472 0.711407
Si Si5 0.847507 0.767635 0.448920
Si Si6 0.490529 0.618665 0.656533
Si Si7 0.772706 0.114469 0.539195
Si Si8 0.362711 0.773063 0.885446
O O1 0.619583 0.470561 0.844056
O O2 0.104863 0.210139 0.678515
O O3 0.462376 0.231451 0.955967
O O4 0.500000 0.000000 0.000000
O O5 0.500000 0.500000 0.500000
O O6 0.854451 0.609503 0.579204
O O7 0.054379 0.568229 0.805913
O O8 0.699402 0.169451 0.734167
O O9 0.538327 0.686700 0.883126
O O10 0.504633 0.719997 0.940703
O O11 0.414755 0.871916 0.629985
O O12 0.167253 0.904120 0.555358
O O13 0.687640 0.574923 0.400551
O O14 0.693495 0.968127 0.273451
O O15 0.302687 0.740561 0.524265
O O16 0.701617 0.837042 0.646298
#
# Coordination Sequence:
#
# PCOD9064292 Si02
#       8
#     2   2   1   2   2   2   2   2
#     4  12  25  45  70 104 148 184 229 299 353 414
#     4  12  25  45  76 100 137 190 244 288 346 427
#     4  12  28  44  70 106 150 180 228 300 358 418
#     4  12  24  47  73 104 144 187 236 292 353 425
#     4  12  23  47  74 101 142 189 242 284 353 431
#     4  11  24  45  73 106 137 189 242 287 348 425
#     4  11  25  45  75 105 138 190 240 288 351 427
#     4  12  26  47  69 109 147 185 236 292 357 421
#
# _framework density 21.896692000000002
#
# number of rings (size 3 to 8) (size 9 to 14) (size 15 to 20)
#    0.000    0.267    6.667    2.400    1.867    1.067 
#    4.800    0.000    0.000    0.000    0.000    0.000 
#    0.000    0.000    0.000    0.000    0.000    0.000 
#
# Total GULP energy -83682.622299 kJ/mol
# GULP energy per Si atom -5578.841487 kJ/mol
# Density = 2.184685 g / cm^3
# Si number density = 21.896692 Si / 1000 Ang^3
#
#
#
# Elastic Constant Matrix: (Units=GPa)
#
#
# Indices 1 2 3 4 5 6 
#
# 1 100.0914 30.8706 3.4404 -8.4378 -12.2210 -9.0306
# 2 30.8706 135.2382 36.3431 -21.2445 -13.8560 -9.2362
# 3 3.4404 36.3431 34.1559 -20.8866 -19.9644 -2.4695
# 4 -8.4378 -21.2445 -20.8866 34.7609 9.3080 -6.9401
# 5 -12.2210 -13.8560 -19.9644 9.3080 29.7947 -11.4394
# 6 -9.0306 -9.2362 -2.4695 -6.9401 -11.4394 42.2030
#
#
#
# Elastic Compliance Matrix: (Units=1/GPa)
#
#
# Indices 1 2 3 4 5 6 
#
# 1 0.015202 -0.005204 0.023630 0.011457 0.020242 0.010867
# 2 -0.005204 0.012496 -0.022703 -0.004941 -0.011376 -0.003604
# 3 0.023630 -0.022703 0.152848 0.066607 0.098688 0.046735
# 4 0.011457 -0.004941 0.066607 0.063790 0.037005 0.025788
# 5 0.020242 -0.011376 0.098688 0.037005 0.107600 0.042868
# 6 0.010867 -0.003604 0.046735 0.025788 0.042868 0.043827
#
#
# Mechanical properties :
#
#
# Convention : Reuss Voigt Hill
#
# Bulk Modulus (GPa) = 5.81431 45.64375 25.72903
# Shear Modulus (GPa) = 10.83076 34.60715 22.71895
#
# Velocity S-wave (km/s) = 2.22644 3.97983 3.22460
# Velocity P-wave (km/s) = 3.04475 6.48144 5.06357
#
# Compressibility (1/GPa) = 0.17198954
#
# Stress axis : x y z
#
# Youngs Moduli (GPa) = 65.78258 80.02837 6.54245
#
# Poissons Ratio (x) = 0.41649 -0.15460
# Poissons Ratio (y) = 0.34235 0.14853
# Poissons Ratio (z) = -1.55442 1.81690
#
# Static dielectric constant tensor:
#      x y z
#    x 1.822770 0.031610 -0.004320 
#    y 0.031610 1.796120 0.014190 
#    z -0.004320 0.014190 1.821660 
# 
# From -- ./inp_files/416222.got.cif
#   From: 2010.05.17/outbox.cif.g08.bks.cpg/sg2_209_cif.got.tgz:416222.got - 2010.06.03 11:33:40.
