data_PCOD9064088
_publ_section_title
;
Structure prediction by ZEFSAII (Michael W. Deem and Ramdas Pophale) SiO2 
 PCOD9064088
Probable space group: P -1
;
_chemical_formula_sum "Si O2"
_cell_formula_units_Z 14
_cell_length_a 14.361052
_cell_length_b 9.154989
_cell_length_c 8.558792
_cell_angle_alpha 79.543832
_cell_angle_beta 118.362678
_cell_angle_gamma 136.750994
_cell_volume 652.697087
_symmetry_space_group_name_H-M "P -1"
_symmetry_group_IT_number 2
_symmetry_cell_setting 'triclinic'
loop_
_space_group_symop_operation_xyz
x,y,z
-x,-y,-z
loop_
_atom_site_type_symbol
_atom_site_label
_atom_site_fract_x
_atom_site_fract_y
_atom_site_fract_z
Si Si1 0.555253 0.508132 0.873171
Si Si2 0.642579 0.254515 0.011891
Si Si3 0.539304 0.165789 0.626187
Si Si4 0.121849 0.450674 0.570155
Si Si5 0.820898 0.175316 0.567686
Si Si6 0.847328 0.925610 0.832146
Si Si7 0.711067 0.610225 0.497699
O O1 0.707289 0.750485 0.877321
O O2 0.412526 0.404164 0.668608
O O3 0.500000 0.500000 0.000000
O O4 0.593114 0.374743 0.938791
O O5 0.781346 0.399741 0.224044
O O6 0.657245 0.232090 0.843396
O O7 0.500000 0.000000 0.000000
O O8 0.614926 0.384825 0.559299
O O9 0.500000 0.000000 0.500000
O O10 0.364934 0.026319 0.578043
O O11 0.140224 0.608387 0.435470
O O12 0.194319 0.379876 0.563086
O O13 0.940571 0.244063 0.515504
O O14 0.857175 0.109542 0.758780
O O15 0.810910 0.804385 0.664276
O O16 0.000000 0.000000 0.000000
#
# Coordination Sequence:
#
# PCOD9064088 Si02
#       7
#     2   2   2   2   2   2   2
#     4  12  25  44  71 104 135 178 234 282 342 411
#     4  12  23  42  69 101 138 174 229 286 334 412
#     4  12  23  44  73 103 132 182 229 280 347 408
#     4  11  25  46  67 102 137 182 228 283 345 406
#     4  11  24  45  70  96 141 178 226 284 345 405
#     4  12  27  47  67 101 142 182 225 287 348 405
#     4  12  24  46  72  98 138 180 231 287 337 416
#
# _framework density 21.449459000000001
#
# number of rings (size 3 to 8) (size 9 to 14) (size 15 to 20)
#    0.000    0.286    7.143    2.143    0.000    0.571 
#    2.571    4.286    0.000    0.000    0.000    0.000 
#    0.000    0.000    0.000    0.000    0.000    0.000 
#
# Total GULP energy -78238.846327 kJ/mol
# GULP energy per Si atom -5588.489023 kJ/mol
# Density = 2.140064 g / cm^3
# Si number density = 21.449459 Si / 1000 Ang^3
#
#
#
# Elastic Constant Matrix: (Units=GPa)
#
#
# Indices 1 2 3 4 5 6 
#
# 1 91.7666 37.4385 35.0388 1.3561 7.0441 17.7835
# 2 37.4385 95.1945 29.6101 -24.8489 7.3241 -7.9073
# 3 35.0388 29.6101 156.1569 -4.7961 3.3364 -1.9126
# 4 1.3561 -24.8489 -4.7961 33.3904 -5.9077 14.0300
# 5 7.0441 7.3241 3.3364 -5.9077 41.5733 0.3202
# 6 17.7835 -7.9073 -1.9126 14.0300 0.3202 38.4047
#
#
#
# Elastic Compliance Matrix: (Units=1/GPa)
#
#
# Indices 1 2 3 4 5 6 
#
# 1 0.016479 -0.007075 -0.002517 -0.003236 -0.001742 -0.008016
# 2 -0.007075 0.016923 -0.001232 0.011674 -0.000044 0.002435
# 3 -0.002517 -0.001232 0.007208 -0.000370 0.000002 0.001406
# 4 -0.003236 0.011674 -0.000370 0.044872 0.004994 -0.012551
# 5 -0.001742 -0.000044 0.000002 0.004994 0.025076 -0.001236
# 6 -0.008016 0.002435 0.001406 -0.012551 -0.001236 0.034917
#
#
# Mechanical properties :
#
#
# Convention : Reuss Voigt Hill
#
# Bulk Modulus (GPa) = 52.73248 60.81030 56.77139
# Shear Modulus (GPa) = 28.82780 38.74238 33.78509
#
# Velocity S-wave (km/s) = 3.67002 4.25457 3.97306
# Velocity P-wave (km/s) = 6.52661 7.24895 6.89724
#
# Compressibility (1/GPa) = 0.01896365
#
# Stress axis : x y z
#
# Youngs Moduli (GPa) = 60.68163 59.08995 138.73574
#
# Poissons Ratio (x) = 0.41805 0.34913
# Poissons Ratio (y) = 0.42931 0.17095
# Poissons Ratio (z) = 0.15271 0.07281
#
# Static dielectric constant tensor:
#      x y z
#    x 1.806750 -0.057110 -0.047680 
#    y -0.057110 1.684830 0.024230 
#    z -0.047680 0.024230 1.791030 
# 
# From -- ./inp_files/260793.got.cif
#   From: 2010.05.17/outbox.cif.g08.bks.cpg/sg2_131_cif.got.tgz:260793.got - 2010.06.03 11:33:40.
