data_PCOD9064789
_publ_section_title
;
Structure prediction by ZEFSAII (Michael W. Deem and Ramdas Pophale) SiO2 
 PCOD9064789
Probable space group: P -1
;
_chemical_formula_sum "Si O2"
_cell_formula_units_Z 14
_cell_length_a 13.486463
_cell_length_b 16.547707
_cell_length_c 6.586279
_cell_angle_alpha 118.429003
_cell_angle_beta 43.170459
_cell_angle_gamma 141.802979
_cell_volume 605.253857
_symmetry_space_group_name_H-M "P -1"
_symmetry_group_IT_number 2
_symmetry_cell_setting 'triclinic'
loop_
_space_group_symop_operation_xyz
x,y,z
-x,-y,-z
loop_
_atom_site_type_symbol
_atom_site_label
_atom_site_fract_x
_atom_site_fract_y
_atom_site_fract_z
Si Si1 0.022030 0.764721 0.285406
Si Si2 0.480475 0.502253 0.294688
Si Si3 0.139049 0.990445 0.665667
Si Si4 0.431754 0.200741 0.150942
Si Si5 0.483506 0.653550 0.181123
Si Si6 0.684379 0.015512 0.207536
Si Si7 0.779927 0.345321 0.130540
O O1 0.775684 0.622246 0.498389
O O2 0.057097 0.862333 0.514660
O O3 0.102258 0.844253 0.045230
O O4 0.166047 0.738563 0.062079
O O5 0.500000 0.500000 0.500000
O O6 0.567548 0.637901 0.234289
O O7 0.604340 0.477467 0.964063
O O8 0.254056 0.108750 0.473583
O O9 0.277919 0.015066 0.670847
O O10 0.000000 0.000000 0.000000
O O11 0.648833 0.313943 0.086776
O O12 0.385903 0.245729 0.082827
O O13 0.419333 0.097294 0.940344
O O14 0.345524 0.672007 0.505356
O O15 0.500000 0.000000 0.500000
O O16 0.000000 0.500000 0.000000
#
# Coordination Sequence:
#
# PCOD9064789 Si02
#       7
#     2   2   2   2   2   2   2
#     4  11  26  46  75 107 146 187 251 300 367 442
#     4  11  26  48  70 108 149 194 242 299 362 444
#     4  11  27  47  75 109 146 192 248 313 373 432
#     4  11  25  44  75 103 145 188 244 302 365 436
#     4  11  25  45  71 102 148 192 238 294 367 425
#     4  11  24  46  73 105 141 194 245 310 370 428
#     4  12  25  48  70 111 148 194 241 299 363 447
#
# _framework density 23.130789
#
# number of rings (size 3 to 8) (size 9 to 14) (size 15 to 20)
#    0.000    0.857    1.429    4.286    6.000    6.286 
#    2.571    0.000    0.000    0.000    0.000    0.000 
#    0.000    0.000    0.000    0.000    0.000    0.000 
#
# Total GULP energy -78081.840257 kJ/mol
# GULP energy per Si atom -5577.274304 kJ/mol
# Density = 2.307814 g / cm^3
# Si number density = 23.130789 Si / 1000 Ang^3
#
#
#
# Elastic Constant Matrix: (Units=GPa)
#
#
# Indices 1 2 3 4 5 6 
#
# 1 120.1846 44.1593 86.3603 -1.0331 17.0543 -18.8564
# 2 44.1593 104.1617 68.4350 6.3508 4.4664 -16.2173
# 3 86.3603 68.4350 190.3362 10.0129 15.8878 -22.6169
# 4 -1.0331 6.3508 10.0129 42.2384 -18.2060 2.2360
# 5 17.0543 4.4664 15.8878 -18.2060 44.0470 0.3762
# 6 -18.8564 -16.2173 -22.6169 2.2360 0.3762 36.0892
#
#
#
# Elastic Compliance Matrix: (Units=1/GPa)
#
#
# Indices 1 2 3 4 5 6 
#
# 1 0.013403 -0.001942 -0.004745 0.000183 -0.003232 0.003179
# 2 -0.001942 0.013225 -0.003476 -0.001321 0.000094 0.002831
# 3 -0.004745 -0.003476 0.009238 -0.002904 -0.002360 0.001953
# 4 0.000183 -0.001321 -0.002904 0.030776 0.013868 -0.004369
# 5 -0.003232 0.000094 -0.002360 0.013868 0.030565 -0.004303
# 6 0.003179 0.002831 0.001953 -0.004369 -0.004303 0.032181
#
#
# Mechanical properties :
#
#
# Convention : Reuss Voigt Hill
#
# Bulk Modulus (GPa) = 64.35091 90.28798 77.31945
# Shear Modulus (GPa) = 32.28035 38.85679 35.56857
#
# Velocity S-wave (km/s) = 3.73977 4.10307 3.92563
# Velocity P-wave (km/s) = 6.82119 7.84636 7.35167
#
# Compressibility (1/GPa) = 0.01553980
#
# Stress axis : x y z
#
# Youngs Moduli (GPa) = 74.61202 75.61650 108.24625
#
# Poissons Ratio (x) = 0.14687 0.51362
# Poissons Ratio (y) = 0.14492 0.37623
# Poissons Ratio (z) = 0.35403 0.26282
#
# Static dielectric constant tensor:
#      x y z
#    x 1.858350 -0.025930 0.018860 
#    y -0.025930 1.970490 -0.052700 
#    z 0.018860 -0.052700 1.798660 
# 
# From -- ./inp_files/78264.got.cif
#   From: 2010.05.17/outbox.cif.g08.bks.cpg/sg2_40_cif.got.tgz:78264.got - 2010.06.03 11:33:40.
