data_PCOD9064308
_publ_section_title
;
Structure prediction by ZEFSAII (Michael W. Deem and Ramdas Pophale) SiO2 
 PCOD9064308
Probable space group: P -1
;
_chemical_formula_sum "Si O2"
_cell_formula_units_Z 12
_cell_length_a 7.960198
_cell_length_b 11.054231
_cell_length_c 7.919169
_cell_angle_alpha 98.404875
_cell_angle_beta 54.379585
_cell_angle_gamma 71.218708
_cell_volume 483.265545
_symmetry_space_group_name_H-M "P -1"
_symmetry_group_IT_number 2
_symmetry_cell_setting 'triclinic'
loop_
_space_group_symop_operation_xyz
x,y,z
-x,-y,-z
loop_
_atom_site_type_symbol
_atom_site_label
_atom_site_fract_x
_atom_site_fract_y
_atom_site_fract_z
Si Si1 0.209054 0.433396 0.103605
Si Si2 0.933404 0.145159 0.902118
Si Si3 0.769900 0.180474 0.356508
Si Si4 0.063606 0.703653 0.407211
Si Si5 0.324138 0.448933 0.661781
Si Si6 0.553966 0.842088 0.900744
O O1 0.220081 0.533466 0.262341
O O2 0.374548 0.267255 0.007146
O O3 0.930078 0.479710 0.265666
O O4 0.273021 0.473565 0.895319
O O5 0.940116 0.237383 0.764965
O O6 0.917488 0.195290 0.114703
O O7 0.687464 0.142530 0.027889
O O8 0.145113 0.984293 0.721031
O O9 0.836446 0.232583 0.498860
O O10 0.487976 0.279640 0.512840
O O11 0.791606 0.760156 0.632311
O O12 0.500000 0.500000 0.500000
O O13 0.500000 0.000000 0.000000
#
# Coordination Sequence:
#
# PCOD9064308 Si02
#       6
#     2   2   2   2   2   2
#     4  11  27  46  73 116 145 192 257 298 374 443
#     4  11  26  47  72 111 146 196 248 303 375 441
#     4  11  24  45  73 108 147 191 246 301 370 441
#     4  12  25  47  77 107 149 196 241 313 371 435
#     4  11  24  46  75 105 153 194 240 310 370 439
#     4  12  26  46  75 105 148 197 249 304 365 445
#
# _framework density 24.831071000000001
#
# number of rings (size 3 to 8) (size 9 to 14) (size 15 to 20)
#    0.000    0.667    1.667    5.000    2.333    5.333 
#    0.000    5.833    0.000    0.000    0.000    0.000 
#    0.000    0.000    0.000    0.000    0.000    0.000 
#
# Total GULP energy -67276.533714 kJ/mol
# GULP energy per Si atom -5606.377810 kJ/mol
# Density = 2.477455 g / cm^3
# Si number density = 24.831071 Si / 1000 Ang^3
#
#
#
# Elastic Constant Matrix: (Units=GPa)
#
#
# Indices 1 2 3 4 5 6 
#
# 1 67.5262 31.9032 31.6796 11.5075 0.4751 -12.3508
# 2 31.9032 130.6911 46.0909 5.9166 18.1751 -16.7397
# 3 31.6796 46.0909 100.9017 3.0938 13.3536 4.7987
# 4 11.5075 5.9166 3.0938 65.5820 -7.9368 -6.0466
# 5 0.4751 18.1751 13.3536 -7.9368 56.7052 -0.2751
# 6 -12.3508 -16.7397 4.7987 -6.0466 -0.2751 29.3571
#
#
#
# Elastic Compliance Matrix: (Units=1/GPa)
#
#
# Indices 1 2 3 4 5 6 
#
# 1 0.020390 -0.001944 -0.006041 -0.002183 0.001608 0.008022
# 2 -0.001944 0.010728 -0.004247 -0.000172 -0.002417 0.005936
# 3 -0.006041 -0.004247 0.014371 -0.000159 -0.002030 -0.007364
# 4 -0.002183 -0.000172 -0.000159 0.016160 0.002384 0.002361
# 5 0.001608 -0.002417 -0.002030 0.002384 0.019210 0.000301
# 6 0.008022 0.005936 -0.007364 0.002361 0.000301 0.042516
#
#
# Mechanical properties :
#
#
# Convention : Reuss Voigt Hill
#
# Bulk Modulus (GPa) = 47.56383 57.60738 52.58561
# Shear Modulus (GPa) = 32.28963 42.95854 37.62408
#
# Velocity S-wave (km/s) = 3.60998 4.16388 3.89678
# Velocity P-wave (km/s) = 6.04752 6.80935 6.43971
#
# Compressibility (1/GPa) = 0.02102438
#
# Stress axis : x y z
#
# Youngs Moduli (GPa) = 49.04419 93.21084 69.58321
#
# Poissons Ratio (x) = 0.18122 0.42036
# Poissons Ratio (y) = 0.09535 0.29554
# Poissons Ratio (z) = 0.29628 0.39590
#
# Static dielectric constant tensor:
#      x y z
#    x 1.963470 -0.018050 0.027620 
#    y -0.018050 2.010700 -0.013340 
#    z 0.027620 -0.013340 1.941630 
# 
# From -- ./inp_files/164558.got.cif
#   From: 2010.05.17/outbox.cif.g08.bks.cpg/sg2_83_cif.got.tgz:164558.got - 2010.06.03 11:33:40.
