data_PCOD9064392
_publ_section_title
;
Structure prediction by ZEFSAII (Michael W. Deem and Ramdas Pophale) SiO2 
 PCOD9064392
Probable space group: P -1
;
_chemical_formula_sum "Si O2"
_cell_formula_units_Z 14
_cell_length_a 5.532314
_cell_length_b 12.986038
_cell_length_c 21.926205
_cell_angle_alpha 152.611896
_cell_angle_beta 124.733445
_cell_angle_gamma 53.013517
_cell_volume 576.104061
_symmetry_space_group_name_H-M "P -1"
_symmetry_group_IT_number 2
_symmetry_cell_setting 'triclinic'
loop_
_space_group_symop_operation_xyz
x,y,z
-x,-y,-z
loop_
_atom_site_type_symbol
_atom_site_label
_atom_site_fract_x
_atom_site_fract_y
_atom_site_fract_z
Si Si1 0.456992 0.853302 0.974703
Si Si2 0.884186 0.878884 0.662364
Si Si3 0.465633 0.484766 0.558548
Si Si4 0.851070 0.623621 0.215553
Si Si5 0.694662 0.097690 0.629506
Si Si6 0.936291 0.354575 0.972543
Si Si7 0.069709 0.324650 0.202113
O O1 0.274479 0.671946 0.829675
O O2 0.740321 0.735204 0.993794
O O3 0.500000 0.000000 0.000000
O O4 0.247091 0.055684 0.093070
O O5 0.611918 0.754587 0.562881
O O6 0.170311 0.699599 0.641093
O O7 0.906625 0.921252 0.615354
O O8 0.842557 0.123764 0.818082
O O9 0.500000 0.500000 0.500000
O O10 0.755625 0.525784 0.655838
O O11 0.565770 0.753957 0.284270
O O12 0.078098 0.774479 0.304480
O O13 0.041321 0.421408 0.180320
O O14 0.745683 0.510577 0.080805
O O15 0.500000 0.000000 0.500000
O O16 0.000000 0.500000 0.000000
#
# Coordination Sequence:
#
# PCOD9064392 Si02
#       7
#     2   2   2   2   2   2   2
#     4  11  24  45  74 110 152 209 262 329 402 473
#     4  11  27  48  74 113 157 211 262 336 402 481
#     4  11  27  46  74 110 154 210 271 331 402 473
#     4  12  27  48  79 118 151 215 261 336 402 485
#     4  12  28  51  79 113 160 208 269 325 407 489
#     4  12  25  50  78 117 167 205 272 336 415 480
#     4  11  25  44  74 108 151 202 276 324 395 484
#
# _framework density 24.301164
#
# number of rings (size 3 to 8) (size 9 to 14) (size 15 to 20)
#    0.000    0.571    4.286    2.143    6.000    0.571 
#    2.571    0.000    0.000    0.000    0.000    0.000 
#    0.000    0.000    0.000    0.000    0.000    0.000 
#
# Total GULP energy -78377.061650 kJ/mol
# GULP energy per Si atom -5598.361546 kJ/mol
# Density = 2.424585 g / cm^3
# Si number density = 24.301164 Si / 1000 Ang^3
#
#
#
# Elastic Constant Matrix: (Units=GPa)
#
#
# Indices 1 2 3 4 5 6 
#
# 1 114.0234 44.5361 67.6318 6.2222 17.1827 10.6888
# 2 44.5361 157.3074 53.5970 -12.6908 20.1796 8.1798
# 3 67.6318 53.5970 195.5174 -23.9117 30.4063 1.9903
# 4 6.2222 -12.6908 -23.9117 50.9091 -0.3220 5.6266
# 5 17.1827 20.1796 30.4063 -0.3220 62.7391 7.4011
# 6 10.6888 8.1798 1.9903 5.6266 7.4011 47.6424
#
#
#
# Elastic Compliance Matrix: (Units=1/GPa)
#
#
# Indices 1 2 3 4 5 6 
#
# 1 0.012540 -0.002315 -0.004072 -0.003837 -0.000534 -0.001710
# 2 -0.002315 0.007665 -0.000860 0.001867 -0.001313 -0.000777
# 3 -0.004072 -0.000860 0.007575 0.003753 -0.002339 0.000665
# 4 -0.003837 0.001867 0.003753 0.022569 -0.001002 -0.002126
# 5 -0.000534 -0.001313 -0.002339 -0.001002 0.017898 -0.002219
# 6 -0.001710 -0.000777 0.000665 -0.002126 -0.002219 0.022075
#
#
# Mechanical properties :
#
#
# Convention : Reuss Voigt Hill
#
# Bulk Modulus (GPa) = 75.26639 88.70867 81.98753
# Shear Modulus (GPa) = 45.76997 52.33035 49.05016
#
# Velocity S-wave (km/s) = 4.34458 4.64552 4.49757
# Velocity P-wave (km/s) = 7.49711 8.08440 7.79629
#
# Compressibility (1/GPa) = 0.01328614
#
# Stress axis : x y z
#
# Youngs Moduli (GPa) = 79.74770 130.46516 132.01874
#
# Poissons Ratio (x) = 0.30202 0.53754
# Poissons Ratio (y) = 0.18461 0.11352
# Poissons Ratio (z) = 0.32471 0.11218
#
# Static dielectric constant tensor:
#      x y z
#    x 2.029850 -0.141360 -0.090260 
#    y -0.141360 1.967750 0.062160 
#    z -0.090260 0.062160 1.940970 
# 
# From -- ./inp_files/583393.got.cif
#   From: 2010.05.17/outbox.cif.g08.bks.cpg/sg2_292_cif.got.tgz:583393.got - 2010.06.03 11:33:40.
