data_PCOD9064761
_publ_section_title
;
Structure prediction by ZEFSAII (Michael W. Deem and Ramdas Pophale) SiO2 
 PCOD9064761
Probable space group: P -1
;
_chemical_formula_sum "Si O2"
_cell_formula_units_Z 16
_cell_length_a 11.932616
_cell_length_b 8.763829
_cell_length_c 9.523645
_cell_angle_alpha 80.051587
_cell_angle_beta 99.292388
_cell_angle_gamma 128.802496
_cell_volume 762.636292
_symmetry_space_group_name_H-M "P -1"
_symmetry_group_IT_number 2
_symmetry_cell_setting 'triclinic'
loop_
_space_group_symop_operation_xyz
x,y,z
-x,-y,-z
loop_
_atom_site_type_symbol
_atom_site_label
_atom_site_fract_x
_atom_site_fract_y
_atom_site_fract_z
Si Si1 0.273949 0.949212 0.262734
Si Si2 0.475886 0.627870 0.666383
Si Si3 0.341234 0.520923 0.348482
Si Si4 0.004897 0.144448 0.368345
Si Si5 0.242054 0.530603 0.819639
Si Si6 0.996864 0.077569 0.839294
Si Si7 0.637949 0.201058 0.925183
Si Si8 0.148631 0.699271 0.550487
O O1 0.159538 0.992572 0.226689
O O2 0.273063 0.856349 0.130830
O O3 0.234186 0.809485 0.409192
O O4 0.428929 0.149574 0.295920
O O5 0.398756 0.594886 0.506849
O O6 0.579662 0.568597 0.673826
O O7 0.359438 0.509751 0.784813
O O8 0.167443 0.348652 0.348469
O O9 0.386418 0.694348 0.221729
O O10 0.897814 0.185217 0.395364
O O11 0.953138 0.015328 0.239484
O O12 0.000000 0.000000 0.500000
O O13 0.227965 0.653224 0.681276
O O14 0.094765 0.311965 0.825583
O O15 0.282197 0.639933 0.958843
O O16 0.000000 0.000000 0.000000
O O17 0.500000 0.000000 0.000000
O O18 0.000000 0.500000 0.500000
#
# Coordination Sequence:
#
# PCOD9064761 Si02
#       8
#     2   2   2   2   2   2   2   2
#     4  12  25  47  70 101 141 183 235 292 350 412
#     4  11  24  46  73 101 139 180 237 288 347 415
#     4  11  25  44  73 104 140 184 231 290 349 420
#     4  12  22  46  73 108 140 181 238 292 350 414
#     4  12  27  46  71 104 139 190 232 288 357 414
#     4  12  27  45  70 104 142 187 232 290 353 418
#     4  12  28  47  66 101 145 188 230 284 358 424
#     4  12  24  44  73 106 142 182 236 296 343 415
#
# _framework density 20.979856000000002
#
# number of rings (size 3 to 8) (size 9 to 14) (size 15 to 20)
#    0.000    0.250    5.000    3.750    3.500    4.000 
#    0.000    0.000    0.000    0.000    0.000    0.000 
#    0.000    0.000    0.000    0.000    0.000    0.000 
#
# Total GULP energy -89477.199350 kJ/mol
# GULP energy per Si atom -5592.324959 kJ/mol
# Density = 2.093211 g / cm^3
# Si number density = 20.979856 Si / 1000 Ang^3
#
#
#
# Elastic Constant Matrix: (Units=GPa)
#
#
# Indices 1 2 3 4 5 6 
#
# 1 68.2542 16.2020 19.1223 1.1337 -24.1369 -12.2588
# 2 16.2020 84.9754 35.4177 10.1151 -1.3493 3.6940
# 3 19.1223 35.4177 114.2495 5.2235 -21.0948 -12.9107
# 4 1.1337 10.1151 5.2235 52.9463 -14.1981 -5.5486
# 5 -24.1369 -1.3493 -21.0948 -14.1981 33.9262 7.4495
# 6 -12.2588 3.6940 -12.9107 -5.5486 7.4495 28.0324
#
#
#
# Elastic Compliance Matrix: (Units=1/GPa)
#
#
# Indices 1 2 3 4 5 6 
#
# 1 0.023497 -0.006160 0.002059 0.006324 0.018565 0.008354
# 2 -0.006160 0.016224 -0.006012 -0.005266 -0.008264 -0.006447
# 3 0.002059 -0.006012 0.012421 0.002857 0.008913 0.005610
# 4 0.006324 -0.005266 0.002857 0.024059 0.014911 0.005575
# 5 0.018565 -0.008264 0.008913 0.014911 0.053699 0.001993
# 6 0.008354 -0.006447 0.005610 0.005575 0.001993 0.043333
#
#
# Mechanical properties :
#
#
# Convention : Reuss Voigt Hill
#
# Bulk Modulus (GPa) = 31.33105 45.44035 38.38570
# Shear Modulus (GPa) = 24.49815 36.09681 30.29748
#
# Velocity S-wave (km/s) = 3.42087 4.15245 3.80428
# Velocity P-wave (km/s) = 5.52896 6.68554 6.13457
#
# Compressibility (1/GPa) = 0.03191722
#
# Stress axis : x y z
#
# Youngs Moduli (GPa) = 42.55920 61.63589 80.50926
#
# Poissons Ratio (x) = 0.37965 -0.16580
# Poissons Ratio (y) = 0.26215 0.48404
# Poissons Ratio (z) = -0.08765 0.37057
#
# Static dielectric constant tensor:
#      x y z
#    x 1.781650 0.016090 -0.018550 
#    y 0.016090 1.758170 -0.019750 
#    z -0.018550 -0.019750 1.694180 
# 
# From -- ./inp_files/184142.got.cif
#   From: 2010.05.17/outbox.cif.g08.bks.cpg/sg2_93_cif.got.tgz:184142.got - 2010.06.03 11:33:40.
