data_PCOD9064664
_publ_section_title
;
Structure prediction by ZEFSAII (Michael W. Deem and Ramdas Pophale) SiO2 
 PCOD9064664
Probable space group: P -1
;
_chemical_formula_sum "Si O2"
_cell_formula_units_Z 16
_cell_length_a 15.979927
_cell_length_b 5.164869
_cell_length_c 16.968565
_cell_angle_alpha 122.263806
_cell_angle_beta 145.688701
_cell_angle_gamma 61.538243
_cell_volume 665.680066
_symmetry_space_group_name_H-M "P -1"
_symmetry_group_IT_number 2
_symmetry_cell_setting 'triclinic'
loop_
_space_group_symop_operation_xyz
x,y,z
-x,-y,-z
loop_
_atom_site_type_symbol
_atom_site_label
_atom_site_fract_x
_atom_site_fract_y
_atom_site_fract_z
Si Si1 0.535017 0.320307 0.416098
Si Si2 0.172508 0.754219 0.956082
Si Si3 0.037278 0.376422 0.923884
Si Si4 0.077698 0.275291 0.694558
Si Si5 0.471940 0.592135 0.249781
Si Si6 0.146336 0.503090 0.562450
Si Si7 0.626311 0.133736 0.173918
Si Si8 0.144812 0.880902 0.378998
O O1 0.500000 0.500000 0.500000
O O2 0.445307 0.484446 0.300632
O O3 0.709163 0.346534 0.531507
O O4 0.512964 0.952322 0.345508
O O5 0.069482 0.643322 0.930000
O O6 0.118996 0.605804 0.809585
O O7 0.169481 0.113520 0.996339
O O8 0.333343 0.616851 0.085940
O O9 0.901397 0.184450 0.756401
O O10 0.000000 0.500000 0.000000
O O11 0.928363 0.272693 0.526406
O O12 0.012644 0.144215 0.703026
O O13 0.229310 0.109436 0.752842
O O14 0.571212 0.298568 0.239549
O O15 0.281683 0.579794 0.736647
O O16 0.000000 0.500000 0.500000
O O17 0.189811 0.203649 0.497798
O O18 0.500000 0.000000 0.000000
#
# Coordination Sequence:
#
# PCOD9064664 Si02
#       8
#     2   2   2   2   2   2   2   2
#     4  12  29  51  75 109 147 201 254 314 380 453
#     4  11  24  46  71 106 148 193 240 311 369 449
#     4  11  25  45  73 106 141 189 253 312 375 435
#     4  11  24  46  71 105 150 190 252 306 375 454
#     4  12  27  49  75 106 155 195 247 308 384 451
#     4  12  24  44  74 103 144 197 253 309 376 452
#     4  12  25  45  71 112 153 199 245 310 386 459
#     4  11  25  44  74 105 143 194 251 311 369 452
#
# _framework density 24.035568999999999
#
# number of rings (size 3 to 8) (size 9 to 14) (size 15 to 20)
#    0.000    0.500    5.000    2.625    5.250    0.000 
#    2.250    1.250    0.000    0.000    0.000    0.000 
#    0.000    0.000    0.000    0.000    0.000    0.000 
#
# Total GULP energy -89082.845198 kJ/mol
# GULP energy per Si atom -5567.677825 kJ/mol
# Density = 2.398086 g / cm^3
# Si number density = 24.035569 Si / 1000 Ang^3
#
#
#
# Elastic Constant Matrix: (Units=GPa)
#
#
# Indices 1 2 3 4 5 6 
#
# 1 65.3426 28.5067 50.1683 17.6403 -17.5652 -2.0763
# 2 28.5067 98.0657 45.4734 15.9119 -9.3735 -6.9368
# 3 50.1683 45.4734 162.7334 20.2322 -0.6280 -12.9041
# 4 17.6403 15.9119 20.2322 45.1677 -7.8350 -8.5429
# 5 -17.5652 -9.3735 -0.6280 -7.8350 35.2421 -4.4110
# 6 -2.0763 -6.9368 -12.9041 -8.5429 -4.4110 37.0365
#
#
#
# Elastic Compliance Matrix: (Units=1/GPa)
#
#
# Indices 1 2 3 4 5 6 
#
# 1 0.025659 -0.002700 -0.006653 -0.004423 0.010829 -0.001115
# 2 -0.002700 0.012622 -0.002370 -0.001811 0.001713 0.001173
# 3 -0.006653 -0.002370 0.009099 -0.000984 -0.003793 0.001675
# 4 -0.004423 -0.001811 -0.000984 0.026709 0.003948 0.005701
# 5 0.010829 0.001713 -0.003793 0.003948 0.035634 0.004761
# 6 -0.001115 0.001173 0.001675 0.005701 0.004761 0.029623
#
#
# Mechanical properties :
#
#
# Convention : Reuss Voigt Hill
#
# Bulk Modulus (GPa) = 41.78079 63.82652 52.80365
# Shear Modulus (GPa) = 29.27932 36.95548 33.11740
#
# Velocity S-wave (km/s) = 3.49401 3.92539 3.71597
# Velocity P-wave (km/s) = 5.80501 6.86714 6.35829
#
# Compressibility (1/GPa) = 0.02393444
#
# Stress axis : x y z
#
# Youngs Moduli (GPa) = 38.97213 79.22910 109.90740
#
# Poissons Ratio (x) = 0.21394 0.73118
# Poissons Ratio (y) = 0.10523 0.26044
# Poissons Ratio (z) = 0.25927 0.18774
#
# Static dielectric constant tensor:
#      x y z
#    x 1.518620 0.132230 0.614270 
#    y 0.132230 1.861120 -0.092060 
#    z 0.614270 -0.092060 1.437270 
# 
# From -- ./inp_files/574950.got.cif
#   From: 2010.05.17/outbox.cif.g08.bks.cpg/sg2_288_cif.got.tgz:574950.got - 2010.06.03 11:33:40.
