data_PCOD9064303
_publ_section_title
;
Structure prediction by ZEFSAII (Michael W. Deem and Ramdas Pophale) SiO2 
 PCOD9064303
Probable space group: P -1
;
_chemical_formula_sum "Si O2"
_cell_formula_units_Z 16
_cell_length_a 9.214819
_cell_length_b 12.390140
_cell_length_c 8.948527
_cell_angle_alpha 87.069281
_cell_angle_beta 37.543470
_cell_angle_gamma 93.411047
_cell_volume 613.301358
_symmetry_space_group_name_H-M "P -1"
_symmetry_group_IT_number 2
_symmetry_cell_setting 'triclinic'
loop_
_space_group_symop_operation_xyz
x,y,z
-x,-y,-z
loop_
_atom_site_type_symbol
_atom_site_label
_atom_site_fract_x
_atom_site_fract_y
_atom_site_fract_z
Si Si1 0.751118 0.058105 0.858657
Si Si2 0.487370 0.637967 0.577835
Si Si3 0.573654 0.132117 0.317712
Si Si4 0.878770 0.030689 0.288376
Si Si5 0.782243 0.766592 0.076107
Si Si6 0.935758 0.411860 0.290959
Si Si7 0.593969 0.423804 0.049813
Si Si8 0.676741 0.264968 0.757747
O O1 0.815732 0.167868 0.700459
O O2 0.698508 0.086925 0.074199
O O3 0.947902 0.978050 0.712200
O O4 0.500000 0.000000 0.000000
O O5 0.370254 0.738224 0.734345
O O6 0.697226 0.696791 0.296850
O O7 0.278579 0.572976 0.649340
O O8 0.554734 0.579897 0.675584
O O9 0.662082 0.094103 0.410292
O O10 0.287473 0.088543 0.552200
O O11 0.076285 0.110497 0.018605
O O12 0.545007 0.773852 0.170567
O O13 0.941300 0.690925 0.861629
O O14 0.833438 0.366551 0.537567
O O15 0.136655 0.518535 0.131304
O O16 0.578532 0.309045 0.987106
O O17 0.500000 0.500000 0.000000
#
# Coordination Sequence:
#
# PCOD9064303 Si02
#       8
#     2   2   2   2   2   2   2   2
#     4  12  26  43  71 105 146 192 241 292 362 429
#     4  11  26  46  73 104 142 188 240 295 357 435
#     4  11  26  44  69 106 148 189 246 293 354 432
#     4  11  26  42  71 102 146 191 237 294 351 427
#     4  11  24  45  73 107 143 190 241 291 361 428
#     4  11  25  48  75 100 145 190 235 304 358 429
#     4  12  25  50  74 106 141 185 239 302 369 425
#     4  11  25  47  72 109 146 187 242 298 363 428
#
# _framework density 26.088315000000001
#
# number of rings (size 3 to 8) (size 9 to 14) (size 15 to 20)
#    0.000    0.750    5.000    1.125    7.000    3.000 
#    4.500    0.000    0.000    0.000    0.000    0.000 
#    0.000    0.000    0.000    0.000    0.000    0.000 
#
# Total GULP energy -89411.031621 kJ/mol
# GULP energy per Si atom -5588.189476 kJ/mol
# Density = 2.602894 g / cm^3
# Si number density = 26.088315 Si / 1000 Ang^3
#
#
#
# Elastic Constant Matrix: (Units=GPa)
#
#
# Indices 1 2 3 4 5 6 
#
# 1 136.7925 36.9507 54.1914 -13.1041 18.8170 -11.4293
# 2 36.9507 68.2845 17.7537 -0.9194 16.3842 6.2265
# 3 54.1914 17.7537 104.2522 -16.0106 23.2540 13.0924
# 4 -13.1041 -0.9194 -16.0106 53.0416 9.3243 0.1442
# 5 18.8170 16.3842 23.2540 9.3243 45.3647 -12.3995
# 6 -11.4293 6.2265 13.0924 0.1442 -12.3995 50.4410
#
#
#
# Elastic Compliance Matrix: (Units=1/GPa)
#
#
# Indices 1 2 3 4 5 6 
#
# 1 0.011403 -0.005471 -0.005886 0.000661 0.001538 0.005163
# 2 -0.005471 0.019473 0.002188 0.001029 -0.007771 -0.006125
# 3 -0.005886 0.002188 0.016416 0.005347 -0.010152 -0.008376
# 4 0.000661 0.001029 0.005347 0.022231 -0.008948 -0.003628
# 5 0.001538 -0.007771 -0.010152 -0.008948 0.034670 0.012491
# 6 0.005163 -0.006125 -0.008376 -0.003628 0.012491 0.027006
#
#
# Mechanical properties :
#
#
# Convention : Reuss Voigt Hill
#
# Bulk Modulus (GPa) = 34.53572 58.56897 46.55235
# Shear Modulus (GPa) = 31.40934 43.13167 37.27051
#
# Velocity S-wave (km/s) = 3.47358 4.07048 3.78382
# Velocity P-wave (km/s) = 5.41797 6.67763 6.08051
#
# Compressibility (1/GPa) = 0.02895552
#
# Stress axis : x y z
#
# Youngs Moduli (GPa) = 87.69590 51.35257 60.91455
#
# Poissons Ratio (x) = 0.28097 0.35853
# Poissons Ratio (y) = 0.47981 -0.13331
# Poissons Ratio (z) = 0.51615 -0.11238
#
# Static dielectric constant tensor:
#      x y z
#    x 1.996990 -0.000660 0.027520 
#    y -0.000660 2.100130 0.050290 
#    z 0.027520 0.050290 2.085880 
# 
# From -- ./inp_files/206655.got.cif
#   From: 2010.05.17/outbox.cif.g08.bks.cpg/sg2_104_cif.got.tgz:206655.got - 2010.06.03 11:33:40.
