data_PCOD9064055
_publ_section_title
;
Structure prediction by ZEFSAII (Michael W. Deem and Ramdas Pophale) SiO2 
 PCOD9064055
Probable space group: P -1
;
_chemical_formula_sum "Si O2"
_cell_formula_units_Z 12
_cell_length_a 11.653735
_cell_length_b 24.057221
_cell_length_c 9.542167
_cell_angle_alpha 155.773572
_cell_angle_beta 142.693623
_cell_angle_gamma 25.425768
_cell_volume 465.235791
_symmetry_space_group_name_H-M "P -1"
_symmetry_group_IT_number 2
_symmetry_cell_setting 'triclinic'
loop_
_space_group_symop_operation_xyz
x,y,z
-x,-y,-z
loop_
_atom_site_type_symbol
_atom_site_label
_atom_site_fract_x
_atom_site_fract_y
_atom_site_fract_z
Si Si1 0.858026 0.278660 0.080379
Si Si2 0.689258 0.841719 0.941584
Si Si3 0.147737 0.233291 0.773548
Si Si4 0.407616 0.412553 0.795446
Si Si5 0.525109 0.289552 0.204271
Si Si6 0.044561 0.072594 0.056733
O O1 0.647688 0.488097 0.431340
O O2 0.065352 0.123255 0.041429
O O3 0.015167 0.277254 0.108669
O O4 0.676874 0.251269 0.780071
O O5 0.656877 0.696484 0.591247
O O6 0.690431 0.897334 0.229530
O O7 0.500000 0.000000 0.000000
O O8 0.115248 0.143502 0.410476
O O9 0.313599 0.275440 0.970454
O O10 0.851743 0.425198 0.984937
O O11 0.500000 0.500000 0.000000
O O12 0.731431 0.192183 0.050851
O O13 0.744477 0.154889 0.232971
#
# Coordination Sequence:
#
# PCOD9064055 Si02
#       6
#     2   2   2   2   2   2
#     4  12  25  48  73 107 145 190 244 300 369 432
#     4  12  28  47  75 110 144 189 249 307 362 434
#     4  12  24  46  73 102 145 191 240 298 365 431
#     4  12  25  46  76 105 145 196 240 298 370 436
#     4  11  24  45  70 103 148 188 240 296 361 430
#     4  11  27  44  72 108 142 192 243 297 361 439
#
# _framework density 25.793372000000002
#
# number of rings (size 3 to 8) (size 9 to 14) (size 15 to 20)
#    0.000    0.333    5.000    3.500    0.000    5.333 
#    0.000    0.000    0.000    0.000    0.000    0.000 
#    0.000    0.000    0.000    0.000    0.000    0.000 
#
# Total GULP energy -67250.335586 kJ/mol
# GULP energy per Si atom -5604.194632 kJ/mol
# Density = 2.573467 g / cm^3
# Si number density = 25.793372 Si / 1000 Ang^3
#
#
#
# Elastic Constant Matrix: (Units=GPa)
#
#
# Indices 1 2 3 4 5 6 
#
# 1 161.6827 33.1905 36.1087 -18.2904 13.7878 -22.3539
# 2 33.1905 112.1414 35.3943 -15.9158 5.9676 -4.0652
# 3 36.1087 35.3943 95.5470 -15.4666 3.0119 -3.3703
# 4 -18.2904 -15.9158 -15.4666 48.1023 -5.6323 -1.8903
# 5 13.7878 5.9676 3.0119 -5.6323 30.8333 -4.2889
# 6 -22.3539 -4.0652 -3.3703 -1.8903 -4.2889 67.5717
#
#
#
# Elastic Compliance Matrix: (Units=1/GPa)
#
#
# Indices 1 2 3 4 5 6 
#
# 1 0.007569 -0.001165 -0.002007 0.001660 -0.002350 0.002231
# 2 -0.001165 0.010576 -0.003131 0.001954 -0.000850 0.000095
# 3 -0.002007 -0.003131 0.012744 0.002373 0.000677 -0.000107
# 4 0.001660 0.001954 0.002373 0.023260 0.003124 0.001634
# 5 -0.002350 -0.000850 0.000677 0.003124 0.034357 0.001473
# 6 0.002231 0.000095 -0.000107 0.001634 0.001473 0.015677
#
#
# Mechanical properties :
#
#
# Convention : Reuss Voigt Hill
#
# Bulk Modulus (GPa) = 54.69978 64.30644 59.50311
# Shear Modulus (GPa) = 40.68885 46.94666 43.81776
#
# Velocity S-wave (km/s) = 3.97607 4.27090 4.12612
# Velocity P-wave (km/s) = 6.50629 7.02184 6.76898
#
# Compressibility (1/GPa) = 0.01828161
#
# Stress axis : x y z
#
# Youngs Moduli (GPa) = 132.11750 94.54994 78.47076
#
# Poissons Ratio (x) = 0.11017 0.15752
# Poissons Ratio (y) = 0.15394 0.24570
# Poissons Ratio (z) = 0.26521 0.29605
#
# Static dielectric constant tensor:
#      x y z
#    x 2.026590 0.004620 -0.005110 
#    y 0.004620 2.099120 0.002410 
#    z -0.005110 0.002410 1.972470 
# 
# From -- ./inp_files/393843.got.cif
#   From: 2010.05.17/outbox.cif.g08.bks.cpg/sg2_197_cif.got.tgz:393843.got - 2010.06.03 11:33:40.
