data_PCOD9064718
_publ_section_title
;
Structure prediction by ZEFSAII (Michael W. Deem and Ramdas Pophale) SiO2 
 PCOD9064718
Probable space group: P -1
;
_chemical_formula_sum "Si O2"
_cell_formula_units_Z 16
_cell_length_a 9.217331
_cell_length_b 16.366431
_cell_length_c 5.208243
_cell_angle_alpha 88.752924
_cell_angle_beta 80.706803
_cell_angle_gamma 54.951081
_cell_volume 632.317013
_symmetry_space_group_name_H-M "P -1"
_symmetry_group_IT_number 2
_symmetry_cell_setting 'triclinic'
loop_
_space_group_symop_operation_xyz
x,y,z
-x,-y,-z
loop_
_atom_site_type_symbol
_atom_site_label
_atom_site_fract_x
_atom_site_fract_y
_atom_site_fract_z
Si Si1 0.065339 0.267143 0.510471
Si Si2 0.424609 0.231420 0.365251
Si Si3 0.989520 0.863900 0.778438
Si Si4 0.765329 0.287991 0.927968
Si Si5 0.256763 0.862897 0.391042
Si Si6 0.863014 0.480638 0.399362
Si Si7 0.643156 0.586710 0.938089
Si Si8 0.640421 0.026938 0.009076
O O1 0.113556 0.164183 0.381898
O O2 0.912047 0.298809 0.758296
O O3 0.976864 0.361713 0.337834
O O4 0.248792 0.251067 0.547833
O O5 0.559527 0.228713 0.526071
O O6 0.373742 0.313140 0.156404
O O7 0.543360 0.120560 0.219872
O O8 0.090969 0.909787 0.633294
O O9 0.161128 0.752111 0.807314
O O10 0.839521 0.930211 0.031514
O O11 0.786838 0.189939 0.808568
O O12 0.559618 0.378424 0.953800
O O13 0.305464 0.934829 0.255357
O O14 0.715248 0.519496 0.664384
O O15 0.000000 0.500000 0.500000
O O16 0.771744 0.536121 0.153138
O O17 0.500000 0.000000 0.000000
#
# Coordination Sequence:
#
# PCOD9064718 Si02
#       8
#     2   2   2   2   2   2   2   2
#     4  11  28  45  72 109 150 196 246 325 375 450
#     4  12  25  46  76 107 150 196 250 315 379 460
#     4  11  25  48  69 106 151 193 255 306 384 457
#     4  11  26  47  76 105 149 203 245 312 385 453
#     4  11  24  46  72 104 148 200 246 309 381 455
#     4  12  28  47  81 116 152 200 260 319 384 454
#     4  12  26  50  79 111 152 202 258 310 384 459
#     4  12  26  43  72 113 142 197 250 313 382 455
#
# _framework density 25.303764000000001
#
# number of rings (size 3 to 8) (size 9 to 14) (size 15 to 20)
#    0.000    0.500    5.000    1.500    5.250    5.500 
#    0.000    0.000    0.000    0.000    0.000    0.000 
#    0.000    0.000    0.000    0.000    0.000    0.000 
#
# Total GULP energy -89482.809255 kJ/mol
# GULP energy per Si atom -5592.675578 kJ/mol
# Density = 2.524617 g / cm^3
# Si number density = 25.303764 Si / 1000 Ang^3
#
#
#
# Elastic Constant Matrix: (Units=GPa)
#
#
# Indices 1 2 3 4 5 6 
#
# 1 168.7718 40.9720 45.7273 -6.9181 -38.0388 -22.2534
# 2 40.9720 87.0735 13.2674 -0.7208 -3.0182 -8.2025
# 3 45.7273 13.2674 68.5521 -11.7754 -5.4366 -8.7212
# 4 -6.9181 -0.7208 -11.7754 47.0026 -8.8919 -0.2414
# 5 -38.0388 -3.0182 -5.4366 -8.8919 44.3570 6.8863
# 6 -22.2534 -8.2025 -8.7212 -0.2414 6.8863 46.8955
#
#
#
# Elastic Compliance Matrix: (Units=1/GPa)
#
#
# Indices 1 2 3 4 5 6 
#
# 1 0.010303 -0.003595 -0.004968 0.001740 0.007994 0.002172
# 2 -0.003595 0.013227 -0.000405 -0.000906 -0.002555 0.000903
# 3 -0.004968 -0.000405 0.018655 0.003666 -0.001464 0.001275
# 4 0.001740 -0.000906 0.003666 0.023677 0.006547 0.000509
# 5 0.007994 -0.002555 -0.001464 0.006547 0.030573 -0.001382
# 6 0.002172 0.000903 0.001275 0.000509 -0.001382 0.022955
#
#
# Mechanical properties :
#
#
# Convention : Reuss Voigt Hill
#
# Bulk Modulus (GPa) = 41.23840 58.25898 49.74869
# Shear Modulus (GPa) = 34.38535 42.61306 38.49921
#
# Velocity S-wave (km/s) = 3.69033 4.10818 3.90485
# Velocity P-wave (km/s) = 5.87288 6.75105 6.32722
#
# Compressibility (1/GPa) = 0.02424925
#
# Stress axis : x y z
#
# Youngs Moduli (GPa) = 97.05597 75.60314 53.60379
#
# Poissons Ratio (x) = 0.27181 0.26629
# Poissons Ratio (y) = 0.34893 0.02172
# Poissons Ratio (z) = 0.48216 0.03064
#
# Static dielectric constant tensor:
#      x y z
#    x 1.959410 -0.001160 -0.001110 
#    y -0.001160 2.125820 -0.049250 
#    z -0.001110 -0.049250 2.037790 
# 
# From -- ./inp_files/47419.got.cif
#   From: 2010.05.17/outbox.cif.g08.bks.cpg/sg2_24_cif.got.tgz:47419.got - 2010.06.03 11:33:40.
