data_PCOD9064349
_publ_section_title
;
Structure prediction by ZEFSAII (Michael W. Deem and Ramdas Pophale) SiO2 
 PCOD9064349
Probable space group: P -1
;
_chemical_formula_sum "Si O2"
_cell_formula_units_Z 16
_cell_length_a 5.683205
_cell_length_b 10.956834
_cell_length_c 23.624558
_cell_angle_alpha 137.258775
_cell_angle_beta 68.446979
_cell_angle_gamma 84.323067
_cell_volume 753.715779
_symmetry_space_group_name_H-M "P -1"
_symmetry_group_IT_number 2
_symmetry_cell_setting 'triclinic'
loop_
_space_group_symop_operation_xyz
x,y,z
-x,-y,-z
loop_
_atom_site_type_symbol
_atom_site_label
_atom_site_fract_x
_atom_site_fract_y
_atom_site_fract_z
Si Si1 0.226462 0.180650 0.246322
Si Si2 0.657728 0.974949 0.417237
Si Si3 0.778827 0.251812 0.911205
Si Si4 0.173066 0.702246 0.943331
Si Si5 0.632347 0.194687 0.705947
Si Si6 0.567881 0.081080 0.077043
Si Si7 0.459006 0.984755 0.728900
Si Si8 0.375524 0.378719 0.501458
O O1 0.283143 0.224277 0.192948
O O2 0.946690 0.413587 0.375252
O O3 0.212169 0.968490 0.174901
O O4 0.496627 0.103798 0.241819
O O5 0.557244 0.209276 0.479419
O O6 0.500000 0.000000 0.500000
O O7 0.502360 0.889722 0.358763
O O8 0.036190 0.840284 0.344508
O O9 0.093439 0.183054 0.827185
O O10 0.500000 0.500000 0.000000
O O11 0.780532 0.270666 0.985771
O O12 0.353564 0.448218 0.826484
O O13 0.300305 0.789729 0.915138
O O14 0.807194 0.863007 0.018364
O O15 0.653943 0.077366 0.723563
O O16 0.500000 0.000000 0.000000
O O17 0.595473 0.781082 0.604837
O O18 0.500000 0.500000 0.500000
#
# Coordination Sequence:
#
# PCOD9064349 Si02
#       8
#     2   2   2   2   2   2   2   2
#     4  12  24  43  71 104 140 191 246 301 374 443
#     4  11  27  51  73 112 144 195 257 308 375 451
#     4  12  26  42  73 107 147 190 247 304 375 450
#     4  11  26  45  67 103 144 194 243 305 374 446
#     4  11  27  46  78 102 151 192 244 312 380 442
#     4  11  25  44  68 101 145 188 249 307 365 444
#     4  11  25  46  69 108 144 190 246 307 374 444
#     4  11  24  45  74 103 144 190 244 312 369 445
#
# _framework density 21.228159000000002
#
# number of rings (size 3 to 8) (size 9 to 14) (size 15 to 20)
#    0.000    0.750    3.750    2.250   10.500    2.000 
#    2.250    0.000    0.000    0.000    0.000    0.000 
#    0.000    0.000    0.000    0.000    0.000    0.000 
#
# Total GULP energy -89164.760703 kJ/mol
# GULP energy per Si atom -5572.797544 kJ/mol
# Density = 2.117984 g / cm^3
# Si number density = 21.228159 Si / 1000 Ang^3
#
#
#
# Elastic Constant Matrix: (Units=GPa)
#
#
# Indices 1 2 3 4 5 6 
#
# 1 63.4118 26.0044 46.5400 -10.0602 -5.2513 -5.7478
# 2 26.0044 114.3996 59.2517 -13.9975 9.4804 -8.8095
# 3 46.5400 59.2517 165.4291 -6.5439 -5.4499 -7.4218
# 4 -10.0602 -13.9975 -6.5439 50.6576 5.8157 -3.6230
# 5 -5.2513 9.4804 -5.4499 5.8157 26.7586 -9.9135
# 6 -5.7478 -8.8095 -7.4218 -3.6230 -9.9135 37.3755
#
#
#
# Elastic Compliance Matrix: (Units=1/GPa)
#
#
# Indices 1 2 3 4 5 6 
#
# 1 0.021293 -0.002137 -0.004818 0.002725 0.004583 0.003294
# 2 -0.002137 0.012107 -0.003785 0.003154 -0.005983 0.000492
# 3 -0.004818 -0.003785 0.008834 -0.001120 0.002709 0.000731
# 4 0.002725 0.003154 -0.001120 0.021693 -0.004878 0.001749
# 5 0.004583 -0.005983 0.002709 -0.004878 0.046316 0.011645
# 6 0.003294 0.000492 0.000731 0.001749 0.011645 0.030781
#
#
# Mechanical properties :
#
#
# Convention : Reuss Voigt Hill
#
# Bulk Modulus (GPa) = 48.18746 67.42586 57.80666
# Shear Modulus (GPa) = 29.51158 37.05463 33.28310
#
# Velocity S-wave (km/s) = 3.73260 4.18250 3.96394
# Velocity P-wave (km/s) = 6.42849 7.42670 6.94555
#
# Compressibility (1/GPa) = 0.02075229
#
# Stress axis : x y z
#
# Youngs Moduli (GPa) = 46.96358 82.59402 113.19919
#
# Poissons Ratio (x) = 0.17653 0.54543
# Poissons Ratio (y) = 0.10038 0.42851
# Poissons Ratio (z) = 0.22629 0.31266
#
# Static dielectric constant tensor:
#      x y z
#    x 1.892020 0.054170 -0.140920 
#    y 0.054170 1.853930 -0.209110 
#    z -0.140920 -0.209110 1.837380 
# 
# From -- ./inp_files/69383.got.cif
#   From: 2010.05.17/outbox.cif.g08.bks.cpg/sg2_35_cif.got.tgz:69383.got - 2010.06.03 11:33:40.
