data_PCOD9064173
_publ_section_title
;
Structure prediction by ZEFSAII (Michael W. Deem and Ramdas Pophale) SiO2 
 PCOD9064173
Probable space group: P -1
;
_chemical_formula_sum "Si O2"
_cell_formula_units_Z 16
_cell_length_a 14.983009
_cell_length_b 26.015463
_cell_length_c 18.389804
_cell_angle_alpha 21.045120
_cell_angle_beta 21.073758
_cell_angle_gamma 19.638051
_cell_volume 773.288326
_symmetry_space_group_name_H-M "P -1"
_symmetry_group_IT_number 2
_symmetry_cell_setting 'triclinic'
loop_
_space_group_symop_operation_xyz
x,y,z
-x,-y,-z
loop_
_atom_site_type_symbol
_atom_site_label
_atom_site_fract_x
_atom_site_fract_y
_atom_site_fract_z
Si Si1 0.402990 0.634185 0.462176
Si Si2 0.276805 0.243132 0.666680
Si Si3 0.454846 0.595279 0.202777
Si Si4 0.627949 0.867411 0.932655
Si Si5 0.288967 0.189452 0.228452
Si Si6 0.213724 0.507491 0.179318
Si Si7 0.801686 0.808680 0.369901
Si Si8 0.770891 0.319488 0.201190
O O1 0.500000 0.500000 0.500000
O O2 0.518375 0.526456 0.591189
O O3 0.045653 0.752707 0.578322
O O4 0.531301 0.750940 0.197332
O O5 0.156198 0.231839 0.695195
O O6 0.561201 0.255033 0.421827
O O7 0.037728 0.399888 0.690285
O O8 0.385618 0.068682 0.857351
O O9 0.577659 0.479481 0.190661
O O10 0.115604 0.751356 0.242057
O O11 0.654623 0.668439 0.973915
O O12 0.667012 0.826529 0.870949
O O13 0.938879 0.820913 0.790578
O O14 0.536090 0.006242 0.316930
O O15 0.280542 0.319650 0.364786
O O16 0.500000 0.500000 0.000000
O O17 0.126103 0.617147 0.028220
#
# Coordination Sequence:
#
# PCOD9064173 Si02
#       8
#     2   2   2   2   2   2   2   2
#     4  12  24  45  72  99 135 177 225 272 339 401
#     4  11  25  45  66  99 140 173 225 277 335 395
#     4  12  23  46  71  97 137 176 227 274 333 402
#     4  11  25  42  70 101 133 176 221 281 336 392
#     4  11  25  46  69 100 140 171 221 284 335 393
#     4  12  24  42  67  96 134 181 224 269 334 400
#     4  11  24  45  71  99 136 180 221 279 335 391
#     4  12  24  43  69  98 133 181 224 273 336 399
#
# _framework density 20.690859
#
# number of rings (size 3 to 8) (size 9 to 14) (size 15 to 20)
#    0.000    0.500    5.000    3.750    1.750    0.500 
#    0.000    1.250    0.000    0.000    0.000    0.000 
#    0.000    0.000    0.000    0.000    0.000    0.000 
#
# Total GULP energy -89560.971446 kJ/mol
# GULP energy per Si atom -5597.560715 kJ/mol
# Density = 2.064377 g / cm^3
# Si number density = 20.690859 Si / 1000 Ang^3
#
#
#
# Elastic Constant Matrix: (Units=GPa)
#
#
# Indices 1 2 3 4 5 6 
#
# 1 37.2296 6.7218 -7.0044 6.6502 -1.0018 -13.5279
# 2 6.7218 99.0687 19.2600 1.9737 7.4260 -19.0643
# 3 -7.0044 19.2600 86.9819 1.2279 -3.9029 -4.2068
# 4 6.6502 1.9737 1.2279 35.9873 -6.1542 -6.3600
# 5 -1.0018 7.4260 -3.9029 -6.1542 19.1502 4.6550
# 6 -13.5279 -19.0643 -4.2068 -6.3600 4.6550 36.3021
#
#
#
# Elastic Compliance Matrix: (Units=1/GPa)
#
#
# Indices 1 2 3 4 5 6 
#
# 1 0.032543 -0.000355 0.003252 -0.004322 -0.001751 0.011785
# 2 -0.000355 0.012567 -0.002795 -0.000548 -0.007336 0.006988
# 3 0.003252 -0.002795 0.012575 -0.000135 0.003599 0.000716
# 4 -0.004322 -0.000548 -0.000135 0.030601 0.009243 0.002262
# 5 -0.001751 -0.007336 0.003599 0.009243 0.061183 -0.010314
# 6 0.011785 0.006988 0.000716 0.002262 -0.010314 0.037410
#
#
# Mechanical properties :
#
#
# Convention : Reuss Voigt Hill
#
# Bulk Modulus (GPa) = 17.27426 29.02609 23.15017
# Shear Modulus (GPa) = 24.27503 31.90811 28.09157
#
# Velocity S-wave (km/s) = 3.42895 3.93126 3.68867
# Velocity P-wave (km/s) = 4.90345 5.88773 5.41799
#
# Compressibility (1/GPa) = 0.05788961
#
# Stress axis : x y z
#
# Youngs Moduli (GPa) = 30.72821 79.57344 79.52061
#
# Poissons Ratio (x) = 0.02825 -0.25857
# Poissons Ratio (y) = 0.01091 0.22224
# Poissons Ratio (z) = -0.09992 0.22238
#
# Static dielectric constant tensor:
#      x y z
#    x 1.721000 -0.017390 0.010600 
#    y -0.017390 1.730570 -0.013050 
#    z 0.010600 -0.013050 1.714020 
# 
# From -- ./inp_files/70894.got.cif
#   From: 2010.05.17/outbox.cif.g08.bks.cpg/sg2_36_cif.got.tgz:70894.got - 2010.06.03 11:33:40.
