data_PCOD9064182
_publ_section_title
;
Structure prediction by ZEFSAII (Michael W. Deem and Ramdas Pophale) SiO2 
 PCOD9064182
Probable space group: P -1
;
_chemical_formula_sum "Si O2"
_cell_formula_units_Z 16
_cell_length_a 9.952169
_cell_length_b 9.484489
_cell_length_c 12.615746
_cell_angle_alpha 48.548444
_cell_angle_beta 64.614757
_cell_angle_gamma 51.551382
_cell_volume 698.707659
_symmetry_space_group_name_H-M "P -1"
_symmetry_group_IT_number 2
_symmetry_cell_setting 'triclinic'
loop_
_space_group_symop_operation_xyz
x,y,z
-x,-y,-z
loop_
_atom_site_type_symbol
_atom_site_label
_atom_site_fract_x
_atom_site_fract_y
_atom_site_fract_z
Si Si1 0.888595 0.821117 0.439662
Si Si2 0.479441 0.581793 0.179979
Si Si3 0.720545 0.645855 0.728955
Si Si4 0.463187 0.066349 0.099341
Si Si5 0.089685 0.352859 0.145140
Si Si6 0.282959 0.614553 0.422665
Si Si7 0.604809 0.879801 0.351637
Si Si8 0.201021 0.742304 0.631519
O O1 0.849423 0.651847 0.597062
O O2 0.760352 0.893372 0.347261
O O3 0.087556 0.715617 0.400930
O O4 0.845527 0.017506 0.437586
O O5 0.376242 0.477663 0.213453
O O6 0.376239 0.691796 0.269399
O O7 0.661651 0.408959 0.252260
O O8 0.506993 0.727405 0.012892
O O9 0.835210 0.548675 0.843210
O O10 0.570819 0.901325 0.664953
O O11 0.266969 0.143664 0.154045
O O12 0.596844 0.891685 0.221712
O O13 0.500000 0.000000 0.000000
O O14 0.961910 0.290723 0.278168
O O15 0.000000 0.500000 0.000000
O O16 0.377720 0.351318 0.511202
O O17 0.271281 0.680399 0.517978
#
# Coordination Sequence:
#
# PCOD9064182 Si02
#       8
#     2   2   2   2   2   2   2   2
#     4  12  24  44  70 108 143 183 245 299 357 421
#     4  12  25  46  74 107 143 189 241 294 364 431
#     4  11  24  45  73 101 145 187 239 296 363 427
#     4  11  27  47  72 105 149 187 239 294 361 430
#     4  11  25  46  72 100 140 195 236 292 358 430
#     4  12  26  43  73 108 142 188 241 302 354 418
#     4  11  24  45  72 100 144 192 235 294 359 423
#     4  12  25  45  74 106 144 188 245 295 358 430
#
# _framework density 22.899421
#
# number of rings (size 3 to 8) (size 9 to 14) (size 15 to 20)
#    0.000    0.500    5.000    3.000    1.750    4.000 
#    0.000    0.625    0.000    0.000    0.000    0.000 
#    0.000    0.000    0.000    0.000    0.000    0.000 
#
# Total GULP energy -89528.291836 kJ/mol
# GULP energy per Si atom -5595.518240 kJ/mol
# Density = 2.284730 g / cm^3
# Si number density = 22.899421 Si / 1000 Ang^3
#
#
#
# Elastic Constant Matrix: (Units=GPa)
#
#
# Indices 1 2 3 4 5 6 
#
# 1 164.7887 21.3505 46.1456 -0.7740 16.8882 3.2052
# 2 21.3505 59.3997 1.3079 -2.8479 -4.7539 17.8843
# 3 46.1456 1.3079 72.2308 1.6575 15.9044 -1.8882
# 4 -0.7740 -2.8479 1.6575 31.5471 -0.7665 4.1037
# 5 16.8882 -4.7539 15.9044 -0.7665 55.1514 4.3451
# 6 3.2052 17.8843 -1.8882 4.1037 4.3451 37.8033
#
#
#
# Elastic Compliance Matrix: (Units=1/GPa)
#
#
# Indices 1 2 3 4 5 6 
#
# 1 0.007901 -0.003057 -0.004669 0.000038 -0.001391 0.000699
# 2 -0.003057 0.021594 0.000420 0.003332 0.003566 -0.010707
# 3 -0.004669 0.000420 0.017729 -0.001316 -0.003796 0.001662
# 4 0.000038 0.003332 -0.001316 0.032807 0.001535 -0.005383
# 5 -0.001391 0.003566 -0.003796 0.001535 0.020317 -0.004261
# 6 0.000699 -0.010707 0.001662 -0.005383 -0.004261 0.032616
#
#
# Mechanical properties :
#
#
# Convention : Reuss Voigt Hill
#
# Bulk Modulus (GPa) = 30.66243 48.22523 39.44383
# Shear Modulus (GPa) = 31.55677 40.07469 35.81573
#
# Velocity S-wave (km/s) = 3.71625 4.18788 3.95909
# Velocity P-wave (km/s) = 5.64209 6.67006 6.17749
#
# Compressibility (1/GPa) = 0.03261320
#
# Stress axis : x y z
#
# Youngs Moduli (GPa) = 126.56714 46.31022 56.40488
#
# Poissons Ratio (x) = 0.14157 0.26333
# Poissons Ratio (y) = 0.38692 -0.02372
# Poissons Ratio (z) = 0.59089 -0.01947
#
# Static dielectric constant tensor:
#      x y z
#    x 1.848100 0.046440 -0.012880 
#    y 0.046440 1.934920 0.014270 
#    z -0.012880 0.014270 1.865500 
# 
# From -- ./inp_files/381312.got.cif
#   From: 2010.05.17/outbox.cif.g08.bks.cpg/sg2_191_cif.got.tgz:381312.got - 2010.06.03 11:33:40.
