data_PCOD9064739
_publ_section_title
;
Structure prediction by ZEFSAII (Michael W. Deem and Ramdas Pophale) SiO2 
 PCOD9064739
Probable space group: P -1
;
_chemical_formula_sum "Si O2"
_cell_formula_units_Z 14
_cell_length_a 14.393110
_cell_length_b 12.903957
_cell_length_c 5.205994
_cell_angle_alpha 116.993861
_cell_angle_beta 57.743828
_cell_angle_gamma 126.015517
_cell_volume 647.369401
_symmetry_space_group_name_H-M "P -1"
_symmetry_group_IT_number 2
_symmetry_cell_setting 'triclinic'
loop_
_space_group_symop_operation_xyz
x,y,z
-x,-y,-z
loop_
_atom_site_type_symbol
_atom_site_label
_atom_site_fract_x
_atom_site_fract_y
_atom_site_fract_z
Si Si1 0.190582 0.611870 0.817817
Si Si2 0.148720 0.058634 0.791106
Si Si3 0.884791 0.857314 0.563587
Si Si4 0.108901 0.433410 0.235387
Si Si5 0.575358 0.411687 0.474569
Si Si6 0.921175 0.219729 0.594787
Si Si7 0.348043 0.416946 0.945658
O O1 0.147916 0.541555 0.527071
O O2 0.336656 0.656304 0.687389
O O3 0.124252 0.502398 0.016428
O O4 0.152344 0.724995 0.061183
O O5 0.158770 0.928483 0.554871
O O6 0.187794 0.156456 0.605325
O O7 0.196131 0.133920 0.072424
O O8 0.000000 0.000000 0.000000
O O9 0.958389 0.775206 0.427290
O O10 0.000000 0.000000 0.500000
O O11 0.978780 0.315509 0.375249
O O12 0.206082 0.375547 0.050205
O O13 0.431463 0.344164 0.686384
O O14 0.591457 0.462155 0.214947
O O15 0.631639 0.532922 0.732806
#
# Coordination Sequence:
#
# PCOD9064739 Si02
#       7
#     2   2   2   2   2   2   2
#     4  10  20  28  37  58  83 109 134 151 183 234
#     4   8  16  28  41  56  71  94 132 164 189 224
#     4   8  16  28  41  56  71  94 132 164 189 224
#     4  10  20  28  37  58  83 109 134 151 183 234
#     4   8  14  26  40  51  69  99 133 164 184 205
#     4  10  18  28  42  56  84 108 124 158 198 228
#     4   8  14  26  40  51  69  99 133 164 184 205
#
# _framework density 21.625983000000002
#
# number of rings (size 3 to 8) (size 9 to 14) (size 15 to 20)
#    0.000    3.429    0.000    0.857    0.000    9.143 
#    0.000    0.000    0.000    0.000    0.000    0.000 
#    0.000   20.571    0.000    0.000    0.000   14.286 
#
# Total GULP energy -78011.454269 kJ/mol
# GULP energy per Si atom -5572.246733 kJ/mol
# Density = 2.157676 g / cm^3
# Si number density = 21.625983 Si / 1000 Ang^3
#
#
#
# Elastic Constant Matrix: (Units=GPa)
#
#
# Indices 1 2 3 4 5 6 
#
# 1 67.4319 32.8109 43.4914 4.7649 -3.7677 -17.0614
# 2 32.8109 54.3875 57.0763 15.6002 1.6029 -21.2218
# 3 43.4914 57.0763 164.5651 22.3576 -0.2238 -15.6616
# 4 4.7649 15.6002 22.3576 44.9887 -13.8067 3.4599
# 5 -3.7677 1.6029 -0.2238 -13.8067 54.5934 -10.2277
# 6 -17.0614 -21.2218 -15.6616 3.4599 -10.2277 23.4775
#
#
#
# Elastic Compliance Matrix: (Units=1/GPa)
#
#
# Indices 1 2 3 4 5 6 
#
# 1 0.022886 -0.008555 -0.002586 0.002407 0.004035 0.008576
# 2 -0.008555 0.054067 -0.010813 -0.015060 0.001116 0.038147
# 3 -0.002586 -0.010813 0.010141 -0.000932 -0.001029 -0.005200
# 4 0.002407 -0.015060 -0.000932 0.030493 0.005591 -0.014543
# 5 0.004035 0.001116 -0.001029 0.005591 0.022244 0.012121
# 6 0.008576 0.038147 -0.005200 -0.014543 0.012121 0.087263
#
#
# Mechanical properties :
#
#
# Convention : Reuss Voigt Hill
#
# Bulk Modulus (GPa) = 23.15666 61.46019 42.30843
# Shear Modulus (GPa) = 17.51941 34.81233 26.16587
#
# Velocity S-wave (km/s) = 2.84933 4.01652 3.48217
# Velocity P-wave (km/s) = 4.64284 7.07044 5.98110
#
# Compressibility (1/GPa) = 0.04318413
#
# Stress axis : x y z
#
# Youngs Moduli (GPa) = 43.69466 18.49546 98.61102
#
# Poissons Ratio (x) = 0.15824 0.25505
# Poissons Ratio (y) = 0.37383 1.06630
# Poissons Ratio (z) = 0.11301 0.20000
#
# Static dielectric constant tensor:
#      x y z
#    x 3.474260 0.219310 1.022230 
#    y 0.219310 1.862890 0.146120 
#    z 1.022230 0.146120 2.481400 
# 
# From -- ./inp_files/92417.got.cif
#   From: 2010.05.17/outbox.cif.g08.bks.cpg/sg2_47_cif.got.tgz:92417.got - 2010.06.03 11:33:40.
