data_PCOD9064133
_publ_section_title
;
Structure prediction by ZEFSAII (Michael W. Deem and Ramdas Pophale) SiO2 
 PCOD9064133
Probable space group: P -1
;
_chemical_formula_sum "Si O2"
_cell_formula_units_Z 16
_cell_length_a 7.889623
_cell_length_b 17.904448
_cell_length_c 5.200008
_cell_angle_alpha 90.188603
_cell_angle_beta 60.357471
_cell_angle_gamma 82.491404
_cell_volume 630.974066
_symmetry_space_group_name_H-M "P -1"
_symmetry_group_IT_number 2
_symmetry_cell_setting 'triclinic'
loop_
_space_group_symop_operation_xyz
x,y,z
-x,-y,-z
loop_
_atom_site_type_symbol
_atom_site_label
_atom_site_fract_x
_atom_site_fract_y
_atom_site_fract_z
Si Si1 0.398144 0.853743 0.789330
Si Si2 0.616588 0.605889 0.578225
Si Si3 0.550597 0.751647 0.289918
Si Si4 0.800088 0.831453 0.804118
Si Si5 0.865304 0.995810 0.854576
Si Si6 0.013760 0.601152 0.509450
Si Si7 0.225847 0.539528 0.869964
Si Si8 0.825540 0.249409 0.749764
O O1 0.449050 0.836276 0.454564
O O2 0.613439 0.831278 0.755332
O O3 0.307274 0.933884 0.972454
O O4 0.239097 0.796865 0.960773
O O5 0.577065 0.688153 0.484788
O O6 0.416067 0.576965 0.807136
O O7 0.703606 0.543728 0.297810
O O8 0.778218 0.608601 0.676785
O O9 0.387264 0.727730 0.223656
O O10 0.761825 0.766337 0.030693
O O11 0.012858 0.809761 0.518568
O O12 0.788791 0.915807 0.916235
O O13 0.000000 0.000000 0.500000
O O14 0.000000 0.000000 0.000000
O O15 0.116641 0.586154 0.709600
O O16 0.072158 0.676438 0.331497
O O17 0.098094 0.540435 0.224637
#
# Coordination Sequence:
#
# PCOD9064133 Si02
#       8
#     2   2   2   2   2   2   2   2
#     4  11  25  46  74 105 147 191 246 298 365 441
#     4  11  25  46  75 105 150 194 248 307 376 439
#     4  11  25  45  71 110 143 193 247 308 369 440
#     4  11  26  45  74 107 143 195 243 299 370 439
#     4  12  27  48  78 106 149 193 239 300 365 435
#     4  12  26  46  75 105 147 196 250 304 375 439
#     4  11  27  49  71 108 148 195 249 310 367 449
#     4  11  24  45  71 104 150 190 245 307 368 440
#
# _framework density 25.357619
#
# number of rings (size 3 to 8) (size 9 to 14) (size 15 to 20)
#    0.000    0.750    2.500    3.375    5.250    6.500 
#    4.500    0.000    0.000    0.000    0.000    0.000 
#    0.000    0.000    0.000    0.000    0.000    0.000 
#
# Total GULP energy -89575.507801 kJ/mol
# GULP energy per Si atom -5598.469238 kJ/mol
# Density = 2.529990 g / cm^3
# Si number density = 25.357619 Si / 1000 Ang^3
#
#
#
# Elastic Constant Matrix: (Units=GPa)
#
#
# Indices 1 2 3 4 5 6 
#
# 1 116.8459 30.7380 47.3675 -11.1691 -22.9979 20.9830
# 2 30.7380 123.8255 6.0555 4.5106 -6.4026 15.6149
# 3 47.3675 6.0555 96.4308 -11.5091 -6.9970 -4.4425
# 4 -11.1691 4.5106 -11.5091 35.4738 11.3516 -12.5241
# 5 -22.9979 -6.4026 -6.9970 11.3516 34.1598 -1.7445
# 6 20.9830 15.6149 -4.4425 -12.5241 -1.7445 47.7280
#
#
#
# Elastic Compliance Matrix: (Units=1/GPa)
#
#
# Indices 1 2 3 4 5 6 
#
# 1 0.014557 -0.001876 -0.007037 -0.002592 0.008521 -0.006810
# 2 -0.001876 0.009108 -0.000077 -0.003256 0.001359 -0.002967
# 3 -0.007037 -0.000077 0.014530 0.005639 -0.003352 0.005829
# 4 -0.002592 -0.003256 0.005639 0.038193 -0.013266 0.012267
# 5 0.008521 0.001359 -0.003352 -0.013266 0.038652 -0.006571
# 6 -0.006810 -0.002967 0.005829 0.012267 -0.006571 0.028438
#
#
# Mechanical properties :
#
#
# Convention : Reuss Voigt Hill
#
# Bulk Modulus (GPa) = 49.46984 56.15826 52.81405
# Shear Modulus (GPa) = 29.72697 40.33506 35.03102
#
# Velocity S-wave (km/s) = 3.42761 3.99262 3.72086
# Velocity P-wave (km/s) = 5.93430 6.59161 6.27157
#
# Compressibility (1/GPa) = 0.02021434
#
# Stress axis : x y z
#
# Youngs Moduli (GPa) = 68.69647 109.78939 68.82250
#
# Poissons Ratio (x) = 0.20592 0.48434
# Poissons Ratio (y) = 0.12885 0.00533
# Poissons Ratio (z) = 0.48345 0.00850
#
# Static dielectric constant tensor:
#      x y z
#    x 1.973400 -0.017610 0.042950 
#    y -0.017610 2.061540 0.073680 
#    z 0.042950 0.073680 2.047600 
# 
# From -- ./inp_files/48075.got.cif
#   From: 2010.05.17/outbox.cif.g08.bks.cpg/sg2_25_cif.got.tgz:48075.got - 2010.06.03 11:33:40.
