data_PCOD9064490
_publ_section_title
;
Structure prediction by ZEFSAII (Michael W. Deem and Ramdas Pophale) SiO2 
 PCOD9064490
Probable space group: P -1
;
_chemical_formula_sum "Si O2"
_cell_formula_units_Z 16
_cell_length_a 14.796389
_cell_length_b 17.698702
_cell_length_c 11.796297
_cell_angle_alpha 147.090847
_cell_angle_beta 124.844821
_cell_angle_gamma 30.178831
_cell_volume 695.990188
_symmetry_space_group_name_H-M "P -1"
_symmetry_group_IT_number 2
_symmetry_cell_setting 'triclinic'
loop_
_space_group_symop_operation_xyz
x,y,z
-x,-y,-z
loop_
_atom_site_type_symbol
_atom_site_label
_atom_site_fract_x
_atom_site_fract_y
_atom_site_fract_z
Si Si1 0.313994 0.306231 0.989660
Si Si2 0.859515 0.536694 0.683270
Si Si3 0.921312 0.165002 0.539279
Si Si4 0.712424 0.418818 0.300318
Si Si5 0.608892 0.246631 0.703916
Si Si6 0.787479 0.809963 0.785646
Si Si7 0.855756 0.064299 0.143184
Si Si8 0.319861 0.094882 0.541038
O O1 0.222144 0.393140 0.159643
O O2 0.255875 0.522101 0.172770
O O3 0.220559 0.291942 0.821707
O O4 0.572602 0.004683 0.807641
O O5 0.784127 0.484016 0.492764
O O6 0.765434 0.774770 0.853091
O O7 0.121773 0.264738 0.533048
O O8 0.843105 0.147651 0.362131
O O9 0.134316 0.010844 0.448736
O O10 0.000000 0.000000 0.500000
O O11 0.494550 0.667843 0.385327
O O12 0.703867 0.310430 0.254336
O O13 0.903124 0.175783 0.040142
O O14 0.567562 0.162750 0.650741
O O15 0.500000 0.500000 0.000000
O O16 0.000000 0.500000 0.500000
O O17 0.813620 0.946730 0.972933
O O18 0.500000 0.000000 0.500000
#
# Coordination Sequence:
#
# PCOD9064490 Si02
#       8
#     2   2   2   2   2   2   2   2
#     4  12  28  51  71 111 155 197 252 317 389 451
#     4  12  25  50  73 109 151 198 245 317 380 450
#     4  12  29  49  76 112 159 197 254 316 390 454
#     4  11  24  45  79 104 153 195 251 309 374 448
#     4  12  27  48  78 114 149 204 260 309 381 456
#     4  12  27  45  78 110 147 193 261 306 376 459
#     4  11  25  47  73 111 147 198 250 312 373 457
#     4  12  29  47  78 108 154 203 260 311 382 460
#
# _framework density 22.98883
#
# number of rings (size 3 to 8) (size 9 to 14) (size 15 to 20)
#    0.000    0.250    5.000    2.250    8.750    1.500 
#    0.000    0.000    0.000    0.000    0.000    0.000 
#    0.000    0.000    0.000    0.000    0.000    0.000 
#
# Total GULP energy -89689.552348 kJ/mol
# GULP energy per Si atom -5605.597022 kJ/mol
# Density = 2.293651 g / cm^3
# Si number density = 22.988830 Si / 1000 Ang^3
#
#
#
# Elastic Constant Matrix: (Units=GPa)
#
#
# Indices 1 2 3 4 5 6 
#
# 1 129.9454 42.1134 41.6184 5.5444 37.6359 25.2148
# 2 42.1134 139.9682 45.8103 -3.4821 25.9374 6.4423
# 3 41.6184 45.8103 93.0884 -13.3004 25.7736 2.6248
# 4 5.5444 -3.4821 -13.3004 41.2937 -0.5790 0.4004
# 5 37.6359 25.9374 25.7736 -0.5790 51.1497 9.2003
# 6 25.2148 6.4423 2.6248 0.4004 9.2003 45.5763
#
#
#
# Elastic Compliance Matrix: (Units=1/GPa)
#
#
# Indices 1 2 3 4 5 6 
#
# 1 0.011909 -0.001276 -0.003435 -0.002841 -0.005504 -0.005075
# 2 -0.001276 0.008973 -0.003335 -0.000173 -0.001937 0.000022
# 3 -0.003435 -0.003335 0.015713 0.005163 -0.004043 0.002238
# 4 -0.002841 -0.000173 0.005163 0.026231 -0.000330 0.001135
# 5 -0.005504 -0.001937 -0.004043 -0.000330 0.026956 -0.001887
# 6 -0.005075 0.000022 0.002238 0.001135 -0.001887 0.024988
#
#
# Mechanical properties :
#
#
# Convention : Reuss Voigt Hill
#
# Bulk Modulus (GPa) = 48.77050 69.12068 58.94559
# Shear Modulus (GPa) = 36.31160 43.16794 39.73977
#
# Velocity S-wave (km/s) = 3.97864 4.33804 4.16222
# Velocity P-wave (km/s) = 6.50900 7.43127 6.98537
#
# Compressibility (1/GPa) = 0.02050420
#
# Stress axis : x y z
#
# Youngs Moduli (GPa) = 83.96697 111.44037 63.64007
#
# Poissons Ratio (x) = 0.14220 0.21863
# Poissons Ratio (y) = 0.10714 0.21221
# Poissons Ratio (z) = 0.28847 0.37160
#
# Static dielectric constant tensor:
#      x y z
#    x 1.876510 0.008740 -0.044090 
#    y 0.008740 1.835170 0.006280 
#    z -0.044090 0.006280 1.846030 
# 
# From -- ./inp_files/457025.got.cif
#   From: 2010.05.17/outbox.cif.g08.bks.cpg/sg2_229_cif.got.tgz:457025.got - 2010.06.03 11:33:40.
