data_PCOD9064604
_publ_section_title
;
Structure prediction by ZEFSAII (Michael W. Deem and Ramdas Pophale) SiO2 
 PCOD9064604
Probable space group: P -1
;
_chemical_formula_sum "Si O2"
_cell_formula_units_Z 16
_cell_length_a 11.732480
_cell_length_b 8.347622
_cell_length_c 10.076405
_cell_angle_alpha 87.908675
_cell_angle_beta 76.212108
_cell_angle_gamma 49.992516
_cell_volume 725.024922
_symmetry_space_group_name_H-M "P -1"
_symmetry_group_IT_number 2
_symmetry_cell_setting 'triclinic'
loop_
_space_group_symop_operation_xyz
x,y,z
-x,-y,-z
loop_
_atom_site_type_symbol
_atom_site_label
_atom_site_fract_x
_atom_site_fract_y
_atom_site_fract_z
Si Si1 0.900227 0.124493 0.651744
Si Si2 0.673237 0.777050 0.450535
Si Si3 0.348013 0.399609 0.288897
Si Si4 0.689383 0.083161 0.849991
Si Si5 0.780788 0.648940 0.928786
Si Si6 0.637695 0.605438 0.212537
Si Si7 0.320514 0.793073 0.865428
Si Si8 0.086613 0.216532 0.771028
O O1 0.740842 0.359380 0.656939
O O2 0.843989 0.014175 0.742304
O O3 0.994572 0.163222 0.716071
O O4 0.000000 0.000000 0.500000
O O5 0.711204 0.681799 0.590294
O O6 0.664741 0.636836 0.353958
O O7 0.794493 0.795710 0.357118
O O8 0.500000 0.000000 0.500000
O O9 0.307643 0.386495 0.150809
O O10 0.530569 0.264319 0.247204
O O11 0.542252 0.218355 0.788345
O O12 0.722845 0.876692 0.901254
O O13 0.653707 0.225612 0.983323
O O14 0.960899 0.451315 0.858634
O O15 0.729521 0.644473 0.089362
O O16 0.695352 0.374336 0.174607
O O17 0.178100 0.035252 0.862332
#
# Coordination Sequence:
#
# PCOD9064604 Si02
#       8
#     2   2   2   2   2   2   2   2
#     4  11  28  45  70 103 146 188 232 285 362 426
#     4  12  27  44  71 105 149 184 231 292 355 423
#     4  11  24  46  70 103 141 190 234 288 351 426
#     4  12  25  45  77 103 140 189 240 294 348 427
#     4  11  26  46  75 104 140 185 242 292 356 414
#     4  12  26  45  77 106 138 189 242 292 351 423
#     4  12  24  45  76 104 142 181 244 295 349 416
#     4  11  28  47  68 107 146 183 233 301 353 417
#
# _framework density 22.068206
#
# number of rings (size 3 to 8) (size 9 to 14) (size 15 to 20)
#    0.000    0.500    3.750    3.750    7.000    5.500 
#    0.000    0.000    0.000    0.000    0.000    0.000 
#    0.000    0.000    0.000    0.000    0.000    0.000 
#
# Total GULP energy -89604.704404 kJ/mol
# GULP energy per Si atom -5600.294025 kJ/mol
# Density = 2.201798 g / cm^3
# Si number density = 22.068206 Si / 1000 Ang^3
#
#
#
# Elastic Constant Matrix: (Units=GPa)
#
#
# Indices 1 2 3 4 5 6 
#
# 1 68.8590 -8.6061 0.9157 1.9354 -20.0266 -5.2041
# 2 -8.6061 60.6503 -26.2296 3.7664 2.6004 1.2111
# 3 0.9157 -26.2296 67.3892 7.4324 -8.8531 -3.6868
# 4 1.9354 3.7664 7.4324 34.0305 4.0408 0.0125
# 5 -20.0266 2.6004 -8.8531 4.0408 38.7419 -4.5881
# 6 -5.2041 1.2111 -3.6868 0.0125 -4.5881 33.6521
#
#
#
# Elastic Compliance Matrix: (Units=1/GPa)
#
#
# Indices 1 2 3 4 5 6 
#
# 1 0.018594 0.003707 0.003275 -0.003493 0.011021 0.004605
# 2 0.003707 0.021146 0.009226 -0.004955 0.003273 0.001271
# 3 0.003275 0.009226 0.020159 -0.006412 0.006741 0.003304
# 4 -0.003493 -0.004955 -0.006412 0.032310 -0.006542 -0.001968
# 5 0.011021 0.003273 0.006741 -0.006542 0.034342 0.007010
# 6 0.004605 0.001271 0.003304 -0.001968 0.007010 0.031701
#
#
# Mechanical properties :
#
#
# Convention : Reuss Voigt Hill
#
# Bulk Modulus (GPa) = 10.83221 14.33984 12.58603
# Shear Modulus (GPa) = 31.92720 36.67279 34.29999
#
# Velocity S-wave (km/s) = 3.80774 4.08093 3.94670
# Velocity P-wave (km/s) = 4.92454 5.35886 5.14628
#
# Compressibility (1/GPa) = 0.09231723
#
# Stress axis : x y z
#
# Youngs Moduli (GPa) = 53.78173 47.28987 49.60501
#
# Poissons Ratio (x) = -0.17532 -0.16248
# Poissons Ratio (y) = -0.19939 -0.45767
# Poissons Ratio (z) = -0.17616 -0.43631
#
# Static dielectric constant tensor:
#      x y z
#    x 1.840830 0.000010 0.008610 
#    y 0.000010 1.804660 -0.018050 
#    z 0.008610 -0.018050 1.772550 
# 
# From -- ./inp_files/216347.got.cif
#   From: 2010.05.17/outbox.cif.g08.bks.cpg/sg2_109_cif.got.tgz:216347.got - 2010.06.03 11:33:40.
