data_PCOD9064924
_publ_section_title
;
Structure prediction by ZEFSAII (Michael W. Deem and Ramdas Pophale) SiO2 
 PCOD9064924
Probable space group: P -1
;
_chemical_formula_sum "Si O2"
_cell_formula_units_Z 14
_cell_length_a 8.291371
_cell_length_b 21.159971
_cell_length_c 6.349321
_cell_angle_alpha 103.233757
_cell_angle_beta 93.573999
_cell_angle_gamma 142.496691
_cell_volume 601.652293
_symmetry_space_group_name_H-M "P -1"
_symmetry_group_IT_number 2
_symmetry_cell_setting 'triclinic'
loop_
_space_group_symop_operation_xyz
x,y,z
-x,-y,-z
loop_
_atom_site_type_symbol
_atom_site_label
_atom_site_fract_x
_atom_site_fract_y
_atom_site_fract_z
Si Si1 0.353464 0.767988 0.532098
Si Si2 0.428244 0.051594 0.074747
Si Si3 0.540515 0.467391 0.681065
Si Si4 0.171045 0.901971 0.311690
Si Si5 0.121092 0.549004 0.301518
Si Si6 0.029055 0.302780 0.858201
Si Si7 0.027655 0.065093 0.381028
O O1 0.318525 0.814538 0.733191
O O2 0.167878 0.641602 0.394835
O O3 0.676693 0.849213 0.651821
O O4 0.284200 0.780579 0.317211
O O5 0.210636 0.969755 0.190857
O O6 0.500000 0.000000 0.000000
O O7 0.252285 0.024673 0.854421
O O8 0.500000 0.500000 0.500000
O O9 0.622825 0.419055 0.638287
O O10 0.256263 0.376709 0.737209
O O11 0.824339 0.595883 0.904964
O O12 0.025235 0.787568 0.129175
O O13 0.972494 0.865614 0.449154
O O14 0.500000 0.000000 0.500000
O O15 0.000000 0.500000 0.500000
O O16 0.000000 0.500000 0.000000
O O17 0.000000 0.000000 0.500000
#
# Coordination Sequence:
#
# PCOD9064924 Si02
#       7
#     2   2   2   2   2   2   2
#     4  12  25  47  75 110 149 202 252 318 398 456
#     4  12  26  45  72 107 149 196 253 304 383 472
#     4  11  26  50  76 110 147 197 268 318 389 468
#     4  12  23  45  70 107 148 194 243 306 379 468
#     4  12  28  51  79 115 157 199 263 331 397 462
#     4  11  24  46  76 105 149 199 251 318 386 465
#     4  12  25  45  69 107 152 190 250 313 379 461
#
# _framework density 23.269255000000001
#
# number of rings (size 3 to 8) (size 9 to 14) (size 15 to 20)
#    0.000    0.286    5.714    2.143    2.000    5.714 
#    0.000    0.000    0.000    0.000    0.000    0.000 
#    0.000    0.000    0.000    0.000    0.000    0.000 
#
# Total GULP energy -77969.657163 kJ/mol
# GULP energy per Si atom -5569.261226 kJ/mol
# Density = 2.321629 g / cm^3
# Si number density = 23.269255 Si / 1000 Ang^3
#
#
#
# Elastic Constant Matrix: (Units=GPa)
#
#
# Indices 1 2 3 4 5 6 
#
# 1 117.0995 15.5620 44.2807 3.8704 -5.3810 -19.7392
# 2 15.5620 86.0689 34.1716 0.4476 -9.2436 -25.6431
# 3 44.2807 34.1716 126.8546 4.5478 6.8007 -17.9918
# 4 3.8704 0.4476 4.5478 41.6456 -14.9681 -5.7935
# 5 -5.3810 -9.2436 6.8007 -14.9681 50.7513 1.4715
# 6 -19.7392 -25.6431 -17.9918 -5.7935 1.4715 40.0767
#
#
#
# Elastic Compliance Matrix: (Units=1/GPa)
#
#
# Indices 1 2 3 4 5 6 
#
# 1 0.010490 0.000917 -0.003426 0.000626 0.001800 0.004240
# 2 0.000917 0.016134 -0.003658 0.002929 0.004117 0.009405
# 3 -0.003426 -0.003658 0.010353 -0.001768 -0.002952 0.000472
# 4 0.000626 0.002929 -0.001768 0.028048 0.008961 0.005114
# 5 0.001800 0.004117 -0.002952 0.008961 0.023607 0.002624
# 6 0.004240 0.009405 0.000472 0.005114 0.002624 0.033913
#
#
# Mechanical properties :
#
#
# Convention : Reuss Voigt Hill
#
# Bulk Modulus (GPa) = 40.58034 57.56128 49.07081
# Shear Modulus (GPa) = 34.94189 42.22864 38.58526
#
# Velocity S-wave (km/s) = 3.87930 4.26465 4.07653
# Velocity P-wave (km/s) = 6.12720 7.00288 6.57963
#
# Compressibility (1/GPa) = 0.02464247
#
# Stress axis : x y z
#
# Youngs Moduli (GPa) = 95.32628 61.98010 96.58913
#
# Poissons Ratio (x) = -0.05683 0.33096
# Poissons Ratio (y) = -0.08740 0.35332
# Poissons Ratio (z) = 0.32663 0.22672
#
# Static dielectric constant tensor:
#      x y z
#    x 1.990330 0.055140 -0.076460 
#    y 0.055140 1.924290 -0.033810 
#    z -0.076460 -0.033810 2.015130 
# 
# From -- ./inp_files/53292.got.cif
#   From: 2010.05.17/outbox.cif.g08.bks.cpg/sg2_27_cif.got.tgz:53292.got - 2010.06.03 11:33:40.
