data_PCOD9064272
_publ_section_title
;
Structure prediction by ZEFSAII (Michael W. Deem and Ramdas Pophale) SiO2 
 PCOD9064272
Probable space group: P -1
;
_chemical_formula_sum "Si O2"
_cell_formula_units_Z 16
_cell_length_a 8.418786
_cell_length_b 9.252279
_cell_length_c 12.362625
_cell_angle_alpha 118.296326
_cell_angle_beta 65.248737
_cell_angle_gamma 109.800969
_cell_volume 758.059383
_symmetry_space_group_name_H-M "P -1"
_symmetry_group_IT_number 2
_symmetry_cell_setting 'triclinic'
loop_
_space_group_symop_operation_xyz
x,y,z
-x,-y,-z
loop_
_atom_site_type_symbol
_atom_site_label
_atom_site_fract_x
_atom_site_fract_y
_atom_site_fract_z
Si Si1 0.654961 0.060376 0.890958
Si Si2 0.189521 0.547641 0.017352
Si Si3 0.896896 0.464413 0.713584
Si Si4 0.382462 0.879993 0.328703
Si Si5 0.117288 0.999019 0.575789
Si Si6 0.846350 0.763912 0.681328
Si Si7 0.295412 0.278047 0.744173
Si Si8 0.696340 0.592913 0.450037
O O1 0.604906 0.060896 0.777804
O O2 0.778555 0.918723 0.812467
O O3 0.734342 0.256982 0.955345
O O4 0.500000 0.000000 0.000000
O O5 0.297559 0.421534 0.882927
O O6 0.154846 0.502787 0.136740
O O7 0.000000 0.500000 0.000000
O O8 0.775056 0.281882 0.669059
O O9 0.840751 0.601677 0.698476
O O10 0.109494 0.468546 0.638087
O O11 0.313158 0.007030 0.475111
O O12 0.566952 0.832852 0.292927
O O13 0.044521 0.837358 0.609582
O O14 0.114752 0.153211 0.713447
O O15 0.000000 0.000000 0.500000
O O16 0.739840 0.717223 0.583735
O O17 0.339481 0.359941 0.645512
O O18 0.500000 0.500000 0.500000
#
# Coordination Sequence:
#
# PCOD9064272 Si02
#       8
#     2   2   2   2   2   2   2   2
#     4  11  27  45  70 102 144 186 236 297 351 415
#     4  11  25  49  73  98 142 194 239 283 355 427
#     4  11  25  46  73 102 140 190 232 287 353 429
#     4  11  24  45  73 103 141 186 238 286 352 423
#     4  12  22  46  70 101 142 187 230 290 357 416
#     4  12  25  44  73 100 141 187 234 288 359 411
#     4  12  25  43  73 104 139 186 238 287 350 424
#     4  12  25  42  71 105 139 178 237 296 347 416
#
# _framework density 21.106527
#
# number of rings (size 3 to 8) (size 9 to 14) (size 15 to 20)
#    0.000    0.500    5.000    2.250    7.000    1.000 
#    2.250    1.250    0.000    0.000    0.000    0.000 
#    0.000    0.000    0.000    0.000    0.000    0.000 
#
# Total GULP energy -89165.933982 kJ/mol
# GULP energy per Si atom -5572.870874 kJ/mol
# Density = 2.105849 g / cm^3
# Si number density = 21.106527 Si / 1000 Ang^3
#
#
#
# Elastic Constant Matrix: (Units=GPa)
#
#
# Indices 1 2 3 4 5 6 
#
# 1 55.6660 36.7166 31.6315 -1.4303 -4.0352 -5.0609
# 2 36.7166 115.9142 75.5157 -26.3303 -2.0263 -4.9947
# 3 31.6315 75.5157 156.0458 3.1198 0.9126 5.1743
# 4 -1.4303 -26.3303 3.1198 41.3620 2.0835 -1.3178
# 5 -4.0352 -2.0263 0.9126 2.0835 28.1835 1.3407
# 6 -5.0609 -4.9947 5.1743 -1.3178 1.3407 37.9776
#
#
#
# Elastic Compliance Matrix: (Units=1/GPa)
#
#
# Indices 1 2 3 4 5 6 
#
# 1 0.023952 -0.007562 -0.001205 -0.003984 0.003119 0.002113
# 2 -0.007562 0.019427 -0.008226 0.012852 -0.000519 0.003132
# 3 -0.001205 -0.008226 0.010856 -0.006164 -0.000521 -0.002917
# 4 -0.003984 0.012852 -0.006164 0.032890 -0.002031 0.003212
# 5 0.003119 -0.000519 -0.000521 -0.002031 0.036102 -0.000927
# 6 0.002113 0.003132 -0.002917 0.003212 -0.000927 0.027566
#
#
# Mechanical properties :
#
#
# Convention : Reuss Voigt Hill
#
# Bulk Modulus (GPa) = 49.38172 68.37263 58.87717
# Shear Modulus (GPa) = 26.10577 33.75543 29.93060
#
# Velocity S-wave (km/s) = 3.52071 4.00345 3.76982
# Velocity P-wave (km/s) = 6.32253 7.33720 6.84869
#
# Compressibility (1/GPa) = 0.02025041
#
# Stress axis : x y z
#
# Youngs Moduli (GPa) = 41.74981 51.47565 92.11103
#
# Poissons Ratio (x) = 0.38925 0.11095
# Poissons Ratio (y) = 0.31570 0.75772
# Poissons Ratio (z) = 0.05029 0.42345
#
# Static dielectric constant tensor:
#      x y z
#    x 1.779700 0.008100 -0.239910 
#    y 0.008100 1.757870 -0.285100 
#    z -0.239910 -0.285100 1.275990 
# 
# From -- ./inp_files/244434.got.cif
#   From: 2010.05.17/outbox.cif.g08.bks.cpg/sg2_123_cif.got.tgz:244434.got - 2010.06.03 11:33:40.
