data_PCOD9064137
_publ_section_title
;
Structure prediction by ZEFSAII (Michael W. Deem and Ramdas Pophale) SiO2 
 PCOD9064137
Probable space group: P -1
;
_chemical_formula_sum "Si O2"
_cell_formula_units_Z 12
_cell_length_a 5.310445
_cell_length_b 9.299377
_cell_length_c 20.852559
_cell_angle_alpha 151.373695
_cell_angle_beta 79.191818
_cell_angle_gamma 100.862007
_cell_volume 483.987485
_symmetry_space_group_name_H-M "P -1"
_symmetry_group_IT_number 2
_symmetry_cell_setting 'triclinic'
loop_
_space_group_symop_operation_xyz
x,y,z
-x,-y,-z
loop_
_atom_site_type_symbol
_atom_site_label
_atom_site_fract_x
_atom_site_fract_y
_atom_site_fract_z
Si Si1 0.074541 0.505657 0.924184
Si Si2 0.635311 0.849537 0.008964
Si Si3 0.931770 0.471424 0.384188
Si Si4 0.344112 0.971898 0.430195
Si Si5 0.723430 0.708458 0.807735
Si Si6 0.757927 0.124621 0.369258
O O1 0.856167 0.691725 0.974090
O O2 0.074445 0.164388 0.763760
O O3 0.000000 0.500000 0.000000
O O4 0.362754 0.656022 0.957017
O O5 0.552846 0.185992 0.163188
O O6 0.734061 0.870111 0.939040
O O7 0.726824 0.285541 0.365309
O O8 0.082615 0.253923 0.245732
O O9 0.120791 0.635403 0.491678
O O10 0.832449 0.749042 0.457809
O O11 0.243492 0.631068 0.305069
O O12 0.500000 0.000000 0.500000
O O13 0.506012 0.000790 0.368594
#
# Coordination Sequence:
#
# PCOD9064137 Si02
#       6
#     2   2   2   2   2   2
#     4  12  26  49  73 105 144 192 240 294 360 428
#     4  11  27  46  73 107 143 190 240 298 354 428
#     4  11  25  45  68 103 142 184 236 293 360 426
#     4  12  24  42  71 105 136 186 231 299 357 425
#     4  11  24  45  71 105 141 186 238 297 358 426
#     4  11  25  45  70 101 141 186 236 295 359 423
#
# _framework density 24.794032000000001
#
# number of rings (size 3 to 8) (size 9 to 14) (size 15 to 20)
#    0.000    0.667    3.333    3.500    2.333    5.333 
#    3.000    0.000    0.000    0.000    0.000    0.000 
#    0.000    0.000    0.000    0.000    0.000    0.000 
#
# Total GULP energy -67100.259720 kJ/mol
# GULP energy per Si atom -5591.688310 kJ/mol
# Density = 2.473760 g / cm^3
# Si number density = 24.794032 Si / 1000 Ang^3
#
#
#
# Elastic Constant Matrix: (Units=GPa)
#
#
# Indices 1 2 3 4 5 6 
#
# 1 88.7927 39.4212 40.6209 -3.5084 -21.8415 -3.3829
# 2 39.4212 127.7278 64.3115 0.2533 -9.6347 19.8889
# 3 40.6209 64.3115 136.1067 -17.3227 -47.4178 -5.2458
# 4 -3.5084 0.2533 -17.3227 48.6866 -1.4708 -15.0004
# 5 -21.8415 -9.6347 -47.4178 -1.4708 36.7071 7.8590
# 6 -3.3829 19.8889 -5.2458 -15.0004 7.8590 43.6656
#
#
#
# Elastic Compliance Matrix: (Units=1/GPa)
#
#
# Indices 1 2 3 4 5 6 
#
# 1 0.015452 -0.005473 0.001808 0.003074 0.009521 0.003250
# 2 -0.005473 0.015892 -0.011502 -0.007882 -0.012214 -0.009554
# 3 0.001808 -0.011502 0.023541 0.011635 0.027374 0.007277
# 4 0.003074 -0.007882 0.011635 0.029322 0.013198 0.012924
# 5 0.009521 -0.012214 0.027374 0.013198 0.065076 0.002411
# 6 0.003250 -0.009554 0.007277 0.012924 0.002411 0.032385
#
#
# Mechanical properties :
#
#
# Convention : Reuss Voigt Hill
#
# Bulk Modulus (GPa) = 40.73424 71.25940 55.99682
# Shear Modulus (GPa) = 22.70803 39.69676 31.20239
#
# Velocity S-wave (km/s) = 3.02961 4.00567 3.55133
# Velocity P-wave (km/s) = 5.35750 7.08497 6.28091
#
# Compressibility (1/GPa) = 0.02454937
#
# Stress axis : x y z
#
# Youngs Moduli (GPa) = 64.71519 62.92595 42.47965
#
# Poissons Ratio (x) = 0.34442 -0.07680
# Poissons Ratio (y) = 0.35421 0.48861
# Poissons Ratio (z) = -0.11699 0.72378
#
# Static dielectric constant tensor:
#      x y z
#    x 2.050290 -0.014390 0.094350 
#    y -0.014390 1.886310 0.230630 
#    z 0.094350 0.230630 1.663480 
# 
# From -- ./inp_files/25553.got.cif
#   From: 2010.05.17/outbox.cif.g08.bks.cpg/sg2_13_cif.got.tgz:25553.got - 2010.06.03 11:33:40.
