data_PCOD9064059
_publ_section_title
;
Structure prediction by ZEFSAII (Michael W. Deem and Ramdas Pophale) SiO2 
 PCOD9064059
Probable space group: P -1
;
_chemical_formula_sum "Si O2"
_cell_formula_units_Z 16
_cell_length_a 16.366755
_cell_length_b 8.094596
_cell_length_c 10.895965
_cell_angle_alpha 121.986597
_cell_angle_beta 31.208150
_cell_angle_gamma 121.557639
_cell_volume 626.231108
_symmetry_space_group_name_H-M "P -1"
_symmetry_group_IT_number 2
_symmetry_cell_setting 'triclinic'
loop_
_space_group_symop_operation_xyz
x,y,z
-x,-y,-z
loop_
_atom_site_type_symbol
_atom_site_label
_atom_site_fract_x
_atom_site_fract_y
_atom_site_fract_z
Si Si1 0.653807 0.822711 0.800848
Si Si2 0.131546 0.225648 0.281808
Si Si3 0.594011 0.510779 0.100808
Si Si4 0.493815 0.283018 0.483180
Si Si5 0.128704 0.608730 0.183126
Si Si6 0.344605 0.957376 0.366140
Si Si7 0.053201 0.787664 0.829162
Si Si8 0.155003 0.819928 0.982261
O O1 0.807793 0.849166 0.696979
O O2 0.574179 0.604157 0.773887
O O3 0.695066 0.951374 0.676805
O O4 0.509306 0.880354 0.092013
O O5 0.972886 0.313172 0.548465
O O6 0.275457 0.400005 0.130129
O O7 0.121715 0.043066 0.129932
O O8 0.566809 0.689700 0.291895
O O9 0.685719 0.360717 0.002954
O O10 0.500000 0.500000 0.500000
O O11 0.379005 0.133198 0.488776
O O12 0.659489 0.202248 0.252983
O O13 0.077915 0.376650 0.129440
O O14 0.088952 0.705886 0.144931
O O15 0.206505 0.807455 0.549964
O O16 0.093038 0.733057 0.896577
O O17 0.000000 0.000000 0.000000
#
# Coordination Sequence:
#
# PCOD9064059 Si02
#       8
#     2   2   2   2   2   2   2   2
#     4  11  25  44  74 106 141 190 236 299 356 431
#     4  12  27  46  74 112 146 189 247 300 361 437
#     4  12  26  47  76 106 148 188 244 298 372 424
#     4  12  23  45  75 104 141 189 243 301 360 429
#     4  12  27  50  72 108 149 195 240 298 370 437
#     4  11  24  45  70 104 144 184 240 294 361 425
#     4  12  29  47  74 108 148 192 245 304 363 436
#     4  12  27  48  76 107 144 197 245 299 369 433
#
# _framework density 25.549672000000001
#
# number of rings (size 3 to 8) (size 9 to 14) (size 15 to 20)
#    0.000    0.250    3.750    4.500    7.000    2.000 
#    0.000    0.000    0.000    0.000    0.000    0.000 
#    0.000    0.000    0.000    0.000    0.000    0.000 
#
# Total GULP energy -89728.965734 kJ/mol
# GULP energy per Si atom -5608.060358 kJ/mol
# Density = 2.549152 g / cm^3
# Si number density = 25.549672 Si / 1000 Ang^3
#
#
#
# Elastic Constant Matrix: (Units=GPa)
#
#
# Indices 1 2 3 4 5 6 
#
# 1 86.5089 13.7404 21.1566 14.2824 9.8521 16.0118
# 2 13.7404 90.7829 15.8892 10.3613 12.8701 15.7507
# 3 21.1566 15.8892 133.7307 15.0689 22.5173 2.0416
# 4 14.2824 10.3613 15.0689 33.7057 0.1763 4.3264
# 5 9.8521 12.8701 22.5173 0.1763 31.9155 3.4948
# 6 16.0118 15.7507 2.0416 4.3264 3.4948 45.3329
#
#
#
# Elastic Compliance Matrix: (Units=1/GPa)
#
#
# Indices 1 2 3 4 5 6 
#
# 1 0.013717 -0.000236 -0.001054 -0.004735 -0.002927 -0.004038
# 2 -0.000236 0.012734 -0.000318 -0.003177 -0.004417 -0.003683
# 3 -0.001054 -0.000318 0.009091 -0.003602 -0.006037 0.000882
# 4 -0.004735 -0.003177 -0.003602 0.034329 0.005175 -0.000737
# 5 -0.002927 -0.004417 -0.006037 0.005175 0.038315 -0.000607
# 6 -0.004038 -0.003683 0.000882 -0.000737 -0.000607 0.024842
#
#
# Mechanical properties :
#
#
# Convention : Reuss Voigt Hill
#
# Bulk Modulus (GPa) = 30.93288 45.84388 38.38838
# Shear Modulus (GPa) = 34.00886 39.53991 36.77439
#
# Velocity S-wave (km/s) = 3.65237 3.93818 3.79796
# Velocity P-wave (km/s) = 5.46988 6.21780 5.85579
#
# Compressibility (1/GPa) = 0.03232806
#
# Stress axis : x y z
#
# Youngs Moduli (GPa) = 72.90094 78.52723 109.99713
#
# Poissons Ratio (x) = 0.01850 0.11593
# Poissons Ratio (y) = 0.01718 0.03495
# Poissons Ratio (z) = 0.07684 0.02495
#
# Static dielectric constant tensor:
#      x y z
#    x 2.044860 -0.081630 0.027790 
#    y -0.081630 2.020740 -0.009600 
#    z 0.027790 -0.009600 1.994640 
# 
# From -- ./inp_files/462405.got.cif
#   From: 2010.05.17/outbox.cif.g08.bks.cpg/sg2_232_cif.got.tgz:462405.got - 2010.06.03 11:33:40.
