data_PCOD9064149
_publ_section_title
;
Structure prediction by ZEFSAII (Michael W. Deem and Ramdas Pophale) SiO2 
 PCOD9064149
Probable space group: P -1
;
_chemical_formula_sum "Si O2"
_cell_formula_units_Z 14
_cell_length_a 14.503534
_cell_length_b 8.849588
_cell_length_c 20.095032
_cell_angle_alpha 33.188616
_cell_angle_beta 152.704727
_cell_angle_gamma 148.780521
_cell_volume 580.069546
_symmetry_space_group_name_H-M "P -1"
_symmetry_group_IT_number 2
_symmetry_cell_setting 'triclinic'
loop_
_space_group_symop_operation_xyz
x,y,z
-x,-y,-z
loop_
_atom_site_type_symbol
_atom_site_label
_atom_site_fract_x
_atom_site_fract_y
_atom_site_fract_z
Si Si1 0.838836 0.156769 0.852857
Si Si2 0.759465 0.248829 0.144959
Si Si3 0.321702 0.271258 0.821614
Si Si4 0.740131 0.906540 0.382393
Si Si5 0.062449 0.843606 0.935718
Si Si6 0.334394 0.910559 0.586550
Si Si7 0.615528 0.793967 0.623392
O O1 0.988699 0.504796 0.797545
O O2 0.603331 0.039566 0.709643
O O3 0.806029 0.113176 0.927178
O O4 0.000000 0.000000 0.000000
O O5 0.728114 0.953768 0.190196
O O6 0.698659 0.141853 0.220859
O O7 0.587931 0.381033 0.962267
O O8 0.252758 0.544703 0.665469
O O9 0.203486 0.080983 0.881865
O O10 0.566778 0.558720 0.377403
O O11 0.718534 0.976622 0.419372
O O12 0.000000 0.000000 0.500000
O O13 0.817560 0.835901 0.786936
O O14 0.000000 0.500000 0.000000
O O15 0.270581 0.058763 0.428483
O O16 0.500000 0.000000 0.500000
#
# Coordination Sequence:
#
# PCOD9064149 Si02
#       7
#     2   2   2   2   2   2   2
#     4  12  24  43  73 106 146 183 239 298 366 425
#     4  11  24  45  71 107 143 187 235 301 354 436
#     4  11  25  43  75 102 145 183 246 289 361 431
#     4  12  29  46  71 104 148 188 244 302 358 421
#     4  12  26  46  74 106 141 192 240 294 355 438
#     4  12  27  47  74 108 145 194 238 302 363 429
#     4  12  28  50  76 104 149 194 241 293 373 440
#
# _framework density 24.135038000000002
#
# number of rings (size 3 to 8) (size 9 to 14) (size 15 to 20)
#    0.000    0.286    2.857    5.571    8.000    1.714 
#    0.000    0.000    0.000    0.000    0.000    0.000 
#    0.000    0.000    0.000    0.000    0.000    0.000 
#
# Total GULP energy -78479.623896 kJ/mol
# GULP energy per Si atom -5605.687421 kJ/mol
# Density = 2.408011 g / cm^3
# Si number density = 24.135038 Si / 1000 Ang^3
#
#
#
# Elastic Constant Matrix: (Units=GPa)
#
#
# Indices 1 2 3 4 5 6 
#
# 1 109.1786 13.3022 2.1093 -7.2515 -12.1453 8.9026
# 2 13.3022 78.4177 20.1502 -7.7739 -2.1310 28.5046
# 3 2.1093 20.1502 79.8398 -3.3309 -0.0645 7.0595
# 4 -7.2515 -7.7739 -3.3309 26.2189 8.7305 -4.6587
# 5 -12.1453 -2.1310 -0.0645 8.7305 54.6587 -3.3906
# 6 8.9026 28.5046 7.0595 -4.6587 -3.3906 34.1159
#
#
#
# Elastic Compliance Matrix: (Units=1/GPa)
#
#
# Indices 1 2 3 4 5 6 
#
# 1 0.009689 -0.000999 0.000182 0.001576 0.001779 -0.001339
# 2 -0.000999 0.019525 -0.003460 0.002674 -0.000826 -0.015054
# 3 0.000182 -0.003460 0.013413 0.000824 -0.000200 0.000160
# 4 0.001576 0.002674 0.000824 0.041913 -0.006096 0.002302
# 5 0.001779 -0.000826 -0.000200 -0.006096 0.019719 0.001394
# 6 -0.001339 -0.015054 0.000160 0.002302 0.001394 0.042659
#
#
# Mechanical properties :
#
#
# Convention : Reuss Voigt Hill
#
# Bulk Modulus (GPa) = 29.34700 37.61771 33.48236
# Shear Modulus (GPa) = 29.97053 38.45698 34.21375
#
# Velocity S-wave (km/s) = 3.52772 3.99608 3.76918
# Velocity P-wave (km/s) = 5.36460 6.07550 5.73109
#
# Compressibility (1/GPa) = 0.03407503
#
# Stress axis : x y z
#
# Youngs Moduli (GPa) = 103.20614 51.21520 74.55198
#
# Poissons Ratio (x) = 0.05116 -0.01355
# Poissons Ratio (y) = 0.10309 0.25791
# Poissons Ratio (z) = -0.01876 0.17718
#
# Static dielectric constant tensor:
#      x y z
#    x 1.889630 0.012710 0.035960 
#    y 0.012710 1.919380 0.003570 
#    z 0.035960 0.003570 1.888550 
# 
# From -- ./inp_files/159596.got.cif
#   From: 2010.05.17/outbox.cif.g08.bks.cpg/sg2_80_cif.got.tgz:159596.got - 2010.06.03 11:33:40.
