data_PCOD9064398
_publ_section_title
;
Structure prediction by ZEFSAII (Michael W. Deem and Ramdas Pophale) SiO2 
 PCOD9064398
Probable space group: P -1
;
_chemical_formula_sum "Si O2"
_cell_formula_units_Z 13
_cell_length_a 8.480565
_cell_length_b 9.915633
_cell_length_c 9.150272
_cell_angle_alpha 144.355370
_cell_angle_beta 70.324288
_cell_angle_gamma 108.588560
_cell_volume 420.787931
_symmetry_space_group_name_H-M "P -1"
_symmetry_group_IT_number 2
_symmetry_cell_setting 'triclinic'
loop_
_space_group_symop_operation_xyz
x,y,z
-x,-y,-z
loop_
_atom_site_type_symbol
_atom_site_label
_atom_site_fract_x
_atom_site_fract_y
_atom_site_fract_z
Si Si1 0.106020 0.329760 0.816858
Si Si2 0.519923 0.951601 0.114649
Si Si3 0.721469 0.290322 0.772970
Si Si4 0.502196 0.560353 0.276316
Si Si5 0.861444 0.974150 0.203217
Si Si6 0.199127 0.177355 0.335132
Si Si7 0.500000 0.500000 0.500000
O O1 0.316498 0.417729 0.833970
O O2 0.136320 0.172863 0.520951
O O3 0.076043 0.243449 0.919523
O O4 0.099165 0.631565 0.127667
O O5 0.522078 0.259310 0.422715
O O6 0.716929 0.938714 0.099193
O O7 0.348585 0.004268 0.107571
O O8 0.418893 0.853552 0.211245
O O9 0.634702 0.431717 0.793863
O O10 0.779792 0.093799 0.471855
O O11 0.493610 0.343454 0.202230
O O12 0.032116 0.130439 0.250893
O O13 0.290801 0.434550 0.520144
#
# Coordination Sequence:
#
# PCOD9064398 Si02
#       7
#     2   2   2   2   2   2   1
#     4  12  25  47  77 120 158 200 265 329 397 460
#     4  12  27  49  76 110 160 212 258 318 399 471
#     4  11  24  45  78 113 151 209 261 329 393 450
#     4  11  24  45  74 112 156 206 262 323 387 474
#     4  12  28  50  78 120 156 200 275 326 392 465
#     4  12  27  47  79 112 158 208 259 327 389 478
#     4  12  24  46  72 110 156 202 260 308 396 468
#
# _framework density 30.894421000000001
#
# number of rings (size 3 to 8) (size 9 to 14) (size 15 to 20)
#    0.000    0.308    6.154    2.308    4.308    1.846 
#    0.000    3.077    3.385    0.000    0.000    0.000 
#    0.000    0.000    0.000    0.000    0.000    0.000 
#
# Total GULP energy -72523.202805 kJ/mol
# GULP energy per Si atom -5578.707908 kJ/mol
# Density = 3.082410 g / cm^3
# Si number density = 30.894421 Si / 1000 Ang^3
#
#
#
# Elastic Constant Matrix: (Units=GPa)
#
#
# Indices 1 2 3 4 5 6 
#
# 1 279.4166 92.9287 129.1081 -5.2957 66.0471 -11.2871
# 2 92.9287 153.1534 48.5974 20.6537 38.7050 -13.7463
# 3 129.1081 48.5974 187.3661 -1.2793 52.8546 -12.2309
# 4 -5.2957 20.6537 -1.2793 68.3521 -12.1903 7.1493
# 5 66.0471 38.7050 52.8546 -12.1903 95.6301 -0.1951
# 6 -11.2871 -13.7463 -12.2309 7.1493 -0.1951 70.9581
#
#
#
# Elastic Compliance Matrix: (Units=1/GPa)
#
#
# Indices 1 2 3 4 5 6 
#
# 1 0.006286 -0.002576 -0.003284 0.000979 -0.001359 -0.000168
# 2 -0.002576 0.009340 0.000165 -0.003662 -0.002556 0.001790
# 3 -0.003284 0.000165 0.008319 -0.000697 -0.002483 0.001007
# 4 0.000979 -0.003662 -0.000697 0.016634 0.003307 -0.002341
# 5 -0.001359 -0.002556 -0.002483 0.003307 0.014221 -0.001433
# 6 -0.000168 0.001790 0.001007 -0.002341 -0.001433 0.014818
#
#
# Mechanical properties :
#
#
# Convention : Reuss Voigt Hill
#
# Bulk Modulus (GPa) = 79.64668 129.02273 104.33471
# Shear Modulus (GPa) = 58.68966 70.27486 64.48226
#
# Velocity S-wave (km/s) = 4.36327 4.77453 4.57352
# Velocity P-wave (km/s) = 7.15684 8.49988 7.85711
#
# Compressibility (1/GPa) = 0.01255545
#
# Stress axis : x y z
#
# Youngs Moduli (GPa) = 159.07952 107.06385 120.20821
#
# Poissons Ratio (x) = 0.27575 0.39480
# Poissons Ratio (y) = 0.40972 -0.01983
# Poissons Ratio (z) = 0.52247 -0.01766
#
# Static dielectric constant tensor:
#      x y z
#    x 2.282150 -0.212660 -0.189290 
#    y -0.212660 2.877000 0.294260 
#    z -0.189290 0.294260 3.262670 
# 
# From -- ./inp_files/386296.got.cif
#   From: 2010.05.17/outbox.cif.g08.bks.cpg/sg2_194_cif.got.tgz:386296.got - 2010.06.03 11:33:40.
