data_PCOD9064908
_publ_section_title
;
Structure prediction by ZEFSAII (Michael W. Deem and Ramdas Pophale) SiO2 
 PCOD9064908
Probable space group: P -1
;
_chemical_formula_sum "Si O2"
_cell_formula_units_Z 9
_cell_length_a 10.581916
_cell_length_b 5.337491
_cell_length_c 12.663788
_cell_angle_alpha 71.892978
_cell_angle_beta 144.366986
_cell_angle_gamma 119.949728
_cell_volume 354.612433
_symmetry_space_group_name_H-M "P -1"
_symmetry_group_IT_number 2
_symmetry_cell_setting 'triclinic'
loop_
_space_group_symop_operation_xyz
x,y,z
-x,-y,-z
loop_
_atom_site_type_symbol
_atom_site_label
_atom_site_fract_x
_atom_site_fract_y
_atom_site_fract_z
Si Si1 0.029597 0.675477 0.323446
Si Si2 0.655819 0.200362 0.984261
Si Si3 0.840153 0.155726 0.910075
Si Si4 0.500000 0.000000 0.500000
Si Si5 0.780184 0.689807 0.358971
O O1 0.181890 0.545144 0.512999
O O2 0.831673 0.669098 0.272954
O O3 0.238872 0.970034 0.379873
O O4 0.891418 0.451839 0.165176
O O5 0.716856 0.027704 0.956585
O O6 0.479498 0.323109 0.797366
O O7 0.500000 0.000000 0.000000
O O8 0.640879 0.114521 0.692815
O O9 0.000000 0.500000 0.000000
O O10 0.000000 0.000000 0.000000
O O11 0.000000 0.000000 0.500000
#
# Coordination Sequence:
#
# PCOD9064908 Si02
#       5
#     2   2   2   1   2
#     4  11  26  46  74 114 153 212 259 334 399 483
#     4  12  26  48  78 114 155 207 268 338 399 484
#     4  12  31  54  79 121 164 216 273 334 412 490
#     4  12  28  50  80 110 172 212 268 326 416 486
#     4  11  24  46  75 111 152 198 272 322 403 472
#
# _framework density 25.379822000000001
#
# number of rings (size 3 to 8) (size 9 to 14) (size 15 to 20)
#    0.000    0.444    4.444    2.000    9.333    2.667 
#    0.000    0.000    0.000    0.000    0.000    0.000 
#    0.000    0.000    0.000    0.000    0.000    0.000 
#
# Total GULP energy -50196.388568 kJ/mol
# GULP energy per Si atom -5577.376508 kJ/mol
# Density = 2.532206 g / cm^3
# Si number density = 25.379822 Si / 1000 Ang^3
#
#
#
# Elastic Constant Matrix: (Units=GPa)
#
#
# Indices 1 2 3 4 5 6 
#
# 1 162.5727 28.1670 81.6839 2.9731 -10.9046 -41.6200
# 2 28.1670 60.4764 24.1550 3.4998 1.0477 -13.4666
# 3 81.6839 24.1550 196.0697 17.1307 -15.0604 -13.4747
# 4 2.9731 3.4998 17.1307 34.6426 -6.6890 4.4920
# 5 -10.9046 1.0477 -15.0604 -6.6890 60.6040 2.7375
# 6 -41.6200 -13.4666 -13.4747 4.4920 2.7375 40.5935
#
#
#
# Elastic Compliance Matrix: (Units=1/GPa)
#
#
# Indices 1 2 3 4 5 6 
#
# 1 0.010567 -0.001481 -0.003538 -0.000071 0.000627 0.009134
# 2 -0.001481 0.018925 -0.001326 -0.001991 -0.001352 0.004631
# 3 -0.003538 -0.001326 0.006929 -0.002618 0.000889 -0.001537
# 4 -0.000071 -0.001991 -0.002618 0.031657 0.003105 -0.005315
# 5 0.000627 -0.001352 0.000889 0.003105 0.017246 -0.001017
# 6 0.009134 0.004631 -0.001537 -0.005315 -0.001017 0.035682
#
#
# Mechanical properties :
#
#
# Convention : Reuss Voigt Hill
#
# Bulk Modulus (GPa) = 42.14029 76.34783 59.24406
# Shear Modulus (GPa) = 35.30936 46.17555 40.74246
#
# Velocity S-wave (km/s) = 3.73398 4.27005 4.01098
# Velocity P-wave (km/s) = 5.93549 7.37960 6.69658
#
# Compressibility (1/GPa) = 0.02373026
#
# Stress axis : x y z
#
# Youngs Moduli (GPa) = 94.63426 52.84097 144.32693
#
# Poissons Ratio (x) = 0.07828 0.51058
# Poissons Ratio (y) = 0.14020 0.19137
# Poissons Ratio (z) = 0.33478 0.07007
#
# Static dielectric constant tensor:
#      x y z
#    x 2.122790 0.076600 0.026720 
#    y 0.076600 2.076990 -0.024580 
#    z 0.026720 -0.024580 1.938750 
# 
# From -- ./inp_files/16788.got.cif
#   From: 2010.05.17/outbox.cif.g08.bks.cpg/sg2_9_cif.got.tgz:16788.got - 2010.06.03 11:33:40.
