data_PCOD9064285
_publ_section_title
;
Structure prediction by ZEFSAII (Michael W. Deem and Ramdas Pophale) SiO2 
 PCOD9064285
Probable space group: P -1
;
_chemical_formula_sum "Si O2"
_cell_formula_units_Z 15
_cell_length_a 9.617115
_cell_length_b 8.883674
_cell_length_c 9.437502
_cell_angle_alpha 112.211027
_cell_angle_beta 63.051525
_cell_angle_gamma 93.295151
_cell_volume 659.050917
_symmetry_space_group_name_H-M "P -1"
_symmetry_group_IT_number 2
_symmetry_cell_setting 'triclinic'
loop_
_space_group_symop_operation_xyz
x,y,z
-x,-y,-z
loop_
_atom_site_type_symbol
_atom_site_label
_atom_site_fract_x
_atom_site_fract_y
_atom_site_fract_z
Si Si1 0.209072 0.583180 0.324168
Si Si2 0.412973 0.341521 0.497933
Si Si3 0.101432 0.564656 0.671656
Si Si4 0.500000 0.500000 0.000000
Si Si5 0.003408 0.161739 0.960927
Si Si6 0.865923 0.088061 0.694149
Si Si7 0.358068 0.242212 0.798091
Si Si8 0.548716 0.962708 0.804430
O O1 0.166471 0.637931 0.523868
O O2 0.210610 0.741301 0.280245
O O3 0.069422 0.484517 0.303275
O O4 0.381885 0.486723 0.188519
O O5 0.500000 0.500000 0.500000
O O6 0.227047 0.405044 0.586609
O O7 0.424775 0.253192 0.613242
O O8 0.481055 0.210677 0.303058
O O9 0.087236 0.687268 0.853696
O O10 0.377171 0.412282 0.927105
O O11 0.926862 0.129445 0.834656
O O12 0.180217 0.201658 0.867578
O O13 0.000000 0.000000 0.000000
O O14 0.733866 0.970263 0.719543
O O15 0.000000 0.000000 0.500000
O O16 0.462456 0.103803 0.793286
O O17 0.500000 0.000000 0.000000
#
# Coordination Sequence:
#
# PCOD9064285 Si02
#       8
#     2   2   2   1   2   2   2   2
#     4  11  24  45  73 104 149 199 249 310 386 450
#     4  12  30  48  78 116 156 201 261 323 394 460
#     4  11  26  45  73 108 155 194 255 318 381 460
#     4  12  24  46  76 116 144 208 250 320 382 464
#     4  12  27  47  76 111 152 203 260 318 384 462
#     4  12  26  47  75 103 146 198 255 304 380 452
#     4  12  27  49  80 109 161 198 264 315 395 455
#     4  12  29  50  78 111 153 203 255 316 384 465
#
# _framework density 22.760003000000001
#
# number of rings (size 3 to 8) (size 9 to 14) (size 15 to 20)
#    0.000    0.267    2.667    5.200    9.333    2.133 
#    0.000    0.000    0.000    0.000    0.000    0.000 
#    0.000    0.000    0.000    0.000    0.000    0.000 
#
# Total GULP energy -83790.059121 kJ/mol
# GULP energy per Si atom -5586.003941 kJ/mol
# Density = 2.270820 g / cm^3
# Si number density = 22.760003 Si / 1000 Ang^3
#
#
#
# Elastic Constant Matrix: (Units=GPa)
#
#
# Indices 1 2 3 4 5 6 
#
# 1 75.1473 24.6756 16.4516 -21.8381 6.7538 1.3818
# 2 24.6756 88.4524 51.2617 -20.7345 19.3511 2.6621
# 3 16.4516 51.2617 154.8565 -11.2482 20.4471 -6.3147
# 4 -21.8381 -20.7345 -11.2482 30.4733 6.2089 -2.0379
# 5 6.7538 19.3511 20.4471 6.2089 48.4618 -11.5554
# 6 1.3818 2.6621 -6.3147 -2.0379 -11.5554 37.9832
#
#
#
# Elastic Compliance Matrix: (Units=1/GPa)
#
#
# Indices 1 2 3 4 5 6 
#
# 1 0.017726 -0.000990 -0.000165 0.012688 -0.003895 -0.001107
# 2 -0.000990 0.018698 -0.004340 0.011770 -0.007904 -0.003769
# 3 -0.000165 -0.004340 0.008176 0.000323 -0.001437 0.001249
# 4 0.012688 0.011770 0.000323 0.052709 -0.013992 -0.002661
# 5 -0.003895 -0.007904 -0.001437 -0.013992 0.028748 0.008452
# 6 -0.001107 -0.003769 0.001249 -0.002661 0.008452 0.029268
#
#
# Mechanical properties :
#
#
# Convention : Reuss Voigt Hill
#
# Bulk Modulus (GPa) = 29.75128 55.91489 42.83308
# Shear Modulus (GPa) = 28.16619 38.45479 33.31049
#
# Velocity S-wave (km/s) = 3.52167 4.11491 3.82979
# Velocity P-wave (km/s) = 5.44393 6.87002 6.19812
#
# Compressibility (1/GPa) = 0.03361200
#
# Stress axis : x y z
#
# Youngs Moduli (GPa) = 56.41429 53.48096 122.31148
#
# Poissons Ratio (x) = 0.05293 0.02015
# Poissons Ratio (y) = 0.05583 0.53078
# Poissons Ratio (z) = 0.00929 0.23209
#
# Static dielectric constant tensor:
#      x y z
#    x 1.876550 -0.051530 -0.002330 
#    y -0.051530 1.860550 -0.000630 
#    z -0.002330 -0.000630 1.868910 
# 
# From -- ./inp_files/157727.got.cif
#   From: 2010.05.17/outbox.cif.g08.bks.cpg/sg2_79_cif.got.tgz:157727.got - 2010.06.03 11:33:40.
