data_PCOD9064115
_publ_section_title
;
Structure prediction by ZEFSAII (Michael W. Deem and Ramdas Pophale) SiO2 
 PCOD9064115
Probable space group: P -1
;
_chemical_formula_sum "Si O2"
_cell_formula_units_Z 14
_cell_length_a 9.199553
_cell_length_b 11.685341
_cell_length_c 8.656821
_cell_angle_alpha 50.221149
_cell_angle_beta 106.396615
_cell_angle_gamma 123.118029
_cell_volume 595.722728
_symmetry_space_group_name_H-M "P -1"
_symmetry_group_IT_number 2
_symmetry_cell_setting 'triclinic'
loop_
_space_group_symop_operation_xyz
x,y,z
-x,-y,-z
loop_
_atom_site_type_symbol
_atom_site_label
_atom_site_fract_x
_atom_site_fract_y
_atom_site_fract_z
Si Si1 0.177282 0.026899 0.607221
Si Si2 0.334803 0.503225 0.012787
Si Si3 0.481585 0.621558 0.266478
Si Si4 0.724736 0.231775 0.754977
Si Si5 0.191454 0.073558 0.925808
Si Si6 0.961921 0.346191 0.003726
Si Si7 0.543878 0.180976 0.426150
O O1 0.185877 0.098933 0.718754
O O2 0.355804 0.146732 0.464320
O O3 0.000000 0.000000 0.500000
O O4 0.160683 0.840202 0.796015
O O5 0.148187 0.357799 0.026175
O O6 0.369305 0.683224 0.800615
O O7 0.500000 0.500000 0.000000
O O8 0.341351 0.508777 0.194218
O O9 0.500000 0.500000 0.500000
O O10 0.426989 0.751255 0.216205
O O11 0.663695 0.741148 0.131042
O O12 0.682357 0.249223 0.550005
O O13 0.888812 0.357817 0.803850
O O14 0.739814 0.060570 0.910428
O O15 0.000000 0.000000 0.000000
O O16 0.000000 0.500000 0.000000
O O17 0.500000 0.000000 0.500000
#
# Coordination Sequence:
#
# PCOD9064115 Si02
#       7
#     2   2   2   2   2   2   2
#     4  11  26  44  71 101 144 186 241 298 366 432
#     4  12  27  45  70 106 151 183 245 300 368 440
#     4  12  26  48  77 105 145 199 243 305 372 434
#     4  11  25  49  74 103 148 193 250 297 370 439
#     4  11  27  47  74 106 141 192 248 306 362 433
#     4  11  24  45  71 102 140 192 239 304 363 429
#     4  12  26  46  74 106 142 197 241 300 367 440
#
# _framework density 23.500865000000001
#
# number of rings (size 3 to 8) (size 9 to 14) (size 15 to 20)
#    0.000    0.571    2.857    3.857   14.000    0.571 
#    2.571    0.000    0.000    0.000    0.000    0.000 
#    0.000    0.000    0.000    0.000    0.000    0.000 
#
# Total GULP energy -78271.484815 kJ/mol
# GULP energy per Si atom -5590.820344 kJ/mol
# Density = 2.344738 g / cm^3
# Si number density = 23.500865 Si / 1000 Ang^3
#
#
#
# Elastic Constant Matrix: (Units=GPa)
#
#
# Indices 1 2 3 4 5 6 
#
# 1 131.4609 19.2240 39.4773 3.9624 3.7250 12.6248
# 2 19.2240 95.8715 28.8350 21.4750 9.7512 9.1087
# 3 39.4773 28.8350 104.0047 18.5671 13.0161 8.8567
# 4 3.9624 21.4750 18.5671 52.0150 12.0691 4.4397
# 5 3.7250 9.7512 13.0161 12.0691 31.8964 3.6483
# 6 12.6248 9.1087 8.8567 4.4397 3.6483 42.9215
#
#
#
# Elastic Compliance Matrix: (Units=1/GPa)
#
#
# Indices 1 2 3 4 5 6 
#
# 1 0.008826 -0.000881 -0.003154 0.000884 0.000407 -0.001884
# 2 -0.000881 0.012375 -0.002134 -0.003886 -0.001176 -0.001425
# 3 -0.003154 -0.002134 0.012279 -0.002519 -0.002963 -0.000641
# 4 0.000884 -0.003886 -0.002519 0.023258 -0.006601 -0.000760
# 5 0.000407 -0.001176 -0.002963 -0.006601 0.035553 -0.001598
# 6 -0.001884 -0.001425 -0.000641 -0.000760 -0.001598 0.024501
#
#
# Mechanical properties :
#
#
# Convention : Reuss Voigt Hill
#
# Bulk Modulus (GPa) = 47.30293 56.26776 51.78534
# Shear Modulus (GPa) = 36.71690 41.61998 39.16844
#
# Velocity S-wave (km/s) = 3.95696 4.21289 4.08693
# Velocity P-wave (km/s) = 6.40692 6.90358 6.65988
#
# Compressibility (1/GPa) = 0.02114034
#
# Stress axis : x y z
#
# Youngs Moduli (GPa) = 113.30709 80.81093 81.44050
#
# Poissons Ratio (x) = 0.07123 0.25685
# Poissons Ratio (y) = 0.09988 0.17380
# Poissons Ratio (z) = 0.35735 0.17246
#
# Static dielectric constant tensor:
#      x y z
#    x 1.886520 -0.126100 0.082280 
#    y -0.126100 1.558480 0.144830 
#    z 0.082280 0.144830 1.828420 
# 
# From -- ./inp_files/184457.got.cif
#   From: 2010.05.17/outbox.cif.g08.bks.cpg/sg2_93_cif.got.tgz:184457.got - 2010.06.03 11:33:40.
