data_PCOD9064922
_publ_section_title
;
Structure prediction by ZEFSAII (Michael W. Deem and Ramdas Pophale) SiO2 
 PCOD9064922
Probable space group: P -1
;
_chemical_formula_sum "Si O2"
_cell_formula_units_Z 14
_cell_length_a 11.464258
_cell_length_b 12.958716
_cell_length_c 5.329263
_cell_angle_alpha 69.108955
_cell_angle_beta 52.070955
_cell_angle_gamma 71.731379
_cell_volume 578.643368
_symmetry_space_group_name_H-M "P -1"
_symmetry_group_IT_number 2
_symmetry_cell_setting 'triclinic'
loop_
_space_group_symop_operation_xyz
x,y,z
-x,-y,-z
loop_
_atom_site_type_symbol
_atom_site_label
_atom_site_fract_x
_atom_site_fract_y
_atom_site_fract_z
Si Si1 0.605674 0.050476 0.616701
Si Si2 0.631617 0.427476 0.245268
Si Si3 0.049323 0.195746 0.428923
Si Si4 0.783789 0.858309 0.253399
Si Si5 0.085276 0.452442 0.182367
Si Si6 0.480115 0.260323 0.284266
Si Si7 0.732980 0.208012 0.607396
O O1 0.524531 0.166533 0.517397
O O2 0.744555 0.094506 0.534535
O O3 0.664805 0.964223 0.396365
O O4 0.500000 0.000000 0.000000
O O5 0.500000 0.500000 0.500000
O O6 0.546453 0.372620 0.178037
O O7 0.719917 0.319312 0.361337
O O8 0.753755 0.511185 0.004569
O O9 0.095217 0.147074 0.681433
O O10 0.088518 0.321171 0.269833
O O11 0.873588 0.202005 0.607901
O O12 0.142836 0.138646 0.118826
O O13 0.694697 0.749563 0.497188
O O14 0.000000 0.500000 0.500000
O O15 0.000000 0.500000 0.000000
O O16 0.576222 0.218535 0.952426
#
# Coordination Sequence:
#
# PCOD9064922 Si02
#       7
#     2   2   2   2   2   2   2
#     4  11  24  46  76 105 141 192 243 299 368 426
#     4  11  26  45  72 108 141 188 247 304 356 430
#     4  12  28  47  71 110 150 187 243 299 363 433
#     4  12  27  46  75 106 147 191 244 300 357 432
#     4  12  25  48  76 101 147 197 237 287 373 433
#     4  11  25  46  74 101 145 188 245 299 360 434
#     4  11  26  46  71 104 145 189 239 300 365 434
#
# _framework density 24.194524000000001
#
# number of rings (size 3 to 8) (size 9 to 14) (size 15 to 20)
#    0.000    0.571    2.857    3.857   10.000    1.714 
#    0.000    0.000    0.000    0.000    0.000    0.000 
#    0.000    0.000    0.000    0.000    0.000    0.000 
#
# Total GULP energy -78337.199771 kJ/mol
# GULP energy per Si atom -5595.514269 kJ/mol
# Density = 2.413946 g / cm^3
# Si number density = 24.194524 Si / 1000 Ang^3
#
#
#
# Elastic Constant Matrix: (Units=GPa)
#
#
# Indices 1 2 3 4 5 6 
#
# 1 108.7356 17.2670 -7.5414 4.8393 -2.5262 22.7186
# 2 17.2670 107.4034 7.7425 9.8229 14.5681 21.5245
# 3 -7.5414 7.7425 62.5769 20.3936 6.6492 10.4040
# 4 4.8393 9.8229 20.3936 42.3047 6.3983 1.9471
# 5 -2.5262 14.5681 6.6492 6.3983 45.2453 -1.2593
# 6 22.7186 21.5245 10.4040 1.9471 -1.2593 42.5603
#
#
#
# Elastic Compliance Matrix: (Units=1/GPa)
#
#
# Indices 1 2 3 4 5 6 
#
# 1 0.010919 -0.000593 0.003151 -0.002423 0.000508 -0.006173
# 2 -0.000593 0.011124 0.000472 -0.001954 -0.003559 -0.005441
# 3 0.003151 0.000472 0.020831 -0.009933 -0.001817 -0.006612
# 4 -0.002423 -0.001954 -0.009933 0.029323 -0.002101 0.003306
# 5 0.000508 -0.003559 -0.001817 -0.002101 0.023917 0.002777
# 6 -0.006173 -0.005441 -0.006612 0.003306 0.002777 0.031090
#
#
# Mechanical properties :
#
#
# Convention : Reuss Voigt Hill
#
# Bulk Modulus (GPa) = 20.43562 34.85022 27.64292
# Shear Modulus (GPa) = 36.37555 43.43860 39.90708
#
# Velocity S-wave (km/s) = 3.88166 4.24180 4.06572
# Velocity P-wave (km/s) = 5.34363 6.19887 5.78707
#
# Compressibility (1/GPa) = 0.04893417
#
# Stress axis : x y z
#
# Youngs Moduli (GPa) = 91.58593 89.89761 48.00487
#
# Poissons Ratio (x) = 0.05328 -0.15128
# Poissons Ratio (y) = 0.05429 -0.02264
# Poissons Ratio (z) = -0.28861 -0.04241
#
# Static dielectric constant tensor:
#      x y z
#    x 2.080180 0.081470 0.018840 
#    y 0.081470 1.966880 -0.051890 
#    z 0.018840 -0.051890 1.870350 
# 
# From -- ./inp_files/28196.got.cif
#   From: 2010.05.17/outbox.cif.g08.bks.cpg/sg2_15_cif.got.tgz:28196.got - 2010.06.03 11:33:40.
