data_PCOD9064224
_publ_section_title
;
Structure prediction by ZEFSAII (Michael W. Deem and Ramdas Pophale) SiO2 
 PCOD9064224
Probable space group: P -1
;
_chemical_formula_sum "Si O2"
_cell_formula_units_Z 14
_cell_length_a 11.258809
_cell_length_b 14.220456
_cell_length_c 6.619939
_cell_angle_alpha 129.998937
_cell_angle_beta 121.284115
_cell_angle_gamma 47.200079
_cell_volume 589.280051
_symmetry_space_group_name_H-M "P -1"
_symmetry_group_IT_number 2
_symmetry_cell_setting 'triclinic'
loop_
_space_group_symop_operation_xyz
x,y,z
-x,-y,-z
loop_
_atom_site_type_symbol
_atom_site_label
_atom_site_fract_x
_atom_site_fract_y
_atom_site_fract_z
Si Si1 0.658643 0.594432 0.274262
Si Si2 0.100499 0.393551 0.759956
Si Si3 0.113292 0.929514 0.313598
Si Si4 0.047943 0.795181 0.719092
Si Si5 0.570925 0.896507 0.224378
Si Si6 0.591924 0.401533 0.252125
Si Si7 0.431243 0.861186 0.681732
O O1 0.834950 0.540382 0.258701
O O2 0.642565 0.487004 0.260884
O O3 0.598553 0.738197 0.554179
O O4 0.530546 0.627416 0.023647
O O5 0.270790 0.255006 0.793525
O O6 0.998896 0.324044 0.500060
O O7 0.000000 0.500000 0.000000
O O8 0.295258 0.835627 0.432620
O O9 0.057731 0.837465 0.014075
O O10 0.000000 0.000000 0.500000
O O11 0.081418 0.059421 0.314511
O O12 0.231904 0.734523 0.716165
O O13 0.500000 0.000000 0.500000
O O14 0.616665 0.983319 0.229541
O O15 0.449205 0.866920 0.945397
O O16 0.500000 0.500000 0.500000
#
# Coordination Sequence:
#
# PCOD9064224 Si02
#       7
#     2   2   2   2   2   2   2
#     4  11  26  46  73 109 142 197 257 300 369 459
#     4  12  27  48  74 112 159 198 245 321 386 443
#     4  11  26  43  75 106 146 194 247 311 370 442
#     4  11  26  47  71 109 150 191 245 308 379 442
#     4  11  25  45  75 104 146 191 250 309 374 449
#     4  11  26  47  73 102 146 198 245 304 371 454
#     4  11  24  45  72 106 136 196 257 306 367 446
#
# _framework density 23.757802999999999
#
# number of rings (size 3 to 8) (size 9 to 14) (size 15 to 20)
#    0.000    0.857    4.286    0.857    8.000    1.714 
#    0.000    0.000    0.000    0.000    0.000    0.000 
#    0.000    0.000    0.000    0.000    0.000    0.000 
#
# Total GULP energy -78365.894716 kJ/mol
# GULP energy per Si atom -5597.563908 kJ/mol
# Density = 2.370373 g / cm^3
# Si number density = 23.757803 Si / 1000 Ang^3
#
#
#
# Elastic Constant Matrix: (Units=GPa)
#
#
# Indices 1 2 3 4 5 6 
#
# 1 130.1875 19.9481 81.0342 4.7933 -5.8566 -4.1115
# 2 19.9481 80.2153 43.6815 -4.9466 -6.7974 -9.5816
# 3 81.0342 43.6815 230.3488 -2.9410 -6.6404 -15.4220
# 4 4.7933 -4.9466 -2.9410 43.5538 -8.9323 1.7702
# 5 -5.8566 -6.7974 -6.6404 -8.9323 50.4606 8.9660
# 6 -4.1115 -9.5816 -15.4220 1.7702 8.9660 41.6270
#
#
#
# Elastic Compliance Matrix: (Units=1/GPa)
#
#
# Indices 1 2 3 4 5 6 
#
# 1 0.009964 -0.000723 -0.003404 -0.001292 0.000469 -0.000489
# 2 -0.000723 0.014358 -0.002269 0.001787 0.001514 0.001991
# 3 -0.003404 -0.002269 0.006065 0.000456 -0.000068 0.001384
# 4 -0.001292 0.001787 0.000456 0.024376 0.004751 -0.001607
# 5 0.000469 0.001514 -0.000068 0.004751 0.021709 -0.004508
# 6 -0.000489 0.001991 0.001384 -0.001607 -0.004508 0.025985
#
#
# Mechanical properties :
#
#
# Convention : Reuss Voigt Hill
#
# Bulk Modulus (GPa) = 56.82874 81.11990 68.97432
# Shear Modulus (GPa) = 41.28373 46.86747 44.07560
#
# Velocity S-wave (km/s) = 4.17308 4.44635 4.31188
# Velocity P-wave (km/s) = 6.86961 7.78323 7.34065
#
# Compressibility (1/GPa) = 0.01759673
#
# Stress axis : x y z
#
# Youngs Moduli (GPa) = 100.36207 69.64802 164.86811
#
# Poissons Ratio (x) = 0.05033 0.56119
# Poissons Ratio (y) = 0.07252 0.37405
# Poissons Ratio (z) = 0.34162 0.15801
#
# Static dielectric constant tensor:
#      x y z
#    x 1.902540 0.034080 0.035640 
#    y 0.034080 2.020820 -0.047370 
#    z 0.035640 -0.047370 1.905260 
# 
# From -- ./inp_files/78830.got.cif
#   From: 2010.05.17/outbox.cif.g08.bks.cpg/sg2_40_cif.got.tgz:78830.got - 2010.06.03 11:33:40.
