data_PCOD9064463
_publ_section_title
;
Structure prediction by ZEFSAII (Michael W. Deem and Ramdas Pophale) SiO2 
 PCOD9064463
Probable space group: P -1
;
_chemical_formula_sum "Si O2"
_cell_formula_units_Z 15
_cell_length_a 10.370521
_cell_length_b 9.845005
_cell_length_c 9.818656
_cell_angle_alpha 135.134559
_cell_angle_beta 120.973950
_cell_angle_gamma 76.209858
_cell_volume 592.951429
_symmetry_space_group_name_H-M "P -1"
_symmetry_group_IT_number 2
_symmetry_cell_setting 'triclinic'
loop_
_space_group_symop_operation_xyz
x,y,z
-x,-y,-z
loop_
_atom_site_type_symbol
_atom_site_label
_atom_site_fract_x
_atom_site_fract_y
_atom_site_fract_z
Si Si1 0.500000 0.500000 0.500000
Si Si2 0.322967 0.481665 0.922237
Si Si3 0.601129 0.911328 0.692325
Si Si4 0.312503 0.054216 0.551112
Si Si5 0.118785 0.532176 0.377415
Si Si6 0.011606 0.800980 0.289036
Si Si7 0.711186 0.582880 0.847602
Si Si8 0.149961 0.742425 0.828979
O O1 0.548280 0.692477 0.560171
O O2 0.556930 0.650672 0.777408
O O3 0.258288 0.248156 0.711594
O O4 0.244440 0.602315 0.860578
O O5 0.500000 0.500000 0.000000
O O6 0.306239 0.538842 0.110240
O O7 0.639275 0.907499 0.550585
O O8 0.455074 0.017079 0.691431
O O9 0.752601 0.039537 0.937902
O O10 0.173211 0.867936 0.349078
O O11 0.029184 0.624710 0.275842
O O12 0.275738 0.512770 0.366714
O O13 0.141299 0.680983 0.622294
O O14 0.019260 0.330135 0.244210
O O15 0.000000 0.000000 0.500000
O O16 0.871163 0.733133 0.061796
#
# Coordination Sequence:
#
# PCOD9064463 Si02
#       8
#     1   2   2   2   2   2   2   2
#     4  12  30  48  70 116 150 194 254 314 384 438
#     4  12  24  45  76 109 153 197 253 309 379 452
#     4  11  26  47  77 106 154 198 254 314 383 447
#     4  11  24  45  76 113 143 200 258 303 373 468
#     4  11  26  46  74 112 155 195 259 309 388 449
#     4  12  24  45  74 109 147 201 252 307 377 451
#     4  12  27  47  75 104 153 201 243 319 372 451
#     4  11  25  47  76 112 153 204 247 322 376 456
#
# _framework density 25.297179
#
# number of rings (size 3 to 8) (size 9 to 14) (size 15 to 20)
#    0.000    0.533    4.000    2.800    9.333    0.000 
#    0.000    3.333    0.000    0.000    0.000    0.000 
#    0.000    0.000    0.000    0.000    0.000    0.000 
#
# Total GULP energy -83782.736736 kJ/mol
# GULP energy per Si atom -5585.515782 kJ/mol
# Density = 2.523960 g / cm^3
# Si number density = 25.297179 Si / 1000 Ang^3
#
#
#
# Elastic Constant Matrix: (Units=GPa)
#
#
# Indices 1 2 3 4 5 6 
#
# 1 111.1900 36.3338 47.1632 12.8948 9.6625 31.6960
# 2 36.3338 98.1511 48.3484 -11.7873 1.1059 17.8652
# 3 47.1632 48.3484 156.0768 -9.9684 26.9658 19.1264
# 4 12.8948 -11.7873 -9.9684 46.5211 3.6776 6.6207
# 5 9.6625 1.1059 26.9658 3.6776 45.8864 11.1191
# 6 31.6960 17.8652 19.1264 6.6207 11.1191 50.1922
#
#
#
# Elastic Compliance Matrix: (Units=1/GPa)
#
#
# Indices 1 2 3 4 5 6 
#
# 1 0.013233 -0.003007 -0.002735 -0.004237 0.000645 -0.005828
# 2 -0.003007 0.013851 -0.003229 0.003857 0.002587 -0.002882
# 3 -0.002735 -0.003229 0.009222 0.002287 -0.004989 0.000166
# 4 -0.004237 0.003857 0.002287 0.024630 -0.001940 -0.002387
# 5 0.000645 0.002587 -0.004989 -0.001940 0.025870 -0.004902
# 6 -0.005828 -0.002882 0.000166 -0.002387 -0.004902 0.025967
#
#
# Mechanical properties :
#
#
# Convention : Reuss Voigt Hill
#
# Bulk Modulus (GPa) = 54.45772 69.90099 62.17935
# Shear Modulus (GPa) = 36.53995 44.09145 40.31570
#
# Velocity S-wave (km/s) = 3.80469 4.17938 3.99643
# Velocity P-wave (km/s) = 6.39334 7.14014 6.77703
#
# Compressibility (1/GPa) = 0.01836287
#
# Stress axis : x y z
#
# Youngs Moduli (GPa) = 75.56863 72.19803 108.44022
#
# Poissons Ratio (x) = 0.21707 0.29662
# Poissons Ratio (y) = 0.22720 0.35020
# Poissons Ratio (z) = 0.20670 0.23316
#
# Static dielectric constant tensor:
#      x y z
#    x 3.212740 -0.664580 0.645590 
#    y -0.664580 2.365750 -0.349250 
#    z 0.645590 -0.349250 2.386450 
# 
# From -- ./inp_files/246216.got.cif
#   From: 2010.05.17/outbox.cif.g08.bks.cpg/sg2_124_cif.got.tgz:246216.got - 2010.06.03 11:33:40.
