data_PCOD9064075
_publ_section_title
;
Structure prediction by ZEFSAII (Michael W. Deem and Ramdas Pophale) SiO2 
 PCOD9064075
Probable space group: P -1
;
_chemical_formula_sum "Si O2"
_cell_formula_units_Z 14
_cell_length_a 11.693198
_cell_length_b 8.040248
_cell_length_c 8.064079
_cell_angle_alpha 57.351726
_cell_angle_beta 112.468988
_cell_angle_gamma 95.165926
_cell_volume 583.295379
_symmetry_space_group_name_H-M "P -1"
_symmetry_group_IT_number 2
_symmetry_cell_setting 'triclinic'
loop_
_space_group_symop_operation_xyz
x,y,z
-x,-y,-z
loop_
_atom_site_type_symbol
_atom_site_label
_atom_site_fract_x
_atom_site_fract_y
_atom_site_fract_z
Si Si1 0.681795 0.882203 0.051125
Si Si2 0.420957 0.757438 0.955058
Si Si3 0.203054 0.806793 0.586219
Si Si4 0.834911 0.531649 0.511029
Si Si5 0.074272 0.530944 0.858463
Si Si6 0.731912 0.849974 0.742495
Si Si7 0.611754 0.570637 0.631390
O O1 0.795266 0.735638 0.275636
O O2 0.635422 0.052036 0.067335
O O3 0.568446 0.754577 0.030734
O O4 0.698666 0.970618 0.829942
O O5 0.349224 0.771400 0.735161
O O6 0.387641 0.569479 0.134999
O O7 0.179972 0.654575 0.512415
O O8 0.126799 0.738003 0.737757
O O9 0.181419 0.032085 0.387393
O O10 0.735032 0.537094 0.602832
O O11 0.973275 0.511665 0.670744
O O12 0.189931 0.352654 0.031323
O O13 0.000000 0.500000 0.000000
O O14 0.620075 0.788308 0.599839
O O15 0.500000 0.500000 0.500000
#
# Coordination Sequence:
#
# PCOD9064075 Si02
#       7
#     2   2   2   2   2   2   2
#     4  11  25  44  73 105 145 186 240 296 354 426
#     4  11  24  45  70 107 145 187 238 296 358 420
#     4  12  27  46  75 105 143 191 236 294 359 420
#     4  12  24  47  72 104 145 186 239 295 352 422
#     4  12  26  50  73 104 145 187 242 294 351 425
#     4  12  27  48  72 109 144 188 241 292 358 423
#     4  12  24  44  72 104 145 191 233 295 357 420
#
# _framework density 24.001562
#
# number of rings (size 3 to 8) (size 9 to 14) (size 15 to 20)
#    0.000    0.286    5.714    2.143    4.000    2.857 
#    2.571    0.000    0.000    0.000    0.000    0.000 
#    0.000    0.000    0.000    0.000    0.000    0.000 
#
# Total GULP energy -78306.564845 kJ/mol
# GULP energy per Si atom -5593.326060 kJ/mol
# Density = 2.394693 g / cm^3
# Si number density = 24.001562 Si / 1000 Ang^3
#
#
#
# Elastic Constant Matrix: (Units=GPa)
#
#
# Indices 1 2 3 4 5 6 
#
# 1 61.3874 13.5224 35.1292 -0.9389 -12.1697 10.7846
# 2 13.5224 98.7282 47.6727 8.7995 8.0256 22.9693
# 3 35.1292 47.6727 105.6091 0.0908 -5.4227 24.6661
# 4 -0.9389 8.7995 0.0908 47.2685 19.2857 -7.5594
# 5 -12.1697 8.0256 -5.4227 19.2857 50.5567 0.0218
# 6 10.7846 22.9693 24.6661 -7.5594 0.0218 26.7087
#
#
#
# Elastic Compliance Matrix: (Units=1/GPa)
#
#
# Indices 1 2 3 4 5 6 
#
# 1 0.021458 0.000899 -0.006232 -0.002623 0.005357 -0.004429
# 2 0.000899 0.015115 -0.004850 -0.003887 -0.001216 -0.009982
# 3 -0.006232 -0.004850 0.015702 -0.001116 0.001383 -0.008131
# 4 -0.002623 -0.003887 -0.001116 0.028478 -0.011003 0.013501
# 5 0.005357 -0.001216 0.001383 -0.011003 0.025610 -0.005530
# 6 -0.004429 -0.009982 -0.008131 0.013501 -0.005530 0.059149
#
#
# Mechanical properties :
#
#
# Convention : Reuss Voigt Hill
#
# Bulk Modulus (GPa) = 31.33809 50.93038 41.13424
# Shear Modulus (GPa) = 25.44345 36.20014 30.82179
#
# Velocity S-wave (km/s) = 3.25941 3.88782 3.58740
# Velocity P-wave (km/s) = 5.22016 6.43578 5.85958
#
# Compressibility (1/GPa) = 0.03191005
#
# Stress axis : x y z
#
# Youngs Moduli (GPa) = 46.60264 66.15883 63.68599
#
# Poissons Ratio (x) = -0.05946 0.39687
# Poissons Ratio (y) = -0.04189 0.30886
# Poissons Ratio (z) = 0.29041 0.32085
#
# Static dielectric constant tensor:
#      x y z
#    x 1.956320 -0.051910 -0.026930 
#    y -0.051910 1.915520 0.018150 
#    z -0.026930 0.018150 1.941110 
# 
# From -- ./inp_files/242270.got.cif
#   From: 2010.05.17/outbox.cif.g08.bks.cpg/sg2_122_cif.got.tgz:242270.got - 2010.06.03 11:33:40.
