data_PCOD9064371
_publ_section_title
;
Structure prediction by ZEFSAII (Michael W. Deem and Ramdas Pophale) SiO2 
 PCOD9064371
Probable space group: P -1
;
_chemical_formula_sum "Si O2"
_cell_formula_units_Z 14
_cell_length_a 13.508989
_cell_length_b 11.686541
_cell_length_c 11.804221
_cell_angle_alpha 108.416997
_cell_angle_beta 111.252989
_cell_angle_gamma 21.990097
_cell_volume 649.260317
_symmetry_space_group_name_H-M "P -1"
_symmetry_group_IT_number 2
_symmetry_cell_setting 'triclinic'
loop_
_space_group_symop_operation_xyz
x,y,z
-x,-y,-z
loop_
_atom_site_type_symbol
_atom_site_label
_atom_site_fract_x
_atom_site_fract_y
_atom_site_fract_z
Si Si1 0.862168 0.076899 0.859593
Si Si2 0.047375 0.084675 0.588492
Si Si3 0.561019 0.049631 0.619151
Si Si4 0.624424 0.530795 0.750818
Si Si5 0.239932 0.075539 0.122066
Si Si6 0.359972 0.274648 0.011577
Si Si7 0.983660 0.253777 0.373577
O O1 0.672594 0.374400 0.814491
O O2 0.754401 0.064189 0.864363
O O3 0.022740 0.855705 0.746864
O O4 0.000000 0.000000 0.000000
O O5 0.960310 0.253123 0.496861
O O6 0.875581 0.281425 0.692172
O O7 0.360085 0.776997 0.647259
O O8 0.000000 0.000000 0.500000
O O9 0.275033 0.396795 0.652660
O O10 0.500000 0.000000 0.500000
O O11 0.732412 0.855293 0.744326
O O12 0.736955 0.966256 0.599486
O O13 0.587697 0.694269 0.851018
O O14 0.958855 0.392037 0.040884
O O15 0.488864 0.824777 0.063190
O O16 0.500000 0.000000 0.000000
#
# Coordination Sequence:
#
# PCOD9064371 Si02
#       7
#     2   2   2   2   2   2   2
#     4  11  24  45  74 106 142 177 234 287 354 411
#     4  12  26  45  69 102 147 176 230 279 344 417
#     4  11  25  45  71 101 137 180 236 279 348 402
#     4  12  27  44  73 105 137 193 227 283 354 409
#     4  11  25  45  72 102 138 180 227 300 341 408
#     4  12  27  48  69 101 140 182 238 281 346 415
#     4  11  25  44  70 106 136 184 227 287 341 409
#
# _framework density 21.562999999999999
#
# number of rings (size 3 to 8) (size 9 to 14) (size 15 to 20)
#    0.000    0.571    2.857    4.714    4.000    5.143 
#    0.000    0.000    0.000    0.000    0.000    0.000 
#    0.000    0.000    0.000    0.000    0.000    0.000 
#
# Total GULP energy -78253.790333 kJ/mol
# GULP energy per Si atom -5589.556452 kJ/mol
# Density = 2.151392 g / cm^3
# Si number density = 21.563000 Si / 1000 Ang^3
#
#
#
# Elastic Constant Matrix: (Units=GPa)
#
#
# Indices 1 2 3 4 5 6 
#
# 1 50.1196 0.8189 24.1431 11.4224 0.5539 4.4375
# 2 0.8189 57.9587 2.8459 3.1400 16.7612 6.9085
# 3 24.1431 2.8459 100.9515 7.8896 20.7334 15.1575
# 4 11.4224 3.1400 7.8896 44.1977 3.7820 4.3241
# 5 0.5539 16.7612 20.7334 3.7820 45.5722 1.2155
# 6 4.4375 6.9085 15.1575 4.3241 1.2155 32.7446
#
#
#
# Elastic Compliance Matrix: (Units=1/GPa)
#
#
# Indices 1 2 3 4 5 6 
#
# 1 0.024015 -0.000687 -0.005983 -0.005382 0.003123 0.000255
# 2 -0.000687 0.020105 0.002013 -0.000452 -0.008139 -0.004719
# 3 -0.005983 0.002013 0.013483 0.000117 -0.006662 -0.005623
# 4 -0.005382 -0.000452 0.000117 0.024414 -0.001784 -0.002387
# 5 0.003123 -0.008139 -0.006662 -0.001784 0.027982 0.003574
# 6 0.000255 -0.004719 -0.005623 -0.002387 0.003574 0.034286
#
#
# Mechanical properties :
#
#
# Convention : Reuss Voigt Hill
#
# Bulk Modulus (GPa) = 20.70890 29.40508 25.05699
# Shear Modulus (GPa) = 29.46440 36.58436 33.02438
#
# Velocity S-wave (km/s) = 3.70054 4.12348 3.91772
# Velocity P-wave (km/s) = 5.28047 6.02804 5.66660
#
# Compressibility (1/GPa) = 0.04828842
#
# Stress axis : x y z
#
# Youngs Moduli (GPa) = 41.64066 49.73863 74.16619
#
# Poissons Ratio (x) = 0.03419 0.44373
# Poissons Ratio (y) = 0.02862 -0.14929
# Poissons Ratio (z) = 0.24913 -0.10012
#
# Static dielectric constant tensor:
#      x y z
#    x 1.797440 0.025690 -0.024670 
#    y 0.025690 1.756040 -0.008270 
#    z -0.024670 -0.008270 1.805760 
# 
# From -- ./inp_files/433640.got.cif
#   From: 2010.05.17/outbox.cif.g08.bks.cpg/sg2_217_cif.got.tgz:433640.got - 2010.06.03 11:33:40.
