data_PCOD9064403
_publ_section_title
;
Structure prediction by ZEFSAII (Michael W. Deem and Ramdas Pophale) SiO2 
 PCOD9064403
Probable space group: P -1
;
_chemical_formula_sum "Si O2"
_cell_formula_units_Z 14
_cell_length_a 12.382915
_cell_length_b 20.677235
_cell_length_c 8.605000
_cell_angle_alpha 40.977213
_cell_angle_beta 59.629729
_cell_angle_gamma 29.488485
_cell_volume 627.912770
_symmetry_space_group_name_H-M "P -1"
_symmetry_group_IT_number 2
_symmetry_cell_setting 'triclinic'
loop_
_space_group_symop_operation_xyz
x,y,z
-x,-y,-z
loop_
_atom_site_type_symbol
_atom_site_label
_atom_site_fract_x
_atom_site_fract_y
_atom_site_fract_z
Si Si1 0.613928 0.137837 0.678788
Si Si2 0.518770 0.881864 0.780924
Si Si3 0.434409 0.545038 0.286633
Si Si4 0.091405 0.905933 0.281841
Si Si5 0.098057 0.197416 0.762665
Si Si6 0.580268 0.213706 0.216068
Si Si7 0.133788 0.445313 0.655705
O O1 0.842499 0.045980 0.745494
O O2 0.532790 0.216575 0.421923
O O3 0.392396 0.312193 0.642321
O O4 0.713165 0.958648 0.951660
O O5 0.551392 0.767569 0.846668
O O6 0.500000 0.000000 0.500000
O O7 0.261336 0.048435 0.766875
O O8 0.762733 0.709043 0.025993
O O9 0.500000 0.500000 0.500000
O O10 0.662491 0.326374 0.454808
O O11 0.166646 0.674244 0.241947
O O12 0.448859 0.648581 0.032868
O O13 0.867608 0.000822 0.351260
O O14 0.000000 0.000000 0.000000
O O15 0.032442 0.356917 0.505286
O O16 0.000000 0.500000 0.500000
#
# Coordination Sequence:
#
# PCOD9064403 Si02
#       7
#     2   2   2   2   2   2   2
#     4  11  25  44  69 105 142 179 231 287 352 410
#     4  11  28  49  70 103 141 183 239 289 346 415
#     4  12  22  39  71 100 137 181 225 277 350 415
#     4  12  22  42  67 101 142 180 224 276 349 417
#     4  11  24  45  74  97 140 184 228 288 347 416
#     4  12  26  42  70 105 142 181 227 290 350 417
#     4  11  26  48  74 100 136 189 240 283 349 419
#
# _framework density 22.29609
#
# number of rings (size 3 to 8) (size 9 to 14) (size 15 to 20)
#    0.000    0.571    4.286    3.857    4.000    3.429 
#    2.571    0.000    0.000    0.000    0.000    0.000 
#    0.000    0.000    0.000    0.000    0.000    0.000 
#
# Total GULP energy -78104.126261 kJ/mol
# GULP energy per Si atom -5578.866162 kJ/mol
# Density = 2.224534 g / cm^3
# Si number density = 22.296090 Si / 1000 Ang^3
#
#
#
# Elastic Constant Matrix: (Units=GPa)
#
#
# Indices 1 2 3 4 5 6 
#
# 1 68.7148 -11.3094 41.3155 -11.0563 -1.2871 5.1100
# 2 -11.3094 43.1337 35.8787 -8.4632 -13.3037 14.3128
# 3 41.3155 35.8787 177.2157 -9.4808 -18.5210 15.0085
# 4 -11.0563 -8.4632 -9.4808 42.6519 5.0183 -3.1957
# 5 -1.2871 -13.3037 -18.5210 5.0183 32.4153 -1.2387
# 6 5.1100 14.3128 15.0085 -3.1957 -1.2387 29.0628
#
#
#
# Elastic Compliance Matrix: (Units=1/GPa)
#
#
# Indices 1 2 3 4 5 6 
#
# 1 0.023905 0.017484 -0.007830 0.007069 0.002255 -0.007896
# 2 0.017484 0.048793 -0.010452 0.008895 0.012599 -0.020191
# 3 -0.007830 -0.010452 0.009476 -0.002027 0.001183 0.001458
# 4 0.007069 0.008895 -0.002027 0.026631 -0.001415 -0.001709
# 5 0.002255 0.012599 0.001183 -0.001415 0.036784 -0.005800
# 6 -0.007896 -0.020191 0.001458 -0.001709 -0.005800 0.044552
#
#
# Mechanical properties :
#
#
# Convention : Reuss Voigt Hill
#
# Bulk Modulus (GPa) = 12.41045 46.75930 29.58487
# Shear Modulus (GPa) = 22.87308 35.70462 29.28885
#
# Velocity S-wave (km/s) = 3.20641 4.00607 3.62834
# Velocity P-wave (km/s) = 4.39162 6.51273 5.55437
#
# Compressibility (1/GPa) = 0.08057723
#
# Stress axis : x y z
#
# Youngs Moduli (GPa) = 41.83169 20.49474 105.52738
#
# Poissons Ratio (x) = -0.35832 0.82632
# Poissons Ratio (y) = -0.73137 1.10297
# Poissons Ratio (z) = 0.32756 0.21421
#
# Static dielectric constant tensor:
#      x y z
#    x 2.016060 -0.146220 0.031200 
#    y -0.146220 1.872950 -0.016100 
#    z 0.031200 -0.016100 1.874780 
# 
# From -- ./inp_files/282713.got.cif
#   From: 2010.05.17/outbox.cif.g08.bks.cpg/sg2_142_cif.got.tgz:282713.got - 2010.06.03 11:33:40.
