data_PCOD9064685
_publ_section_title
;
Structure prediction by ZEFSAII (Michael W. Deem and Ramdas Pophale) SiO2 
 PCOD9064685
Probable space group: P -1
;
_chemical_formula_sum "Si O2"
_cell_formula_units_Z 14
_cell_length_a 8.650630
_cell_length_b 8.849815
_cell_length_c 10.598220
_cell_angle_alpha 67.064366
_cell_angle_beta 86.730264
_cell_angle_gamma 124.209704
_cell_volume 575.892939
_symmetry_space_group_name_H-M "P -1"
_symmetry_group_IT_number 2
_symmetry_cell_setting 'triclinic'
loop_
_space_group_symop_operation_xyz
x,y,z
-x,-y,-z
loop_
_atom_site_type_symbol
_atom_site_label
_atom_site_fract_x
_atom_site_fract_y
_atom_site_fract_z
Si Si1 0.537583 0.390507 0.849518
Si Si2 0.176672 0.807414 0.844205
Si Si3 0.727605 0.840393 0.817784
Si Si4 0.835031 0.496263 0.440980
Si Si5 0.438017 0.972557 0.367826
Si Si6 0.109053 0.609128 0.157661
Si Si7 0.187417 0.169838 0.729068
O O1 0.663497 0.640579 0.799093
O O2 0.691274 0.347446 0.815157
O O3 0.356934 0.301530 0.787086
O O4 0.428845 0.263703 0.025587
O O5 0.985608 0.594555 0.861481
O O6 0.371794 0.842522 0.781185
O O7 0.216957 0.012148 0.718971
O O8 0.163312 0.793398 0.000282
O O9 0.721489 0.998102 0.677786
O O10 0.947273 0.989241 0.825206
O O11 0.643310 0.264891 0.565828
O O12 0.798299 0.661139 0.413793
O O13 0.000000 0.500000 0.500000
O O14 0.930940 0.547325 0.278472
O O15 0.500000 0.000000 0.500000
#
# Coordination Sequence:
#
# PCOD9064685 Si02
#       7
#     2   2   2   2   2   2   2
#     4  11  25  43  75 112 144 187 245 306 356 432
#     4  11  26  46  77 106 143 190 247 301 363 423
#     4  11  24  46  71 110 150 187 241 302 369 422
#     4  12  28  47  69 102 151 189 243 296 364 437
#     4  12  24  48  72 102 144 201 234 292 372 439
#     4  11  25  48  73 108 145 189 246 301 357 440
#     4  12  27  45  73 110 144 191 244 303 361 431
#
# _framework density 24.310074
#
# number of rings (size 3 to 8) (size 9 to 14) (size 15 to 20)
#    0.000    0.571    5.714    1.286    6.000    1.143 
#    2.571    2.143    0.000    0.000    0.000    0.000 
#    0.000    0.000    0.000    0.000    0.000    0.000 
#
# Total GULP energy -78093.614832 kJ/mol
# GULP energy per Si atom -5578.115345 kJ/mol
# Density = 2.425474 g / cm^3
# Si number density = 24.310074 Si / 1000 Ang^3
#
#
#
# Elastic Constant Matrix: (Units=GPa)
#
#
# Indices 1 2 3 4 5 6 
#
# 1 107.1535 21.1596 29.3675 -6.1134 13.2600 28.5846
# 2 21.1596 85.0715 17.9373 -17.2828 13.0136 21.5129
# 3 29.3675 17.9373 72.3399 -7.9001 7.5313 17.3401
# 4 -6.1134 -17.2828 -7.9001 41.4317 -6.2046 -1.0086
# 5 13.2600 13.0136 7.5313 -6.2046 47.3703 -3.3218
# 6 28.5846 21.5129 17.3401 -1.0086 -3.3218 33.7918
#
#
#
# Elastic Compliance Matrix: (Units=1/GPa)
#
#
# Indices 1 2 3 4 5 6 
#
# 1 0.013332 0.000793 -0.002455 0.000935 -0.004202 -0.010907
# 2 0.000793 0.016388 -0.000607 0.005874 -0.004635 -0.011072
# 3 -0.002455 -0.000607 0.016940 0.002160 -0.002003 -0.006362
# 4 0.000935 0.005874 0.002160 0.027172 0.001009 -0.004728
# 5 -0.004202 -0.004635 -0.002003 0.001009 0.024711 0.009992
# 6 -0.010907 -0.011072 -0.006362 -0.004728 0.009992 0.049974
#
#
# Mechanical properties :
#
#
# Convention : Reuss Voigt Hill
#
# Bulk Modulus (GPa) = 23.74117 44.61041 34.17579
# Shear Modulus (GPa) = 29.92298 37.59211 33.75754
#
# Velocity S-wave (km/s) = 3.51221 3.93664 3.73047
# Velocity P-wave (km/s) = 5.12198 6.24926 5.71349
#
# Compressibility (1/GPa) = 0.04212092
#
# Stress axis : x y z
#
# Youngs Moduli (GPa) = 75.00968 61.02064 59.03153
#
# Poissons Ratio (x) = -0.04836 0.14490
# Poissons Ratio (y) = -0.05945 0.03585
# Poissons Ratio (z) = 0.18412 0.03706
#
# Static dielectric constant tensor:
#      x y z
#    x 2.118610 0.080340 -0.019570 
#    y 0.080340 2.009940 0.062170 
#    z -0.019570 0.062170 1.835060 
# 
# From -- ./inp_files/328639.got.cif
#   From: 2010.05.17/outbox.cif.g08.bks.cpg/sg2_165_cif.got.tgz:328639.got - 2010.06.03 11:33:40.
