data_PCOD9064838
_publ_section_title
;
Structure prediction by ZEFSAII (Michael W. Deem and Ramdas Pophale) SiO2 
 PCOD9064838
Probable space group: P -1
;
_chemical_formula_sum "Si O2"
_cell_formula_units_Z 16
_cell_length_a 23.367260
_cell_length_b 5.255697
_cell_length_c 17.633891
_cell_angle_alpha 92.615654
_cell_angle_beta 18.719341
_cell_angle_gamma 86.620568
_cell_volume 658.100239
_symmetry_space_group_name_H-M "P -1"
_symmetry_group_IT_number 2
_symmetry_cell_setting 'triclinic'
loop_
_space_group_symop_operation_xyz
x,y,z
-x,-y,-z
loop_
_atom_site_type_symbol
_atom_site_label
_atom_site_fract_x
_atom_site_fract_y
_atom_site_fract_z
Si Si1 0.983566 0.976249 0.223035
Si Si2 0.298751 0.476865 0.775092
Si Si3 0.089335 0.194544 0.536239
Si Si4 0.270610 0.640801 0.573858
Si Si5 0.294150 0.140121 0.917667
Si Si6 0.317239 0.505580 0.010662
Si Si7 0.295057 0.160610 0.634184
Si Si8 0.297293 0.591969 0.215780
O O1 0.885422 0.832793 0.404452
O O2 0.130836 0.753528 0.984393
O O3 0.849519 0.208551 0.344205
O O4 0.106396 0.093962 0.126276
O O5 0.500000 0.500000 0.500000
O O6 0.307105 0.380983 0.849783
O O7 0.255897 0.257580 0.770854
O O8 0.175063 0.417557 0.401046
O O9 0.870721 0.286345 0.786119
O O10 0.197905 0.906077 0.360708
O O11 0.206531 0.412948 0.693129
O O12 0.260022 0.887287 0.648569
O O13 0.482233 0.503808 0.275579
O O14 0.480209 0.904622 0.658609
O O15 0.301928 0.221154 0.995665
O O16 0.316995 0.537538 0.100725
O O17 0.500000 0.500000 0.000000
#
# Coordination Sequence:
#
# PCOD9064838 Si02
#       8
#     2   2   2   2   2   2   2   2
#     4  12  27  45  75 106 151 196 247 312 372 441
#     4  12  24  45  75 108 144 196 259 310 367 435
#     4  12  26  49  75 110 147 197 246 296 368 441
#     4  11  28  46  70 108 152 195 243 306 381 427
#     4  11  24  46  74 106 145 195 254 302 370 436
#     4  11  24  48  74 107 147 196 244 301 358 449
#     4  11  25  45  70 103 146 195 247 304 365 441
#     4  12  28  49  78 114 150 188 241 306 371 435
#
# _framework density 24.312405999999999
#
# number of rings (size 3 to 8) (size 9 to 14) (size 15 to 20)
#    0.000    0.500    2.500    5.250    3.500    6.000 
#    0.000    0.000    0.000    0.000    0.000    0.000 
#    0.000    0.000    0.000    0.000    0.000    0.000 
#
# Total GULP energy -89693.469995 kJ/mol
# GULP energy per Si atom -5605.841875 kJ/mol
# Density = 2.425707 g / cm^3
# Si number density = 24.312406 Si / 1000 Ang^3
#
#
#
# Elastic Constant Matrix: (Units=GPa)
#
#
# Indices 1 2 3 4 5 6 
#
# 1 129.0695 10.7046 56.9939 18.2371 3.2285 -8.3672
# 2 10.7046 100.9214 39.8189 9.7956 4.1101 -7.5820
# 3 56.9939 39.8189 119.1892 24.6559 -0.5820 1.8575
# 4 18.2371 9.7956 24.6559 38.4770 0.3016 2.0023
# 5 3.2285 4.1101 -0.5820 0.3016 45.3181 13.4239
# 6 -8.3672 -7.5820 1.8575 2.0023 13.4239 40.3738
#
#
#
# Elastic Compliance Matrix: (Units=1/GPa)
#
#
# Indices 1 2 3 4 5 6 
#
# 1 0.010461 0.001452 -0.005089 -0.002230 -0.001944 0.003432
# 2 0.001452 0.012018 -0.004572 -0.000986 -0.002307 0.003584
# 3 -0.005089 -0.004572 0.013415 -0.004884 0.001841 -0.002900
# 4 -0.002230 -0.000986 -0.004884 0.030534 0.000617 -0.002142
# 5 -0.001944 -0.002307 0.001841 0.000617 0.025197 -0.009329
# 6 0.003432 0.003584 -0.002900 -0.002142 -0.009329 0.029494
#
#
# Mechanical properties :
#
#
# Convention : Reuss Voigt Hill
#
# Bulk Modulus (GPa) = 51.34723 62.69054 57.01888
# Shear Modulus (GPa) = 34.71528 40.94463 37.82996
#
# Velocity S-wave (km/s) = 3.78283 4.10824 3.94889
# Velocity P-wave (km/s) = 6.34393 6.95305 6.65546
#
# Compressibility (1/GPa) = 0.01947525
#
# Stress axis : x y z
#
# Youngs Moduli (GPa) = 95.59697 83.21117 74.54170
#
# Poissons Ratio (x) = -0.12079 0.37932
# Poissons Ratio (y) = -0.13877 0.34081
# Poissons Ratio (z) = 0.48646 0.38045
#
# Static dielectric constant tensor:
#      x y z
#    x 1.906710 0.014540 -0.002320 
#    y 0.014540 1.972770 -0.019340 
#    z -0.002320 -0.019340 1.935870 
# 
# From -- ./inp_files/578720.got.cif
#   From: 2010.05.17/outbox.cif.g08.bks.cpg/sg2_290_cif.got.tgz:578720.got - 2010.06.03 11:33:40.
