data_PCOD9064142
_publ_section_title
;
Structure prediction by ZEFSAII (Michael W. Deem and Ramdas Pophale) SiO2 
 PCOD9064142
Probable space group: P -1
;
_chemical_formula_sum "Si O2"
_cell_formula_units_Z 14
_cell_length_a 9.151290
_cell_length_b 8.886000
_cell_length_c 11.825645
_cell_angle_alpha 119.806600
_cell_angle_beta 86.008096
_cell_angle_gamma 127.987206
_cell_volume 617.135558
_symmetry_space_group_name_H-M "P -1"
_symmetry_group_IT_number 2
_symmetry_cell_setting 'triclinic'
loop_
_space_group_symop_operation_xyz
x,y,z
-x,-y,-z
loop_
_atom_site_type_symbol
_atom_site_label
_atom_site_fract_x
_atom_site_fract_y
_atom_site_fract_z
Si Si1 0.180464 0.191494 0.983094
Si Si2 0.136188 0.277289 0.622068
Si Si3 0.473388 0.099900 0.930106
Si Si4 0.720912 0.108176 0.355242
Si Si5 0.902911 0.589454 0.100186
Si Si6 0.525055 0.395752 0.714590
Si Si7 0.835575 0.570013 0.574371
O O1 0.332290 0.445123 0.129864
O O2 0.309666 0.120280 0.942898
O O3 0.083759 0.215368 0.891451
O O4 0.000000 0.000000 0.000000
O O5 0.042111 0.330436 0.741587
O O6 0.344718 0.383989 0.702900
O O7 0.183227 0.400238 0.545443
O O8 0.000000 0.000000 0.500000
O O9 0.418050 0.949987 0.764294
O O10 0.676356 0.360801 0.014911
O O11 0.500000 0.000000 0.000000
O O12 0.792135 0.331661 0.503583
O O13 0.932861 0.205249 0.333348
O O14 0.592857 0.875063 0.350684
O O15 0.000000 0.500000 0.000000
O O16 0.670832 0.521851 0.645886
#
# Coordination Sequence:
#
# PCOD9064142 Si02
#       7
#     2   2   2   2   2   2   2
#     4  12  26  46  77 108 149 195 257 317 389 458
#     4  12  26  47  74 108 156 200 253 314 385 468
#     4  12  24  46  73 104 150 195 250 322 384 452
#     4  11  24  45  71 105 148 198 252 317 381 461
#     4  12  27  48  75 111 151 201 255 317 390 457
#     4  12  24  47  75 106 148 201 250 313 390 456
#     4  11  26  45  73 107 153 199 253 304 391 467
#
# _framework density 22.685454
#
# number of rings (size 3 to 8) (size 9 to 14) (size 15 to 20)
#    0.000    0.286    4.286    4.714    2.000    3.429 
#    0.000    0.000    0.000    0.000    0.000    0.000 
#    0.000    0.000    0.000    0.000    0.000    0.000 
#
# Total GULP energy -78182.670240 kJ/mol
# GULP energy per Si atom -5584.476446 kJ/mol
# Density = 2.263382 g / cm^3
# Si number density = 22.685454 Si / 1000 Ang^3
#
#
#
# Elastic Constant Matrix: (Units=GPa)
#
#
# Indices 1 2 3 4 5 6 
#
# 1 87.8836 26.5115 36.2307 -9.6552 -11.9544 1.2095
# 2 26.5115 132.9554 38.2738 -5.3784 4.7032 -3.6444
# 3 36.2307 38.2738 113.1266 -11.8367 0.9177 4.9652
# 4 -9.6552 -5.3784 -11.8367 42.2288 -1.6642 11.8987
# 5 -11.9544 4.7032 0.9177 -1.6642 39.4462 -6.0663
# 6 1.2095 -3.6444 4.9652 11.8987 -6.0663 44.0398
#
#
#
# Elastic Compliance Matrix: (Units=1/GPa)
#
#
# Indices 1 2 3 4 5 6 
#
# 1 0.014389 -0.001861 -0.003785 0.002197 0.004754 -0.000061
# 2 -0.001861 0.008643 -0.002390 -0.000311 -0.001410 0.000926
# 3 -0.003785 -0.002390 0.011237 0.002557 -0.001360 -0.002239
# 4 0.002197 -0.000311 0.002557 0.027023 0.000616 -0.007591
# 5 0.004754 -0.001410 -0.001360 0.000616 0.027561 0.003536
# 6 -0.000061 0.000926 -0.002239 -0.007591 0.003536 0.025575
#
#
# Mechanical properties :
#
#
# Convention : Reuss Voigt Hill
#
# Bulk Modulus (GPa) = 54.94990 59.55531 57.25260
# Shear Modulus (GPa) = 36.61229 40.67294 38.64262
#
# Velocity S-wave (km/s) = 4.02171 4.23887 4.13172
# Velocity P-wave (km/s) = 6.77057 7.08992 6.93209
#
# Compressibility (1/GPa) = 0.01819840
#
# Stress axis : x y z
#
# Youngs Moduli (GPa) = 69.49680 115.70063 88.98926
#
# Poissons Ratio (x) = 0.21528 0.33682
# Poissons Ratio (y) = 0.12931 0.21268
# Poissons Ratio (z) = 0.26304 0.27652
#
# Static dielectric constant tensor:
#      x y z
#    x 1.559570 -0.160150 0.206200 
#    y -0.160150 1.754190 0.071450 
#    z 0.206200 0.071450 1.720370 
# 
# From -- ./inp_files/383231.got.cif
#   From: 2010.05.17/outbox.cif.g08.bks.cpg/sg2_192_cif.got.tgz:383231.got - 2010.06.03 11:33:40.
