data_PCOD9064729
_publ_section_title
;
Structure prediction by ZEFSAII (Michael W. Deem and Ramdas Pophale) SiO2 
 PCOD9064729
Probable space group: P -1
;
_chemical_formula_sum "Si O2"
_cell_formula_units_Z 12
_cell_length_a 10.793036
_cell_length_b 12.969608
_cell_length_c 16.330386
_cell_angle_alpha 155.651435
_cell_angle_beta 143.778914
_cell_angle_gamma 42.694849
_cell_volume 556.906377
_symmetry_space_group_name_H-M "P -1"
_symmetry_group_IT_number 2
_symmetry_cell_setting 'triclinic'
loop_
_space_group_symop_operation_xyz
x,y,z
-x,-y,-z
loop_
_atom_site_type_symbol
_atom_site_label
_atom_site_fract_x
_atom_site_fract_y
_atom_site_fract_z
Si Si1 0.054301 0.537452 0.461665
Si Si2 0.208171 0.849023 0.409392
Si Si3 0.063156 0.557835 0.972159
Si Si4 0.419033 0.288048 0.368604
Si Si5 0.258917 0.431939 0.820133
Si Si6 0.279911 0.052562 0.964637
O O1 0.242113 0.385015 0.407394
O O2 0.000000 0.500000 0.500000
O O3 0.848250 0.490313 0.264714
O O4 0.128215 0.823137 0.700000
O O5 0.388651 0.802987 0.539170
O O6 0.993288 0.729703 0.244947
O O7 0.215577 0.137763 0.598329
O O8 0.218100 0.683525 0.211357
O O9 0.149862 0.574134 0.939666
O O10 0.842022 0.706207 0.960695
O O11 0.500000 0.500000 0.500000
O O12 0.323924 0.086025 0.108896
O O13 0.500000 0.500000 0.000000
O O14 0.500000 0.000000 0.000000
#
# Coordination Sequence:
#
# PCOD9064729 Si02
#       6
#     2   2   2   2   2   2
#     4  12  28  47  69 107 149 187 236 295 355 428
#     4  11  25  44  75 102 137 185 240 296 351 419
#     4  11  24  46  72 106 139 183 238 301 354 412
#     4  12  24  46  74 107 139 184 239 293 356 424
#     4  12  28  47  69 102 147 193 234 283 358 430
#     4  12  24  45  76 103 139 185 238 295 357 421
#
# _framework density 21.547606999999999
#
# number of rings (size 3 to 8) (size 9 to 14) (size 15 to 20)
#    0.000    0.333    6.667    0.500    4.667    5.333 
#    0.000    0.000    0.000    0.000    0.000    0.000 
#    0.000    0.000    0.000    0.000    0.000    0.000 
#
# Total GULP energy -67090.836942 kJ/mol
# GULP energy per Si atom -5590.903078 kJ/mol
# Density = 2.149856 g / cm^3
# Si number density = 21.547607 Si / 1000 Ang^3
#
#
#
# Elastic Constant Matrix: (Units=GPa)
#
#
# Indices 1 2 3 4 5 6 
#
# 1 160.4098 49.5653 28.0969 -17.0418 -16.9119 7.9365
# 2 49.5653 85.1168 8.3111 -30.7912 -13.3770 11.7459
# 3 28.0969 8.3111 76.7667 -26.9515 -19.7281 -0.4046
# 4 -17.0418 -30.7912 -26.9515 44.1971 13.3885 -11.5300
# 5 -16.9119 -13.3770 -19.7281 13.3885 40.5921 -11.2002
# 6 7.9365 11.7459 -0.4046 -11.5300 -11.2002 31.8496
#
#
#
# Elastic Compliance Matrix: (Units=1/GPa)
#
#
# Indices 1 2 3 4 5 6 
#
# 1 0.008273 -0.005335 -0.003313 -0.003043 0.000820 -0.000949
# 2 -0.005335 0.019900 0.005457 0.014480 0.002236 0.000088
# 3 -0.003313 0.005457 0.020833 0.014771 0.007633 0.007109
# 4 -0.003043 0.014480 0.014771 0.043657 -0.000630 0.011189
# 5 0.000820 0.002236 0.007633 -0.000630 0.032461 0.010255
# 6 -0.000949 0.000088 0.007109 0.011189 0.010255 0.039349
#
#
# Mechanical properties :
#
#
# Convention : Reuss Voigt Hill
#
# Bulk Modulus (GPa) = 23.46115 54.91552 39.18833
# Shear Modulus (GPa) = 27.01783 39.08241 33.05012
#
# Velocity S-wave (km/s) = 3.54484 4.26346 3.92065
# Velocity P-wave (km/s) = 5.25987 7.05529 6.22267
#
# Compressibility (1/GPa) = 0.04262366
#
# Stress axis : x y z
#
# Youngs Moduli (GPa) = 120.87604 50.25165 48.00072
#
# Poissons Ratio (x) = 0.26809 0.15903
# Poissons Ratio (y) = 0.64487 -0.26194
# Poissons Ratio (z) = 0.40046 -0.27422
#
# Static dielectric constant tensor:
#      x y z
#    x 1.706130 0.068180 -0.154450 
#    y 0.068180 1.747310 0.147720 
#    z -0.154450 0.147720 1.599320 
# 
# From -- ./inp_files/222801.got.cif
#   From: 2010.05.17/outbox.cif.g08.bks.cpg/sg2_112_cif.got.tgz:222801.got - 2010.06.03 11:33:40.
