data_PCOD9064792
_publ_section_title
;
Structure prediction by ZEFSAII (Michael W. Deem and Ramdas Pophale) SiO2 
 PCOD9064792
Probable space group: P -1
;
_chemical_formula_sum "Si O2"
_cell_formula_units_Z 16
_cell_length_a 9.099259
_cell_length_b 24.514309
_cell_length_c 9.393495
_cell_angle_alpha 48.387589
_cell_angle_beta 131.749240
_cell_angle_gamma 150.854376
_cell_volume 741.457646
_symmetry_space_group_name_H-M "P -1"
_symmetry_group_IT_number 2
_symmetry_cell_setting 'triclinic'
loop_
_space_group_symop_operation_xyz
x,y,z
-x,-y,-z
loop_
_atom_site_type_symbol
_atom_site_label
_atom_site_fract_x
_atom_site_fract_y
_atom_site_fract_z
Si Si1 0.271646 0.349115 0.449112
Si Si2 0.355506 0.176516 0.652954
Si Si3 0.068713 0.606102 0.856950
Si Si4 0.196406 0.606867 0.244233
Si Si5 0.514198 0.590907 0.834098
Si Si6 0.664561 0.770536 0.770387
Si Si7 0.188347 0.907473 0.367648
Si Si8 0.735041 0.017696 0.033582
O O1 0.577943 0.398123 0.625999
O O2 0.316955 0.347728 0.312300
O O3 0.210312 0.417318 0.310511
O O4 0.968260 0.217464 0.530466
O O5 0.655188 0.302507 0.692616
O O6 0.307026 0.185399 0.443003
O O7 0.071090 0.121582 0.663372
O O8 0.373905 0.095918 0.820590
O O9 0.337600 0.695344 0.762173
O O10 0.186281 0.651727 0.015665
O O11 0.000000 0.500000 0.000000
O O12 0.844553 0.485863 0.265295
O O13 0.673459 0.685510 0.894171
O O14 0.500000 0.500000 0.000000
O O15 0.930716 0.874125 0.866572
O O16 0.500000 0.000000 0.500000
O O17 0.248800 0.956255 0.166161
O O18 0.500000 0.000000 0.000000
#
# Coordination Sequence:
#
# PCOD9064792 Si02
#       8
#     2   2   2   2   2   2   2   2
#     4  11  25  44  73 102 142 188 238 291 348 437
#     4  11  26  47  73 100 139 191 232 294 347 439
#     4  12  26  45  69 108 147 187 229 302 363 412
#     4  11  24  46  73 106 140 191 249 280 360 426
#     4  12  23  44  75 103 141 195 238 293 344 437
#     4  12  25  47  69 106 147 180 236 295 366 414
#     4  11  25  46  75 101 134 190 241 283 351 430
#     4  12  29  45  71 110 140 181 234 301 368 413
#
# _framework density 21.579115999999999
#
# number of rings (size 3 to 8) (size 9 to 14) (size 15 to 20)
#    0.000    0.500    5.000    3.375    7.000    0.500 
#    0.000    1.250    0.000    0.000    0.000    0.000 
#    0.000    0.000    0.000    0.000    0.000    0.000 
#
# Total GULP energy -89514.964743 kJ/mol
# GULP energy per Si atom -5594.685296 kJ/mol
# Density = 2.153000 g / cm^3
# Si number density = 21.579116 Si / 1000 Ang^3
#
#
#
# Elastic Constant Matrix: (Units=GPa)
#
#
# Indices 1 2 3 4 5 6 
#
# 1 111.0370 30.8457 54.1488 -11.2626 1.1031 5.1711
# 2 30.8457 85.8866 44.8429 1.9669 10.2485 -8.3385
# 3 54.1488 44.8429 144.0131 -8.5486 -7.2153 -10.5816
# 4 -11.2626 1.9669 -8.5486 37.3798 -7.9050 -0.3355
# 5 1.1031 10.2485 -7.2153 -7.9050 53.4683 -6.6866
# 6 5.1711 -8.3385 -10.5816 -0.3355 -6.6866 36.5154
#
#
#
# Elastic Compliance Matrix: (Units=1/GPa)
#
#
# Indices 1 2 3 4 5 6 
#
# 1 0.012058 -0.002725 -0.003783 0.002827 -0.000250 -0.003446
# 2 -0.002725 0.015428 -0.004010 -0.003309 -0.003676 0.002043
# 3 -0.003783 -0.004010 0.010108 0.002023 0.002897 0.003098
# 4 0.002827 -0.003309 0.002023 0.029362 0.005273 0.000666
# 5 -0.000250 -0.003676 0.002897 0.005273 0.021076 0.003943
# 6 -0.003446 0.002043 0.003098 0.000666 0.003943 0.029966
#
#
# Mechanical properties :
#
#
# Convention : Reuss Voigt Hill
#
# Bulk Modulus (GPa) = 60.39348 66.73461 63.56404
# Shear Modulus (GPa) = 34.58930 39.54598 37.06764
#
# Velocity S-wave (km/s) = 4.00797 4.28554 4.14908
# Velocity P-wave (km/s) = 7.03322 7.44852 7.24385
#
# Compressibility (1/GPa) = 0.01655808
#
# Stress axis : x y z
#
# Youngs Moduli (GPa) = 82.93577 64.81593 98.93340
#
# Poissons Ratio (x) = 0.17660 0.37427
# Poissons Ratio (y) = 0.22597 0.39673
# Poissons Ratio (z) = 0.31375 0.25991
#
# Static dielectric constant tensor:
#      x y z
#    x 1.779010 -0.022140 0.016170 
#    y -0.022140 1.833750 0.002690 
#    z 0.016170 0.002690 1.795370 
# 
# From -- ./inp_files/226202.got.cif
#   From: 2010.05.17/outbox.cif.g08.bks.cpg/sg2_114_cif.got.tgz:226202.got - 2010.06.03 11:33:40.
