data_PCOD9064286
_publ_section_title
;
Structure prediction by ZEFSAII (Michael W. Deem and Ramdas Pophale) SiO2 
 PCOD9064286
Probable space group: P -1
;
_chemical_formula_sum "Si O2"
_cell_formula_units_Z 12
_cell_length_a 11.491564
_cell_length_b 14.222285
_cell_length_c 6.047121
_cell_angle_alpha 114.268866
_cell_angle_beta 87.425086
_cell_angle_gamma 42.306702
_cell_volume 498.876261
_symmetry_space_group_name_H-M "P -1"
_symmetry_group_IT_number 2
_symmetry_cell_setting 'triclinic'
loop_
_space_group_symop_operation_xyz
x,y,z
-x,-y,-z
loop_
_atom_site_type_symbol
_atom_site_label
_atom_site_fract_x
_atom_site_fract_y
_atom_site_fract_z
Si Si1 0.022383 0.651066 0.496065
Si Si2 0.532354 0.210166 0.493074
Si Si3 0.004958 0.115796 0.039579
Si Si4 0.297014 0.270762 0.229615
Si Si5 0.640697 0.976634 0.596911
Si Si6 0.590291 0.464543 0.204270
O O1 0.874138 0.693905 0.720007
O O2 0.216738 0.429955 0.253336
O O3 0.879595 0.767057 0.402996
O O4 0.062995 0.737792 0.654953
O O5 0.349365 0.272653 0.471269
O O6 0.441966 0.389860 0.660216
O O7 0.611702 0.109324 0.621089
O O8 0.750374 0.044510 0.180284
O O9 0.834266 0.251371 0.989204
O O10 0.000000 0.000000 0.000000
O O11 0.519833 0.072039 0.928302
O O12 0.500000 0.000000 0.500000
O O13 0.500000 0.500000 0.500000
O O14 0.500000 0.500000 0.000000
#
# Coordination Sequence:
#
# PCOD9064286 Si02
#       6
#     2   2   2   2   2   2
#     4  11  24  45  73 104 151 193 250 311 379 462
#     4  12  26  46  75 107 146 197 250 315 387 458
#     4  12  26  47  77 107 148 199 258 313 386 455
#     4  11  24  47  72 105 150 193 245 316 385 454
#     4  12  25  42  72 109 146 194 245 312 386 458
#     4  12  30  53  77 111 157 204 260 323 384 459
#
# _framework density 24.054064
#
# number of rings (size 3 to 8) (size 9 to 14) (size 15 to 20)
#    0.000    0.333    6.667    1.500    4.667    4.000 
#    0.000    0.000    0.000    0.000    0.000    0.000 
#    0.000    0.000    0.000    0.000    0.000    0.000 
#
# Total GULP energy -66928.718960 kJ/mol
# GULP energy per Si atom -5577.393247 kJ/mol
# Density = 2.399932 g / cm^3
# Si number density = 24.054064 Si / 1000 Ang^3
#
#
#
# Elastic Constant Matrix: (Units=GPa)
#
#
# Indices 1 2 3 4 5 6 
#
# 1 118.8961 49.0910 29.4583 -8.6755 18.9910 8.1686
# 2 49.0910 210.1312 15.5680 11.6567 19.0111 12.3834
# 3 29.4583 15.5680 42.2522 1.5993 8.4852 4.7527
# 4 -8.6755 11.6567 1.5993 40.7263 -1.8331 1.6585
# 5 18.9910 19.0111 8.4852 -1.8331 31.3619 -0.0383
# 6 8.1686 12.3834 4.7527 1.6585 -0.0383 61.9449
#
#
#
# Elastic Compliance Matrix: (Units=1/GPa)
#
#
# Indices 1 2 3 4 5 6 
#
# 1 0.011840 -0.002048 -0.006755 0.003227 -0.003913 -0.000722
# 2 -0.002048 0.005609 -0.000011 -0.002111 -0.002281 -0.000795
# 3 -0.006755 -0.000011 0.029439 -0.002720 -0.004028 -0.001295
# 4 0.003227 -0.002111 -0.002720 0.026044 0.001584 -0.000491
# 5 -0.003913 -0.002281 -0.004028 0.001584 0.036822 0.001261
# 6 -0.000722 -0.000795 -0.001295 -0.000491 0.001261 0.016511
#
#
# Mechanical properties :
#
#
# Convention : Reuss Voigt Hill
#
# Bulk Modulus (GPa) = 34.17819 62.16823 48.17321
# Shear Modulus (GPa) = 32.54219 45.28410 38.91315
#
# Velocity S-wave (km/s) = 3.68214 4.34360 4.02647
# Velocity P-wave (km/s) = 5.68483 7.14542 6.45656
#
# Compressibility (1/GPa) = 0.02925843
#
# Stress axis : x y z
#
# Youngs Moduli (GPa) = 84.45828 178.29820 33.96850
#
# Poissons Ratio (x) = 0.36516 0.22947
# Poissons Ratio (y) = 0.17297 0.00038
# Poissons Ratio (z) = 0.57056 0.00199
#
# Static dielectric constant tensor:
#      x y z
#    x 1.987920 -0.024570 0.006750 
#    y -0.024570 2.074170 -0.070120 
#    z 0.006750 -0.070120 2.050710 
# 
# From -- ./inp_files/73478.got.cif
#   From: 2010.05.17/outbox.cif.g08.bks.cpg/sg2_37_cif.got.tgz:73478.got - 2010.06.03 11:33:40.
