data_PCOD9064939
_publ_section_title
;
Structure prediction by ZEFSAII (Michael W. Deem and Ramdas Pophale) SiO2 
 PCOD9064939
Probable space group: P -1
;
_chemical_formula_sum "Si O2"
_cell_formula_units_Z 14
_cell_length_a 11.302501
_cell_length_b 8.137000
_cell_length_c 22.104603
_cell_angle_alpha 32.378311
_cell_angle_beta 146.927404
_cell_angle_gamma 135.701359
_cell_volume 593.852505
_symmetry_space_group_name_H-M "P -1"
_symmetry_group_IT_number 2
_symmetry_cell_setting 'triclinic'
loop_
_space_group_symop_operation_xyz
x,y,z
-x,-y,-z
loop_
_atom_site_type_symbol
_atom_site_label
_atom_site_fract_x
_atom_site_fract_y
_atom_site_fract_z
Si Si1 0.651129 0.888541 0.859571
Si Si2 0.513385 0.131545 0.396130
Si Si3 0.335885 0.200268 0.707953
Si Si4 0.982528 0.829406 0.858779
Si Si5 0.928664 0.958031 0.553145
Si Si6 0.039504 0.266670 0.848335
Si Si7 0.375511 0.785426 0.965332
O O1 0.467749 0.117402 0.730046
O O2 0.822649 0.080021 0.833894
O O3 0.561295 0.569590 0.892213
O O4 0.788678 0.779023 0.010786
O O5 0.580625 0.487468 0.323393
O O6 0.266800 0.097998 0.278681
O O7 0.500000 0.000000 0.500000
O O8 0.685244 0.998238 0.462875
O O9 0.393706 0.928269 0.862872
O O10 0.084847 0.191709 0.585341
O O11 0.118061 0.798271 0.865537
O O12 0.101250 0.088788 0.869467
O O13 0.000000 0.500000 0.000000
O O14 0.996705 0.616672 0.707136
O O15 0.000000 0.000000 0.500000
O O16 0.500000 0.000000 0.000000
#
# Coordination Sequence:
#
# PCOD9064939 Si02
#       7
#     2   2   2   2   2   2   2
#     4  11  24  46  76 111 143 191 242 316 378 447
#     4  12  29  52  75 105 152 208 254 300 379 459
#     4  12  27  46  75 107 151 190 249 313 377 438
#     4  12  26  47  76 108 143 193 247 307 370 450
#     4  12  30  48  74 109 152 204 253 312 371 446
#     4  11  25  46  75 102 152 187 253 297 378 447
#     4  12  25  42  74 114 151 182 241 317 388 436
#
# _framework density 23.574877000000001
#
# number of rings (size 3 to 8) (size 9 to 14) (size 15 to 20)
#    0.000    0.286    2.857    5.143   10.000    0.571 
#    0.000    0.000    0.000    0.000    0.000    0.000 
#    0.000    0.000    0.000    0.000    0.000    0.000 
#
# Total GULP energy -78395.628767 kJ/mol
# GULP energy per Si atom -5599.687769 kJ/mol
# Density = 2.352122 g / cm^3
# Si number density = 23.574877 Si / 1000 Ang^3
#
#
#
# Elastic Constant Matrix: (Units=GPa)
#
#
# Indices 1 2 3 4 5 6 
#
# 1 146.1061 9.5789 41.0495 1.3233 13.8236 13.2306
# 2 9.5789 101.7679 11.4662 -4.4226 -3.5168 -11.8071
# 3 41.0495 11.4662 74.3283 9.8880 1.5637 8.6775
# 4 1.3233 -4.4226 9.8880 45.2481 1.2540 1.4096
# 5 13.8236 -3.5168 1.5637 1.2540 44.7057 -3.1205
# 6 13.2306 -11.8071 8.6775 1.4096 -3.1205 38.0348
#
#
#
# Elastic Compliance Matrix: (Units=1/GPa)
#
#
# Indices 1 2 3 4 5 6 
#
# 1 0.008601 -0.000656 -0.004412 0.000801 -0.002750 -0.002444
# 2 -0.000656 0.010685 -0.001965 0.001329 0.001358 0.004055
# 3 -0.004412 -0.001965 0.016999 -0.003706 0.000526 -0.002773
# 4 0.000801 0.001329 -0.003706 0.023033 -0.000655 0.000072
# 5 -0.002750 0.001358 0.000526 -0.000655 0.023550 0.003215
# 6 -0.002444 0.004055 -0.002773 0.000072 0.003215 0.029295
#
#
# Mechanical properties :
#
#
# Convention : Reuss Voigt Hill
#
# Bulk Modulus (GPa) = 45.00687 49.59904 47.30296
# Shear Modulus (GPa) = 37.41526 42.93825 40.17675
#
# Velocity S-wave (km/s) = 3.98814 4.27236 4.13270
# Velocity P-wave (km/s) = 6.35134 6.73959 6.54834
#
# Compressibility (1/GPa) = 0.02221883
#
# Stress axis : x y z
#
# Youngs Moduli (GPa) = 116.26098 93.59269 58.82565
#
# Poissons Ratio (x) = 0.06142 0.25956
# Poissons Ratio (y) = 0.07630 0.11557
# Poissons Ratio (z) = 0.51299 0.18387
#
# Static dielectric constant tensor:
#      x y z
#    x 2.077920 -0.015530 0.013010 
#    y -0.015530 1.868300 0.028870 
#    z 0.013010 0.028870 1.865290 
# 
# From -- ./inp_files/280161.got.cif
#   From: 2010.05.17/outbox.cif.g08.bks.cpg/sg2_141_cif.got.tgz:280161.got - 2010.06.03 11:33:40.
