data_PCOD9064937
_publ_section_title
;
Structure prediction by ZEFSAII (Michael W. Deem and Ramdas Pophale) SiO2 
 PCOD9064937
Probable space group: P -1
;
_chemical_formula_sum "Si O2"
_cell_formula_units_Z 14
_cell_length_a 10.797389
_cell_length_b 11.832858
_cell_length_c 5.111170
_cell_angle_alpha 71.128644
_cell_angle_beta 97.282294
_cell_angle_gamma 123.650563
_cell_volume 513.235466
_symmetry_space_group_name_H-M "P -1"
_symmetry_group_IT_number 2
_symmetry_cell_setting 'triclinic'
loop_
_space_group_symop_operation_xyz
x,y,z
-x,-y,-z
loop_
_atom_site_type_symbol
_atom_site_label
_atom_site_fract_x
_atom_site_fract_y
_atom_site_fract_z
Si Si1 0.199136 0.840836 0.408383
Si Si2 0.946918 0.137754 0.155071
Si Si3 0.577951 0.360755 0.190823
Si Si4 0.469216 0.097419 0.097929
Si Si5 0.830503 0.430526 0.591839
Si Si6 0.236736 0.386559 0.262870
Si Si7 0.293442 0.184279 0.609507
O O1 0.124312 0.805110 0.698341
O O2 0.227443 0.734042 0.337152
O O3 0.097832 0.860489 0.157680
O O4 0.356132 0.989789 0.366532
O O5 0.122787 0.249201 0.157617
O O6 0.860869 0.970899 0.340548
O O7 0.710301 0.438359 0.377417
O O8 0.414701 0.264276 0.347235
O O9 0.600901 0.243201 0.145735
O O10 0.608219 0.483822 0.907796
O O11 0.383278 0.152873 0.865351
O O12 0.500000 0.000000 0.000000
O O13 0.839194 0.524959 0.766023
O O14 0.000000 0.500000 0.500000
O O15 0.259181 0.304739 0.565903
#
# Coordination Sequence:
#
# PCOD9064937 Si02
#       7
#     2   2   2   2   2   2   2
#     4  11  24  46  76 109 148 195 260 312 372 446
#     4  11  25  49  77 109 150 202 253 315 373 450
#     4  12  26  45  73 107 146 195 253 313 380 450
#     4  11  25  45  74 107 145 197 249 319 375 450
#     4  12  27  45  72 108 150 200 248 314 379 454
#     4  12  27  46  72 106 153 201 247 311 380 457
#     4  11  26  49  72 109 148 196 254 310 382 451
#
# _framework density 27.277929
#
# number of rings (size 3 to 8) (size 9 to 14) (size 15 to 20)
#    0.000    0.571    2.857    4.286    6.000    5.714 
#    0.000    2.143    0.000    0.000    0.000    0.000 
#    0.000    0.000    0.000    0.000    0.000    0.000 
#
# Total GULP energy -78259.278631 kJ/mol
# GULP energy per Si atom -5589.948474 kJ/mol
# Density = 2.721584 g / cm^3
# Si number density = 27.277929 Si / 1000 Ang^3
#
#
#
# Elastic Constant Matrix: (Units=GPa)
#
#
# Indices 1 2 3 4 5 6 
#
# 1 92.9389 41.5300 20.4433 -14.0402 -12.0693 4.6427
# 2 41.5300 203.8877 34.4759 -36.1594 4.1795 8.0084
# 3 20.4433 34.4759 61.9364 -7.3545 -1.8696 2.0688
# 4 -14.0402 -36.1594 -7.3545 41.6624 -6.0811 15.9036
# 5 -12.0693 4.1795 -1.8696 -6.0811 35.9349 3.3428
# 6 4.6427 8.0084 2.0688 15.9036 3.3428 35.9999
#
#
#
# Elastic Compliance Matrix: (Units=1/GPa)
#
#
# Indices 1 2 3 4 5 6 
#
# 1 0.013797 -0.001297 -0.002848 0.005547 0.005978 -0.004333
# 2 -0.001297 0.006964 -0.002490 0.006823 0.000177 -0.004269
# 3 -0.002848 -0.002490 0.018533 0.000331 0.000384 -0.000326
# 4 0.005547 0.006823 0.000331 0.041556 0.010124 -0.021551
# 5 0.005978 0.000177 0.000384 0.010124 0.032321 -0.008306
# 6 -0.004333 -0.004269 -0.000326 -0.021551 -0.008306 0.039597
#
#
# Mechanical properties :
#
#
# Convention : Reuss Voigt Hill
#
# Bulk Modulus (GPa) = 38.42647 61.29572 49.86110
# Shear Modulus (GPa) = 28.61823 40.20701 34.41262
#
# Velocity S-wave (km/s) = 3.24255 3.84340 3.55569
# Velocity P-wave (km/s) = 5.30438 6.49733 5.93092
#
# Compressibility (1/GPa) = 0.02602372
#
# Stress axis : x y z
#
# Youngs Moduli (GPa) = 72.48098 143.59362 53.95648
#
# Poissons Ratio (x) = 0.18627 0.15366
# Poissons Ratio (y) = 0.09402 0.13436
# Poissons Ratio (z) = 0.20642 0.35757
#
# Static dielectric constant tensor:
#      x y z
#    x 2.241650 0.034790 -0.005040 
#    y 0.034790 2.239270 0.078180 
#    z -0.005040 0.078180 2.183600 
# 
# From -- ./inp_files/69294.got.cif
#   From: 2010.05.17/outbox.cif.g08.bks.cpg/sg2_35_cif.got.tgz:69294.got - 2010.06.03 11:33:40.
