data_PCOD9064980
_publ_section_title
;
Structure prediction by ZEFSAII (Michael W. Deem and Ramdas Pophale) SiO2 
 PCOD9064980
Probable space group: P -1
;
_chemical_formula_sum "Si O2"
_cell_formula_units_Z 12
_cell_length_a 8.311341
_cell_length_b 7.197912
_cell_length_c 9.325566
_cell_angle_alpha 96.189369
_cell_angle_beta 51.161453
_cell_angle_gamma 88.582512
_cell_volume 428.937574
_symmetry_space_group_name_H-M "P -1"
_symmetry_group_IT_number 2
_symmetry_cell_setting 'triclinic'
loop_
_space_group_symop_operation_xyz
x,y,z
-x,-y,-z
loop_
_atom_site_type_symbol
_atom_site_label
_atom_site_fract_x
_atom_site_fract_y
_atom_site_fract_z
Si Si1 0.269512 0.970477 0.859216
Si Si2 0.037278 0.361118 0.100175
Si Si3 0.136442 0.018461 0.612990
Si Si4 0.186268 0.441650 0.500850
Si Si5 0.321537 0.891493 0.226680
Si Si6 0.613717 0.395850 0.083211
O O1 0.255730 0.993256 0.696095
O O2 0.481576 0.003782 0.829504
O O3 0.253951 0.757348 0.897926
O O4 0.102540 0.141733 0.017455
O O5 0.866651 0.423659 0.321292
O O6 0.257385 0.437249 0.022207
O O7 0.000000 0.500000 0.000000
O O8 0.171305 0.228001 0.551574
O O9 0.886858 0.011804 0.731324
O O10 0.234367 0.864085 0.431919
O O11 0.403441 0.445558 0.296125
O O12 0.000000 0.500000 0.500000
O O13 0.392716 0.721042 0.069140
#
# Coordination Sequence:
#
# PCOD9064980 Si02
#       6
#     2   2   2   2   2   2
#     4  12  26  50  84 113 164 210 265 333 395 482
#     4  12  28  53  75 120 165 203 267 335 394 477
#     4  11  25  48  75 120 156 207 268 328 398 471
#     4  12  27  49  74 116 163 203 268 331 393 478
#     4  11  24  46  78 113 157 208 260 326 395 466
#     4  12  28  51  82 120 154 218 270 319 413 476
#
# _framework density 27.976099000000001
#
# number of rings (size 3 to 8) (size 9 to 14) (size 15 to 20)
#    0.000    0.333    5.000    2.000    4.667    4.667 
#    3.000    1.667    0.000    0.000    0.000    0.000 
#    0.000    0.000    0.000    0.000    0.000    0.000 
#
# Total GULP energy -67181.451604 kJ/mol
# GULP energy per Si atom -5598.454300 kJ/mol
# Density = 2.791242 g / cm^3
# Si number density = 27.976099 Si / 1000 Ang^3
#
#
#
# Elastic Constant Matrix: (Units=GPa)
#
#
# Indices 1 2 3 4 5 6 
#
# 1 66.1618 37.1823 39.8193 9.7182 0.9645 -3.2491
# 2 37.1823 171.6403 75.3431 9.2649 7.5253 4.1076
# 3 39.8193 75.3431 242.4064 31.5440 9.1120 5.3302
# 4 9.7182 9.2649 31.5440 53.3752 -4.1663 -4.2416
# 5 0.9645 7.5253 9.1120 -4.1663 82.3503 -5.2146
# 6 -3.2491 4.1076 5.3302 -4.2416 -5.2146 44.5693
#
#
#
# Elastic Compliance Matrix: (Units=1/GPa)
#
#
# Indices 1 2 3 4 5 6 
#
# 1 0.018304 -0.003107 -0.001894 -0.001511 0.000313 0.001740
# 2 -0.003107 0.007294 -0.001755 0.000243 -0.000469 -0.000721
# 3 -0.001894 -0.001755 0.005370 -0.002646 -0.000605 -0.000941
# 4 -0.001511 0.000243 -0.002646 0.020834 0.001491 0.002341
# 5 0.000313 -0.000469 -0.000605 0.001491 0.012435 0.001735
# 6 0.001740 -0.000721 -0.000941 0.002341 0.001735 0.023169
#
#
# Mechanical properties :
#
#
# Convention : Reuss Voigt Hill
#
# Bulk Modulus (GPa) = 57.29135 87.21088 72.25111
# Shear Modulus (GPa) = 46.84433 57.91654 52.38044
#
# Velocity S-wave (km/s) = 4.09643 4.55490 4.33173
# Velocity P-wave (km/s) = 6.54962 7.67488 7.13447
#
# Compressibility (1/GPa) = 0.01745464
#
# Stress axis : x y z
#
# Youngs Moduli (GPa) = 54.63384 137.09316 186.23237
#
# Poissons Ratio (x) = 0.42600 0.35277
# Poissons Ratio (y) = 0.16977 0.32681
# Poissons Ratio (z) = 0.10349 0.24057
#
# Static dielectric constant tensor:
#      x y z
#    x 3.238190 1.050480 -0.116180 
#    y 1.050480 3.424180 -0.156200 
#    z -0.116180 -0.156200 2.191050 
# 
# From -- ./inp_files/147156.got.cif
#   From: 2010.05.17/outbox.cif.g08.bks.cpg/sg2_74_cif.got.tgz:147156.got - 2010.06.03 11:33:40.
