data_PCOD9064131
_publ_section_title
;
Structure prediction by ZEFSAII (Michael W. Deem and Ramdas Pophale) SiO2 
 PCOD9064131
Probable space group: P -1
;
_chemical_formula_sum "Si O2"
_cell_formula_units_Z 16
_cell_length_a 6.317274
_cell_length_b 14.761847
_cell_length_c 14.985287
_cell_angle_alpha 45.601519
_cell_angle_beta 51.565616
_cell_angle_gamma 47.342878
_cell_volume 704.754990
_symmetry_space_group_name_H-M "P -1"
_symmetry_group_IT_number 2
_symmetry_cell_setting 'triclinic'
loop_
_space_group_symop_operation_xyz
x,y,z
-x,-y,-z
loop_
_atom_site_type_symbol
_atom_site_label
_atom_site_fract_x
_atom_site_fract_y
_atom_site_fract_z
Si Si1 0.525238 0.106109 0.345139
Si Si2 0.650146 0.542712 0.024220
Si Si3 0.668045 0.931515 0.092897
Si Si4 0.683343 0.124168 0.105216
Si Si5 0.849990 0.450665 0.496394
Si Si6 0.901537 0.152307 0.464323
Si Si7 0.442525 0.351738 0.315121
Si Si8 0.635349 0.256318 0.643310
O O1 0.721862 0.050896 0.243009
O O2 0.589999 0.225501 0.292542
O O3 0.181153 0.184985 0.348156
O O4 0.500000 0.000000 0.500000
O O5 0.516544 0.478186 0.180029
O O6 0.500000 0.500000 0.000000
O O7 0.513297 0.710771 0.942793
O O8 0.000000 0.500000 0.000000
O O9 0.585943 0.803927 0.222120
O O10 0.562462 0.042511 0.125391
O O11 0.013029 0.887428 0.011414
O O12 0.500000 0.000000 0.000000
O O13 0.808803 0.311079 0.629789
O O14 0.557264 0.593209 0.455254
O O15 0.000000 0.500000 0.500000
O O16 0.087589 0.403042 0.385090
O O17 0.604710 0.270270 0.417918
O O18 0.845860 0.153308 0.583746
O O19 0.000000 0.000000 0.500000
#
# Coordination Sequence:
#
# PCOD9064131 Si02
#       8
#     2   2   2   2   2   2   2   2
#     4  12  25  43  72 109 151 188 245 316 392 462
#     4  12  28  50  79 111 157 209 262 326 390 481
#     4  11  28  48  78 104 151 209 259 324 386 478
#     4  11  27  52  73 112 152 203 269 320 400 470
#     4  11  24  45  71 104 144 193 239 313 383 460
#     4  12  24  41  70 110 144 188 240 312 384 458
#     4  12  25  44  72 106 148 197 249 310 393 455
#     4  11  25  45  71 107 146 188 257 310 381 462
#
# _framework density 22.702926999999999
#
# number of rings (size 3 to 8) (size 9 to 14) (size 15 to 20)
#    0.000    0.500    5.000    2.250    3.500    4.000 
#    0.000    0.000    0.000    0.000    0.000    0.000 
#    0.000    0.000    0.000    0.000    0.000    0.000 
#
# Total GULP energy -89187.042277 kJ/mol
# GULP energy per Si atom -5574.190142 kJ/mol
# Density = 2.265125 g / cm^3
# Si number density = 22.702927 Si / 1000 Ang^3
#
#
#
# Elastic Constant Matrix: (Units=GPa)
#
#
# Indices 1 2 3 4 5 6 
#
# 1 87.6930 42.6593 22.5625 -5.7426 -7.0604 31.7346
# 2 42.6593 108.9041 48.0994 -8.6183 8.6357 19.2748
# 3 22.5625 48.0994 114.9113 -5.1320 -14.6213 26.3351
# 4 -5.7426 -8.6183 -5.1320 33.1907 1.1410 -2.6555
# 5 -7.0604 8.6357 -14.6213 1.1410 41.0075 4.1552
# 6 31.7346 19.2748 26.3351 -2.6555 4.1552 44.4994
#
#
#
# Elastic Compliance Matrix: (Units=1/GPa)
#
#
# Indices 1 2 3 4 5 6 
#
# 1 0.019590 -0.007265 0.003234 0.000678 0.007393 -0.013387
# 2 -0.007265 0.015016 -0.006412 0.002155 -0.007090 0.003263
# 3 0.003234 -0.006412 0.013624 0.000076 0.007603 -0.008297
# 4 0.000678 0.002155 0.000076 0.030899 -0.001220 0.000496
# 5 0.007393 -0.007090 0.007603 -0.001220 0.030875 -0.009657
# 6 -0.013387 0.003263 -0.008297 0.000496 -0.009657 0.036447
#
#
# Mechanical properties :
#
#
# Convention : Reuss Voigt Hill
#
# Bulk Modulus (GPa) = 36.57417 59.79454 48.18435
# Shear Modulus (GPa) = 28.33625 36.95201 32.64413
#
# Velocity S-wave (km/s) = 3.53672 4.03877 3.79605
# Velocity P-wave (km/s) = 5.72911 6.93858 6.36265
#
# Compressibility (1/GPa) = 0.02734170
#
# Stress axis : x y z
#
# Youngs Moduli (GPa) = 51.04685 66.59706 73.40129
#
# Poissons Ratio (x) = 0.48383 -0.23735
# Poissons Ratio (y) = 0.37086 0.47067
# Poissons Ratio (z) = -0.16507 0.42704
#
# Static dielectric constant tensor:
#      x y z
#    x 2.257950 0.092360 -0.002110 
#    y 0.092360 1.895380 -0.001240 
#    z -0.002110 -0.001240 1.854320 
# 
# From -- ./inp_files/428057.got.cif
#   From: 2010.05.17/outbox.cif.g08.bks.cpg/sg2_215_cif.got.tgz:428057.got - 2010.06.03 11:33:40.
