data_PCOD9064603
_publ_section_title
;
Structure prediction by ZEFSAII (Michael W. Deem and Ramdas Pophale) SiO2 
 PCOD9064603
Probable space group: P -1
;
_chemical_formula_sum "Si O2"
_cell_formula_units_Z 13
_cell_length_a 14.793435
_cell_length_b 11.534851
_cell_length_c 8.819576
_cell_angle_alpha 56.964582
_cell_angle_beta 44.740787
_cell_angle_gamma 33.700937
_cell_volume 583.739124
_symmetry_space_group_name_H-M "P -1"
_symmetry_group_IT_number 2
_symmetry_cell_setting 'triclinic'
loop_
_space_group_symop_operation_xyz
x,y,z
-x,-y,-z
loop_
_atom_site_type_symbol
_atom_site_label
_atom_site_fract_x
_atom_site_fract_y
_atom_site_fract_z
Si Si1 0.842480 0.302718 0.073911
Si Si2 0.500000 0.500000 0.500000
Si Si3 0.909503 0.702321 0.873921
Si Si4 0.177381 0.748979 0.447507
Si Si5 0.756659 0.171451 0.000743
Si Si6 0.546098 0.074202 0.257882
Si Si7 0.826103 0.609120 0.740236
O O1 0.659796 0.483855 0.267894
O O2 0.761258 0.251070 0.094978
O O3 0.885096 0.408881 0.866977
O O4 0.034203 0.078685 0.076819
O O5 0.351245 0.651366 0.422931
O O6 0.822772 0.715600 0.810101
O O7 0.074506 0.683658 0.648998
O O8 0.000000 0.500000 0.000000
O O9 0.736968 0.890999 0.057224
O O10 0.252075 0.716673 0.209722
O O11 0.000000 0.000000 0.500000
O O12 0.590748 0.189605 0.190714
O O13 0.368787 0.226529 0.243354
O O14 0.500000 0.000000 0.500000
O O15 0.000000 0.500000 0.500000
#
# Coordination Sequence:
#
# PCOD9064603 Si02
#       7
#     2   1   2   2   2   2   2
#     4  11  25  43  71 102 141 183 236 293 352 423
#     4  12  24  42  70 106 136 182 236 282 354 414
#     4  12  26  47  73 102 143 186 232 294 361 421
#     4  12  24  46  74 102 143 181 237 295 347 416
#     4  11  24  46  70 103 141 185 235 297 354 414
#     4  12  26  45  70 101 143 188 237 293 357 425
#     4  12  26  46  68 101 142 186 239 288 357 429
#
# _framework density 22.270222
#
# number of rings (size 3 to 8) (size 9 to 14) (size 15 to 20)
#    0.000    0.308    3.077    6.000    0.000    7.385 
#    2.769    0.000    0.000    0.000    0.000    0.000 
#    0.000    0.000    0.000    0.000    0.000    0.000 
#
# Total GULP energy -72411.622450 kJ/mol
# GULP energy per Si atom -5570.124804 kJ/mol
# Density = 2.221953 g / cm^3
# Si number density = 22.270222 Si / 1000 Ang^3
#
#
#
# Elastic Constant Matrix: (Units=GPa)
#
#
# Indices 1 2 3 4 5 6 
#
# 1 158.3968 32.9989 14.8203 -11.7847 -11.9637 -25.0843
# 2 32.9989 84.9995 24.1702 -12.2375 -10.1457 -23.7113
# 3 14.8203 24.1702 139.3937 -30.9723 -26.8210 -5.0913
# 4 -11.7847 -12.2375 -30.9723 39.5952 -1.4852 -1.3775
# 5 -11.9637 -10.1457 -26.8210 -1.4852 34.2171 -6.2301
# 6 -25.0843 -23.7113 -5.0913 -1.3775 -6.2301 43.5947
#
#
#
# Elastic Compliance Matrix: (Units=1/GPa)
#
#
# Indices 1 2 3 4 5 6 
#
# 1 0.007724 -0.001033 0.001024 0.003101 0.004187 0.004698
# 2 -0.001033 0.016304 0.000054 0.005342 0.006453 0.009371
# 3 0.001024 0.000054 0.011346 0.009715 0.010369 0.003732
# 4 0.003101 0.005342 0.009715 0.036244 0.013476 0.008896
# 5 0.004187 0.006453 0.010369 0.013476 0.043831 0.013820
# 6 0.004698 0.009371 0.003732 0.008896 0.013820 0.033431
#
#
# Mechanical properties :
#
#
# Convention : Reuss Voigt Hill
#
# Bulk Modulus (GPa) = 28.19814 58.52988 43.36401
# Shear Modulus (GPa) = 31.13130 44.20144 37.66637
#
# Velocity S-wave (km/s) = 3.74289 4.45992 4.11704
# Velocity P-wave (km/s) = 5.60074 7.27048 6.48954
#
# Compressibility (1/GPa) = 0.03546333
#
# Stress axis : x y z
#
# Youngs Moduli (GPa) = 129.47244 61.33525 88.13910
#
# Poissons Ratio (x) = 0.06335 -0.09028
# Poissons Ratio (y) = 0.13372 -0.00472
# Poissons Ratio (z) = -0.13262 -0.00329
#
# Static dielectric constant tensor:
#      x y z
#    x 1.865490 0.041890 0.073400 
#    y 0.041890 1.802060 0.072320 
#    z 0.073400 0.072320 1.775710 
# 
# From -- ./inp_files/156460.got.cif
#   From: 2010.05.17/outbox.cif.g08.bks.cpg/sg2_79_cif.got.tgz:156460.got - 2010.06.03 11:33:40.
