data_PCOD9064663
_publ_section_title
;
Structure prediction by ZEFSAII (Michael W. Deem and Ramdas Pophale) SiO2 
 PCOD9064663
Probable space group: P -1
;
_chemical_formula_sum "Si O2"
_cell_formula_units_Z 15
_cell_length_a 22.582218
_cell_length_b 5.293292
_cell_length_c 16.520017
_cell_angle_alpha 112.731825
_cell_angle_beta 17.866779
_cell_angle_gamma 110.449071
_cell_volume 557.606193
_symmetry_space_group_name_H-M "P -1"
_symmetry_group_IT_number 2
_symmetry_cell_setting 'triclinic'
loop_
_space_group_symop_operation_xyz
x,y,z
-x,-y,-z
loop_
_atom_site_type_symbol
_atom_site_label
_atom_site_fract_x
_atom_site_fract_y
_atom_site_fract_z
Si Si1 0.751845 0.176951 0.036913
Si Si2 0.279032 0.434150 0.540809
Si Si3 0.580081 0.106057 0.493117
Si Si4 0.776323 0.126941 0.816002
Si Si5 0.000000 0.500000 0.500000
Si Si6 0.419862 0.803561 0.255635
Si Si7 0.877375 0.639330 0.022727
Si Si8 0.063675 0.755007 0.618505
O O1 0.599348 0.951263 0.223072
O O2 0.731501 0.237708 0.977140
O O3 0.727045 0.419107 0.163390
O O4 0.972268 0.054035 0.747654
O O5 0.356504 0.589337 0.537660
O O6 0.324649 0.108994 0.442383
O O7 0.051736 0.508405 0.832918
O O8 0.379881 0.586369 0.352096
O O9 0.500000 0.000000 0.500000
O O10 0.230587 0.096998 0.763773
O O11 0.787524 0.362405 0.766013
O O12 0.633470 0.884979 0.962337
O O13 0.000000 0.000000 0.500000
O O14 0.005477 0.429050 0.387166
O O15 0.289759 0.727277 0.339137
O O16 0.965260 0.710138 0.828624
#
# Coordination Sequence:
#
# PCOD9064663 Si02
#       8
#     2   2   2   2   1   2   2   2
#     4  12  23  46  69 104 149 190 252 306 383 436
#     4  11  26  49  74 110 153 206 243 313 373 454
#     4  12  26  42  74 113 148 199 253 310 374 448
#     4  12  27  45  75 108 142 198 248 319 376 455
#     4  12  26  44  78 102 148 186 258 304 388 436
#     4  11  27  49  78 107 157 197 253 309 387 446
#     4  11  24  46  71 105 149 200 249 307 370 451
#     4  11  24  47  71 109 144 198 241 321 362 459
#
# _framework density 26.900708000000002
#
# number of rings (size 3 to 8) (size 9 to 14) (size 15 to 20)
#    0.000    0.533    6.667    0.800    5.600    1.600 
#    0.000    3.333    0.000    0.000    0.000    0.000 
#    0.000    0.000    0.000    0.000    0.000    0.000 
#
# Total GULP energy -83766.746426 kJ/mol
# GULP energy per Si atom -5584.449762 kJ/mol
# Density = 2.683948 g / cm^3
# Si number density = 26.900708 Si / 1000 Ang^3
#
#
#
# Elastic Constant Matrix: (Units=GPa)
#
#
# Indices 1 2 3 4 5 6 
#
# 1 106.1859 16.0944 16.1089 -15.7812 14.7683 15.8112
# 2 16.0944 92.4303 4.9465 -1.3390 6.4109 14.2712
# 3 16.1089 4.9465 124.3253 -7.6367 -8.1848 -2.0911
# 4 -15.7812 -1.3390 -7.6367 56.6547 -7.5297 0.1556
# 5 14.7683 6.4109 -8.1848 -7.5297 37.1735 -7.6177
# 6 15.8112 14.2712 -2.0911 0.1556 -7.6177 49.3778
#
#
#
# Elastic Compliance Matrix: (Units=1/GPa)
#
#
# Indices 1 2 3 4 5 6 
#
# 1 0.011521 -0.000848 -0.001738 0.002270 -0.005242 -0.004334
# 2 -0.000848 0.011723 -0.000612 -0.000381 -0.002624 -0.003546
# 3 -0.001738 -0.000612 0.008599 0.001086 0.003236 0.001593
# 4 0.002270 -0.000381 0.001086 0.018845 0.003192 -0.000138
# 5 -0.005242 -0.002624 0.003236 0.003192 0.032343 0.007553
# 6 -0.004334 -0.003546 0.001593 -0.000138 0.007553 0.023898
#
#
# Mechanical properties :
#
#
# Convention : Reuss Voigt Hill
#
# Bulk Modulus (GPa) = 39.29439 44.13793 41.71616
# Shear Modulus (GPa) = 41.04824 47.69398 44.37111
#
# Velocity S-wave (km/s) = 3.91054 4.21523 4.06574
# Velocity P-wave (km/s) = 5.91850 6.33515 6.13037
#
# Compressibility (1/GPa) = 0.02544893
#
# Stress axis : x y z
#
# Youngs Moduli (GPa) = 86.79630 85.29988 116.28602
#
# Poissons Ratio (x) = 0.07230 0.20206
# Poissons Ratio (y) = 0.07357 0.07121
# Poissons Ratio (z) = 0.15082 0.05223
#
# Static dielectric constant tensor:
#      x y z
#    x 2.082280 -0.151800 0.005810 
#    y -0.151800 2.865770 -0.034950 
#    z 0.005810 -0.034950 2.116620 
# 
# From -- ./inp_files/317840.got.cif
#   From: 2010.05.17/outbox.cif.g08.bks.cpg/sg2_159_cif.got.tgz:317840.got - 2010.06.03 11:33:40.
