data_PCOD9064503
_publ_section_title
;
Structure prediction by ZEFSAII (Michael W. Deem and Ramdas Pophale) SiO2 
 PCOD9064503
Probable space group: P -1
;
_chemical_formula_sum "Si O2"
_cell_formula_units_Z 16
_cell_length_a 18.835705
_cell_length_b 12.273229
_cell_length_c 9.347356
_cell_angle_alpha 74.268817
_cell_angle_beta 134.619603
_cell_angle_gamma 141.888365
_cell_volume 728.750317
_symmetry_space_group_name_H-M "P -1"
_symmetry_group_IT_number 2
_symmetry_cell_setting 'triclinic'
loop_
_space_group_symop_operation_xyz
x,y,z
-x,-y,-z
loop_
_atom_site_type_symbol
_atom_site_label
_atom_site_fract_x
_atom_site_fract_y
_atom_site_fract_z
Si Si1 0.671974 0.227358 0.564734
Si Si2 0.482845 0.097796 0.034381
Si Si3 0.603452 0.646549 0.951783
Si Si4 0.137453 0.876160 0.781149
Si Si5 0.969936 0.137837 0.831819
Si Si6 0.781644 0.579344 0.182343
Si Si7 0.953506 0.301455 0.974169
Si Si8 0.321108 0.346699 0.413150
O O1 0.586895 0.183266 0.307790
O O2 0.801942 0.447491 0.760242
O O3 0.500000 0.000000 0.500000
O O4 0.846398 0.306218 0.758196
O O5 0.594302 0.309756 0.032543
O O6 0.500000 0.000000 0.000000
O O7 0.259189 0.919969 0.823834
O O8 0.429419 0.509766 0.643170
O O9 0.500000 0.500000 0.000000
O O10 0.720090 0.650645 0.056298
O O11 0.742208 0.889816 0.097686
O O12 0.116510 0.789237 0.930949
O O13 0.921876 0.698963 0.476229
O O14 0.079791 0.310951 0.797409
O O15 0.146973 0.244207 0.125029
O O16 0.794073 0.881234 0.619267
O O17 0.882564 0.131438 0.832277
O O18 0.500000 0.500000 0.500000
#
# Coordination Sequence:
#
# PCOD9064503 Si02
#       8
#     2   2   2   2   2   2   2   2
#     4  11  25  48  70 101 135 180 243 292 349 410
#     4  12  29  48  73 104 141 188 235 297 356 422
#     4  12  25  44  75 102 146 190 231 286 349 427
#     4  12  26  47  72 108 140 187 236 290 355 420
#     4  11  27  42  71 104 142 189 224 290 351 412
#     4  12  27  48  68 107 149 185 237 286 358 423
#     4  11  26  44  73 101 136 182 234 292 346 415
#     4  11  24  46  65 103 145 182 237 278 340 418
#
# _framework density 21.955394999999999
#
# number of rings (size 3 to 8) (size 9 to 14) (size 15 to 20)
#    0.000    0.500    5.000    1.875    8.750    1.500 
#    0.000    0.000    0.000    0.000    0.000    0.000 
#    0.000    0.000    0.000    0.000    0.000    0.000 
#
# Total GULP energy -89489.713346 kJ/mol
# GULP energy per Si atom -5593.107084 kJ/mol
# Density = 2.190542 g / cm^3
# Si number density = 21.955395 Si / 1000 Ang^3
#
#
#
# Elastic Constant Matrix: (Units=GPa)
#
#
# Indices 1 2 3 4 5 6 
#
# 1 71.3499 14.6917 -1.3144 7.7047 -1.1197 -3.9256
# 2 14.6917 92.4236 -10.8270 7.3120 1.9754 12.1659
# 3 -1.3144 -10.8270 57.9812 -6.2556 5.0154 -7.3432
# 4 7.7047 7.3120 -6.2556 38.4094 -0.0256 -3.1766
# 5 -1.1197 1.9754 5.0154 -0.0256 28.1197 -4.0257
# 6 -3.9256 12.1659 -7.3432 -3.1766 -4.0257 43.0459
#
#
#
# Elastic Compliance Matrix: (Units=1/GPa)
#
#
# Indices 1 2 3 4 5 6 
#
# 1 0.014906 -0.002487 -0.000232 -0.002393 0.001086 0.001948
# 2 -0.002487 0.012077 0.001692 -0.001828 -0.001774 -0.003652
# 3 -0.000232 0.001692 0.018466 0.002943 -0.003049 0.002583
# 4 -0.002393 -0.001828 0.002943 0.027577 -0.000062 0.002830
# 5 0.001086 -0.001774 -0.003049 -0.000062 0.036777 0.003515
# 6 0.001948 -0.003652 0.002583 0.002830 0.003515 0.025419
#
#
# Mechanical properties :
#
#
# Convention : Reuss Voigt Hill
#
# Bulk Modulus (GPa) = 23.04374 25.20616 24.12495
# Shear Modulus (GPa) = 32.95125 36.52861 34.73993
#
# Velocity S-wave (km/s) = 3.87825 4.08335 3.98212
# Velocity P-wave (km/s) = 5.52928 5.80838 5.67055
#
# Compressibility (1/GPa) = 0.04339574
#
# Stress axis : x y z
#
# Youngs Moduli (GPa) = 67.08787 82.80503 54.15309
#
# Poissons Ratio (x) = 0.20593 0.01256
# Poissons Ratio (y) = 0.16684 -0.09165
# Poissons Ratio (z) = 0.01556 -0.14014
#
# Static dielectric constant tensor:
#      x y z
#    x 1.750670 0.021600 0.177210 
#    y 0.021600 1.789850 -0.096880 
#    z 0.177210 -0.096880 1.541850 
# 
# From -- ./inp_files/72213.got.cif
#   From: 2010.05.17/outbox.cif.g08.bks.cpg/sg2_37_cif.got.tgz:72213.got - 2010.06.03 11:33:40.
