data_PCOD9064556
_publ_section_title
;
Structure prediction by ZEFSAII (Michael W. Deem and Ramdas Pophale) SiO2 
 PCOD9064556
Probable space group: P -1
;
_chemical_formula_sum "Si O2"
_cell_formula_units_Z 16
_cell_length_a 9.308356
_cell_length_b 8.603824
_cell_length_c 14.521469
_cell_angle_alpha 92.522989
_cell_angle_beta 126.752657
_cell_angle_gamma 119.487359
_cell_volume 709.138993
_symmetry_space_group_name_H-M "P -1"
_symmetry_group_IT_number 2
_symmetry_cell_setting 'triclinic'
loop_
_space_group_symop_operation_xyz
x,y,z
-x,-y,-z
loop_
_atom_site_type_symbol
_atom_site_label
_atom_site_fract_x
_atom_site_fract_y
_atom_site_fract_z
Si Si1 0.961021 0.796224 0.449647
Si Si2 0.267766 0.197237 0.326125
Si Si3 0.356860 0.717030 0.183899
Si Si4 0.125890 0.123973 0.956494
Si Si5 0.400367 0.342015 0.571081
Si Si6 0.877529 0.519861 0.083462
Si Si7 0.393465 0.834460 0.664574
Si Si8 0.690023 0.434837 0.210032
O O1 0.803567 0.656031 0.473856
O O2 0.804244 0.660377 0.297343
O O3 0.193625 0.821591 0.535581
O O4 0.000000 0.000000 0.500000
O O5 0.300320 0.181144 0.446128
O O6 0.374833 0.430176 0.364497
O O7 0.437884 0.177795 0.333668
O O8 0.007539 0.044544 0.180055
O O9 0.525723 0.712165 0.312620
O O10 0.106103 0.559780 0.135008
O O11 0.440397 0.940680 0.221522
O O12 0.333555 0.646651 0.069347
O O13 0.075625 0.273621 0.914784
O O14 0.408092 0.276495 0.079621
O O15 0.000000 0.000000 0.000000
O O16 0.817304 0.463073 0.164856
O O17 0.279495 0.669068 0.697714
#
# Coordination Sequence:
#
# PCOD9064556 Si02
#       8
#     2   2   2   2   2   2   2   2
#     4  12  26  44  72 105 147 187 234 304 358 424
#     4  11  25  44  74 109 134 196 236 299 360 437
#     4  11  24  46  69 101 143 192 240 301 357 430
#     4  12  22  45  74  99 145 187 245 288 360 430
#     4  11  25  45  72 105 146 180 246 299 365 426
#     4  11  26  42  70 105 145 191 243 292 364 431
#     4  12  25  45  74 102 147 183 248 292 367 425
#     4  12  27  45  73 106 144 193 237 303 357 432
#
# _framework density 22.562574000000001
#
# number of rings (size 3 to 8) (size 9 to 14) (size 15 to 20)
#    0.000    0.500    5.000    2.250    3.500    4.000 
#    0.000    0.000    0.000    0.000    0.000    0.000 
#    0.000    0.000    0.000    0.000    0.000    0.000 
#
# Total GULP energy -89364.039833 kJ/mol
# GULP energy per Si atom -5585.252490 kJ/mol
# Density = 2.251122 g / cm^3
# Si number density = 22.562574 Si / 1000 Ang^3
#
#
#
# Elastic Constant Matrix: (Units=GPa)
#
#
# Indices 1 2 3 4 5 6 
#
# 1 75.3702 21.1131 50.1774 -11.3830 -16.4453 18.0133
# 2 21.1131 59.3387 37.7106 3.8430 -13.4769 -3.0818
# 3 50.1774 37.7106 173.6625 22.3574 -20.1163 -1.4962
# 4 -11.3830 3.8430 22.3574 37.8911 1.0798 -1.0091
# 5 -16.4453 -13.4769 -20.1163 1.0798 54.7493 -3.2185
# 6 18.0133 -3.0818 -1.4962 -1.0091 -3.2185 23.7138
#
#
#
# Elastic Compliance Matrix: (Units=1/GPa)
#
#
# Indices 1 2 3 4 5 6 
#
# 1 0.028594 -0.006222 -0.008587 0.013631 0.002330 -0.022174
# 2 -0.006222 0.021727 -0.002135 -0.002698 0.003203 0.007735
# 3 -0.008587 -0.002135 0.009927 -0.008073 0.001094 0.006676
# 4 0.013631 -0.002698 -0.008073 0.035285 -0.000810 -0.009822
# 5 0.002330 0.003203 0.001094 -0.000810 0.020255 0.001430
# 6 -0.022174 0.007735 0.006676 -0.009822 0.001430 0.060216
#
#
# Mechanical properties :
#
#
# Convention : Reuss Voigt Hill
#
# Bulk Modulus (GPa) = 37.93688 58.48596 48.21142
# Shear Modulus (GPa) = 22.86457 36.56220 29.71339
#
# Velocity S-wave (km/s) = 3.18682 4.02989 3.63289
# Velocity P-wave (km/s) = 5.51287 6.90154 6.24592
#
# Compressibility (1/GPa) = 0.02635957
#
# Stress axis : x y z
#
# Youngs Moduli (GPa) = 34.97239 46.02536 100.73955
#
# Poissons Ratio (x) = 0.28638 0.86501
# Poissons Ratio (y) = 0.21761 0.21510
# Poissons Ratio (z) = 0.30030 0.09827
#
# Static dielectric constant tensor:
#      x y z
#    x 1.847520 0.028040 0.038520 
#    y 0.028040 1.898900 0.050690 
#    z 0.038520 0.050690 1.892100 
# 
# From -- ./inp_files/495284.got.cif
#   From: 2010.05.17/outbox.cif.g08.bks.cpg/sg2_248_cif.got.tgz:495284.got - 2010.06.03 11:33:40.
