data_PCOD9064848
_publ_section_title
;
Structure prediction by ZEFSAII (Michael W. Deem and Ramdas Pophale) SiO2 
 PCOD9064848
Probable space group: P -1
;
_chemical_formula_sum "Si O2"
_cell_formula_units_Z 14
_cell_length_a 8.418173
_cell_length_b 11.801814
_cell_length_c 14.864538
_cell_angle_alpha 30.577304
_cell_angle_beta 58.549023
_cell_angle_gamma 47.566425
_cell_volume 547.540324
_symmetry_space_group_name_H-M "P -1"
_symmetry_group_IT_number 2
_symmetry_cell_setting 'triclinic'
loop_
_space_group_symop_operation_xyz
x,y,z
-x,-y,-z
loop_
_atom_site_type_symbol
_atom_site_label
_atom_site_fract_x
_atom_site_fract_y
_atom_site_fract_z
Si Si1 0.878280 0.843640 0.565166
Si Si2 0.238887 0.272675 0.617529
Si Si3 0.634271 0.402039 0.172668
Si Si4 0.049151 0.322419 0.828552
Si Si5 0.773793 0.213373 0.081359
Si Si6 0.331457 0.183342 0.001665
Si Si7 0.710904 0.096354 0.621916
O O1 0.867275 0.625844 0.658892
O O2 0.117611 0.806375 0.499769
O O3 0.703954 0.137359 0.383766
O O4 0.814125 0.868158 0.672460
O O5 0.207193 0.231376 0.760500
O O6 0.454713 0.292865 0.536834
O O7 0.000000 0.500000 0.500000
O O8 0.285309 0.006917 0.738802
O O9 0.806174 0.304794 0.105906
O O10 0.413419 0.544609 0.083623
O O11 0.620909 0.621412 0.091389
O O12 0.135427 0.361318 0.871046
O O13 0.977857 0.121878 0.017629
O O14 0.295702 0.015146 0.202121
O O15 0.500000 0.000000 0.000000
#
# Coordination Sequence:
#
# PCOD9064848 Si02
#       7
#     2   2   2   2   2   2   2
#     4  11  26  45  72 114 146 199 248 314 370 436
#     4  12  27  49  74 111 153 198 246 314 381 448
#     4  11  24  46  74 108 146 198 250 306 371 441
#     4  12  26  46  74 111 150 196 253 307 379 446
#     4  11  25  47  74 108 148 202 252 302 379 450
#     4  12  23  46  75 106 149 196 253 310 372 443
#     4  11  24  48  72 110 152 191 252 303 380 442
#
# _framework density 25.568894
#
# number of rings (size 3 to 8) (size 9 to 14) (size 15 to 20)
#    0.000    0.571    2.857    4.714    4.000    2.857 
#    5.143    0.000    0.000    0.000    0.000    0.000 
#    0.000    0.000    0.000    0.000    0.000    0.000 
#
# Total GULP energy -78179.936695 kJ/mol
# GULP energy per Si atom -5584.281193 kJ/mol
# Density = 2.551070 g / cm^3
# Si number density = 25.568894 Si / 1000 Ang^3
#
#
#
# Elastic Constant Matrix: (Units=GPa)
#
#
# Indices 1 2 3 4 5 6 
#
# 1 67.4695 29.6932 33.9119 5.7669 15.5236 -2.6618
# 2 29.6932 137.8255 35.9505 31.9136 5.5174 21.0854
# 3 33.9119 35.9505 84.3914 10.8805 0.4158 -4.1158
# 4 5.7669 31.9136 10.8805 53.9800 4.7629 4.4743
# 5 15.5236 5.5174 0.4158 4.7629 28.5753 -3.4238
# 6 -2.6618 21.0854 -4.1158 4.4743 -3.4238 48.7753
#
#
#
# Elastic Compliance Matrix: (Units=1/GPa)
#
#
# Indices 1 2 3 4 5 6 
#
# 1 0.022750 -0.002880 -0.008060 0.001881 -0.011903 0.000798
# 2 -0.002880 0.010455 -0.002881 -0.004910 -0.000130 -0.004479
# 3 -0.008060 -0.002881 0.016612 -0.001473 0.005264 0.002712
# 4 0.001881 -0.004910 -0.001473 0.021866 -0.003717 -0.000166
# 5 -0.011903 -0.000130 0.005264 -0.003717 0.042410 0.003169
# 6 0.000798 -0.004479 0.002712 -0.000166 0.003169 0.022948
#
#
# Mechanical properties :
#
#
# Convention : Reuss Voigt Hill
#
# Bulk Modulus (GPa) = 45.09709 54.31087 49.70398
# Shear Modulus (GPa) = 29.05738 38.94150 33.99944
#
# Velocity S-wave (km/s) = 3.37476 3.90680 3.65049
# Velocity P-wave (km/s) = 5.73246 6.45274 6.10324
#
# Compressibility (1/GPa) = 0.02217438
#
# Stress axis : x y z
#
# Youngs Moduli (GPa) = 43.95699 95.64966 60.19771
#
# Poissons Ratio (x) = 0.27547 0.48518
# Poissons Ratio (y) = 0.12660 0.17344
# Poissons Ratio (z) = 0.35428 0.27558
#
# Static dielectric constant tensor:
#      x y z
#    x 2.116780 -0.087180 0.065940 
#    y -0.087180 2.054740 -0.064440 
#    z 0.065940 -0.064440 2.188310 
# 
# From -- ./inp_files/499638.got.cif
#   From: 2010.05.17/outbox.cif.g08.bks.cpg/sg2_250_cif.got.tgz:499638.got - 2010.06.03 11:33:40.
