data_PCOD9064023
_publ_section_title
;
Structure prediction by ZEFSAII (Michael W. Deem and Ramdas Pophale) SiO2 
 PCOD9064023
Probable space group: P -1
;
_chemical_formula_sum "Si O2"
_cell_formula_units_Z 16
_cell_length_a 7.771029
_cell_length_b 10.587267
_cell_length_c 16.111923
_cell_angle_alpha 57.621870
_cell_angle_beta 54.086552
_cell_angle_gamma 43.605764
_cell_volume 725.749152
_symmetry_space_group_name_H-M "P -1"
_symmetry_group_IT_number 2
_symmetry_cell_setting 'triclinic'
loop_
_space_group_symop_operation_xyz
x,y,z
-x,-y,-z
loop_
_atom_site_type_symbol
_atom_site_label
_atom_site_fract_x
_atom_site_fract_y
_atom_site_fract_z
Si Si1 0.307209 0.881512 0.924700
Si Si2 0.559769 0.572396 0.237482
Si Si3 0.320642 0.220770 0.992680
Si Si4 0.985449 0.901574 0.315886
Si Si5 0.776818 0.281860 0.150204
Si Si6 0.745488 0.467313 0.390909
Si Si7 0.162859 0.069811 0.468784
Si Si8 0.310958 0.157879 0.708092
O O1 0.524387 0.773129 0.974244
O O2 0.330691 0.746401 0.893856
O O3 0.342441 0.030856 0.820663
O O4 0.000000 0.000000 0.000000
O O5 0.294839 0.740244 0.299668
O O6 0.549551 0.454073 0.209175
O O7 0.735473 0.426347 0.311621
O O8 0.669098 0.671913 0.125348
O O9 0.017894 0.297254 0.064259
O O10 0.500000 0.000000 0.000000
O O11 0.824255 0.955696 0.427313
O O12 0.918180 0.810412 0.296312
O O13 0.916679 0.088502 0.228963
O O14 0.500000 0.500000 0.500000
O O15 0.736406 0.649736 0.327485
O O16 0.005622 0.289057 0.420403
O O17 0.433361 0.960961 0.381040
O O18 0.000000 0.000000 0.500000
#
# Coordination Sequence:
#
# PCOD9064023 Si02
#       8
#     2   2   2   2   2   2   2   2
#     4  11  24  46  73 103 141 186 234 288 355 415
#     4  12  25  45  68 102 139 182 236 283 351 418
#     4  12  22  43  73  98 140 186 232 295 350 412
#     4  11  24  45  69  96 141 181 223 293 351 413
#     4  11  26  44  70 104 141 185 235 292 350 419
#     4  12  25  44  69 101 138 182 229 287 342 414
#     4  12  24  43  71 100 134 182 234 282 348 419
#     4  11  26  44  70 104 135 182 232 288 353 417
#
# _framework density 22.046184
#
# number of rings (size 3 to 8) (size 9 to 14) (size 15 to 20)
#    0.000    0.500    5.000    3.000    3.500    3.000 
#    0.000    0.000    0.000    0.000    0.000    0.000 
#    0.000    0.000    0.000    0.000    0.000    0.000 
#
# Total GULP energy -89499.693504 kJ/mol
# GULP energy per Si atom -5593.730844 kJ/mol
# Density = 2.199601 g / cm^3
# Si number density = 22.046184 Si / 1000 Ang^3
#
#
#
# Elastic Constant Matrix: (Units=GPa)
#
#
# Indices 1 2 3 4 5 6 
#
# 1 56.5987 -0.2031 27.0181 -13.1271 6.4613 10.3722
# 2 -0.2031 64.2282 1.8390 15.5627 -10.8269 17.1608
# 3 27.0181 1.8390 118.3100 -1.7511 4.8572 4.5109
# 4 -13.1271 15.5627 -1.7511 23.9052 2.5919 4.7998
# 5 6.4613 -10.8269 4.8572 2.5919 34.4830 1.8747
# 6 10.3722 17.1608 4.5109 4.7998 1.8747 35.6294
#
#
#
# Elastic Compliance Matrix: (Units=1/GPa)
#
#
# Indices 1 2 3 4 5 6 
#
# 1 0.026554 -0.003264 -0.005190 0.018544 -0.006246 -0.007670
# 2 -0.003264 0.023471 0.000072 -0.016376 0.009673 -0.008667
# 3 -0.005190 0.000072 0.009589 -0.002288 -0.000216 0.000582
# 4 0.018544 -0.016376 -0.002288 0.064969 -0.012889 -0.005295
# 5 -0.006246 0.009673 -0.000216 -0.012889 0.034363 -0.002885
# 6 -0.007670 -0.008667 0.000582 -0.005295 -0.002885 0.035265
#
#
# Mechanical properties :
#
#
# Convention : Reuss Voigt Hill
#
# Bulk Modulus (GPa) = 23.33770 32.93832 28.13801
# Shear Modulus (GPa) = 22.19662 32.83571 27.51617
#
# Velocity S-wave (km/s) = 3.17649 3.86347 3.53670
# Velocity P-wave (km/s) = 4.90533 5.90550 5.42850
#
# Compressibility (1/GPa) = 0.04284912
#
# Stress axis : x y z
#
# Youngs Moduli (GPa) = 37.65971 42.60543 104.28333
#
# Poissons Ratio (x) = 0.13907 0.54122
# Poissons Ratio (y) = 0.12292 -0.00746
# Poissons Ratio (z) = 0.19545 -0.00305
#
# Static dielectric constant tensor:
#      x y z
#    x 2.016280 -0.031560 -0.033890 
#    y -0.031560 1.801850 0.016800 
#    z -0.033890 0.016800 1.763800 
# 
# From -- ./inp_files/499995.got.cif
#   From: 2010.05.17/outbox.cif.g08.bks.cpg/sg2_250_cif.got.tgz:499995.got - 2010.06.03 11:33:40.
