data_PCOD9064724
_publ_section_title
;
Structure prediction by ZEFSAII (Michael W. Deem and Ramdas Pophale) SiO2 
 PCOD9064724
Probable space group: P -1
;
_chemical_formula_sum "Si O2"
_cell_formula_units_Z 14
_cell_length_a 15.705827
_cell_length_b 6.543221
_cell_length_c 14.812416
_cell_angle_alpha 115.580529
_cell_angle_beta 152.517424
_cell_angle_gamma 77.055496
_cell_volume 585.538990
_symmetry_space_group_name_H-M "P -1"
_symmetry_group_IT_number 2
_symmetry_cell_setting 'triclinic'
loop_
_space_group_symop_operation_xyz
x,y,z
-x,-y,-z
loop_
_atom_site_type_symbol
_atom_site_label
_atom_site_fract_x
_atom_site_fract_y
_atom_site_fract_z
Si Si1 0.953961 0.444086 0.679530
Si Si2 0.457858 0.223675 0.959546
Si Si3 0.505005 0.372485 0.228643
Si Si4 0.988155 0.284870 0.881540
Si Si5 0.845965 0.586168 0.314390
Si Si6 0.230474 0.991900 0.025515
Si Si7 0.549033 0.899780 0.432289
O O1 0.016385 0.387833 0.825926
O O2 0.051384 0.345851 0.672907
O O3 0.716048 0.346111 0.435453
O O4 0.044261 0.734761 0.796644
O O5 0.482875 0.392942 0.104906
O O6 0.640035 0.350424 0.087432
O O7 0.247886 0.205938 0.714562
O O8 0.500000 0.000000 0.000000
O O9 0.325506 0.133772 0.050758
O O10 0.515844 0.613921 0.339562
O O11 0.154652 0.178478 0.041809
O O12 0.774355 0.065957 0.649197
O O13 0.000000 0.500000 0.000000
O O14 0.000000 0.500000 0.500000
O O15 0.401073 0.941408 0.229104
O O16 0.500000 0.000000 0.500000
#
# Coordination Sequence:
#
# PCOD9064724 Si02
#       7
#     2   2   2   2   2   2   2
#     4  12  25  48  74 108 146 195 250 301 374 442
#     4  11  25  47  74 108 147 193 249 305 373 441
#     4  12  25  48  75 108 149 197 246 303 372 441
#     4  12  27  46  73 107 144 194 247 306 371 439
#     4  11  24  46  72 105 146 189 241 312 365 442
#     4  12  25  46  73  99 148 192 239 308 364 433
#     4  12  27  46  74 108 146 194 247 307 370 443
#
# _framework density 23.909593999999998
#
# number of rings (size 3 to 8) (size 9 to 14) (size 15 to 20)
#    0.000    0.286    4.286    5.143    2.000    4.000 
#    2.571    0.000    0.000    0.000    0.000    0.000 
#    0.000    0.000    0.000    0.000    0.000    0.000 
#
# Total GULP energy -78302.154342 kJ/mol
# GULP energy per Si atom -5593.011024 kJ/mol
# Density = 2.385517 g / cm^3
# Si number density = 23.909594 Si / 1000 Ang^3
#
#
#
# Elastic Constant Matrix: (Units=GPa)
#
#
# Indices 1 2 3 4 5 6 
#
# 1 113.9280 37.3371 24.0129 1.3621 19.5545 9.1306
# 2 37.3371 130.5492 35.9470 -10.3672 23.3295 -3.6629
# 3 24.0129 35.9470 65.8595 -18.1682 22.0177 -6.6216
# 4 1.3621 -10.3672 -18.1682 60.0595 -2.3538 11.0835
# 5 19.5545 23.3295 22.0177 -2.3538 40.3384 -6.3398
# 6 9.1306 -3.6629 -6.6216 11.0835 -6.3398 46.4514
#
#
#
# Elastic Compliance Matrix: (Units=1/GPa)
#
#
# Indices 1 2 3 4 5 6 
#
# 1 0.010709 -0.002007 -0.002227 -0.000871 -0.003310 -0.002825
# 2 -0.002007 0.009728 -0.003523 0.000523 -0.002673 0.000170
# 3 -0.002227 -0.003523 0.022497 0.005758 -0.008699 0.000806
# 4 -0.000871 0.000523 0.005758 0.019118 -0.002516 -0.003872
# 5 -0.003310 -0.002673 -0.008699 -0.002516 0.033224 0.004334
# 6 -0.002825 0.000170 0.000806 -0.003872 0.004334 0.023727
#
#
# Mechanical properties :
#
#
# Convention : Reuss Voigt Hill
#
# Bulk Modulus (GPa) = 36.46950 56.10339 46.28645
# Shear Modulus (GPa) = 34.80535 43.57250 39.18893
#
# Velocity S-wave (km/s) = 3.81951 4.27357 4.05291
# Velocity P-wave (km/s) = 5.89387 6.91860 6.42669
#
# Compressibility (1/GPa) = 0.02742017
#
# Stress axis : x y z
#
# Youngs Moduli (GPa) = 93.37534 102.79722 44.45117
#
# Poissons Ratio (x) = 0.20627 0.09901
# Poissons Ratio (y) = 0.18736 0.15660
# Poissons Ratio (z) = 0.20798 0.36216
#
# Static dielectric constant tensor:
#      x y z
#    x 1.945880 -0.014240 0.011780 
#    y -0.014240 1.988390 0.024460 
#    z 0.011780 0.024460 1.938310 
# 
# From -- ./inp_files/98272.got.cif
#   From: 2010.05.17/outbox.cif.g08.bks.cpg/sg2_50_cif.got.tgz:98272.got - 2010.06.03 11:33:40.
