data_PCOD9064521
_publ_section_title
;
Structure prediction by ZEFSAII (Michael W. Deem and Ramdas Pophale) SiO2 
 PCOD9064521
Probable space group: P -1
;
_chemical_formula_sum "Si O2"
_cell_formula_units_Z 16
_cell_length_a 14.737357
_cell_length_b 17.527850
_cell_length_c 11.949185
_cell_angle_alpha 151.144830
_cell_angle_beta 127.816673
_cell_angle_gamma 34.258228
_cell_volume 765.683738
_symmetry_space_group_name_H-M "P -1"
_symmetry_group_IT_number 2
_symmetry_cell_setting 'triclinic'
loop_
_space_group_symop_operation_xyz
x,y,z
-x,-y,-z
loop_
_atom_site_type_symbol
_atom_site_label
_atom_site_fract_x
_atom_site_fract_y
_atom_site_fract_z
Si Si1 0.864365 0.838991 0.163069
Si Si2 0.498113 0.702295 0.647204
Si Si3 0.386295 0.764018 0.897812
Si Si4 0.846145 0.504330 0.651224
Si Si5 0.149046 0.069745 0.477157
Si Si6 0.512042 0.176287 0.727928
Si Si7 0.994453 0.691817 0.713704
Si Si8 0.149324 0.701680 0.057584
O O1 0.854424 0.836556 0.286335
O O2 0.021043 0.790688 0.178475
O O3 0.676990 0.088845 0.290242
O O4 0.900725 0.628740 0.869052
O O5 0.445763 0.731243 0.773716
O O6 0.597648 0.441732 0.341832
O O7 0.637914 0.697693 0.753234
O O8 0.493455 0.738591 0.043943
O O9 0.195721 0.042171 0.120271
O O10 0.965489 0.283937 0.546717
O O11 0.888222 0.406593 0.432686
O O12 0.309986 0.958852 0.377237
O O13 0.170962 0.864728 0.264985
O O14 0.500000 0.000000 0.500000
O O15 0.339222 0.422696 0.853246
O O16 0.000000 0.500000 0.500000
O O17 0.057031 0.723775 0.908237
#
# Coordination Sequence:
#
# PCOD9064521 Si02
#       8
#     2   2   2   2   2   2   2   2
#     4  12  26  48  67 103 143 183 233 279 347 409
#     4  11  26  43  72 102 136 181 225 287 342 405
#     4  11  24  46  68 100 139 173 234 281 345 407
#     4  12  26  44  73 103 137 182 228 288 344 407
#     4  12  28  45  69 103 140 181 235 282 345 413
#     4  12  27  46  71 101 139 185 229 287 347 410
#     4  12  23  46  72 100 138 178 231 284 345 408
#     4  12  26  45  73  98 140 187 230 286 344 409
#
# _framework density 20.896355
#
# number of rings (size 3 to 8) (size 9 to 14) (size 15 to 20)
#    0.000    0.250    3.750    4.500    8.750    1.000 
#    0.000    0.000    0.000    0.000    0.000    0.000 
#    0.000    0.000    0.000    0.000    0.000    0.000 
#
# Total GULP energy -89512.214195 kJ/mol
# GULP energy per Si atom -5594.513387 kJ/mol
# Density = 2.084879 g / cm^3
# Si number density = 20.896355 Si / 1000 Ang^3
#
#
#
# Elastic Constant Matrix: (Units=GPa)
#
#
# Indices 1 2 3 4 5 6 
#
# 1 108.6626 -16.2798 27.9041 -0.9934 -4.4082 -12.6903
# 2 -16.2798 41.4853 -51.9644 22.1039 -5.7534 6.7865
# 3 27.9041 -51.9644 11.8342 28.4860 16.4334 -4.4445
# 4 -0.9934 22.1039 28.4860 35.6213 2.9037 -1.9754
# 5 -4.4082 -5.7534 16.4334 2.9037 35.5338 -4.8613
# 6 -12.6903 6.7865 -4.4445 -1.9754 -4.8613 35.1880
#
#
#
# Elastic Compliance Matrix: (Units=1/GPa)
#
#
# Indices 1 2 3 4 5 6 
#
# 1 0.010479 0.004838 -0.000389 -0.002464 0.002883 0.003057
# 2 0.004838 0.005679 -0.013953 0.007181 0.007429 0.000317
# 3 -0.000389 -0.013953 -0.005113 0.012930 -0.000652 0.002541
# 4 -0.002464 0.007181 0.012930 0.013684 -0.006343 -0.000749
# 5 0.002883 0.007429 -0.000652 -0.006343 0.030995 0.003450
# 6 0.003057 0.000317 0.002541 -0.000749 0.003450 0.030216
#
#
# Mechanical properties :
#
#
# Convention : Reuss Voigt Hill
#
# Bulk Modulus (GPa) = -125.58563 9.03357 -58.27603
# Shear Modulus (GPa) = 48.87961 34.75675 41.81818
#
# Velocity S-wave (km/s) = 4.84172 4.08277 4.47835
# Velocity P-wave (km/s) = 5.38270 5.15343 1.09901
#
# Compressibility (1/GPa) = -0.00796269
#
# Stress axis : x y z
#
# Youngs Moduli (GPa) = 95.43022 176.09044 -195.57525
#
# Poissons Ratio (x) = -0.85188 -0.07605
# Poissons Ratio (y) = -0.46167 -2.72878
# Poissons Ratio (z) = 0.03711 2.45692
#
# Static dielectric constant tensor:
#      x y z
#    x 1.747180 -0.007300 0.029830 
#    y -0.007300 1.715390 -0.018080 
#    z 0.029830 -0.018080 1.688590 
# 
# From -- ./inp_files/207876.got.cif
#   From: 2010.05.17/outbox.cif.g08.bks.cpg/sg2_104_cif.got.tgz:207876.got - 2010.06.03 11:33:40.
