data_PCOD9064640
_publ_section_title
;
Structure prediction by ZEFSAII (Michael W. Deem and Ramdas Pophale) SiO2 
 PCOD9064640
Probable space group: P -1
;
_chemical_formula_sum "Si O2"
_cell_formula_units_Z 16
_cell_length_a 10.766209
_cell_length_b 15.770615
_cell_length_c 5.511024
_cell_angle_alpha 75.767555
_cell_angle_beta 65.408271
_cell_angle_gamma 43.694845
_cell_volume 585.516669
_symmetry_space_group_name_H-M "P -1"
_symmetry_group_IT_number 2
_symmetry_cell_setting 'triclinic'
loop_
_space_group_symop_operation_xyz
x,y,z
-x,-y,-z
loop_
_atom_site_type_symbol
_atom_site_label
_atom_site_fract_x
_atom_site_fract_y
_atom_site_fract_z
Si Si1 0.835380 0.102072 0.750407
Si Si2 0.442909 0.602740 0.793945
Si Si3 0.866555 0.935758 0.229480
Si Si4 0.798887 0.683598 0.423367
Si Si5 0.435426 0.300141 0.027146
Si Si6 0.507709 0.051745 0.710194
Si Si7 0.194438 0.503779 0.699783
Si Si8 0.028996 0.711413 0.991062
O O1 0.616657 0.206365 0.766246
O O2 0.924356 0.150614 0.755588
O O3 0.000000 0.000000 0.500000
O O4 0.824740 0.038907 0.027262
O O5 0.616122 0.530278 0.514389
O O6 0.500000 0.500000 0.000000
O O7 0.467342 0.683874 0.855222
O O8 0.229555 0.673347 0.834969
O O9 0.874859 0.854552 0.083239
O O10 0.719616 0.994857 0.528499
O O11 0.652817 0.799600 0.276538
O O12 0.846077 0.563671 0.381900
O O13 0.985759 0.661794 0.281498
O O14 0.668211 0.733701 0.733886
O O15 0.267533 0.428340 0.944247
O O16 0.500000 0.000000 0.500000
O O17 0.500000 0.000000 0.000000
O O18 0.029717 0.646741 0.804949
#
# Coordination Sequence:
#
# PCOD9064640 Si02
#       8
#     2   2   2   2   2   2   2   2
#     4  11  26  41  72 106 144 192 249 318 389 456
#     4  11  24  47  70 103 139 189 250 315 374 454
#     4  11  26  45  69 110 145 191 254 318 381 461
#     4  11  27  47  72 106 154 197 251 311 382 464
#     4  11  24  46  71 100 148 192 244 310 389 454
#     4  12  28  51  76 111 155 205 258 316 394 460
#     4  11  27  45  73 105 144 200 243 310 385 454
#     4  12  24  48  72 106 148 187 259 302 380 457
#
# _framework density 27.326294000000001
#
# number of rings (size 3 to 8) (size 9 to 14) (size 15 to 20)
#    0.000    0.750    5.000    0.750    7.000    0.500 
#    4.500    0.000    0.000    0.000    0.000    0.000 
#    0.000    0.000    0.000    0.000    0.000    0.000 
#
# Total GULP energy -89532.790001 kJ/mol
# GULP energy per Si atom -5595.799375 kJ/mol
# Density = 2.726410 g / cm^3
# Si number density = 27.326294 Si / 1000 Ang^3
#
#
#
# Elastic Constant Matrix: (Units=GPa)
#
#
# Indices 1 2 3 4 5 6 
#
# 1 118.8158 22.0277 31.0577 10.5661 -15.9278 8.1024
# 2 22.0277 107.9197 45.9068 24.0522 5.6086 16.5940
# 3 31.0577 45.9068 202.4841 7.7090 -27.2327 -6.3628
# 4 10.5661 24.0522 7.7090 57.4547 0.5075 -1.5856
# 5 -15.9278 5.6086 -27.2327 0.5075 51.0832 5.2183
# 6 8.1024 16.5940 -6.3628 -1.5856 5.2183 40.3619
#
#
#
# Elastic Compliance Matrix: (Units=1/GPa)
#
#
# Indices 1 2 3 4 5 6 
#
# 1 0.009472 -0.001155 -0.000822 -0.001228 0.002856 -0.001974
# 2 -0.001155 0.012889 -0.003109 -0.004890 -0.002834 -0.005383
# 3 -0.000822 -0.003109 0.006239 0.000644 0.003196 0.002039
# 4 -0.001228 -0.004890 0.000644 0.019678 -0.000018 0.003134
# 5 0.002856 -0.002834 0.003196 -0.000018 0.022669 -0.001836
# 6 -0.001974 -0.005383 0.002039 0.003134 -0.001836 0.028067
#
#
# Mechanical properties :
#
#
# Convention : Reuss Voigt Hill
#
# Bulk Modulus (GPa) = 54.26609 69.68935 61.97772
# Shear Modulus (GPa) = 43.35372 51.79511 47.57441
#
# Velocity S-wave (km/s) = 3.98744 4.35838 4.17703
# Velocity P-wave (km/s) = 6.41102 7.13339 6.78183
#
# Compressibility (1/GPa) = 0.01842772
#
# Stress axis : x y z
#
# Youngs Moduli (GPa) = 105.57411 77.58356 160.27755
#
# Poissons Ratio (x) = 0.08960 0.13178
# Poissons Ratio (y) = 0.12192 0.49835
# Poissons Ratio (z) = 0.08681 0.24123
#
# Static dielectric constant tensor:
#      x y z
#    x 2.397850 0.000230 -0.114230 
#    y 0.000230 2.150110 0.029300 
#    z -0.114230 0.029300 2.205870 
# 
# From -- ./inp_files/81295.got.cif
#   From: 2010.05.17/outbox.cif.g08.bks.cpg/sg2_41_cif.got.tgz:81295.got - 2010.06.03 11:33:40.
