data_PCOD9064035
_publ_section_title
;
Structure prediction by ZEFSAII (Michael W. Deem and Ramdas Pophale) SiO2 
 PCOD9064035
Probable space group: P -1
;
_chemical_formula_sum "Si O2"
_cell_formula_units_Z 12
_cell_length_a 7.890884
_cell_length_b 12.852840
_cell_length_c 12.926331
_cell_angle_alpha 158.768434
_cell_angle_beta 65.807261
_cell_angle_gamma 114.593539
_cell_volume 430.737587
_symmetry_space_group_name_H-M "P -1"
_symmetry_group_IT_number 2
_symmetry_cell_setting 'triclinic'
loop_
_space_group_symop_operation_xyz
x,y,z
-x,-y,-z
loop_
_atom_site_type_symbol
_atom_site_label
_atom_site_fract_x
_atom_site_fract_y
_atom_site_fract_z
Si Si1 0.109362 0.515132 0.877931
Si Si2 0.289309 0.543890 0.361284
Si Si3 0.610832 0.774747 0.175054
Si Si4 0.026232 0.993950 0.752665
Si Si5 0.644899 0.764599 0.740633
Si Si6 0.357830 0.047202 0.362617
O O1 0.168782 0.198288 0.552798
O O2 0.000000 0.500000 0.000000
O O3 0.298926 0.725997 0.041397
O O4 0.021853 0.664954 0.940306
O O5 0.137725 0.772709 0.591642
O O6 0.256681 0.315552 0.250639
O O7 0.476643 0.745083 0.535105
O O8 0.324508 0.356712 0.075424
O O9 0.804085 0.957598 0.330701
O O10 0.458285 0.997029 0.399444
O O11 0.500000 0.500000 0.000000
O O12 0.814713 0.862579 0.711585
O O13 0.500000 0.500000 0.500000
O O14 0.500000 0.000000 0.000000
#
# Coordination Sequence:
#
# PCOD9064035 Si02
#       6
#     2   2   2   2   2   2
#     4  12  25  43  70 105 148 199 248 312 368 447
#     4  11  26  48  79 108 157 194 257 311 381 448
#     4  11  26  47  77 112 158 205 250 309 380 455
#     4  11  28  44  76 114 152 197 255 312 385 449
#     4  12  29  52  82 111 149 200 256 320 385 448
#     4  11  24  45  69  99 148 192 255 294 376 435
#
# _framework density 27.859190000000002
#
# number of rings (size 3 to 8) (size 9 to 14) (size 15 to 20)
#    0.000    0.667    1.667    4.000   11.667    2.000 
#    0.000    0.000    0.000    0.000    0.000    0.000 
#    0.000    0.000    0.000    0.000    0.000    0.000 
#
# Total GULP energy -66839.589433 kJ/mol
# GULP energy per Si atom -5569.965786 kJ/mol
# Density = 2.779578 g / cm^3
# Si number density = 27.859190 Si / 1000 Ang^3
#
#
#
# Elastic Constant Matrix: (Units=GPa)
#
#
# Indices 1 2 3 4 5 6 
#
# 1 189.5157 83.7524 62.7982 6.3398 -42.7163 28.0731
# 2 83.7524 221.7646 59.6863 16.2643 -16.9879 15.2311
# 3 62.7982 59.6863 132.3820 19.8170 -29.9978 0.8444
# 4 6.3398 16.2643 19.8170 37.6266 -7.0342 -9.2749
# 5 -42.7163 -16.9879 -29.9978 -7.0342 66.0073 17.7291
# 6 28.0731 15.2311 0.8444 -9.2749 17.7291 72.3081
#
#
#
# Elastic Compliance Matrix: (Units=1/GPa)
#
#
# Indices 1 2 3 4 5 6 
#
# 1 0.008654 -0.002070 -0.002011 0.000468 0.005317 -0.004144
# 2 -0.002070 0.005805 -0.001529 -0.001578 -0.000585 -0.000461
# 3 -0.002011 -0.001529 0.010403 -0.004029 0.002653 -0.000186
# 4 0.000468 -0.001578 -0.004029 0.030337 0.000214 0.004036
# 5 0.005317 -0.000585 0.002653 0.000214 0.021615 -0.007244
# 6 -0.004144 -0.000461 -0.000186 0.004036 -0.007244 0.017832
#
#
# Mechanical properties :
#
#
# Convention : Reuss Voigt Hill
#
# Bulk Modulus (GPa) = 73.29703 106.23734 89.76718
# Shear Modulus (GPa) = 45.28491 57.68342 51.48417
#
# Velocity S-wave (km/s) = 4.03611 4.55525 4.30352
# Velocity P-wave (km/s) = 6.93450 8.11687 7.54887
#
# Compressibility (1/GPa) = 0.01364312
#
# Stress axis : x y z
#
# Youngs Moduli (GPa) = 115.55063 172.26746 96.12874
#
# Poissons Ratio (x) = 0.35651 0.19332
# Poissons Ratio (y) = 0.23914 0.14696
# Poissons Ratio (z) = 0.23238 0.26336
#
# Static dielectric constant tensor:
#      x y z
#    x 2.452020 -0.134460 0.201980 
#    y -0.134460 2.171180 -0.083480 
#    z 0.201980 -0.083480 2.267820 
# 
# From -- ./inp_files/504780.got.cif
#   From: 2010.05.17/outbox.cif.g08.bks.cpg/sg2_253_cif.got.tgz:504780.got - 2010.06.03 11:33:40.
