data_PCOD9064880
_publ_section_title
;
Structure prediction by ZEFSAII (Michael W. Deem and Ramdas Pophale) SiO2 
 PCOD9064880
Probable space group: P -1
;
_chemical_formula_sum "Si O2"
_cell_formula_units_Z 14
_cell_length_a 8.065577
_cell_length_b 15.616493
_cell_length_c 5.226442
_cell_angle_alpha 64.324292
_cell_angle_beta 88.260123
_cell_angle_gamma 105.698706
_cell_volume 562.845156
_symmetry_space_group_name_H-M "P -1"
_symmetry_group_IT_number 2
_symmetry_cell_setting 'triclinic'
loop_
_space_group_symop_operation_xyz
x,y,z
-x,-y,-z
loop_
_atom_site_type_symbol
_atom_site_label
_atom_site_fract_x
_atom_site_fract_y
_atom_site_fract_z
Si Si1 0.867814 0.725411 0.590310
Si Si2 0.132592 0.096702 0.001185
Si Si3 0.402435 0.569453 0.546190
Si Si4 0.526844 0.696266 0.882440
Si Si5 0.116348 0.803930 0.862355
Si Si6 0.916250 0.586564 0.351619
Si Si7 0.506011 0.898806 0.761218
O O1 0.733323 0.708034 0.857505
O O2 0.843025 0.624530 0.561719
O O3 0.069885 0.776388 0.600552
O O4 0.819783 0.806371 0.310723
O O5 0.315084 0.082468 0.106784
O O6 0.005765 0.126106 0.173315
O O7 0.000000 0.000000 0.000000
O O8 0.500000 0.500000 0.500000
O O9 0.461524 0.629500 0.723781
O O10 0.229925 0.479696 0.744543
O O11 0.424498 0.649351 0.207474
O O12 0.513113 0.806628 0.701949
O O13 0.303589 0.855013 0.915240
O O14 0.045413 0.691102 0.117439
O O15 0.000000 0.500000 0.500000
O O16 0.500000 0.000000 0.500000
#
# Coordination Sequence:
#
# PCOD9064880 Si02
#       7
#     2   2   2   2   2   2   2
#     4  11  24  46  75 104 158 205 262 325 397 474
#     4  11  26  50  78 109 152 206 262 331 399 477
#     4  12  25  45  76 111 151 210 265 321 390 475
#     4  12  26  48  75 116 158 206 273 326 392 483
#     4  11  26  50  74 112 154 202 268 321 401 478
#     4  11  26  44  71 109 156 206 258 328 392 468
#     4  12  28  50  80 116 155 209 265 335 406 476
#
# _framework density 24.873624
#
# number of rings (size 3 to 8) (size 9 to 14) (size 15 to 20)
#    0.000    0.571    2.857    3.857    6.000    2.286 
#    5.143    0.000    0.000    0.000    0.000    0.000 
#    0.000    0.000    0.000    0.000    0.000    0.000 
#
# Total GULP energy -78019.300724 kJ/mol
# GULP energy per Si atom -5572.807195 kJ/mol
# Density = 2.481701 g / cm^3
# Si number density = 24.873624 Si / 1000 Ang^3
#
#
#
# Elastic Constant Matrix: (Units=GPa)
#
#
# Indices 1 2 3 4 5 6 
#
# 1 151.0200 63.3367 52.2716 -18.4155 27.4240 31.1387
# 2 63.3367 203.8102 50.4768 -22.2429 18.3960 27.7563
# 3 52.2716 50.4768 100.2541 -17.8529 14.6857 -0.5486
# 4 -18.4155 -22.2429 -17.8529 46.6245 -4.1974 10.6638
# 5 27.4240 18.3960 14.6857 -4.1974 34.0488 -12.4679
# 6 31.1387 27.7563 -0.5486 10.6638 -12.4679 45.1067
#
#
#
# Elastic Compliance Matrix: (Units=1/GPa)
#
#
# Indices 1 2 3 4 5 6 
#
# 1 0.015362 0.001127 -0.004983 0.007248 -0.016385 -0.017601
# 2 0.001127 0.007317 -0.002673 0.004190 -0.006119 -0.007995
# 3 -0.004983 -0.002673 0.013888 0.000968 0.001587 0.005463
# 4 0.007248 0.004190 0.000968 0.029714 -0.011349 -0.017732
# 5 -0.016385 -0.006119 0.001587 -0.011349 0.055963 0.033247
# 6 -0.017601 -0.007995 0.005463 -0.017732 0.033247 0.052688
#
#
# Mechanical properties :
#
#
# Convention : Reuss Voigt Hill
#
# Bulk Modulus (GPa) = 42.53494 87.47271 65.00382
# Shear Modulus (GPa) = 25.53300 44.42262 34.97781
#
# Velocity S-wave (km/s) = 3.20739 4.23061 3.75403
# Velocity P-wave (km/s) = 5.55464 7.68813 6.70676
#
# Compressibility (1/GPa) = 0.02351009
#
# Stress axis : x y z
#
# Youngs Moduli (GPa) = 65.09632 136.67630 72.00428
#
# Poissons Ratio (x) = -0.15404 0.35876
# Poissons Ratio (y) = -0.07337 0.19245
# Poissons Ratio (z) = 0.32434 0.36530
#
# Static dielectric constant tensor:
#      x y z
#    x 2.154630 -0.029340 0.092250 
#    y -0.029340 1.947980 0.050130 
#    z 0.092250 0.050130 2.115560 
# 
# From -- ./inp_files/36935.got.cif
#   From: 2010.05.17/outbox.cif.g08.bks.cpg/sg2_19_cif.got.tgz:36935.got - 2010.06.03 11:33:40.
