data_PCOD9064948
_publ_section_title
;
Structure prediction by ZEFSAII (Michael W. Deem and Ramdas Pophale) SiO2 
 PCOD9064948
Probable space group: P -1
;
_chemical_formula_sum "Si O2"
_cell_formula_units_Z 14
_cell_length_a 13.515194
_cell_length_b 14.001376
_cell_length_c 8.493841
_cell_angle_alpha 104.511846
_cell_angle_beta 55.678618
_cell_angle_gamma 148.345555
_cell_volume 591.091527
_symmetry_space_group_name_H-M "P -1"
_symmetry_group_IT_number 2
_symmetry_cell_setting 'triclinic'
loop_
_space_group_symop_operation_xyz
x,y,z
-x,-y,-z
loop_
_atom_site_type_symbol
_atom_site_label
_atom_site_fract_x
_atom_site_fract_y
_atom_site_fract_z
Si Si1 0.598181 0.460984 0.883653
Si Si2 0.726665 0.855435 0.675134
Si Si3 0.882647 0.197357 0.256247
Si Si4 0.308888 0.801287 0.313680
Si Si5 0.411749 0.713165 0.406711
Si Si6 0.237479 0.495550 0.772767
Si Si7 0.818978 0.136061 0.789464
O O1 0.573447 0.388639 0.709087
O O2 0.888318 0.672605 0.780915
O O3 0.500000 0.500000 0.000000
O O4 0.417007 0.264493 0.079987
O O5 0.516440 0.665286 0.657230
O O6 0.756761 0.994690 0.684918
O O7 0.000000 0.000000 0.500000
O O8 0.707172 0.141004 0.495639
O O9 0.693443 0.972460 0.272484
O O10 0.045479 0.371863 0.043191
O O11 0.260021 0.659652 0.379666
O O12 0.153894 0.748054 0.296613
O O13 0.585869 0.990386 0.057704
O O14 0.293390 0.625118 0.653009
O O15 0.071219 0.298823 0.735186
#
# Coordination Sequence:
#
# PCOD9064948 Si02
#       7
#     2   2   2   2   2   2   2
#     4  11  27  48  72 105 143 193 245 305 364 430
#     4  11  26  49  74 104 146 191 245 305 366 423
#     4  11  25  48  69 108 149 188 245 300 361 437
#     4  11  24  46  77 101 158 193 230 311 361 434
#     4  12  25  48  73 108 146 195 239 297 369 424
#     4  11  26  44  74 109 140 192 248 288 364 441
#     4  11  24  49  70 111 149 189 245 300 364 433
#
# _framework density 23.684996000000002
#
# number of rings (size 3 to 8) (size 9 to 14) (size 15 to 20)
#    0.000    0.857    2.857    2.143    6.000    4.000 
#    5.143    0.000    0.000    0.000    0.000    0.000 
#    0.000    0.000    0.000    0.000    0.000    0.000 
#
# Total GULP energy -78195.873052 kJ/mol
# GULP energy per Si atom -5585.419504 kJ/mol
# Density = 2.363109 g / cm^3
# Si number density = 23.684996 Si / 1000 Ang^3
#
#
#
# Elastic Constant Matrix: (Units=GPa)
#
#
# Indices 1 2 3 4 5 6 
#
# 1 100.5675 47.7056 75.4497 -4.7598 5.8107 -1.1681
# 2 47.7056 111.8111 53.2862 -2.2903 -19.0788 8.1308
# 3 75.4497 53.2862 147.3630 -8.0169 24.2651 -7.6925
# 4 -4.7598 -2.2903 -8.0169 31.2570 -8.3794 2.5230
# 5 5.8107 -19.0788 24.2651 -8.3794 55.6743 -9.1634
# 6 -1.1681 8.1308 -7.6925 2.5230 -9.1634 41.2492
#
#
#
# Elastic Compliance Matrix: (Units=1/GPa)
#
#
# Indices 1 2 3 4 5 6 
#
# 1 0.017423 -0.003754 -0.007585 0.000513 0.000252 -0.000156
# 2 -0.003754 0.013961 -0.004302 0.001375 0.006894 -0.002213
# 3 -0.007585 -0.004302 0.013343 0.000153 -0.006189 0.001737
# 4 0.000513 0.001375 0.000153 0.033706 0.005239 -0.001126
# 5 0.000252 0.006894 -0.006189 0.005239 0.024203 0.002550
# 6 -0.000156 -0.002213 0.001737 -0.001126 0.002550 0.025634
#
#
# Mechanical properties :
#
#
# Convention : Reuss Voigt Hill
#
# Bulk Modulus (GPa) = 74.37680 79.18052 76.77866
# Shear Modulus (GPa) = 30.48158 37.85610 34.16884
#
# Velocity S-wave (km/s) = 3.59131 4.00223 3.80233
# Velocity P-wave (km/s) = 6.97620 7.40678 7.19471
#
# Compressibility (1/GPa) = 0.01344505
#
# Stress axis : x y z
#
# Youngs Moduli (GPa) = 57.39699 71.62818 74.94504
#
# Poissons Ratio (x) = 0.26888 0.56844
# Poissons Ratio (y) = 0.21546 0.32243
# Poissons Ratio (z) = 0.43534 0.30816
#
# Static dielectric constant tensor:
#      x y z
#    x 1.946560 -0.012720 0.013770 
#    y -0.012720 1.932570 -0.043660 
#    z 0.013770 -0.043660 1.916780 
# 
# From -- ./inp_files/315545.got.cif
#   From: 2010.05.17/outbox.cif.g08.bks.cpg/sg2_158_cif.got.tgz:315545.got - 2010.06.03 11:33:40.
