data_PCOD9064360
_publ_section_title
;
Structure prediction by ZEFSAII (Michael W. Deem and Ramdas Pophale) SiO2 
 PCOD9064360
Probable space group: P -1
;
_chemical_formula_sum "Si O2"
_cell_formula_units_Z 16
_cell_length_a 14.817305
_cell_length_b 5.168878
_cell_length_c 9.175440
_cell_angle_alpha 82.796595
_cell_angle_beta 108.041690
_cell_angle_gamma 91.017049
_cell_volume 662.744347
_symmetry_space_group_name_H-M "P -1"
_symmetry_group_IT_number 2
_symmetry_cell_setting 'triclinic'
loop_
_space_group_symop_operation_xyz
x,y,z
-x,-y,-z
loop_
_atom_site_type_symbol
_atom_site_label
_atom_site_fract_x
_atom_site_fract_y
_atom_site_fract_z
Si Si1 0.667312 0.873433 0.246599
Si Si2 0.141321 0.890045 0.695336
Si Si3 0.264551 0.510949 0.332049
Si Si4 0.082646 0.586820 0.419414
Si Si5 0.614287 0.002020 0.537893
Si Si6 0.607395 0.420223 0.078459
Si Si7 0.217214 0.474538 0.996660
Si Si8 0.957137 0.854986 0.124420
O O1 0.779896 0.890561 0.281307
O O2 0.634652 0.970804 0.379568
O O3 0.624375 0.108762 0.107053
O O4 0.637754 0.578385 0.226751
O O5 0.122024 0.818049 0.525044
O O6 0.053300 0.979941 0.743272
O O7 0.184698 0.657584 0.832226
O O8 0.182144 0.463248 0.415074
O O9 0.335235 0.738931 0.397662
O O10 0.213577 0.589871 0.148487
O O11 0.327382 0.249444 0.352624
O O12 0.000000 0.500000 0.500000
O O13 0.024896 0.627749 0.237210
O O14 0.500000 0.000000 0.500000
O O15 0.500000 0.500000 0.000000
O O16 0.672212 0.561383 0.981331
O O17 0.145931 0.238486 0.968798
O O18 0.000000 0.000000 0.000000
#
# Coordination Sequence:
#
# PCOD9064360 Si02
#       8
#     2   2   2   2   2   2   2   2
#     4  11  24  45  74 104 147 187 255 306 377 436
#     4  11  24  47  73 104 151 200 259 315 374 450
#     4  12  30  49  77 113 156 197 258 315 385 462
#     4  12  27  47  77 111 148 212 259 316 381 459
#     4  12  29  50  80 108 153 201 250 317 390 462
#     4  11  25  44  75 108 143 195 247 314 375 462
#     4  11  27  46  70 107 155 195 250 317 385 447
#     4  12  27  45  75 109 155 201 260 313 387 454
#
# _framework density 24.142040000000001
#
# number of rings (size 3 to 8) (size 9 to 14) (size 15 to 20)
#    0.000    0.500    3.750    2.625   12.250    1.000 
#    0.000    0.000    0.000    0.000    0.000    0.000 
#    0.000    0.000    0.000    0.000    0.000    0.000 
#
# Total GULP energy -89334.154707 kJ/mol
# GULP energy per Si atom -5583.384669 kJ/mol
# Density = 2.408709 g / cm^3
# Si number density = 24.142040 Si / 1000 Ang^3
#
#
#
# Elastic Constant Matrix: (Units=GPa)
#
#
# Indices 1 2 3 4 5 6 
#
# 1 162.9993 26.7426 53.1184 -12.9184 -1.8054 12.5549
# 2 26.7426 79.6328 16.0178 -10.2087 1.7579 3.6681
# 3 53.1184 16.0178 99.5021 -2.7051 -18.3560 13.2305
# 4 -12.9184 -10.2087 -2.7051 28.6176 -2.3375 -5.4856
# 5 -1.8054 1.7579 -18.3560 -2.3375 30.3169 1.2361
# 6 12.5549 3.6681 13.2305 -5.4856 1.2361 31.8388
#
#
#
# Elastic Compliance Matrix: (Units=1/GPa)
#
#
# Indices 1 2 3 4 5 6 
#
# 1 0.007962 -0.001454 -0.004174 0.002393 -0.001754 -0.000757
# 2 -0.001454 0.013933 -0.001717 0.004105 -0.001636 0.000452
# 3 -0.004174 -0.001717 0.014814 -0.001304 0.008919 -0.004883
# 4 0.002393 0.004105 -0.001304 0.038610 0.001859 0.005706
# 5 -0.001754 -0.001636 0.008919 0.001859 0.038682 -0.004008
# 6 -0.000757 0.000452 -0.004883 0.005706 -0.004008 0.034823
#
#
# Mechanical properties :
#
#
# Convention : Reuss Voigt Hill
#
# Bulk Modulus (GPa) = 45.41647 59.32131 52.36889
# Shear Modulus (GPa) = 29.26466 34.57170 31.91818
#
# Velocity S-wave (km/s) = 3.48542 3.78830 3.64001
# Velocity P-wave (km/s) = 5.92036 6.61514 6.27737
#
# Compressibility (1/GPa) = 0.02201844
#
# Stress axis : x y z
#
# Youngs Moduli (GPa) = 125.58969 71.77316 67.50321
#
# Poissons Ratio (x) = 0.10436 0.28178
# Poissons Ratio (y) = 0.18261 0.11591
# Poissons Ratio (z) = 0.52426 0.12324
#
# Static dielectric constant tensor:
#      x y z
#    x 2.077290 -0.266470 0.284050 
#    y -0.266470 2.424320 -0.528310 
#    z 0.284050 -0.528310 2.588320 
# 
# From -- ./inp_files/288702.got.cif
#   From: 2010.05.17/outbox.cif.g08.bks.cpg/sg2_145_cif.got.tgz:288702.got - 2010.06.03 11:33:40.
