data_PCOD9064850
_publ_section_title
;
Structure prediction by ZEFSAII (Michael W. Deem and Ramdas Pophale) SiO2 
 PCOD9064850
Probable space group: P -1
;
_chemical_formula_sum "Si O2"
_cell_formula_units_Z 15
_cell_length_a 6.143992
_cell_length_b 6.318723
_cell_length_c 19.400277
_cell_angle_alpha 86.768085
_cell_angle_beta 118.854553
_cell_angle_gamma 102.771155
_cell_volume 642.218511
_symmetry_space_group_name_H-M "P -1"
_symmetry_group_IT_number 2
_symmetry_cell_setting 'triclinic'
loop_
_space_group_symop_operation_xyz
x,y,z
-x,-y,-z
loop_
_atom_site_type_symbol
_atom_site_label
_atom_site_fract_x
_atom_site_fract_y
_atom_site_fract_z
Si Si1 0.467217 0.165201 0.309522
Si Si2 0.935468 0.584787 0.750875
Si Si3 0.841582 0.226443 0.641582
Si Si4 0.005061 0.111158 0.425131
Si Si5 0.303302 0.336575 0.021995
Si Si6 0.553123 0.080401 0.169466
Si Si7 0.500000 0.500000 0.500000
Si Si8 0.193986 0.647775 0.119896
O O1 0.326923 0.349069 0.310652
O O2 0.445146 0.154108 0.223584
O O3 0.758757 0.210141 0.375344
O O4 0.334485 0.936522 0.328197
O O5 0.003857 0.422555 0.707838
O O6 0.891784 0.464208 0.818957
O O7 0.150353 0.804780 0.786554
O O8 0.668599 0.327091 0.560717
O O9 0.998523 0.078009 0.627834
O O10 0.255877 0.297738 0.455317
O O11 0.000000 0.000000 0.500000
O O12 0.436674 0.162533 0.081305
O O13 0.230532 0.473366 0.072293
O O14 0.500000 0.500000 0.000000
O O15 0.040039 0.246808 0.942855
O O16 0.458711 0.822837 0.161495
#
# Coordination Sequence:
#
# PCOD9064850 Si02
#       8
#     2   2   2   2   2   2   1   2
#     4  12  26  50  76 109 152 198 250 306 380 445
#     4  12  27  49  76 111 151 199 254 310 373 448
#     4  12  27  49  78 112 149 194 251 308 374 453
#     4  12  29  53  77 112 152 196 247 308 379 449
#     4  11  24  46  74 108 151 199 251 308 377 442
#     4  12  25  46  77 108 149 202 247 312 376 439
#     4  12  26  52  82 108 146 192 246 310 374 442
#     4  11  25  47  72 109 150 198 253 308 373 446
#
# _framework density 23.356538
#
# number of rings (size 3 to 8) (size 9 to 14) (size 15 to 20)
#    0.000    0.267    5.333    3.200    1.867    6.400 
#    4.800    0.000    0.000    0.000    0.000    0.000 
#    0.000    0.000    0.000    0.000    0.000    0.000 
#
# Total GULP energy -83781.529432 kJ/mol
# GULP energy per Si atom -5585.435295 kJ/mol
# Density = 2.330338 g / cm^3
# Si number density = 23.356538 Si / 1000 Ang^3
#
#
#
# Elastic Constant Matrix: (Units=GPa)
#
#
# Indices 1 2 3 4 5 6 
#
# 1 77.3627 36.3042 57.2843 -0.2639 4.4813 2.5030
# 2 36.3042 92.4919 50.1848 9.3663 -2.3893 12.6231
# 3 57.2843 50.1848 105.6612 -12.6055 6.1313 11.3109
# 4 -0.2639 9.3663 -12.6055 47.6593 13.1060 2.5660
# 5 4.4813 -2.3893 6.1313 13.1060 39.6138 -12.0804
# 6 2.5030 12.6231 11.3109 2.5660 -12.0804 27.9736
#
#
#
# Elastic Compliance Matrix: (Units=1/GPa)
#
#
# Indices 1 2 3 4 5 6 
#
# 1 0.022965 -0.002699 -0.012234 -0.003363 0.001835 0.005211
# 2 -0.002699 0.016830 -0.007251 -0.006169 0.003810 -0.002210
# 3 -0.012234 -0.007251 0.022251 0.010133 -0.008690 -0.009313
# 4 -0.003363 -0.006169 0.010133 0.029310 -0.014264 -0.009861
# 5 0.001835 0.003810 -0.008690 -0.014264 0.037114 0.018967
# 6 0.005211 -0.002210 -0.009313 -0.009861 0.018967 0.049140
#
#
# Mechanical properties :
#
#
# Convention : Reuss Voigt Hill
#
# Bulk Modulus (GPa) = 56.56678 62.56249 59.56463
# Shear Modulus (GPa) = 21.94224 31.83219 26.88722
#
# Velocity S-wave (km/s) = 3.06837 3.69573 3.39656
# Velocity P-wave (km/s) = 6.06832 6.71232 6.39843
#
# Compressibility (1/GPa) = 0.01767822
#
# Stress axis : x y z
#
# Youngs Moduli (GPa) = 43.54368 59.41740 44.94223
#
# Poissons Ratio (x) = 0.16039 0.54983
# Poissons Ratio (y) = 0.11754 0.32586
# Poissons Ratio (z) = 0.53272 0.43081
#
# Static dielectric constant tensor:
#      x y z
#    x 1.870620 -0.015370 -0.007680 
#    y -0.015370 1.844110 -0.006900 
#    z -0.007680 -0.006900 1.897170 
# 
# From -- ./inp_files/121782.got.cif
#   From: 2010.05.17/outbox.cif.g08.bks.cpg/sg2_61_cif.got.tgz:121782.got - 2010.06.03 11:33:40.
