data_PCOD9064060
_publ_section_title
;
Structure prediction by ZEFSAII (Michael W. Deem and Ramdas Pophale) SiO2 
 PCOD9064060
Probable space group: P -1
;
_chemical_formula_sum "Si O2"
_cell_formula_units_Z 10
_cell_length_a 8.666343
_cell_length_b 27.826131
_cell_length_c 16.217129
_cell_angle_alpha 163.620115
_cell_angle_beta 155.974225
_cell_angle_gamma 21.686106
_cell_volume 398.466004
_symmetry_space_group_name_H-M "P -1"
_symmetry_group_IT_number 2
_symmetry_cell_setting 'triclinic'
loop_
_space_group_symop_operation_xyz
x,y,z
-x,-y,-z
loop_
_atom_site_type_symbol
_atom_site_label
_atom_site_fract_x
_atom_site_fract_y
_atom_site_fract_z
Si Si1 0.625733 0.017031 0.497768
Si Si2 0.371100 0.156406 0.328934
Si Si3 0.554971 0.832590 0.004478
Si Si4 0.534896 0.662336 0.171464
Si Si5 0.952323 0.542613 0.450497
O O1 0.514107 0.881606 0.160769
O O2 0.134253 0.945130 0.623639
O O3 0.500000 0.000000 0.500000
O O4 0.375844 0.230270 0.684578
O O5 0.261442 0.327058 0.624704
O O6 0.112650 0.256195 0.284964
O O7 0.294884 0.003992 0.095845
O O8 0.963145 0.194690 0.818960
O O9 0.635306 0.626840 0.671932
O O10 0.479123 0.475485 0.815297
O O11 0.000000 0.500000 0.500000
#
# Coordination Sequence:
#
# PCOD9064060 Si02
#       5
#     2   2   2   2   2
#     4   9  15  28  50  70  89 117 149 187 224 262
#     4   9  15  30  50  65  91 116 144 198 225 245
#     4   7  16  29  45  67  90 109 153 186 219 260
#     4   7  15  29  44  69  88 107 152 190 212 264
#     4  10  18  27  48  72  89 115 154 184 222 265
#
# _framework density 25.096245
#
# number of rings (size 3 to 8) (size 9 to 14) (size 15 to 20)
#    1.200    2.400    0.000    3.000    0.000    0.800 
#    0.000    1.000    0.000    2.400    0.000    0.000 
#    0.000    0.000    0.000    0.000    0.000    0.000 
#
# Total GULP energy -55684.497958 kJ/mol
# GULP energy per Si atom -5568.449796 kJ/mol
# Density = 2.503913 g / cm^3
# Si number density = 25.096245 Si / 1000 Ang^3
#
#
#
# Elastic Constant Matrix: (Units=GPa)
#
#
# Indices 1 2 3 4 5 6 
#
# 1 199.3102 57.1287 26.7373 0.7910 -13.5888 42.3106
# 2 57.1287 72.5900 37.2032 -8.0892 4.6255 47.4105
# 3 26.7373 37.2032 14.8011 35.6036 -21.4350 -12.6620
# 4 0.7910 -8.0892 35.6036 0.3053 19.0357 30.0017
# 5 -13.5888 4.6255 -21.4350 19.0357 16.2400 -13.9836
# 6 42.3106 47.4105 -12.6620 30.0017 -13.9836 34.9173
#
#
#
# Elastic Compliance Matrix: (Units=1/GPa)
#
#
# Indices 1 2 3 4 5 6 
#
# 1 0.006928 -0.003650 -0.000779 0.000164 0.003497 -0.002463
# 2 -0.003650 0.015582 0.002626 -0.011576 0.006894 -0.003075
# 3 -0.000779 0.002626 0.013557 0.012103 -0.007129 -0.010959
# 4 0.000164 -0.011576 0.012103 0.015972 0.009176 0.009859
# 5 0.003497 0.006894 -0.007129 0.009176 0.033045 -0.010833
# 6 -0.002463 -0.003075 -0.010959 0.009859 -0.010833 0.019015
#
#
# Mechanical properties :
#
#
# Convention : Reuss Voigt Hill
#
# Bulk Modulus (GPa) = 30.80565 58.75996 44.78281
# Shear Modulus (GPa) = 42.18516 21.33467 31.75992
#
# Velocity S-wave (km/s) = 4.10437 2.91883 3.56128
# Velocity P-wave (km/s) = 5.89600 5.90120 5.89860
#
# Compressibility (1/GPa) = 0.03246157
#
# Stress axis : x y z
#
# Youngs Moduli (GPa) = 144.33285 64.17746 73.76379
#
# Poissons Ratio (x) = 0.23423 0.05745
# Poissons Ratio (y) = 0.52677 -0.19369
# Poissons Ratio (z) = 0.11241 -0.16852
#
# Static dielectric constant tensor:
#      x y z
#    x 1.985050 -0.065700 0.030720 
#    y -0.065700 2.053470 0.005390 
#    z 0.030720 0.005390 2.147680 
# 
# From -- ./inp_files/209811.got.cif
#   From: 2010.05.17/outbox.cif.g08.bks.cpg/sg2_105_cif.got.tgz:209811.got - 2010.06.03 11:33:40.
