data_PCOD9064723
_publ_section_title
;
Structure prediction by ZEFSAII (Michael W. Deem and Ramdas Pophale) SiO2 
 PCOD9064723
Probable space group: P -1
;
_chemical_formula_sum "Si O2"
_cell_formula_units_Z 14
_cell_length_a 9.239537
_cell_length_b 8.049911
_cell_length_c 16.316394
_cell_angle_alpha 89.355772
_cell_angle_beta 49.004087
_cell_angle_gamma 54.389079
_cell_volume 593.376808
_symmetry_space_group_name_H-M "P -1"
_symmetry_group_IT_number 2
_symmetry_cell_setting 'triclinic'
loop_
_space_group_symop_operation_xyz
x,y,z
-x,-y,-z
loop_
_atom_site_type_symbol
_atom_site_label
_atom_site_fract_x
_atom_site_fract_y
_atom_site_fract_z
Si Si1 0.819366 0.894200 0.427401
Si Si2 0.723459 0.561729 0.086915
Si Si3 0.221693 0.384087 0.674825
Si Si4 0.593189 0.751425 0.976608
Si Si5 0.279139 0.699726 0.375166
Si Si6 0.864563 0.130084 0.960962
Si Si7 0.709691 0.272467 0.338565
O O1 0.542399 0.111187 0.590206
O O2 0.765667 0.086968 0.383980
O O3 0.799523 0.727483 0.393757
O O4 0.133783 0.692291 0.355452
O O5 0.562938 0.601983 0.227667
O O6 0.488866 0.791957 0.109166
O O7 0.825362 0.349106 0.988570
O O8 0.000000 0.500000 0.000000
O O9 0.219237 0.584949 0.659332
O O10 0.945216 0.522966 0.833021
O O11 0.440694 0.742349 0.962573
O O12 0.500000 0.000000 0.000000
O O13 0.392550 0.514956 0.410258
O O14 0.000000 0.000000 0.500000
O O15 0.088316 0.917885 0.810962
O O16 0.000000 0.000000 0.000000
#
# Coordination Sequence:
#
# PCOD9064723 Si02
#       7
#     2   2   2   2   2   2   2
#     4  11  26  47  74 104 146 197 240 303 369 435
#     4  12  26  46  71 107 145 187 245 308 362 440
#     4  11  24  46  72 105 145 187 251 300 359 446
#     4  12  24  42  73 103 140 190 241 298 371 432
#     4  12  26  45  76 107 147 191 244 300 369 443
#     4  12  24  45  70 101 142 188 238 301 367 432
#     4  12  24  48  74 102 144 197 241 303 368 434
#
# _framework density 23.593778
#
# number of rings (size 3 to 8) (size 9 to 14) (size 15 to 20)
#    0.000    0.286    4.286    5.143    0.000    0.000 
#    0.000    4.286    0.000    0.000    0.000    0.000 
#    0.000    0.000    0.000    0.000    0.000    0.000 
#
# Total GULP energy -78064.278047 kJ/mol
# GULP energy per Si atom -5576.019860 kJ/mol
# Density = 2.354008 g / cm^3
# Si number density = 23.593778 Si / 1000 Ang^3
#
#
#
# Elastic Constant Matrix: (Units=GPa)
#
#
# Indices 1 2 3 4 5 6 
#
# 1 196.8617 36.8378 40.4537 -2.5134 23.7857 -1.0591
# 2 36.8378 98.8516 14.8893 -9.2615 19.1091 -0.5165
# 3 40.4537 14.8893 130.1638 12.4803 10.6238 9.0005
# 4 -2.5134 -9.2615 12.4803 38.0933 1.7959 14.1425
# 5 23.7857 19.1091 10.6238 1.7959 50.0513 14.9187
# 6 -1.0591 -0.5165 9.0005 14.1425 14.9187 39.0761
#
#
#
# Elastic Compliance Matrix: (Units=1/GPa)
#
#
# Indices 1 2 3 4 5 6 
#
# 1 0.005984 -0.001515 -0.001605 0.000164 -0.002331 0.001342
# 2 -0.001515 0.011864 -0.000902 0.002988 -0.003949 0.000750
# 3 -0.001605 -0.000902 0.008645 -0.002809 -0.000361 -0.000892
# 4 0.000164 0.002988 -0.002809 0.032128 0.001676 -0.011576
# 5 -0.002331 -0.003949 -0.000361 0.001676 0.025729 -0.010462
# 6 0.001342 0.000750 -0.000892 -0.011576 -0.010462 0.034027
#
#
# Mechanical properties :
#
#
# Convention : Reuss Voigt Hill
#
# Bulk Modulus (GPa) = 54.20521 67.80432 61.00477
# Shear Modulus (GPa) = 37.71566 47.69055 42.70310
#
# Velocity S-wave (km/s) = 4.00252 4.50079 4.25894
# Velocity P-wave (km/s) = 6.66216 7.47061 7.07794
#
# Compressibility (1/GPa) = 0.01844841
#
# Stress axis : x y z
#
# Youngs Moduli (GPa) = 167.11438 84.28906 115.67272
#
# Poissons Ratio (x) = 0.12773 0.18562
# Poissons Ratio (y) = 0.25324 0.10436
# Poissons Ratio (z) = 0.26817 0.07604
#
# Static dielectric constant tensor:
#      x y z
#    x 2.052680 -0.109420 -0.020840 
#    y -0.109420 2.133190 -0.016080 
#    z -0.020840 -0.016080 1.983420 
# 
# From -- ./inp_files/493627.got.cif
#   From: 2010.05.17/outbox.cif.g08.bks.cpg/sg2_247_cif.got.tgz:493627.got - 2010.06.03 11:33:40.
