data_PCOD9064025
_publ_section_title
;
Structure prediction by ZEFSAII (Michael W. Deem and Ramdas Pophale) SiO2 
 PCOD9064025
Probable space group: P -1
;
_chemical_formula_sum "Si O2"
_cell_formula_units_Z 16
_cell_length_a 6.997519
_cell_length_b 9.576039
_cell_length_c 20.000482
_cell_angle_alpha 51.396372
_cell_angle_beta 64.752198
_cell_angle_gamma 49.400431
_cell_volume 794.747705
_symmetry_space_group_name_H-M "P -1"
_symmetry_group_IT_number 2
_symmetry_cell_setting 'triclinic'
loop_
_space_group_symop_operation_xyz
x,y,z
-x,-y,-z
loop_
_atom_site_type_symbol
_atom_site_label
_atom_site_fract_x
_atom_site_fract_y
_atom_site_fract_z
Si Si1 0.508609 0.768206 0.365837
Si Si2 0.597379 0.435330 0.348348
Si Si3 0.531401 0.226371 0.846652
Si Si4 0.739693 0.714932 0.491181
Si Si5 0.042362 0.922544 0.941582
Si Si6 0.527785 0.915157 0.834958
Si Si7 0.037641 0.024868 0.565868
Si Si8 0.006456 0.469551 0.929393
O O1 0.648721 0.542850 0.372235
O O2 0.610358 0.787501 0.416084
O O3 0.230278 0.821456 0.405725
O O4 0.497830 0.940436 0.266618
O O5 0.478211 0.613334 0.255631
O O6 0.418956 0.354926 0.421727
O O7 0.841687 0.214877 0.353298
O O8 0.285636 0.363798 0.888722
O O9 0.794144 0.094482 0.885931
O O10 0.509893 0.049143 0.863202
O O11 0.794570 0.877829 0.471257
O O12 0.000000 0.500000 0.500000
O O13 0.291863 0.890987 0.881296
O O14 0.070670 0.699558 0.012781
O O15 0.000000 0.000000 0.000000
O O16 0.794860 0.692004 0.861560
O O17 0.000000 0.000000 0.500000
O O18 0.000000 0.500000 0.000000
#
# Coordination Sequence:
#
# PCOD9064025 Si02
#       8
#     2   2   2   2   2   2   2   2
#     4  11  25  45  67  98 139 173 225 277 332 393
#     4  11  24  45  69  97 135 180 219 278 336 389
#     4  11  25  46  67 103 141 170 224 285 334 399
#     4  12  24  43  69  98 134 180 225 270 333 396
#     4  12  24  45  71  98 135 177 225 274 342 406
#     4  11  25  44  69 104 135 177 223 283 333 399
#     4  12  24  44  67  95 133 179 229 270 327 397
#     4  12  23  46  74  95 136 179 222 276 343 402
#
# _framework density 20.132173000000002
#
# number of rings (size 3 to 8) (size 9 to 14) (size 15 to 20)
#    0.000    0.500    5.000    3.750    1.750    0.000 
#    4.500    0.000    0.000    0.000    0.000    0.000 
#    0.000    0.000    0.000    0.000    0.000    0.000 
#
# Total GULP energy -89413.975953 kJ/mol
# GULP energy per Si atom -5588.373497 kJ/mol
# Density = 2.008635 g / cm^3
# Si number density = 20.132173 Si / 1000 Ang^3
#
#
#
# Elastic Constant Matrix: (Units=GPa)
#
#
# Indices 1 2 3 4 5 6 
#
# 1 86.9670 35.5390 27.8283 -0.8563 2.9818 6.9928
# 2 35.5390 107.0700 28.0855 -16.2407 3.4624 11.4341
# 3 27.8283 28.0855 82.8871 -4.3041 2.1910 11.2666
# 4 -0.8563 -16.2407 -4.3041 40.2233 -3.3717 -3.0626
# 5 2.9818 3.4624 2.1910 -3.3717 20.2049 -8.7951
# 6 6.9928 11.4341 11.2666 -3.0626 -8.7951 45.2179
#
#
#
# Elastic Compliance Matrix: (Units=1/GPa)
#
#
# Indices 1 2 3 4 5 6 
#
# 1 0.014329 -0.004008 -0.003393 -0.001884 -0.001732 -0.000821
# 2 -0.004008 0.012162 -0.002263 0.004330 -0.001333 -0.001858
# 3 -0.003393 -0.002263 0.014417 0.000182 -0.001885 -0.002850
# 4 -0.001884 0.004330 0.000182 0.027147 0.004891 0.001941
# 5 -0.001732 -0.001333 -0.001885 0.004891 0.056383 0.012373
# 6 -0.000821 -0.001858 -0.002850 0.001941 0.012373 0.025960
#
#
# Mechanical properties :
#
#
# Convention : Reuss Voigt Hill
#
# Bulk Modulus (GPa) = 46.33858 51.09219 48.71539
# Shear Modulus (GPa) = 28.26144 33.49397 30.87770
#
# Velocity S-wave (km/s) = 3.75079 4.08328 3.92056
# Velocity P-wave (km/s) = 6.46723 6.90394 6.68915
#
# Compressibility (1/GPa) = 0.02158029
#
# Stress axis : x y z
#
# Youngs Moduli (GPa) = 69.78759 82.22403 69.36222
#
# Poissons Ratio (x) = 0.32957 0.23535
# Poissons Ratio (y) = 0.27972 0.15694
# Poissons Ratio (z) = 0.23680 0.18604
#
# Static dielectric constant tensor:
#      x y z
#    x 1.734670 -0.015580 0.018690 
#    y -0.015580 1.727510 0.001660 
#    z 0.018690 0.001660 1.687150 
# 
# From -- ./inp_files/46846.got.cif
#   From: 2010.05.17/outbox.cif.g08.bks.cpg/sg2_24_cif.got.tgz:46846.got - 2010.06.03 11:33:40.
