data_PCOD9064709
_publ_section_title
;
Structure prediction by ZEFSAII (Michael W. Deem and Ramdas Pophale) SiO2 
 PCOD9064709
Probable space group: P -1
;
_chemical_formula_sum "Si O2"
_cell_formula_units_Z 12
_cell_length_a 13.481294
_cell_length_b 8.412430
_cell_length_c 7.203363
_cell_angle_alpha 83.864718
_cell_angle_beta 100.674739
_cell_angle_gamma 140.180821
_cell_volume 513.272070
_symmetry_space_group_name_H-M "P -1"
_symmetry_group_IT_number 2
_symmetry_cell_setting 'triclinic'
loop_
_space_group_symop_operation_xyz
x,y,z
-x,-y,-z
loop_
_atom_site_type_symbol
_atom_site_label
_atom_site_fract_x
_atom_site_fract_y
_atom_site_fract_z
Si Si1 0.109831 0.962809 0.224915
Si Si2 0.819289 0.507154 0.400037
Si Si3 0.887032 0.400476 0.792586
Si Si4 0.321696 0.219567 0.928098
Si Si5 0.659134 0.605944 0.473020
Si Si6 0.326056 0.845938 0.947053
O O1 0.152402 0.823955 0.271569
O O2 0.936543 0.751669 0.278830
O O3 0.212706 0.204727 0.352663
O O4 0.174895 0.084416 0.027667
O O5 0.912088 0.540155 0.602165
O O6 0.675897 0.441281 0.437470
O O7 0.754064 0.298815 0.256510
O O8 0.753657 0.324440 0.875850
O O9 0.000000 0.500000 0.000000
O O10 0.289415 0.238092 0.710335
O O11 0.325992 0.034545 0.950764
O O12 0.500000 0.500000 0.000000
O O13 0.500000 0.500000 0.500000
O O14 0.500000 0.000000 0.000000
#
# Coordination Sequence:
#
# PCOD9064709 Si02
#       6
#     2   2   2   2   2   2
#     4  11  25  46  73 103 143 192 241 302 362 429
#     4  12  27  46  74 111 145 190 253 298 365 435
#     4  11  25  47  74 106 144 186 241 309 365 429
#     4  11  24  46  72 102 148 190 235 294 362 434
#     4  12  27  45  69 103 151 197 236 298 365 433
#     4  11  26  44  75 109 142 194 244 299 364 434
#
# _framework density 23.379414000000001
#
# number of rings (size 3 to 8) (size 9 to 14) (size 15 to 20)
#    0.000    0.667    3.333    3.000    9.333    2.667 
#    0.000    0.000    0.000    0.000    0.000    0.000 
#    0.000    0.000    0.000    0.000    0.000    0.000 
#
# Total GULP energy -66902.189700 kJ/mol
# GULP energy per Si atom -5575.182475 kJ/mol
# Density = 2.332620 g / cm^3
# Si number density = 23.379414 Si / 1000 Ang^3
#
#
#
# Elastic Constant Matrix: (Units=GPa)
#
#
# Indices 1 2 3 4 5 6 
#
# 1 95.7136 22.8203 50.0855 -14.2314 -27.0790 10.0973
# 2 22.8203 86.8895 42.8966 -0.6210 -15.1615 5.4184
# 3 50.0855 42.8966 167.3544 -32.0453 -19.7235 -0.7892
# 4 -14.2314 -0.6210 -32.0453 45.3827 -7.0185 -11.7117
# 5 -27.0790 -15.1615 -19.7235 -7.0185 36.5367 -5.0094
# 6 10.0973 5.4184 -0.7892 -11.7117 -5.0094 41.1338
#
#
#
# Elastic Compliance Matrix: (Units=1/GPa)
#
#
# Indices 1 2 3 4 5 6 
#
# 1 0.015749 -0.001023 -0.002294 0.004675 0.010751 -0.001135
# 2 -0.001023 0.014067 -0.003593 -0.002884 0.002282 -0.002214
# 3 -0.002294 -0.003593 0.009507 0.007542 0.003916 0.003843
# 4 0.004675 -0.002884 0.007542 0.033767 0.014297 0.010732
# 5 0.010751 0.002282 0.003916 0.014297 0.042012 0.006322
# 6 -0.001135 -0.002214 0.003843 0.010732 0.006322 0.028781
#
#
# Mechanical properties :
#
#
# Convention : Reuss Voigt Hill
#
# Bulk Modulus (GPa) = 39.21391 64.61804 51.91598
# Shear Modulus (GPa) = 30.08340 40.22099 35.15219
#
# Velocity S-wave (km/s) = 3.59102 4.15222 3.88177
# Velocity P-wave (km/s) = 5.83122 7.11947 6.50730
#
# Compressibility (1/GPa) = 0.02550115
#
# Stress axis : x y z
#
# Youngs Moduli (GPa) = 63.49669 71.08742 105.18889
#
# Poissons Ratio (x) = 0.07275 0.24131
# Poissons Ratio (y) = 0.06498 0.37797
# Poissons Ratio (z) = 0.14567 0.25544
#
# Static dielectric constant tensor:
#      x y z
#    x 3.037790 -0.022590 -0.076310 
#    y -0.022590 1.928090 -0.027090 
#    z -0.076310 -0.027090 1.897740 
# 
# From -- ./inp_files/90474.got.cif
#   From: 2010.05.17/outbox.cif.g08.bks.cpg/sg2_46_cif.got.tgz:90474.got - 2010.06.03 11:33:40.
