data_PCOD9064129
_publ_section_title
;
Structure prediction by ZEFSAII (Michael W. Deem and Ramdas Pophale) SiO2 
 PCOD9064129
Probable space group: P -1
;
_chemical_formula_sum "Si O2"
_cell_formula_units_Z 15
_cell_length_a 7.940629
_cell_length_b 13.606151
_cell_length_c 9.685343
_cell_angle_alpha 43.150362
_cell_angle_beta 76.073226
_cell_angle_gamma 75.502057
_cell_volume 690.205298
_symmetry_space_group_name_H-M "P -1"
_symmetry_group_IT_number 2
_symmetry_cell_setting 'triclinic'
loop_
_space_group_symop_operation_xyz
x,y,z
-x,-y,-z
loop_
_atom_site_type_symbol
_atom_site_label
_atom_site_fract_x
_atom_site_fract_y
_atom_site_fract_z
Si Si1 0.013876 0.155797 0.400447
Si Si2 0.170239 0.644485 0.572689
Si Si3 0.952950 0.639282 0.067879
Si Si4 0.547656 0.704011 0.476684
Si Si5 0.414028 0.163335 0.369627
Si Si6 0.777945 0.414762 0.684761
Si Si7 0.449215 0.243397 0.974044
Si Si8 0.500000 0.000000 0.000000
O O1 0.206908 0.161200 0.413361
O O2 0.886408 0.200524 0.506976
O O3 0.984947 0.268527 0.164777
O O4 0.000000 0.000000 0.500000
O O5 0.067726 0.527451 0.790309
O O6 0.377219 0.620992 0.573006
O O7 0.133661 0.623534 0.440771
O O8 0.752440 0.701339 0.079831
O O9 0.089006 0.640910 0.163928
O O10 0.537527 0.761980 0.575811
O O11 0.712922 0.584700 0.541702
O O12 0.538701 0.838694 0.235241
O O13 0.500000 0.000000 0.500000
O O14 0.456822 0.244887 0.137757
O O15 0.603651 0.333667 0.803706
O O16 0.488227 0.083142 0.067579
#
# Coordination Sequence:
#
# PCOD9064129 Si02
#       8
#     2   2   2   2   2   2   2   1
#     4  11  27  46  70 106 146 187 241 301 357 429
#     4  12  24  47  69 105 145 186 240 300 360 423
#     4  11  26  47  74 103 147 186 241 299 358 428
#     4  12  25  44  76 104 143 193 241 297 360 432
#     4  11  24  45  71 104 142 192 238 293 361 429
#     4  12  26  48  76 106 142 194 240 298 364 432
#     4  11  25  47  72 111 141 187 243 295 361 430
#     4  12  24  44  74 102 150 186 234 300 366 416
#
# _framework density 21.732664
#
# number of rings (size 3 to 8) (size 9 to 14) (size 15 to 20)
#    0.000    0.533    4.000    3.600    5.600    2.667 
#    0.000    1.333    0.000    0.000    0.000    0.000 
#    0.000    0.000    0.000    0.000    0.000    0.000 
#
# Total GULP energy -83640.427114 kJ/mol
# GULP energy per Si atom -5576.028474 kJ/mol
# Density = 2.168320 g / cm^3
# Si number density = 21.732664 Si / 1000 Ang^3
#
#
#
# Elastic Constant Matrix: (Units=GPa)
#
#
# Indices 1 2 3 4 5 6 
#
# 1 79.1991 42.9428 42.5825 11.2628 19.7384 6.0923
# 2 42.9428 148.7975 52.8269 6.2600 13.9224 5.2892
# 3 42.5825 52.8269 85.8651 10.8836 18.3742 -2.1331
# 4 11.2628 6.2600 10.8836 35.9982 3.3585 3.2889
# 5 19.7384 13.9224 18.3742 3.3585 31.7690 6.4588
# 6 6.0923 5.2892 -2.1331 3.2889 6.4588 33.7036
#
#
#
# Elastic Compliance Matrix: (Units=1/GPa)
#
#
# Indices 1 2 3 4 5 6 
#
# 1 0.019732 -0.002588 -0.006436 -0.002972 -0.006683 -0.001997
# 2 -0.002588 0.009043 -0.004499 0.000682 0.000458 -0.001390
# 3 -0.006436 -0.004499 0.019331 -0.002917 -0.005815 0.004492
# 4 -0.002972 0.000682 -0.002917 0.029664 0.000663 -0.002776
# 5 -0.006683 0.000458 -0.005815 0.000663 0.040143 -0.006989
# 6 -0.001997 -0.001390 0.004492 -0.002776 -0.006989 0.032144
#
#
# Mechanical properties :
#
#
# Convention : Reuss Voigt Hill
#
# Bulk Modulus (GPa) = 47.48348 65.61847 56.55097
# Shear Modulus (GPa) = 27.15579 31.99479 29.57529
#
# Velocity S-wave (km/s) = 3.53872 3.84109 3.69300
# Velocity P-wave (km/s) = 6.21233 7.06618 6.65297
#
# Compressibility (1/GPa) = 0.02105996
#
# Stress axis : x y z
#
# Youngs Moduli (GPa) = 50.67906 110.58843 51.72976
#
# Poissons Ratio (x) = 0.28625 0.33293
# Poissons Ratio (y) = 0.13118 0.23271
# Poissons Ratio (z) = 0.32617 0.49748
#
# Static dielectric constant tensor:
#      x y z
#    x 1.807640 -0.166620 -0.015030 
#    y -0.166620 3.287150 0.071800 
#    z -0.015030 0.071800 1.815310 
# 
# From -- ./inp_files/174182.got.cif
#   From: 2010.05.17/outbox.cif.g08.bks.cpg/sg2_88_cif.got.tgz:174182.got - 2010.06.03 11:33:40.
