data_PCOD9064831
_publ_section_title
;
Structure prediction by ZEFSAII (Michael W. Deem and Ramdas Pophale) SiO2 
 PCOD9064831
Probable space group: P -1
;
_chemical_formula_sum "Si O2"
_cell_formula_units_Z 15
_cell_length_a 8.207033
_cell_length_b 9.035671
_cell_length_c 19.181094
_cell_angle_alpha 140.848358
_cell_angle_beta 46.031445
_cell_angle_gamma 110.082658
_cell_volume 583.810719
_symmetry_space_group_name_H-M "P -1"
_symmetry_group_IT_number 2
_symmetry_cell_setting 'triclinic'
loop_
_space_group_symop_operation_xyz
x,y,z
-x,-y,-z
loop_
_atom_site_type_symbol
_atom_site_label
_atom_site_fract_x
_atom_site_fract_y
_atom_site_fract_z
Si Si1 0.662042 0.602783 0.940990
Si Si2 0.607028 0.992646 0.207424
Si Si3 0.500000 0.500000 0.500000
Si Si4 0.160038 0.131880 0.609172
Si Si5 0.078964 0.211136 0.240219
Si Si6 0.561878 0.281336 0.098249
Si Si7 0.948256 0.792071 0.602490
Si Si8 0.360459 0.203397 0.723092
O O1 0.499019 0.731112 0.969478
O O2 0.900369 0.362484 0.750568
O O3 0.500000 0.500000 0.000000
O O4 0.740032 0.796487 0.033164
O O5 0.580356 0.280585 0.332861
O O6 0.318905 0.051944 0.297089
O O7 0.714095 0.845369 0.195164
O O8 0.803432 0.437190 0.392587
O O9 0.214742 0.212305 0.698717
O O10 0.386321 0.062468 0.463254
O O11 0.136580 0.862297 0.526898
O O12 0.310109 0.290992 0.211731
O O13 0.039708 0.097097 0.283870
O O14 0.187558 0.987894 0.067053
O O15 0.606486 0.533096 0.188594
O O16 0.000000 0.500000 0.500000
#
# Coordination Sequence:
#
# PCOD9064831 Si02
#       8
#     2   2   1   2   2   2   2   2
#     4  12  23  45  72 105 140 188 245 290 365 429
#     4  12  26  44  72 103 141 194 234 301 355 443
#     4  12  28  46  68 106 144 188 242 288 376 418
#     4  11  26  44  68 106 144 184 240 303 360 431
#     4  11  25  45  70 105 142 189 239 297 353 444
#     4  11  24  46  74 105 143 192 244 291 366 431
#     4  12  22  43  69  94 143 191 238 282 361 431
#     4  11  26  45  70 105 145 181 240 307 362 421
#
# _framework density 25.693259999999999
#
# number of rings (size 3 to 8) (size 9 to 14) (size 15 to 20)
#    0.000    0.533    5.333    1.600    3.733    1.600 
#    0.000    0.667    0.000    0.000    0.000    0.000 
#    0.000    0.000    0.000    0.000    0.000    0.000 
#
# Total GULP energy -83551.864434 kJ/mol
# GULP energy per Si atom -5570.124296 kJ/mol
# Density = 2.563478 g / cm^3
# Si number density = 25.693260 Si / 1000 Ang^3
#
#
#
# Elastic Constant Matrix: (Units=GPa)
#
#
# Indices 1 2 3 4 5 6 
#
# 1 23.2331 30.6790 1.9284 32.2096 7.8277 11.2693
# 2 30.6790 4.9532 25.1717 -14.4123 3.9006 -12.3807
# 3 1.9284 25.1717 136.8052 28.8897 -5.2982 15.9597
# 4 32.2096 -14.4123 28.8897 28.4102 11.4994 4.0773
# 5 7.8277 3.9006 -5.2982 11.4994 56.3431 1.6120
# 6 11.2693 -12.3807 15.9597 4.0773 1.6120 23.7505
#
#
#
# Elastic Compliance Matrix: (Units=1/GPa)
#
#
# Indices 1 2 3 4 5 6 
#
# 1 0.008704 0.018160 -0.005886 0.005908 -0.004471 0.008581
# 2 0.018160 0.007674 0.002941 -0.019761 0.001350 -0.003292
# 3 -0.005886 0.002941 0.006747 0.000934 0.001071 -0.000441
# 4 0.005908 -0.019761 0.000934 0.021294 -0.003220 -0.017169
# 5 -0.004471 0.001350 0.001071 -0.003220 0.018995 0.001369
# 6 0.008581 -0.003292 -0.000441 -0.017169 0.001369 0.039467
#
#
# Mechanical properties :
#
#
# Convention : Reuss Voigt Hill
#
# Bulk Modulus (GPa) = 18.67203 31.17218 24.92210
# Shear Modulus (GPa) = 55.37002 28.84827 42.10915
#
# Velocity S-wave (km/s) = 4.64728 3.35445 4.05275
# Velocity P-wave (km/s) = 6.00661 5.21171 5.62322
#
# Compressibility (1/GPa) = 0.05355604
#
# Stress axis : x y z
#
# Youngs Moduli (GPa) = 114.88852 130.31239 148.21272
#
# Poissons Ratio (x) = -2.36649 0.87237
# Poissons Ratio (y) = -2.08639 -0.43594
# Poissons Ratio (z) = 0.67622 -0.38329
#
# Static dielectric constant tensor:
#      x y z
#    x 1.983880 0.028110 -0.021600 
#    y 0.028110 2.071660 0.016610 
#    z -0.021600 0.016610 2.072940 
# 
# From -- ./inp_files/607644.got.cif
#   From: 2010.05.17/outbox.cif.g08.bks.cpg/sg2_304_cif.got.tgz:607644.got - 2010.06.03 11:33:40.
