data_PCOD9064442
_publ_section_title
;
Structure prediction by ZEFSAII (Michael W. Deem and Ramdas Pophale) SiO2 
 PCOD9064442
Probable space group: P -1
;
_chemical_formula_sum "Si O2"
_cell_formula_units_Z 14
_cell_length_a 8.112371
_cell_length_b 18.451792
_cell_length_c 11.265114
_cell_angle_alpha 28.440979
_cell_angle_beta 132.581241
_cell_angle_gamma 133.644320
_cell_volume 569.112777
_symmetry_space_group_name_H-M "P -1"
_symmetry_group_IT_number 2
_symmetry_cell_setting 'triclinic'
loop_
_space_group_symop_operation_xyz
x,y,z
-x,-y,-z
loop_
_atom_site_type_symbol
_atom_site_label
_atom_site_fract_x
_atom_site_fract_y
_atom_site_fract_z
Si Si1 0.626317 0.668018 0.491352
Si Si2 0.934925 0.250786 0.236142
Si Si3 0.290388 0.344208 0.104904
Si Si4 0.746111 0.157886 0.847402
Si Si5 0.483030 0.308100 0.004096
Si Si6 0.857926 0.827997 0.138809
Si Si7 0.313811 0.008917 0.704924
O O1 0.412234 0.735215 0.332436
O O2 0.533895 0.479915 0.722258
O O3 0.729448 0.724669 0.332611
O O4 0.847570 0.732390 0.593558
O O5 0.059400 0.368818 0.019099
O O6 0.801970 0.100425 0.305472
O O7 0.739641 0.287655 0.171903
O O8 0.316445 0.184084 0.411031
O O9 0.500000 0.500000 0.000000
O O10 0.318558 0.310638 0.030536
O O11 0.573526 0.035603 0.848124
O O12 0.963422 0.241467 0.751248
O O13 0.818861 0.069239 0.125390
O O14 0.345523 0.166461 0.058567
O O15 0.000000 0.000000 0.000000
#
# Coordination Sequence:
#
# PCOD9064442 Si02
#       7
#     2   2   2   2   2   2   2
#     4  12  27  47  73 108 146 191 243 302 370 429
#     4  12  26  46  74 107 149 188 242 305 362 432
#     4  12  26  45  74 110 144 188 241 295 372 431
#     4  11  24  48  73 106 147 191 247 302 357 432
#     4  12  28  49  73 107 148 195 240 302 370 429
#     4  12  28  46  74 107 144 193 249 294 363 438
#     4  11  24  45  76 105 144 191 243 299 363 431
#
# _framework density 24.599695000000001
#
# number of rings (size 3 to 8) (size 9 to 14) (size 15 to 20)
#    0.000    0.286    2.857    5.571    4.000    2.286 
#    0.000    0.000    0.000    2.571    0.000    0.000 
#    0.000    0.000    0.000    0.000    0.000    0.000 
#
# Total GULP energy -78118.466275 kJ/mol
# GULP energy per Si atom -5579.890448 kJ/mol
# Density = 2.454370 g / cm^3
# Si number density = 24.599695 Si / 1000 Ang^3
#
#
#
# Elastic Constant Matrix: (Units=GPa)
#
#
# Indices 1 2 3 4 5 6 
#
# 1 132.8614 3.7171 12.0235 24.2573 -5.7055 15.8040
# 2 3.7171 117.5843 22.2668 11.2739 7.2208 -12.0748
# 3 12.0235 22.2668 39.9283 -2.5962 -4.7702 -2.3697
# 4 24.2573 11.2739 -2.5962 27.3890 -9.1093 -4.1441
# 5 -5.7055 7.2208 -4.7702 -9.1093 33.5024 11.1579
# 6 15.8040 -12.0748 -2.3697 -4.1441 11.1579 39.9601
#
#
#
# Elastic Compliance Matrix: (Units=1/GPa)
#
#
# Indices 1 2 3 4 5 6 
#
# 1 0.010594 0.001188 -0.004954 -0.011291 -0.000511 -0.005153
# 2 0.001188 0.011564 -0.007955 -0.008310 -0.006886 0.003614
# 3 -0.004954 -0.007955 0.033003 0.013917 0.009228 0.000379
# 4 -0.011291 -0.008310 0.013917 0.057212 0.015991 0.004248
# 5 -0.000511 -0.006886 0.009228 0.015991 0.040571 -0.011002
# 6 -0.005153 0.003614 0.000379 0.004248 -0.011002 0.031690
#
#
# Mechanical properties :
#
#
# Convention : Reuss Voigt Hill
#
# Bulk Modulus (GPa) = 31.52662 40.70988 36.11825
# Shear Modulus (GPa) = 22.86771 36.99474 29.93122
#
# Velocity S-wave (km/s) = 3.05223 3.88218 3.49195
# Velocity P-wave (km/s) = 5.02645 6.05640 5.56530
#
# Compressibility (1/GPa) = 0.03171923
#
# Stress axis : x y z
#
# Youngs Moduli (GPa) = 94.39142 86.47462 30.30047
#
# Poissons Ratio (x) = -0.10273 0.15010
# Poissons Ratio (y) = -0.11213 0.24104
# Poissons Ratio (z) = 0.46759 0.68792
#
# Static dielectric constant tensor:
#      x y z
#    x 2.095620 -0.054340 0.068460 
#    y -0.054340 1.983740 0.034140 
#    z 0.068460 0.034140 2.023540 
# 
# From -- ./inp_files/404639.got.cif
#   From: 2010.05.17/outbox.cif.g08.bks.cpg/sg2_203_cif.got.tgz:404639.got - 2010.06.03 11:33:40.
