data_PCOD9064826
_publ_section_title
;
Structure prediction by ZEFSAII (Michael W. Deem and Ramdas Pophale) SiO2 
 PCOD9064826
Probable space group: P -1
;
_chemical_formula_sum "Si O2"
_cell_formula_units_Z 15
_cell_length_a 21.129942
_cell_length_b 5.286383
_cell_length_c 8.682132
_cell_angle_alpha 125.096516
_cell_angle_beta 53.929229
_cell_angle_gamma 119.349652
_cell_volume 624.278546
_symmetry_space_group_name_H-M "P -1"
_symmetry_group_IT_number 2
_symmetry_cell_setting 'triclinic'
loop_
_space_group_symop_operation_xyz
x,y,z
-x,-y,-z
loop_
_atom_site_type_symbol
_atom_site_label
_atom_site_fract_x
_atom_site_fract_y
_atom_site_fract_z
Si Si1 0.500000 0.500000 0.500000
Si Si2 0.579808 0.884783 0.805517
Si Si3 0.325278 0.427738 0.200642
Si Si4 0.911208 0.991457 0.179117
Si Si5 0.054207 0.840590 0.478635
Si Si6 0.212157 0.699888 0.651950
Si Si7 0.678109 0.671489 0.170961
Si Si8 0.187575 0.613217 0.017729
O O1 0.557108 0.628423 0.612461
O O2 0.582764 0.569940 0.296803
O O3 0.611674 0.721130 0.847718
O O4 0.639416 0.208484 0.776300
O O5 0.500000 0.000000 0.000000
O O6 0.254233 0.441338 0.425894
O O7 0.302463 0.251109 0.009778
O O8 0.860940 0.753724 0.041860
O O9 0.916084 0.945558 0.338878
O O10 0.864678 0.272998 0.328653
O O11 0.000000 0.000000 0.000000
O O12 0.000000 0.500000 0.500000
O O13 0.132207 0.791497 0.256145
O O14 0.000000 0.000000 0.500000
O O15 0.188189 0.658597 0.849622
O O16 0.282234 0.026671 0.675360
O O17 0.724699 0.396870 0.049146
#
# Coordination Sequence:
#
# PCOD9064826 Si02
#       8
#     1   2   2   2   2   2   2   2
#     4  12  24  48  78 100 150 188 254 296 370 422
#     4  12  27  47  74 108 138 193 241 306 360 437
#     4  12  27  48  74 106 148 187 248 296 374 429
#     4  11  24  46  74 104 146 191 242 300 361 438
#     4  12  27  46  77 112 146 192 248 301 363 440
#     4  11  26  45  73 108 146 196 244 301 372 436
#     4  11  26  46  73 108 145 197 241 312 359 443
#     4  11  26  47  72 106 151 191 247 297 374 432
#
# _framework density 24.027732
#
# number of rings (size 3 to 8) (size 9 to 14) (size 15 to 20)
#    0.000    0.533    4.000    2.800    7.467    3.733 
#    0.000    0.000    0.000    0.000    0.000    0.000 
#    0.000    0.000    0.000    0.000    0.000    0.000 
#
# Total GULP energy -83590.729994 kJ/mol
# GULP energy per Si atom -5572.715333 kJ/mol
# Density = 2.397304 g / cm^3
# Si number density = 24.027732 Si / 1000 Ang^3
#
#
#
# Elastic Constant Matrix: (Units=GPa)
#
#
# Indices 1 2 3 4 5 6 
#
# 1 141.9644 30.0019 35.3750 11.2820 18.6659 -27.3621
# 2 30.0019 57.7990 0.8509 -3.2266 -4.8992 -8.4778
# 3 35.3750 0.8509 174.4599 -12.6570 7.3189 -11.1102
# 4 11.2820 -3.2266 -12.6570 29.8958 4.7302 -0.1354
# 5 18.6659 -4.8992 7.3189 4.7302 50.2955 -3.7304
# 6 -27.3621 -8.4778 -11.1102 -0.1354 -3.7304 49.3289
#
#
#
# Elastic Compliance Matrix: (Units=1/GPa)
#
#
# Indices 1 2 3 4 5 6 
#
# 1 0.010238 -0.005230 -0.001998 -0.004738 -0.003271 0.004070
# 2 -0.005230 0.020702 0.001192 0.004167 0.003481 0.001200
# 3 -0.001998 0.001192 0.006448 0.003676 -0.000387 0.000530
# 4 -0.004738 0.004167 0.003676 0.037553 -0.001986 -0.001131
# 5 -0.003271 0.003481 -0.000387 -0.001986 0.021703 0.000333
# 6 0.004070 0.001200 0.000530 -0.001131 0.000333 0.022877
#
#
# Mechanical properties :
#
#
# Convention : Reuss Voigt Hill
#
# Bulk Modulus (GPa) = 39.49829 56.29765 47.89797
# Shear Modulus (GPa) = 35.70636 46.43707 41.07172
#
# Velocity S-wave (km/s) = 3.85911 4.40096 4.13891
# Velocity P-wave (km/s) = 6.02755 7.02180 6.54358
#
# Compressibility (1/GPa) = 0.02531755
#
# Stress axis : x y z
#
# Youngs Moduli (GPa) = 97.67507 48.30430 155.08854
#
# Poissons Ratio (x) = 0.25261 0.30983
# Poissons Ratio (y) = 0.51081 -0.18489
# Poissons Ratio (z) = 0.19513 -0.05759
#
# Static dielectric constant tensor:
#      x y z
#    x 1.857720 0.066110 -0.024350 
#    y 0.066110 2.026100 0.035050 
#    z -0.024350 0.035050 1.912790 
# 
# From -- ./inp_files/324059.got.cif
#   From: 2010.05.17/outbox.cif.g08.bks.cpg/sg2_163_cif.got.tgz:324059.got - 2010.06.03 11:33:40.
