data_PCOD9064189
_publ_section_title
;
Structure prediction by ZEFSAII (Michael W. Deem and Ramdas Pophale) SiO2 
 PCOD9064189
Probable space group: P -1
;
_chemical_formula_sum "Si O2"
_cell_formula_units_Z 16
_cell_length_a 11.379853
_cell_length_b 14.002138
_cell_length_c 13.904559
_cell_angle_alpha 136.852888
_cell_angle_beta 34.157203
_cell_angle_gamma 112.459974
_cell_volume 694.579231
_symmetry_space_group_name_H-M "P -1"
_symmetry_group_IT_number 2
_symmetry_cell_setting 'triclinic'
loop_
_space_group_symop_operation_xyz
x,y,z
-x,-y,-z
loop_
_atom_site_type_symbol
_atom_site_label
_atom_site_fract_x
_atom_site_fract_y
_atom_site_fract_z
Si Si1 0.842328 0.190070 0.787632
Si Si2 0.378026 0.231208 0.781165
Si Si3 0.647493 0.644979 0.641322
Si Si4 0.837493 0.705983 0.242573
Si Si5 0.862834 0.376424 0.729525
Si Si6 0.375737 0.802736 0.761192
Si Si7 0.034550 0.748255 0.812071
Si Si8 0.089290 0.851287 0.639007
O O1 0.791271 0.314174 0.824969
O O2 0.994589 0.225433 0.788859
O O3 0.578691 0.237985 0.046067
O O4 0.000000 0.000000 0.500000
O O5 0.254614 0.255777 0.777420
O O6 0.684047 0.121793 0.492753
O O7 0.285893 0.420775 0.015303
O O8 0.250854 0.172080 0.897831
O O9 0.521631 0.653536 0.631044
O O10 0.815192 0.455740 0.432021
O O11 0.836991 0.698301 0.528090
O O12 0.589082 0.792905 0.543303
O O13 0.000000 0.500000 0.000000
O O14 0.826628 0.300608 0.603098
O O15 0.187551 0.790784 0.810601
O O16 0.186437 0.979024 0.076239
O O17 0.052221 0.802629 0.734208
#
# Coordination Sequence:
#
# PCOD9064189 Si02
#       8
#     2   2   2   2   2   2   2   2
#     4  12  25  41  70 110 142 180 232 299 362 411
#     4  11  24  45  72  99 136 190 240 286 344 428
#     4  11  24  45  73  99 136 183 241 294 340 423
#     4  12  22  45  77 101 139 188 239 290 349 421
#     4  11  25  46  69  99 143 189 237 287 353 417
#     4  12  24  45  72 104 143 178 229 303 363 403
#     4  11  24  45  72 102 133 187 241 283 351 427
#     4  12  27  44  67 102 150 186 224 298 359 421
#
# _framework density 23.035529
#
# number of rings (size 3 to 8) (size 9 to 14) (size 15 to 20)
#    0.000    0.500    3.750    4.875    1.750    4.500 
#    2.250    0.000    0.000    0.000    0.000    0.000 
#    0.000    0.000    0.000    0.000    0.000    0.000 
#
# Total GULP energy -89651.104481 kJ/mol
# GULP energy per Si atom -5603.194030 kJ/mol
# Density = 2.298310 g / cm^3
# Si number density = 23.035529 Si / 1000 Ang^3
#
#
#
# Elastic Constant Matrix: (Units=GPa)
#
#
# Indices 1 2 3 4 5 6 
#
# 1 74.3366 52.3709 47.2101 -22.3824 -0.7621 22.4908
# 2 52.3709 18.0883 5.3370 -12.1703 -1.4980 -21.8657
# 3 47.2101 5.3370 110.0658 -17.9844 1.7971 -8.7268
# 4 -22.3824 -12.1703 -17.9844 44.3145 -0.3952 23.9280
# 5 -0.7621 -1.4980 1.7971 -0.3952 27.2321 8.8280
# 6 22.4908 -21.8657 -8.7268 23.9280 8.8280 17.5380
#
#
#
# Elastic Compliance Matrix: (Units=1/GPa)
#
#
# Indices 1 2 3 4 5 6 
#
# 1 0.002500 0.007552 -0.001032 -0.005373 -0.004478 0.015281
# 2 0.007552 0.014508 -0.002751 0.022883 0.011189 -0.029818
# 3 -0.001032 -0.002751 0.010161 0.005890 0.001056 -0.005617
# 4 -0.005373 0.022883 0.005890 0.035343 0.005297 -0.012536
# 5 -0.004478 0.011189 0.001056 0.005297 0.039443 -0.006862
# 6 0.015281 -0.029818 -0.005617 -0.012536 -0.006862 0.018009
#
#
# Mechanical properties :
#
#
# Convention : Reuss Voigt Hill
#
# Bulk Modulus (GPa) = 28.81124 45.81409 37.31266
# Shear Modulus (GPa) = 40.32418 24.32175 32.32297
#
# Velocity S-wave (km/s) = 4.18846 3.25289 3.74997
# Velocity P-wave (km/s) = 5.99378 5.83438 5.91462
#
# Compressibility (1/GPa) = 0.03470867
#
# Stress axis : x y z
#
# Youngs Moduli (GPa) = 399.98688 68.92692 98.41412
#
# Poissons Ratio (x) = -0.52054 0.10154
# Poissons Ratio (y) = -3.02074 0.27070
# Poissons Ratio (z) = 0.41269 0.18959
#
# Static dielectric constant tensor:
#      x y z
#    x 1.843330 0.020390 -0.014060 
#    y 0.020390 1.855410 0.029920 
#    z -0.014060 0.029920 1.885550 
# 
# From -- ./inp_files/522468.got.cif
#   From: 2010.05.17/outbox.cif.g08.bks.cpg/sg2_262_cif.got.tgz:522468.got - 2010.06.03 11:33:40.
