data_PCOD9064627
_publ_section_title
;
Structure prediction by ZEFSAII (Michael W. Deem and Ramdas Pophale) SiO2 
 PCOD9064627
Probable space group: P -1
;
_chemical_formula_sum "Si O2"
_cell_formula_units_Z 12
_cell_length_a 7.342768
_cell_length_b 10.905264
_cell_length_c 8.042180
_cell_angle_alpha 71.064952
_cell_angle_beta 126.125796
_cell_angle_gamma 120.638324
_cell_volume 447.274368
_symmetry_space_group_name_H-M "P -1"
_symmetry_group_IT_number 2
_symmetry_cell_setting 'triclinic'
loop_
_space_group_symop_operation_xyz
x,y,z
-x,-y,-z
loop_
_atom_site_type_symbol
_atom_site_label
_atom_site_fract_x
_atom_site_fract_y
_atom_site_fract_z
Si Si1 0.377952 0.601949 0.815029
Si Si2 0.793840 0.485695 0.610874
Si Si3 0.880497 0.772800 0.657325
Si Si4 0.316904 0.038959 0.692415
Si Si5 0.827565 0.863854 0.079831
Si Si6 0.847020 0.229784 0.867138
O O1 0.331983 0.577151 0.604485
O O2 0.569762 0.759502 0.902591
O O3 0.096932 0.556078 0.745323
O O4 0.500000 0.500000 0.000000
O O5 0.746628 0.351562 0.762750
O O6 0.737877 0.620036 0.566424
O O7 0.736330 0.873971 0.524192
O O8 0.140002 0.873168 0.663540
O O9 0.958082 0.746011 0.892675
O O10 0.606730 0.083658 0.831612
O O11 0.234347 0.095936 0.789950
O O12 0.005405 0.777417 0.215670
O O13 0.000000 0.000000 0.000000
#
# Coordination Sequence:
#
# PCOD9064627 Si02
#       6
#     2   2   2   2   2   2
#     4  11  24  46  70 109 151 184 247 303 351 439
#     4  11  26  44  75 111 142 198 242 293 374 429
#     4  11  25  47  72 103 152 189 237 307 359 424
#     4  11  27  48  72 110 147 188 246 302 356 435
#     4  12  26  48  78 105 147 195 242 299 366 429
#     4  12  26  47  75 112 141 195 244 295 371 426
#
# _framework density 26.829170000000001
#
# number of rings (size 3 to 8) (size 9 to 14) (size 15 to 20)
#    0.000    0.667    3.333    3.000    7.000    0.667 
#    0.000    4.167    0.000    0.000    0.000    0.000 
#    0.000    0.000    0.000    0.000    0.000    0.000 
#
# Total GULP energy -67280.237463 kJ/mol
# GULP energy per Si atom -5606.686455 kJ/mol
# Density = 2.676811 g / cm^3
# Si number density = 26.829170 Si / 1000 Ang^3
#
#
#
# Elastic Constant Matrix: (Units=GPa)
#
#
# Indices 1 2 3 4 5 6 
#
# 1 95.5502 8.3739 15.7643 5.3070 19.7470 13.1047
# 2 8.3739 180.2357 41.1963 20.8110 -0.1325 11.6502
# 3 15.7643 41.1963 149.5911 0.3600 6.1312 -8.7961
# 4 5.3070 20.8110 0.3600 60.8511 1.0157 17.2786
# 5 19.7470 -0.1325 6.1312 1.0157 30.0700 -4.6360
# 6 13.1047 11.6502 -8.7961 17.2786 -4.6360 40.9911
#
#
#
# Elastic Compliance Matrix: (Units=1/GPa)
#
#
# Indices 1 2 3 4 5 6 
#
# 1 0.013430 -0.000012 -0.001375 0.000688 -0.009479 -0.005947
# 2 -0.000012 0.006253 -0.001809 -0.001732 0.000246 -0.001404
# 3 -0.001375 -0.001809 0.007487 -0.000024 -0.000239 0.002544
# 4 0.000688 -0.001732 -0.000024 0.019318 -0.002362 -0.008143
# 5 -0.009479 0.000246 -0.000239 -0.002362 0.040926 0.008534
# 6 -0.005947 -0.001404 0.002544 -0.008143 0.008534 0.031639
#
#
# Mechanical properties :
#
#
# Convention : Reuss Voigt Hill
#
# Bulk Modulus (GPa) = 48.12543 61.78291 54.95417
# Shear Modulus (GPa) = 37.77229 50.38526 44.07878
#
# Velocity S-wave (km/s) = 3.75625 4.33829 4.05772
# Velocity P-wave (km/s) = 6.06541 6.94065 6.51774
#
# Compressibility (1/GPa) = 0.02077904
#
# Stress axis : x y z
#
# Youngs Moduli (GPa) = 74.45950 159.91432 133.55641
#
# Poissons Ratio (x) = 0.00187 0.18363
# Poissons Ratio (y) = 0.00087 0.24165
# Poissons Ratio (z) = 0.10238 0.28934
#
# Static dielectric constant tensor:
#      x y z
#    x 2.207440 -0.041530 0.042460 
#    y -0.041530 2.135410 -0.051200 
#    z 0.042460 -0.051200 2.061730 
# 
# From -- ./inp_files/175629.got.cif
#   From: 2010.05.17/outbox.cif.g08.bks.cpg/sg2_88_cif.got.tgz:175629.got - 2010.06.03 11:33:40.
