data_PCOD9064762
_publ_section_title
;
Structure prediction by ZEFSAII (Michael W. Deem and Ramdas Pophale) SiO2 
 PCOD9064762
Probable space group: P -1
;
_chemical_formula_sum "Si O2"
_cell_formula_units_Z 16
_cell_length_a 10.080823
_cell_length_b 20.825372
_cell_length_c 10.696931
_cell_angle_alpha 31.818185
_cell_angle_beta 52.294525
_cell_angle_gamma 38.852972
_cell_volume 734.158761
_symmetry_space_group_name_H-M "P -1"
_symmetry_group_IT_number 2
_symmetry_cell_setting 'triclinic'
loop_
_space_group_symop_operation_xyz
x,y,z
-x,-y,-z
loop_
_atom_site_type_symbol
_atom_site_label
_atom_site_fract_x
_atom_site_fract_y
_atom_site_fract_z
Si Si1 0.281158 0.619114 0.745678
Si Si2 0.721774 0.945273 0.022495
Si Si3 0.220930 0.879456 0.502566
Si Si4 0.791381 0.806233 0.656944
Si Si5 0.010949 0.414275 0.511431
Si Si6 0.637878 0.686611 0.731011
Si Si7 0.526470 0.607210 0.388415
Si Si8 0.417970 0.913570 0.856882
O O1 0.256675 0.722533 0.704058
O O2 0.409732 0.634884 0.540584
O O3 0.043192 0.691685 0.717710
O O4 0.391373 0.440270 0.003269
O O5 0.783092 0.037732 0.757611
O O6 0.900298 0.759943 0.217850
O O7 0.500000 0.000000 0.000000
O O8 0.672407 0.993868 0.115075
O O9 0.419096 0.830325 0.556251
O O10 0.000000 0.000000 0.500000
O O11 0.711702 0.738118 0.718425
O O12 0.659324 0.845688 0.795110
O O13 0.721733 0.966293 0.372291
O O14 0.179111 0.390087 0.353723
O O15 0.000000 0.500000 0.500000
O O16 0.775996 0.517870 0.416682
O O17 0.500000 0.500000 0.500000
O O18 0.422983 0.767210 0.111443
#
# Coordination Sequence:
#
# PCOD9064762 Si02
#       8
#     2   2   2   2   2   2   2   2
#     4  12  27  45  69 105 147 178 230 293 356 408
#     4  12  24  48  74 103 140 185 244 288 339 429
#     4  12  29  45  72 106 143 184 230 295 358 402
#     4  11  25  45  79 102 135 192 235 287 349 422
#     4  12  26  43  74  98 136 187 236 282 343 416
#     4  12  25  50  69 104 141 187 237 282 349 432
#     4  12  26  45  67 104 142 183 226 292 353 408
#     4  11  24  46  73 101 141 181 245 280 347 422
#
# _framework density 21.793652000000002
#
# number of rings (size 3 to 8) (size 9 to 14) (size 15 to 20)
#    0.000    0.250    3.750    4.500    8.750    1.500 
#    0.000    0.000    0.000    0.000    0.000    0.000 
#    0.000    0.000    0.000    0.000    0.000    0.000 
#
# Total GULP energy -89636.948083 kJ/mol
# GULP energy per Si atom -5602.309255 kJ/mol
# Density = 2.174405 g / cm^3
# Si number density = 21.793652 Si / 1000 Ang^3
#
#
#
# Elastic Constant Matrix: (Units=GPa)
#
#
# Indices 1 2 3 4 5 6 
#
# 1 86.7995 34.9587 8.7584 -5.7604 -14.0111 11.8065
# 2 34.9587 141.0731 26.1360 9.5507 0.0074 3.1646
# 3 8.7584 26.1360 154.0759 -7.2632 -5.6320 9.0429
# 4 -5.7604 9.5507 -7.2632 40.8970 8.3438 -13.6515
# 5 -14.0111 0.0074 -5.6320 8.3438 24.5092 -8.1285
# 6 11.8065 3.1646 9.0429 -13.6515 -8.1285 17.1927
#
#
#
# Elastic Compliance Matrix: (Units=1/GPa)
#
#
# Indices 1 2 3 4 5 6 
#
# 1 0.014897 -0.003546 0.000385 -0.000771 0.006430 -0.007352
# 2 -0.003546 0.008444 -0.001342 -0.002848 -0.001888 -0.001567
# 3 0.000385 -0.001342 0.006917 0.000470 0.000666 -0.002968
# 4 -0.000771 -0.002848 0.000470 0.034711 -0.003250 0.026832
# 5 0.006430 -0.001888 0.000666 -0.003250 0.051489 0.017345
# 6 -0.007352 -0.001567 -0.002968 0.026832 0.017345 0.094568
#
#
# Mechanical properties :
#
#
# Convention : Reuss Voigt Hill
#
# Bulk Modulus (GPa) = 47.05633 57.96162 52.50897
# Shear Modulus (GPa) = 22.01523 37.32614 29.67069
#
# Velocity S-wave (km/s) = 3.18176 4.14298 3.69377
# Velocity P-wave (km/s) = 5.92763 7.03840 6.50676
#
# Compressibility (1/GPa) = 0.02125113
#
# Stress axis : x y z
#
# Youngs Moduli (GPa) = 67.12806 118.42838 144.57692
#
# Poissons Ratio (x) = 0.41995 -0.05565
# Poissons Ratio (y) = 0.23804 0.19403
# Poissons Ratio (z) = -0.02584 0.15894
#
# Static dielectric constant tensor:
#      x y z
#    x 1.769960 0.027400 -0.003010 
#    y 0.027400 1.786500 0.001780 
#    z -0.003010 0.001780 1.799560 
# 
# From -- ./inp_files/405243.got.cif
#   From: 2010.05.17/outbox.cif.g08.bks.cpg/sg2_203_cif.got.tgz:405243.got - 2010.06.03 11:33:40.
