data_PCOD9064205
_publ_section_title
;
Structure prediction by ZEFSAII (Michael W. Deem and Ramdas Pophale) SiO2 
 PCOD9064205
Probable space group: P -1
;
_chemical_formula_sum "Si O2"
_cell_formula_units_Z 16
_cell_length_a 9.468794
_cell_length_b 18.435660
_cell_length_c 11.487861
_cell_angle_alpha 143.789664
_cell_angle_beta 112.492549
_cell_angle_gamma 43.592929
_cell_volume 709.571351
_symmetry_space_group_name_H-M "P -1"
_symmetry_group_IT_number 2
_symmetry_cell_setting 'triclinic'
loop_
_space_group_symop_operation_xyz
x,y,z
-x,-y,-z
loop_
_atom_site_type_symbol
_atom_site_label
_atom_site_fract_x
_atom_site_fract_y
_atom_site_fract_z
Si Si1 0.379106 0.698933 0.765416
Si Si2 0.461365 0.263444 0.909699
Si Si3 0.643606 0.027012 0.265320
Si Si4 0.878725 0.653943 0.559135
Si Si5 0.132769 0.336441 0.062687
Si Si6 0.854066 0.955191 0.009161
Si Si7 0.875811 0.967842 0.494516
Si Si8 0.275142 0.556292 0.040519
O O1 0.500000 0.500000 0.500000
O O2 0.113521 0.834808 0.897897
O O3 0.510546 0.667445 0.880085
O O4 0.340071 0.835704 0.839504
O O5 0.722551 0.073100 0.698768
O O6 0.279734 0.270969 0.906429
O O7 0.357252 0.396103 0.938505
O O8 0.385505 0.223465 0.398996
O O9 0.699630 0.022661 0.410769
O O10 0.692992 0.850502 0.044003
O O11 0.820807 0.981219 0.171265
O O12 0.848227 0.815748 0.788777
O O13 0.000000 0.500000 0.500000
O O14 0.042588 0.517675 0.324918
O O15 0.899260 0.394117 0.047665
O O16 0.000000 0.000000 0.500000
O O17 0.097448 0.747351 0.305890
O O18 0.500000 0.500000 0.000000
#
# Coordination Sequence:
#
# PCOD9064205 Si02
#       8
#     2   2   2   2   2   2   2   2
#     4  11  27  46  72 102 146 193 241 308 378 436
#     4  12  25  45  73 103 146 181 249 308 371 439
#     4  11  25  43  71 101 146 188 250 294 363 448
#     4  12  25  41  74 104 147 195 241 304 366 438
#     4  11  26  45  69 111 146 191 246 307 375 432
#     4  11  25  45  68 106 142 192 248 297 371 449
#     4  11  24  45  72 104 140 193 239 305 368 431
#     4  11  25  44  72 104 145 193 249 296 367 444
#
# _framework density 22.548825999999998
#
# number of rings (size 3 to 8) (size 9 to 14) (size 15 to 20)
#    0.000    0.750    2.500    3.750    5.250    7.000 
#    0.000    0.000    0.000    0.000    0.000    0.000 
#    0.000    0.000    0.000    0.000    0.000    0.000 
#
# Total GULP energy -89316.157293 kJ/mol
# GULP energy per Si atom -5582.259831 kJ/mol
# Density = 2.249750 g / cm^3
# Si number density = 22.548826 Si / 1000 Ang^3
#
#
#
# Elastic Constant Matrix: (Units=GPa)
#
#
# Indices 1 2 3 4 5 6 
#
# 1 114.1809 30.7459 48.9739 2.7840 -18.8281 3.7417
# 2 30.7459 80.6056 41.3307 21.4588 -6.7855 0.8873
# 3 48.9739 41.3307 156.3811 15.8107 -16.1937 5.9191
# 4 2.7840 21.4588 15.8107 45.1196 3.0741 2.3668
# 5 -18.8281 -6.7855 -16.1937 3.0741 41.1966 2.0078
# 6 3.7417 0.8873 5.9191 2.3668 2.0078 40.1599
#
#
#
# Elastic Compliance Matrix: (Units=1/GPa)
#
#
# Indices 1 2 3 4 5 6 
#
# 1 0.011225 -0.003104 -0.002434 0.001438 0.003598 -0.000883
# 2 -0.003104 0.016910 -0.002737 -0.006981 0.000778 0.000691
# 3 -0.002434 -0.002737 0.008260 -0.001519 0.001842 -0.000933
# 4 0.001438 -0.006981 -0.001519 0.026191 -0.002988 -0.001150
# 5 0.003598 0.000778 0.001842 -0.002988 0.027081 -0.001802
# 6 -0.000883 0.000691 -0.000933 -0.001150 -0.001802 0.025263
#
#
# Mechanical properties :
#
#
# Convention : Reuss Voigt Hill
#
# Bulk Modulus (GPa) = 50.39104 65.91871 58.15488
# Shear Modulus (GPa) = 36.20704 40.63636 38.42170
#
# Velocity S-wave (km/s) = 4.01149 4.24978 4.13235
# Velocity P-wave (km/s) = 6.62209 7.30603 6.97245
#
# Compressibility (1/GPa) = 0.01984480
#
# Stress axis : x y z
#
# Youngs Moduli (GPa) = 89.08640 59.13800 121.06418
#
# Poissons Ratio (x) = 0.18354 0.29473
# Poissons Ratio (y) = 0.27648 0.33135
# Poissons Ratio (z) = 0.21688 0.16186
#
# Static dielectric constant tensor:
#      x y z
#    x 1.927400 -0.031280 0.037670 
#    y -0.031280 1.825510 0.005670 
#    z 0.037670 0.005670 1.938030 
# 
# From -- ./inp_files/403390.got.cif
#   From: 2010.05.17/outbox.cif.g08.bks.cpg/sg2_202_cif.got.tgz:403390.got - 2010.06.03 11:33:40.
