data_PCOD9064257
_publ_section_title
;
Structure prediction by ZEFSAII (Michael W. Deem and Ramdas Pophale) SiO2 
 PCOD9064257
Probable space group: P -1
;
_chemical_formula_sum "Si O2"
_cell_formula_units_Z 14
_cell_length_a 9.915199
_cell_length_b 11.025662
_cell_length_c 19.206910
_cell_angle_alpha 156.900485
_cell_angle_beta 42.862143
_cell_angle_gamma 127.791836
_cell_volume 545.322184
_symmetry_space_group_name_H-M "P -1"
_symmetry_group_IT_number 2
_symmetry_cell_setting 'triclinic'
loop_
_space_group_symop_operation_xyz
x,y,z
-x,-y,-z
loop_
_atom_site_type_symbol
_atom_site_label
_atom_site_fract_x
_atom_site_fract_y
_atom_site_fract_z
Si Si1 0.645674 0.426989 0.236363
Si Si2 0.883796 0.985453 0.801476
Si Si3 0.977850 0.554353 0.421116
Si Si4 0.295703 0.761135 0.735264
Si Si5 0.931806 0.904858 0.400688
Si Si6 0.347083 0.989959 0.615999
Si Si7 0.672586 0.627269 0.041020
O O1 0.696523 0.199483 0.163758
O O2 0.763870 0.701578 0.355292
O O3 0.413995 0.623135 0.422237
O O4 0.726290 0.267053 0.048184
O O5 0.928257 0.716847 0.703040
O O6 0.100933 0.074193 0.749110
O O7 0.826093 0.823704 0.667716
O O8 0.878622 0.400582 0.314562
O O9 0.124095 0.764209 0.444920
O O10 0.500000 0.500000 0.500000
O O11 0.276368 0.091075 0.876678
O O12 0.000000 0.000000 0.500000
O O13 0.132581 0.653063 0.166320
O O14 0.500000 0.000000 0.500000
O O15 0.396661 0.214657 0.775995
O O16 0.500000 0.500000 0.000000
#
# Coordination Sequence:
#
# PCOD9064257 Si02
#       7
#     2   2   2   2   2   2   2
#     4  12  25  46  77 105 141 194 236 295 358 418
#     4  11  26  49  71 105 143 194 239 287 360 428
#     4  11  24  45  72  99 149 185 233 299 349 428
#     4  12  23  48  73 103 146 183 238 299 355 422
#     4  12  24  40  72 108 139 187 243 289 359 418
#     4  12  26  48  72 105 149 186 238 298 356 424
#     4  12  26  46  71 106 144 187 242 298 353 427
#
# _framework density 25.672896999999999
#
# number of rings (size 3 to 8) (size 9 to 14) (size 15 to 20)
#    0.000    0.286    5.714    2.571    4.000    2.286 
#    2.571    3.571    0.000    0.000    0.000    0.000 
#    0.000    0.000    0.000    0.000    0.000    0.000 
#
# Total GULP energy -78432.575816 kJ/mol
# GULP energy per Si atom -5602.326844 kJ/mol
# Density = 2.561446 g / cm^3
# Si number density = 25.672897 Si / 1000 Ang^3
#
#
#
# Elastic Constant Matrix: (Units=GPa)
#
#
# Indices 1 2 3 4 5 6 
#
# 1 65.0823 15.1356 22.2710 -7.1730 10.3362 -0.2852
# 2 15.1356 125.2434 18.6925 18.2481 5.7155 -7.0478
# 3 22.2710 18.6925 141.6958 -21.0645 11.1655 1.6425
# 4 -7.1730 18.2481 -21.0645 49.3605 -10.3913 4.9875
# 5 10.3362 5.7155 11.1655 -10.3913 50.4442 -4.1054
# 6 -0.2852 -7.0478 1.6425 4.9875 -4.1054 46.3403
#
#
#
# Elastic Compliance Matrix: (Units=1/GPa)
#
#
# Indices 1 2 3 4 5 6 
#
# 1 0.017093 -0.001973 -0.001938 0.001916 -0.002500 -0.000554
# 2 -0.001973 0.009319 -0.001569 -0.004833 -0.001147 0.001879
# 3 -0.001938 -0.001569 0.008185 0.003778 -0.000539 -0.000995
# 4 0.001916 -0.004833 0.003778 0.025151 0.004240 -0.003189
# 5 -0.002500 -0.001147 -0.000539 0.004240 0.021564 0.001283
# 6 -0.000554 0.001879 -0.000995 -0.003189 0.001283 0.022354
#
#
# Mechanical properties :
#
#
# Convention : Reuss Voigt Hill
#
# Bulk Modulus (GPa) = 42.30637 49.35774 45.83205
# Shear Modulus (GPa) = 40.81470 47.62382 44.21926
#
# Velocity S-wave (km/s) = 3.99155 4.31167 4.15470
# Velocity P-wave (km/s) = 6.14476 6.63737 6.39581
#
# Compressibility (1/GPa) = 0.02363710
#
# Stress axis : x y z
#
# Youngs Moduli (GPa) = 58.50371 107.30403 122.17878
#
# Poissons Ratio (x) = 0.21167 0.23680
# Poissons Ratio (y) = 0.11540 0.19173
# Poissons Ratio (z) = 0.11339 0.16839
#
# Static dielectric constant tensor:
#      x y z
#    x 2.223870 0.090360 0.275070 
#    y 0.090360 2.167040 0.238060 
#    z 0.275070 0.238060 2.571660 
# 
# From -- ./inp_files/432428.got.cif
#   From: 2010.05.17/outbox.cif.g08.bks.cpg/sg2_217_cif.got.tgz:432428.got - 2010.06.03 11:33:40.
