data_PCOD9064520
_publ_section_title
;
Structure prediction by ZEFSAII (Michael W. Deem and Ramdas Pophale) SiO2 
 PCOD9064520
Probable space group: P -1
;
_chemical_formula_sum "Si O2"
_cell_formula_units_Z 14
_cell_length_a 17.350721
_cell_length_b 13.424965
_cell_length_c 11.987058
_cell_angle_alpha 137.108435
_cell_angle_beta 41.189561
_cell_angle_gamma 158.463964
_cell_volume 668.814223
_symmetry_space_group_name_H-M "P -1"
_symmetry_group_IT_number 2
_symmetry_cell_setting 'triclinic'
loop_
_space_group_symop_operation_xyz
x,y,z
-x,-y,-z
loop_
_atom_site_type_symbol
_atom_site_label
_atom_site_fract_x
_atom_site_fract_y
_atom_site_fract_z
Si Si1 0.185769 0.631432 0.241172
Si Si2 0.987743 0.950706 0.601586
Si Si3 0.198890 0.578450 0.424532
Si Si4 0.374734 0.120762 0.360585
Si Si5 0.128388 0.024935 0.802844
Si Si6 0.543003 0.317744 0.595555
Si Si7 0.244549 0.411648 0.847024
O O1 0.299470 0.728042 0.317729
O O2 0.955111 0.455813 0.388290
O O3 0.287445 0.863022 0.241298
O O4 0.191019 0.486670 0.049640
O O5 0.746854 0.643429 0.641932
O O6 0.172657 0.020615 0.481630
O O7 0.044586 0.157409 0.776197
O O8 0.000000 0.000000 0.500000
O O9 0.364567 0.712325 0.451615
O O10 0.038036 0.268162 0.313466
O O11 0.479998 0.234001 0.464102
O O12 0.551038 0.341592 0.254187
O O13 0.318525 0.135411 0.745488
O O14 0.264365 0.281663 0.787341
O O15 0.000000 0.000000 0.000000
#
# Coordination Sequence:
#
# PCOD9064520 Si02
#       7
#     2   2   2   2   2   2   2
#     4  11  24  46  67  99 149 184 227 282 343 416
#     4  12  23  43  72 104 135 180 232 284 345 409
#     4  11  24  46  71  96 140 194 229 278 345 411
#     4  12  24  45  69 101 144 182 226 285 348 414
#     4  12  24  46  69 102 136 175 236 297 333 399
#     4  12  22  43  75  99 133 183 234 277 353 401
#     4  12  23  42  73 104 138 180 227 294 344 400
#
# _framework density 20.932569000000001
#
# number of rings (size 3 to 8) (size 9 to 14) (size 15 to 20)
#    0.000    0.286    8.571    1.714    0.000    1.143 
#    0.000    5.714    0.000    0.000    0.000    0.000 
#    0.000    0.000    0.000    0.000    0.000    0.000 
#
# Total GULP energy -78112.473970 kJ/mol
# GULP energy per Si atom -5579.462426 kJ/mol
# Density = 2.088493 g / cm^3
# Si number density = 20.932569 Si / 1000 Ang^3
#
#
#
# Elastic Constant Matrix: (Units=GPa)
#
#
# Indices 1 2 3 4 5 6 
#
# 1 139.9751 45.9026 39.7126 -0.3035 2.4378 2.3630
# 2 45.9026 90.8244 36.7287 5.9168 -9.2600 -1.1238
# 3 39.7126 36.7287 121.1894 10.7142 -13.5409 13.4747
# 4 -0.3035 5.9168 10.7142 29.2207 -6.0144 -2.5287
# 5 2.4378 -9.2600 -13.5409 -6.0144 26.2998 2.3620
# 6 2.3630 -1.1238 13.4747 -2.5287 2.3620 52.3168
#
#
#
# Elastic Compliance Matrix: (Units=1/GPa)
#
#
# Indices 1 2 3 4 5 6 
#
# 1 0.009193 -0.004135 -0.002250 0.001116 -0.003236 0.000275
# 2 -0.004135 0.014654 -0.002663 -0.001165 0.003819 0.000959
# 3 -0.002250 -0.002663 0.010894 -0.002818 0.004514 -0.003102
# 4 0.001116 -0.001165 -0.002818 0.036986 0.006301 0.002154
# 5 -0.003236 0.003819 0.004514 0.006301 0.043667 -0.002601
# 6 0.000275 0.000959 -0.003102 0.002154 -0.002601 0.020143
#
#
# Mechanical properties :
#
#
# Convention : Reuss Voigt Hill
#
# Bulk Modulus (GPa) = 60.07908 66.29742 63.18825
# Shear Modulus (GPa) = 31.41067 36.87713 34.14390
#
# Velocity S-wave (km/s) = 3.87791 4.20183 4.04312
# Velocity P-wave (km/s) = 6.98674 7.43513 7.21442
#
# Compressibility (1/GPa) = 0.01664473
#
# Stress axis : x y z
#
# Youngs Moduli (GPa) = 108.78192 68.23928 91.79154
#
# Poissons Ratio (x) = 0.28219 0.20652
# Poissons Ratio (y) = 0.44985 0.24444
# Poissons Ratio (z) = 0.24475 0.18172
#
# Static dielectric constant tensor:
#      x y z
#    x 2.218910 0.040840 0.259380 
#    y 0.040840 1.795500 0.055690 
#    z 0.259380 0.055690 1.880370 
# 
# From -- ./inp_files/465926.got.cif
#   From: 2010.05.17/outbox.cif.g08.bks.cpg/sg2_233_cif.got.tgz:465926.got - 2010.06.03 11:33:40.
