data_PCOD9064998
_publ_section_title
;
Structure prediction by ZEFSAII (Michael W. Deem and Ramdas Pophale) SiO2 
 PCOD9064998
Probable space group: P -1
;
_chemical_formula_sum "Si O2"
_cell_formula_units_Z 14
_cell_length_a 10.588587
_cell_length_b 8.650866
_cell_length_c 8.947614
_cell_angle_alpha 133.511714
_cell_angle_beta 108.282109
_cell_angle_gamma 69.887635
_cell_volume 554.584378
_symmetry_space_group_name_H-M "P -1"
_symmetry_group_IT_number 2
_symmetry_cell_setting 'triclinic'
loop_
_space_group_symop_operation_xyz
x,y,z
-x,-y,-z
loop_
_atom_site_type_symbol
_atom_site_label
_atom_site_fract_x
_atom_site_fract_y
_atom_site_fract_z
Si Si1 0.970612 0.004774 0.168970
Si Si2 0.538073 0.108950 0.934817
Si Si3 0.772777 0.855980 0.682768
Si Si4 0.663033 0.465734 0.817061
Si Si5 0.858368 0.412931 0.583160
Si Si6 0.661638 0.989746 0.456924
Si Si7 0.885480 0.716686 0.186646
O O1 0.932201 0.797355 0.098000
O O2 0.120671 0.029170 0.288464
O O3 0.873551 0.217975 0.339281
O O4 0.000000 0.000000 0.000000
O O5 0.692237 0.011800 0.882756
O O6 0.454571 0.031054 0.716121
O O7 0.475598 0.362357 0.099675
O O8 0.500000 0.000000 0.000000
O O9 0.848967 0.634883 0.635868
O O10 0.677883 0.816951 0.483115
O O11 0.723746 0.449941 0.660388
O O12 0.641689 0.225260 0.680978
O O13 0.780818 0.552307 0.013294
O O14 0.987850 0.359639 0.707761
O O15 0.794748 0.930713 0.364935
#
# Coordination Sequence:
#
# PCOD9064998 Si02
#       7
#     2   2   2   2   2   2   2
#     4  12  26  44  73 115 154 187 246 307 367 440
#     4  11  26  50  76 106 144 193 255 304 357 434
#     4  12  26  47  70 110 151 189 246 305 358 436
#     4  11  24  46  82 103 142 204 244 293 371 433
#     4  12  23  46  73 108 150 198 236 298 378 437
#     4  11  25  48  76 104 148 196 245 306 359 435
#     4  11  24  47  75 111 151 193 244 297 371 446
#
# _framework density 25.244129000000001
#
# number of rings (size 3 to 8) (size 9 to 14) (size 15 to 20)
#    0.000    0.571    4.286    3.429    2.000    2.286 
#    7.714    0.000    0.000    0.000    0.000    0.000 
#    0.000    0.000    0.000    0.000    0.000    0.000 
#
# Total GULP energy -78325.572434 kJ/mol
# GULP energy per Si atom -5594.683745 kJ/mol
# Density = 2.518667 g / cm^3
# Si number density = 25.244129 Si / 1000 Ang^3
#
#
#
# Elastic Constant Matrix: (Units=GPa)
#
#
# Indices 1 2 3 4 5 6 
#
# 1 80.2696 26.9945 20.3839 10.3515 -26.1601 2.8184
# 2 26.9945 125.5162 59.3305 7.9131 3.1866 -11.1722
# 3 20.3839 59.3305 148.6183 5.4288 -16.8271 -3.8163
# 4 10.3515 7.9131 5.4288 55.9403 -5.0560 -13.4014
# 5 -26.1601 3.1866 -16.8271 -5.0560 42.6219 5.2866
# 6 2.8184 -11.1722 -3.8163 -13.4014 5.2866 27.9373
#
#
#
# Elastic Compliance Matrix: (Units=1/GPa)
#
#
# Indices 1 2 3 4 5 6 
#
# 1 0.019019 -0.005355 0.000927 -0.003624 0.013019 -0.008136
# 2 -0.005355 0.012028 -0.004692 0.000643 -0.006743 0.006294
# 3 0.000927 -0.004692 0.008968 -0.000393 0.004638 -0.001811
# 4 -0.003624 0.000643 -0.000393 0.020984 -0.001288 0.010879
# 5 0.013019 -0.006743 0.004638 -0.001288 0.034951 -0.010608
# 6 -0.008136 0.006294 -0.001811 0.010879 -0.010608 0.046110
#
#
# Mechanical properties :
#
#
# Convention : Reuss Voigt Hill
#
# Bulk Modulus (GPa) = 45.92687 63.09130 54.50908
# Shear Modulus (GPa) = 29.84023 41.81291 35.82657
#
# Velocity S-wave (km/s) = 3.44185 4.07423 3.77132
# Velocity P-wave (km/s) = 5.83333 6.86871 6.37208
#
# Compressibility (1/GPa) = 0.02177375
#
# Stress axis : x y z
#
# Youngs Moduli (GPa) = 52.57784 83.14192 111.50945
#
# Poissons Ratio (x) = 0.44519 -0.10332
# Poissons Ratio (y) = 0.28153 0.52326
# Poissons Ratio (z) = -0.04871 0.39014
#
# Static dielectric constant tensor:
#      x y z
#    x 2.152670 -0.056170 0.077680 
#    y -0.056170 1.995580 -0.027180 
#    z 0.077680 -0.027180 2.064750 
# 
# From -- ./inp_files/241481.got.cif
#   From: 2010.05.17/outbox.cif.g08.bks.cpg/sg2_121_cif.got.tgz:241481.got - 2010.06.03 11:33:40.
