data_PCOD9064681
_publ_section_title
;
Structure prediction by ZEFSAII (Michael W. Deem and Ramdas Pophale) SiO2 
 PCOD9064681
Probable space group: P -1
;
_chemical_formula_sum "Si O2"
_cell_formula_units_Z 16
_cell_length_a 11.737606
_cell_length_b 5.143143
_cell_length_c 17.819792
_cell_angle_alpha 59.776489
_cell_angle_beta 50.102945
_cell_angle_gamma 52.404447
_cell_volume 642.717960
_symmetry_space_group_name_H-M "P -1"
_symmetry_group_IT_number 2
_symmetry_cell_setting 'triclinic'
loop_
_space_group_symop_operation_xyz
x,y,z
-x,-y,-z
loop_
_atom_site_type_symbol
_atom_site_label
_atom_site_fract_x
_atom_site_fract_y
_atom_site_fract_z
Si Si1 0.572234 0.770461 0.696636
Si Si2 0.602823 0.559984 0.104210
Si Si3 0.060356 0.781120 0.930291
Si Si4 0.949106 0.263962 0.604849
Si Si5 0.500414 0.456377 0.393831
Si Si6 0.779109 0.411951 0.393487
Si Si7 0.372126 0.329004 0.084217
Si Si8 0.019123 0.709643 0.237807
O O1 0.485935 0.685114 0.816777
O O2 0.751907 0.456248 0.659712
O O3 0.486233 0.738463 0.660410
O O4 0.563207 0.140590 0.650936
O O5 0.743360 0.413782 0.127036
O O6 0.469910 0.937551 0.114035
O O7 0.692545 0.585188 0.986503
O O8 0.997023 0.989352 0.851588
O O9 0.000000 0.500000 0.000000
O O10 0.000000 0.000000 0.000000
O O11 0.001983 0.231320 0.673913
O O12 0.000000 0.500000 0.500000
O O13 0.067880 0.887333 0.584857
O O14 0.669568 0.339330 0.386707
O O15 0.360784 0.415271 0.509417
O O16 0.877790 0.601676 0.287701
O O17 0.210247 0.454480 0.184240
O O18 0.500000 0.500000 0.000000
#
# Coordination Sequence:
#
# PCOD9064681 Si02
#       8
#     2   2   2   2   2   2   2   2
#     4  12  27  48  76 112 151 203 262 316 397 464
#     4  11  26  43  73 104 150 197 254 315 380 465
#     4  12  28  50  76 113 154 204 256 321 386 463
#     4  12  27  47  76 113 156 207 261 327 389 466
#     4  11  28  49  77 112 154 203 258 326 390 472
#     4  11  27  47  78 108 157 202 265 320 402 463
#     4  11  24  46  71 109 150 202 256 319 391 462
#     4  12  27  47  80 112 158 210 263 328 397 469
#
# _framework density 24.894279000000001
#
# number of rings (size 3 to 8) (size 9 to 14) (size 15 to 20)
#    0.000    0.500    2.500    3.750   10.500    4.000 
#    0.000    0.000    0.000    0.000    0.000    0.000 
#    0.000    0.000    0.000    0.000    0.000    0.000 
#
# Total GULP energy -89510.290168 kJ/mol
# GULP energy per Si atom -5594.393136 kJ/mol
# Density = 2.483762 g / cm^3
# Si number density = 24.894279 Si / 1000 Ang^3
#
#
#
# Elastic Constant Matrix: (Units=GPa)
#
#
# Indices 1 2 3 4 5 6 
#
# 1 65.1076 13.5501 21.2625 0.1546 -7.2649 -4.7147
# 2 13.5501 99.5396 32.6320 -22.3458 -7.8299 -16.3048
# 3 21.2625 32.6320 139.9791 -7.5482 -11.9793 6.4017
# 4 0.1546 -22.3458 -7.5482 35.5525 -4.1196 -7.3950
# 5 -7.2649 -7.8299 -11.9793 -4.1196 54.5679 2.8175
# 6 -4.7147 -16.3048 6.4017 -7.3950 2.8175 50.7829
#
#
#
# Elastic Compliance Matrix: (Units=1/GPa)
#
#
# Indices 1 2 3 4 5 6 
#
# 1 0.016616 -0.001510 -0.002163 -0.001093 0.001382 0.001095
# 2 -0.001510 0.014585 -0.002766 0.010089 0.001723 0.006265
# 3 -0.002163 -0.002766 0.008310 -0.000289 0.001234 -0.002247
# 4 -0.001093 0.010089 -0.000289 0.036552 0.003570 0.008299
# 5 0.001382 0.001723 0.001234 0.003570 0.019299 -0.000025
# 6 0.001095 0.006265 -0.002247 0.008299 -0.000025 0.023298
#
#
# Mechanical properties :
#
#
# Convention : Reuss Voigt Hill
#
# Bulk Modulus (GPa) = 37.54634 48.83506 43.19070
# Shear Modulus (GPa) = 35.60882 43.99276 39.80079
#
# Velocity S-wave (km/s) = 3.78617 4.20835 4.00283
# Velocity P-wave (km/s) = 5.85051 6.57823 6.22502
#
# Compressibility (1/GPa) = 0.02663376
#
# Stress axis : x y z
#
# Youngs Moduli (GPa) = 60.18382 68.56241 120.33820
#
# Poissons Ratio (x) = 0.10355 0.26024
# Poissons Ratio (y) = 0.09089 0.33282
# Poissons Ratio (z) = 0.13015 0.18963
#
# Static dielectric constant tensor:
#      x y z
#    x 2.172130 0.110170 0.212420 
#    y 0.110170 2.166960 0.267920 
#    z 0.212420 0.267920 2.335790 
# 
# From -- ./inp_files/564395.got.cif
#   From: 2010.05.17/outbox.cif.g08.bks.cpg/sg2_283_cif.got.tgz:564395.got - 2010.06.03 11:33:40.
