data_PCOD9064511
_publ_section_title
;
Structure prediction by ZEFSAII (Michael W. Deem and Ramdas Pophale) SiO2 
 PCOD9064511
Probable space group: P -1
;
_chemical_formula_sum "Si O2"
_cell_formula_units_Z 15
_cell_length_a 10.184068
_cell_length_b 13.623269
_cell_length_c 13.204867
_cell_angle_alpha 135.212460
_cell_angle_beta 46.184763
_cell_angle_gamma 148.523198
_cell_volume 654.771886
_symmetry_space_group_name_H-M "P -1"
_symmetry_group_IT_number 2
_symmetry_cell_setting 'triclinic'
loop_
_space_group_symop_operation_xyz
x,y,z
-x,-y,-z
loop_
_atom_site_type_symbol
_atom_site_label
_atom_site_fract_x
_atom_site_fract_y
_atom_site_fract_z
Si Si1 0.270037 0.173385 0.205899
Si Si2 0.297184 0.592343 0.143963
Si Si3 0.558185 0.589708 0.345153
Si Si4 0.140392 0.597068 0.603541
Si Si5 0.046130 0.162971 0.527568
Si Si6 0.500000 0.000000 0.000000
Si Si7 0.776209 0.748117 0.134272
Si Si8 0.538475 0.038181 0.765358
O O1 0.408149 0.375031 0.223226
O O2 0.161726 0.187879 0.376061
O O3 0.448839 0.141135 0.115798
O O4 0.025940 0.971177 0.132244
O O5 0.524335 0.659064 0.143813
O O6 0.423647 0.778055 0.141981
O O7 0.071202 0.531623 0.289943
O O8 0.176163 0.390693 0.006871
O O9 0.361333 0.600033 0.495873
O O10 0.741830 0.639437 0.374003
O O11 0.724236 0.742109 0.276186
O O12 0.000000 0.500000 0.500000
O O13 0.278430 0.822803 0.705461
O O14 0.776420 0.095683 0.621529
O O15 0.000000 0.000000 0.500000
O O16 0.556523 0.017063 0.859231
#
# Coordination Sequence:
#
# PCOD9064511 Si02
#       8
#     2   2   2   2   2   1   2   2
#     4  12  25  42  72  99 137 186 223 287 348 404
#     4  11  27  45  69 102 139 188 227 284 346 413
#     4  12  24  44  71 102 135 184 228 283 350 408
#     4  12  25  44  70 107 143 175 237 289 337 419
#     4  12  22  45  68  97 141 179 225 286 342 404
#     4  12  24  46  70 102 136 176 238 286 330 416
#     4  11  24  46  66  98 144 178 231 279 342 418
#     4  12  26  47  74 102 140 186 231 290 352 406
#
# _framework density 22.908742
#
# number of rings (size 3 to 8) (size 9 to 14) (size 15 to 20)
#    0.000    0.267    5.333    2.800    1.867    2.667 
#    0.000    8.000    0.000    0.000    0.000    0.000 
#    0.000    0.000    0.000    0.000    0.000    0.000 
#
# Total GULP energy -83730.008194 kJ/mol
# GULP energy per Si atom -5582.000546 kJ/mol
# Density = 2.285660 g / cm^3
# Si number density = 22.908742 Si / 1000 Ang^3
#
#
#
# Elastic Constant Matrix: (Units=GPa)
#
#
# Indices 1 2 3 4 5 6 
#
# 1 26.2275 4.6749 1.1558 -5.6405 0.7226 0.9075
# 2 4.6749 120.1589 13.6869 22.0596 -1.5231 7.4635
# 3 1.1558 13.6869 84.3878 2.5868 -7.1030 -5.8046
# 4 -5.6405 22.0596 2.5868 36.2890 -2.4976 8.4877
# 5 0.7226 -1.5231 -7.1030 -2.4976 20.2876 2.9782
# 6 0.9075 7.4635 -5.8046 8.4877 2.9782 15.2655
#
#
#
# Elastic Compliance Matrix: (Units=1/GPa)
#
#
# Indices 1 2 3 4 5 6 
#
# 1 0.041015 -0.002869 -0.000848 0.009799 0.000239 -0.006853
# 2 -0.002869 0.009799 -0.001513 -0.005856 -0.000132 -0.001914
# 3 -0.000848 -0.001513 0.012823 -0.001218 0.003423 0.005675
# 4 0.009799 -0.005856 -0.001218 0.037982 0.006480 -0.020565
# 5 0.000239 -0.000132 0.003423 0.006480 0.053121 -0.012614
# 6 -0.006853 -0.001914 0.005675 -0.020565 -0.012614 0.082904
#
#
# Mechanical properties :
#
#
# Convention : Reuss Voigt Hill
#
# Bulk Modulus (GPa) = 18.80581 29.97883 24.39232
# Shear Modulus (GPa) = 18.80908 28.45219 23.63064
#
# Velocity S-wave (km/s) = 2.86849 3.52800 3.21520
# Velocity P-wave (km/s) = 4.38153 5.45071 4.94511
#
# Compressibility (1/GPa) = 0.05317505
#
# Stress axis : x y z
#
# Youngs Moduli (GPa) = 24.38154 102.05543 77.98534
#
# Poissons Ratio (x) = 0.29284 0.06613
# Poissons Ratio (y) = 0.06996 0.11801
# Poissons Ratio (z) = 0.02067 0.15443
#
# Static dielectric constant tensor:
#      x y z
#    x 1.823580 0.040480 -0.004000 
#    y 0.040480 1.899370 0.035170 
#    z -0.004000 0.035170 1.858000 
# 
# From -- ./inp_files/521751.got.cif
#   From: 2010.05.17/outbox.cif.g08.bks.cpg/sg2_261_cif.got.tgz:521751.got - 2010.06.03 11:33:40.
