data_PCOD9064488
_publ_section_title
;
Structure prediction by ZEFSAII (Michael W. Deem and Ramdas Pophale) SiO2 
 PCOD9064488
Probable space group: P -1
;
_chemical_formula_sum "Si O2"
_cell_formula_units_Z 14
_cell_length_a 17.967669
_cell_length_b 7.946428
_cell_length_c 9.336043
_cell_angle_alpha 70.166058
_cell_angle_beta 151.561355
_cell_angle_gamma 108.478618
_cell_volume 596.621693
_symmetry_space_group_name_H-M "P -1"
_symmetry_group_IT_number 2
_symmetry_cell_setting 'triclinic'
loop_
_space_group_symop_operation_xyz
x,y,z
-x,-y,-z
loop_
_atom_site_type_symbol
_atom_site_label
_atom_site_fract_x
_atom_site_fract_y
_atom_site_fract_z
Si Si1 0.971102 0.208610 0.294366
Si Si2 0.352999 0.401445 0.206220
Si Si3 0.372080 0.743516 0.764710
Si Si4 0.335481 0.315791 0.891022
Si Si5 0.922517 0.139479 0.933467
Si Si6 0.906695 0.614753 0.034337
Si Si7 0.175448 0.734586 0.682687
O O1 0.156822 0.244960 0.607135
O O2 0.900851 0.400981 0.079135
O O3 0.893642 0.161853 0.329574
O O4 0.926936 0.085675 0.120712
O O5 0.500000 0.500000 0.500000
O O6 0.393410 0.297816 0.159603
O O7 0.251779 0.311408 0.188923
O O8 0.239562 0.551772 0.909032
O O9 0.344386 0.527470 0.801462
O O10 0.248542 0.812684 0.421328
O O11 0.316461 0.820269 0.801438
O O12 0.546314 0.773435 0.992725
O O13 0.041331 0.308779 0.052711
O O14 0.000000 0.000000 0.000000
O O15 0.040702 0.676946 0.357798
#
# Coordination Sequence:
#
# PCOD9064488 Si02
#       7
#     2   2   2   2   2   2   2
#     4  11  18  34  61  82 106 146 189 231 279 330
#     4  10  18  27  52  90 121 132 175 240 289 318
#     4   9  20  34  54  82 120 135 182 233 280 326
#     4  10  18  32  56  88 110 142 181 234 286 329
#     4  11  24  37  54  83 116 150 191 230 272 331
#     4  10  18  36  57  81 116 142 188 227 278 333
#     4   9  17  34  52  82 113 139 178 230 278 333
#
# _framework density 23.465456
#
# number of rings (size 3 to 8) (size 9 to 14) (size 15 to 20)
#    0.000    2.000    5.714    1.286    4.000    2.286 
#    0.000    3.571    0.000    0.857    0.000    0.000 
#    0.000    0.000    0.000    0.000    0.000    0.000 
#
# Total GULP energy -78186.630807 kJ/mol
# GULP energy per Si atom -5584.759343 kJ/mol
# Density = 2.341205 g / cm^3
# Si number density = 23.465456 Si / 1000 Ang^3
#
#
#
# Elastic Constant Matrix: (Units=GPa)
#
#
# Indices 1 2 3 4 5 6 
#
# 1 198.0365 18.6881 37.4148 -3.7127 14.2235 -51.2460
# 2 18.6881 55.2970 4.2068 0.2177 -2.3355 -8.4704
# 3 37.4148 4.2068 26.2976 -6.2935 4.9333 -19.4534
# 4 -3.7127 0.2177 -6.2935 16.7616 -2.0611 -11.3970
# 5 14.2235 -2.3355 4.9333 -2.0611 45.5096 -1.8323
# 6 -51.2460 -8.4704 -19.4534 -11.3970 -1.8323 30.6310
#
#
#
# Elastic Compliance Matrix: (Units=1/GPa)
#
#
# Indices 1 2 3 4 5 6 
#
# 1 0.002235 -0.003477 -0.042415 -0.042547 0.000184 -0.039980
# 2 -0.003477 0.018175 -0.012569 -0.015187 0.002119 -0.014298
# 3 -0.042415 -0.012569 -0.149293 -0.239802 0.007546 -0.258023
# 4 -0.042547 -0.015187 -0.239802 -0.257218 0.013877 -0.322551
# 5 0.000184 0.002119 0.007546 0.013877 0.022326 0.012185
# 6 -0.039980 -0.014298 -0.258023 -0.322551 0.012185 -0.321345
#
#
# Mechanical properties :
#
#
# Convention : Reuss Voigt Hill
#
# Bulk Modulus (GPa) = -4.06825 44.47228 20.20201
# Shear Modulus (GPa) = -7.69072 33.20188 12.75558
#
# Velocity S-wave (km/s) = -1.81234 3.76563 2.33403
# Velocity P-wave (km/s) = 2.47324 6.15630 3.98642
#
# Compressibility (1/GPa) = -0.24580572
#
# Stress axis : x y z
#
# Youngs Moduli (GPa) = 447.51445 55.02186 -6.69824
#
# Poissons Ratio (x) = 0.19133 -0.28410
# Poissons Ratio (y) = 1.55613 -0.08419
# Poissons Ratio (z) = 18.98111 0.69158
#
# Static dielectric constant tensor:
#      x y z
#    x 1.968850 -0.006190 -0.000790 
#    y -0.006190 1.974850 -0.013630 
#    z -0.000790 -0.013630 1.838370 
# 
# From -- ./inp_files/153960.got.cif
#   From: 2010.05.17/outbox.cif.g08.bks.cpg/sg2_77_cif.got.tgz:153960.got - 2010.06.03 11:33:40.
