data_PCOD9064233
_publ_section_title
;
Structure prediction by ZEFSAII (Michael W. Deem and Ramdas Pophale) SiO2 
 PCOD9064233
Probable space group: P -1
;
_chemical_formula_sum "Si O2"
_cell_formula_units_Z 13
_cell_length_a 11.508184
_cell_length_b 16.464925
_cell_length_c 12.105672
_cell_angle_alpha 148.374170
_cell_angle_beta 122.577632
_cell_angle_gamma 35.201321
_cell_volume 592.022782
_symmetry_space_group_name_H-M "P -1"
_symmetry_group_IT_number 2
_symmetry_cell_setting 'triclinic'
loop_
_space_group_symop_operation_xyz
x,y,z
-x,-y,-z
loop_
_atom_site_type_symbol
_atom_site_label
_atom_site_fract_x
_atom_site_fract_y
_atom_site_fract_z
Si Si1 0.873399 0.573606 0.693282
Si Si2 0.847553 0.999831 0.870360
Si Si3 0.686873 0.151857 0.718505
Si Si4 0.000000 0.000000 0.500000
Si Si5 0.815022 0.452848 0.056498
Si Si6 0.549700 0.051275 0.915800
Si Si7 0.260084 0.229265 0.776067
O O1 0.748944 0.771185 0.755207
O O2 0.999520 0.297076 0.410735
O O3 0.048534 0.544174 0.798823
O O4 0.665478 0.727936 0.853804
O O5 0.646700 0.122472 0.995085
O O6 0.751033 0.141068 0.864372
O O7 0.000000 0.000000 0.000000
O O8 0.854117 0.063377 0.605191
O O9 0.409443 0.425907 0.862320
O O10 0.739571 0.919987 0.471741
O O11 0.992167 0.177753 0.765389
O O12 0.680635 0.671833 0.146561
O O13 0.444154 0.046614 0.756884
O O14 0.000000 0.500000 0.000000
#
# Coordination Sequence:
#
# PCOD9064233 Si02
#       7
#     2   2   2   1   2   2   2
#     4  11  25  47  74 103 143 184 238 290 352 421
#     4  12  27  46  69 103 148 189 233 287 353 427
#     4  12  25  46  73 105 140 191 236 294 357 414
#     4  12  28  44  68 110 146 174 238 300 352 416
#     4  12  24  46  76 105 139 183 238 298 357 416
#     4  11  24  45  72 108 135 189 235 291 352 416
#     4  12  20  45  79 102 134 181 243 293 344 423
#
# _framework density 21.958615000000002
#
# number of rings (size 3 to 8) (size 9 to 14) (size 15 to 20)
#    0.000    0.308    6.154    2.308    2.154    0.615 
#    8.308    0.000    0.000    0.000    0.000    0.000 
#    0.000    0.000    0.000    0.000    0.000    0.000 
#
# Total GULP energy -72410.025027 kJ/mol
# GULP energy per Si atom -5570.001925 kJ/mol
# Density = 2.190864 g / cm^3
# Si number density = 21.958615 Si / 1000 Ang^3
#
#
#
# Elastic Constant Matrix: (Units=GPa)
#
#
# Indices 1 2 3 4 5 6 
#
# 1 161.3182 62.1135 35.6686 -12.5437 -23.3384 -21.0595
# 2 62.1135 161.6518 56.6646 -24.7410 -4.7481 -6.7786
# 3 35.6686 56.6646 107.4023 -14.3167 8.4633 -19.9336
# 4 -12.5437 -24.7410 -14.3167 31.2927 -9.7661 2.5075
# 5 -23.3384 -4.7481 8.4633 -9.7661 38.0222 -4.1145
# 6 -21.0595 -6.7786 -19.9336 2.5075 -4.1145 26.2177
#
#
#
# Elastic Compliance Matrix: (Units=1/GPa)
#
#
# Indices 1 2 3 4 5 6 
#
# 1 0.009564 -0.002401 -0.000675 0.003337 0.007377 0.007387
# 2 -0.002401 0.009257 -0.004046 0.005239 0.001619 -0.002859
# 3 -0.000675 -0.004046 0.013567 0.001227 -0.002739 0.008180
# 4 0.003337 0.005239 0.001227 0.041978 0.013545 0.003079
# 5 0.007377 0.001619 -0.002739 0.013545 0.036053 0.008624
# 6 0.007387 -0.002859 0.008180 0.003079 0.008624 0.050615
#
#
# Mechanical properties :
#
#
# Convention : Reuss Voigt Hill
#
# Bulk Modulus (GPa) = 55.11621 82.14063 68.62842
# Shear Modulus (GPa) = 27.57480 37.50158 32.53819
#
# Velocity S-wave (km/s) = 3.54752 4.13707 3.85359
# Velocity P-wave (km/s) = 6.47568 7.76587 7.14993
#
# Compressibility (1/GPa) = 0.01814348
#
# Stress axis : x y z
#
# Youngs Moduli (GPa) = 104.56209 108.03133 73.70735
#
# Poissons Ratio (x) = 0.25939 0.04974
# Poissons Ratio (y) = 0.25106 0.29822
# Poissons Ratio (z) = 0.07057 0.43710
#
# Static dielectric constant tensor:
#      x y z
#    x 1.632120 0.028140 -0.092820 
#    y 0.028140 1.814240 0.044220 
#    z -0.092820 0.044220 1.788800 
# 
# From -- ./inp_files/183903.got.cif
#   From: 2010.05.17/outbox.cif.g08.bks.cpg/sg2_92_cif.got.tgz:183903.got - 2010.06.03 11:33:40.
