data_PCOD9064473
_publ_section_title
;
Structure prediction by ZEFSAII (Michael W. Deem and Ramdas Pophale) SiO2 
 PCOD9064473
Probable space group: P -1
;
_chemical_formula_sum "Si O2"
_cell_formula_units_Z 13
_cell_length_a 5.127489
_cell_length_b 9.702153
_cell_length_c 15.242182
_cell_angle_alpha 41.093198
_cell_angle_beta 86.460857
_cell_angle_gamma 73.771427
_cell_volume 465.028588
_symmetry_space_group_name_H-M "P -1"
_symmetry_group_IT_number 2
_symmetry_cell_setting 'triclinic'
loop_
_space_group_symop_operation_xyz
x,y,z
-x,-y,-z
loop_
_atom_site_type_symbol
_atom_site_label
_atom_site_fract_x
_atom_site_fract_y
_atom_site_fract_z
Si Si1 0.880567 0.966582 0.753223
Si Si2 0.503996 0.260811 0.480420
Si Si3 0.311636 0.564745 0.119709
Si Si4 0.000024 0.345854 0.658937
Si Si5 0.285708 0.250598 0.875823
Si Si6 0.711549 0.124358 0.366872
Si Si7 0.000000 0.500000 0.000000
O O1 0.087484 0.844980 0.726719
O O2 0.636624 0.171712 0.613941
O O3 0.020219 0.096909 0.751352
O O4 0.786893 0.768339 0.883804
O O5 0.304387 0.515754 0.361010
O O6 0.745761 0.183666 0.438575
O O7 0.311041 0.116085 0.531229
O O8 0.575748 0.614799 0.128284
O O9 0.399980 0.303002 0.268981
O O10 0.227608 0.571460 0.017524
O O11 0.024337 0.714090 0.100156
O O12 0.000000 0.500000 0.500000
O O13 0.225526 0.327288 0.738797
O O14 0.500000 0.000000 0.000000
#
# Coordination Sequence:
#
# PCOD9064473 Si02
#       7
#     2   2   2   2   2   2   1
#     4  12  26  47  79 118 169 216 279 352 419 505
#     4  11  24  47  78 117 160 210 281 342 434 492
#     4  12  27  50  82 114 162 215 283 344 418 512
#     4  12  27  49  81 126 165 222 282 357 422 508
#     4  12  29  53  79 116 166 229 279 344 432 516
#     4  11  24  45  77 116 157 211 269 349 421 500
#     4  12  28  52  80 120 162 222 282 344 422 504
#
# _framework density 27.955272000000001
#
# number of rings (size 3 to 8) (size 9 to 14) (size 15 to 20)
#    0.000    0.308    4.615    3.231    2.154    6.154 
#    0.000    0.000    0.000    0.000    0.000    0.000 
#    0.000    0.000    0.000    0.000    0.000    0.000 
#
# Total GULP energy -72621.586021 kJ/mol
# GULP energy per Si atom -5586.275848 kJ/mol
# Density = 2.789164 g / cm^3
# Si number density = 27.955272 Si / 1000 Ang^3
#
#
#
# Elastic Constant Matrix: (Units=GPa)
#
#
# Indices 1 2 3 4 5 6 
#
# 1 115.6670 58.3643 34.7551 7.8323 16.7935 9.9358
# 2 58.3643 162.6855 52.5240 -11.6409 2.1354 24.1511
# 3 34.7551 52.5240 122.5383 8.4366 25.8048 12.3297
# 4 7.8323 -11.6409 8.4366 65.5454 0.3061 13.6939
# 5 16.7935 2.1354 25.8048 0.3061 40.7270 4.2899
# 6 9.9358 24.1511 12.3297 13.6939 4.2899 62.9015
#
#
#
# Elastic Compliance Matrix: (Units=1/GPa)
#
#
# Indices 1 2 3 4 5 6 
#
# 1 0.011639 -0.004209 -0.000504 -0.002189 -0.004311 0.000647
# 2 -0.004209 0.009481 -0.003575 0.003309 0.003822 -0.003256
# 3 -0.000504 -0.003575 0.011401 -0.002037 -0.006827 0.000126
# 4 -0.002189 0.003309 -0.002037 0.017287 0.002358 -0.004450
# 5 -0.004311 0.003822 -0.006827 0.002358 0.030655 -0.002052
# 6 0.000647 -0.003256 0.000126 -0.004450 -0.002052 0.018130
#
#
# Mechanical properties :
#
#
# Convention : Reuss Voigt Hill
#
# Bulk Modulus (GPa) = 62.71235 76.90860 69.81048
# Shear Modulus (GPa) = 41.49941 50.85128 46.17534
#
# Velocity S-wave (km/s) = 3.85709 4.26963 4.06859
# Velocity P-wave (km/s) = 6.50523 7.20259 6.86277
#
# Compressibility (1/GPa) = 0.01594582
#
# Stress axis : x y z
#
# Youngs Moduli (GPa) = 85.91617 105.47324 87.71098
#
# Poissons Ratio (x) = 0.44395 0.04417
# Poissons Ratio (y) = 0.36163 0.31358
# Poissons Ratio (z) = 0.04326 0.37708
#
# Static dielectric constant tensor:
#      x y z
#    x 2.245350 -0.079670 -0.186040 
#    y -0.079670 2.186060 0.093760 
#    z -0.186040 0.093760 2.560690 
# 
# From -- ./inp_files/479566.got.cif
#   From: 2010.05.17/outbox.cif.g08.bks.cpg/sg2_240_cif.got.tgz:479566.got - 2010.06.03 11:33:40.
