data_PCOD9064261
_publ_section_title
;
Structure prediction by ZEFSAII (Michael W. Deem and Ramdas Pophale) SiO2 
 PCOD9064261
Probable space group: P -1
;
_chemical_formula_sum "Si O2"
_cell_formula_units_Z 12
_cell_length_a 8.474528
_cell_length_b 6.303068
_cell_length_c 18.908934
_cell_angle_alpha 132.920862
_cell_angle_beta 45.882194
_cell_angle_gamma 126.528557
_cell_volume 516.700456
_symmetry_space_group_name_H-M "P -1"
_symmetry_group_IT_number 2
_symmetry_cell_setting 'triclinic'
loop_
_space_group_symop_operation_xyz
x,y,z
-x,-y,-z
loop_
_atom_site_type_symbol
_atom_site_label
_atom_site_fract_x
_atom_site_fract_y
_atom_site_fract_z
Si Si1 0.830772 0.702828 0.919531
Si Si2 0.573257 0.739508 0.874979
Si Si3 0.166055 0.149644 0.544090
Si Si4 0.280865 0.163846 0.869072
Si Si5 0.645234 0.143937 0.351477
Si Si6 0.029244 0.897514 0.250657
O O1 0.723035 0.610547 0.856254
O O2 0.938821 0.434213 0.849884
O O3 0.671165 0.771068 0.047732
O O4 0.016898 0.006182 0.916836
O O5 0.357295 0.471690 0.872578
O O6 0.735658 0.874680 0.791464
O O7 0.500000 0.000000 0.000000
O O8 0.403035 0.049010 0.442758
O O9 0.245442 0.507547 0.592946
O O10 0.041063 0.079571 0.641454
O O11 0.000000 0.000000 0.500000
O O12 0.389147 0.933765 0.739016
O O13 0.828370 0.974714 0.285115
#
# Coordination Sequence:
#
# PCOD9064261 Si02
#       6
#     2   2   2   2   2   2
#     4  11  25  46  69 106 148 187 235 286 355 424
#     4  12  26  43  68 111 148 187 237 282 351 431
#     4  11  27  51  74 100 140 187 242 303 352 417
#     4  11  24  45  73 101 148 187 228 295 351 421
#     4  11  26  48  73 107 137 185 248 289 356 422
#     4  12  24  49  72 103 149 180 240 297 349 429
#
# _framework density 23.224287
#
# number of rings (size 3 to 8) (size 9 to 14) (size 15 to 20)
#    0.000    0.667    5.000    1.000    4.667    4.667 
#    6.000    0.000    0.000    0.000    0.000    0.000 
#    0.000    0.000    0.000    0.000    0.000    0.000 
#
# Total GULP energy -67115.279633 kJ/mol
# GULP energy per Si atom -5592.939969 kJ/mol
# Density = 2.317143 g / cm^3
# Si number density = 23.224287 Si / 1000 Ang^3
#
#
#
# Elastic Constant Matrix: (Units=GPa)
#
#
# Indices 1 2 3 4 5 6 
#
# 1 63.4773 46.2629 45.4526 -8.2506 -6.3509 -14.0384
# 2 46.2629 181.0635 65.9192 -30.1654 -4.5338 33.0463
# 3 45.4526 65.9192 143.0918 -25.0755 15.2902 13.0011
# 4 -8.2506 -30.1654 -25.0755 53.3297 -4.0807 -8.1954
# 5 -6.3509 -4.5338 15.2902 -4.0807 43.4614 5.2365
# 6 -14.0384 33.0463 13.0011 -8.1954 5.2365 24.4197
#
#
#
# Elastic Compliance Matrix: (Units=1/GPa)
#
#
# Indices 1 2 3 4 5 6 
#
# 1 0.060198 -0.023010 -0.015422 0.000573 0.003020 0.073501
# 2 -0.023010 0.017890 0.002686 0.002061 0.002414 -0.038694
# 3 -0.015422 0.002686 0.013113 0.002236 -0.004229 -0.017825
# 4 0.000573 0.002061 0.002236 0.021663 0.001139 0.003375
# 5 0.003020 0.002414 -0.004229 0.001139 0.025831 -0.004437
# 6 0.073501 -0.038694 -0.017825 0.003375 -0.004437 0.147142
#
#
# Mechanical properties :
#
#
# Convention : Reuss Voigt Hill
#
# Bulk Modulus (GPa) = 50.73581 78.10021 64.41801
# Shear Modulus (GPa) = 13.74006 39.57535 26.65770
#
# Velocity S-wave (km/s) = 2.43497 4.13249 3.39165
# Velocity P-wave (km/s) = 5.45884 7.51476 6.56775
#
# Compressibility (1/GPa) = 0.01970994
#
# Stress axis : x y z
#
# Youngs Moduli (GPa) = 16.61185 55.89662 76.25988
#
# Poissons Ratio (x) = 1.28619 1.17607
# Poissons Ratio (y) = 0.38224 -0.20486
# Poissons Ratio (z) = 0.25619 -0.15016
#
# Static dielectric constant tensor:
#      x y z
#    x 1.955550 -0.007510 0.011930 
#    y -0.007510 1.862440 -0.000200 
#    z 0.011930 -0.000200 1.885490 
# 
# From -- ./inp_files/487698.got.cif
#   From: 2010.05.17/outbox.cif.g08.bks.cpg/sg2_244_cif.got.tgz:487698.got - 2010.06.03 11:33:40.
