data_PCOD9064904
_publ_section_title
;
Structure prediction by ZEFSAII (Michael W. Deem and Ramdas Pophale) SiO2 
 PCOD9064904
Probable space group: P -1
;
_chemical_formula_sum "Si O2"
_cell_formula_units_Z 16
_cell_length_a 11.808083
_cell_length_b 8.311782
_cell_length_c 9.144703
_cell_angle_alpha 83.583373
_cell_angle_beta 50.986263
_cell_angle_gamma 98.440610
_cell_volume 665.031684
_symmetry_space_group_name_H-M "P -1"
_symmetry_group_IT_number 2
_symmetry_cell_setting 'triclinic'
loop_
_space_group_symop_operation_xyz
x,y,z
-x,-y,-z
loop_
_atom_site_type_symbol
_atom_site_label
_atom_site_fract_x
_atom_site_fract_y
_atom_site_fract_z
Si Si1 0.850290 0.631396 0.441259
Si Si2 0.858898 0.388390 0.945678
Si Si3 0.129531 0.925959 0.836340
Si Si4 0.593310 0.095654 0.778307
Si Si5 0.889050 0.002160 0.456060
Si Si6 0.561490 0.801040 0.376620
Si Si7 0.690434 0.506533 0.287641
Si Si8 0.348618 0.558890 0.139189
O O1 0.730486 0.553324 0.419184
O O2 0.781897 0.585998 0.661960
O O3 0.998378 0.575342 0.282852
O O4 0.885683 0.831659 0.390345
O O5 0.712431 0.384455 0.966703
O O6 0.853918 0.217108 0.051324
O O7 0.842613 0.512937 0.076249
O O8 0.079686 0.864719 0.717370
O O9 0.295004 0.065044 0.681903
O O10 0.000000 0.000000 0.000000
O O11 0.733006 0.019393 0.647293
O O12 0.505136 0.097458 0.698871
O O13 0.637522 0.288656 0.774960
O O14 0.500000 0.000000 0.000000
O O15 0.000000 0.000000 0.500000
O O16 0.623114 0.653423 0.267980
O O17 0.427627 0.681175 0.597704
O O18 0.500000 0.500000 0.000000
#
# Coordination Sequence:
#
# PCOD9064904 Si02
#       8
#     2   2   2   2   2   2   2   2
#     4  12  25  52  71 112 156 199 254 315 380 459
#     4  12  26  46  76 113 151 205 254 314 380 455
#     4  12  26  49  77 110 155 201 254 310 384 452
#     4  12  26  45  74 112 147 197 256 308 381 450
#     4  12  28  50  75 107 154 203 251 316 382 455
#     4  11  24  46  75 110 152 194 254 316 374 446
#     4  11  24  46  78 109 153 192 257 312 383 445
#     4  12  27  49  75 111 155 201 254 317 381 453
#
# _framework density 24.059004000000002
#
# number of rings (size 3 to 8) (size 9 to 14) (size 15 to 20)
#    0.000    0.250    3.750    4.500    3.500    3.000 
#    2.250    0.000    0.000    0.000    0.000    0.000 
#    0.000    0.000    0.000    0.000    0.000    0.000 
#
# Total GULP energy -89510.533485 kJ/mol
# GULP energy per Si atom -5594.408343 kJ/mol
# Density = 2.400424 g / cm^3
# Si number density = 24.059004 Si / 1000 Ang^3
#
#
#
# Elastic Constant Matrix: (Units=GPa)
#
#
# Indices 1 2 3 4 5 6 
#
# 1 185.4156 34.0268 60.4468 -0.6900 9.8477 -38.2215
# 2 34.0268 64.4285 37.2152 7.8106 -9.8555 -21.2905
# 3 60.4468 37.2152 168.4161 15.0545 -6.4442 -32.2586
# 4 -0.6900 7.8106 15.0545 45.5250 -12.3929 -7.0869
# 5 9.8477 -9.8555 -6.4442 -12.3929 41.8395 6.4303
# 6 -38.2215 -21.2905 -32.2586 -7.0869 6.4303 47.3538
#
#
#
# Elastic Compliance Matrix: (Units=1/GPa)
#
#
# Indices 1 2 3 4 5 6 
#
# 1 0.007348 -0.002072 -0.001507 0.000881 -0.002879 0.004495
# 2 -0.002072 0.020497 -0.002579 -0.000840 0.003881 0.005134
# 3 -0.001507 -0.002579 0.007703 -0.001714 0.000025 0.002611
# 4 0.000881 -0.000840 -0.001714 0.024730 0.006348 0.002005
# 5 -0.002879 0.003881 0.000025 0.006348 0.027899 -0.003401
# 6 0.004495 0.005134 0.002611 0.002005 -0.003401 0.029595
#
#
# Mechanical properties :
#
#
# Convention : Reuss Voigt Hill
#
# Bulk Modulus (GPa) = 43.04453 75.73753 59.39103
# Shear Modulus (GPa) = 36.27609 46.04843 41.16226
#
# Velocity S-wave (km/s) = 3.88725 4.37965 4.14078
# Velocity P-wave (km/s) = 6.17071 7.55800 6.89931
#
# Compressibility (1/GPa) = 0.02323175
#
# Stress axis : x y z
#
# Youngs Moduli (GPa) = 136.09592 48.78842 129.82143
#
# Poissons Ratio (x) = 0.10108 0.19568
# Poissons Ratio (y) = 0.28196 0.33477
# Poissons Ratio (z) = 0.20514 0.12581
#
# Static dielectric constant tensor:
#      x y z
#    x 1.980960 0.010910 0.034630 
#    y 0.010910 1.835380 -0.076060 
#    z 0.034630 -0.076060 2.027610 
# 
# From -- ./inp_files/243354.got.cif
#   From: 2010.05.17/outbox.cif.g08.bks.cpg/sg2_122_cif.got.tgz:243354.got - 2010.06.03 11:33:40.
