data_PCOD9064951
_publ_section_title
;
Structure prediction by ZEFSAII (Michael W. Deem and Ramdas Pophale) SiO2 
 PCOD9064951
Probable space group: P -1
;
_chemical_formula_sum "Si O2"
_cell_formula_units_Z 16
_cell_length_a 12.271121
_cell_length_b 8.817893
_cell_length_c 21.069166
_cell_angle_alpha 28.537019
_cell_angle_beta 138.344490
_cell_angle_gamma 127.779480
_cell_volume 716.977167
_symmetry_space_group_name_H-M "P -1"
_symmetry_group_IT_number 2
_symmetry_cell_setting 'triclinic'
loop_
_space_group_symop_operation_xyz
x,y,z
-x,-y,-z
loop_
_atom_site_type_symbol
_atom_site_label
_atom_site_fract_x
_atom_site_fract_y
_atom_site_fract_z
Si Si1 0.869647 0.885316 0.031794
Si Si2 0.042098 0.727657 0.376727
Si Si3 0.495537 0.605170 0.143583
Si Si4 0.861906 0.264773 0.019319
Si Si5 0.529782 0.762525 0.866223
Si Si6 0.810761 0.857785 0.413722
Si Si7 0.341229 0.944695 0.494197
Si Si8 0.917046 0.780324 0.625145
O O1 0.971064 0.549896 0.221254
O O2 0.846246 0.111472 0.999596
O O3 0.707738 0.853785 0.930371
O O4 0.000000 0.000000 0.000000
O O5 0.122948 0.506740 0.436220
O O6 0.189995 0.912644 0.394303
O O7 0.000000 0.500000 0.500000
O O8 0.898070 0.978842 0.192063
O O9 0.499885 0.418730 0.146329
O O10 0.620715 0.386706 0.325999
O O11 0.316735 0.554443 0.110019
O O12 0.500000 0.000000 0.000000
O O13 0.000000 0.500000 0.000000
O O14 0.384496 0.053333 0.710568
O O15 0.500000 0.500000 0.000000
O O16 0.844347 0.945746 0.468345
O O17 0.931346 0.031328 0.356625
O O18 0.500000 0.000000 0.500000
O O19 0.243515 0.210212 0.402835
#
# Coordination Sequence:
#
# PCOD9064951 Si02
#       8
#     2   2   2   2   2   2   2   2
#     4  12  28  46  75 105 145 197 240 293 372 443
#     4  12  26  45  76 106 136 193 249 294 362 436
#     4  12  28  46  72 108 150 189 243 305 365 436
#     4  12  28  50  70 105 151 191 240 302 371 441
#     4  12  26  46  73 110 145 188 245 307 366 424
#     4  11  24  46  77 104 143 187 255 308 351 431
#     4  12  28  47  71 106 151 193 236 300 375 436
#     4  11  24  48  74 103 146 192 246 304 363 430
#
# _framework density 22.315912000000001
#
# number of rings (size 3 to 8) (size 9 to 14) (size 15 to 20)
#    0.000    0.250    5.000    3.000   10.500    0.000 
#    0.000    1.250    0.000    0.000    0.000    0.000 
#    0.000    0.000    0.000    0.000    0.000    0.000 
#
# Total GULP energy -89166.473842 kJ/mol
# GULP energy per Si atom -5572.904615 kJ/mol
# Density = 2.226512 g / cm^3
# Si number density = 22.315912 Si / 1000 Ang^3
#
#
#
# Elastic Constant Matrix: (Units=GPa)
#
#
# Indices 1 2 3 4 5 6 
#
# 1 107.3437 29.3549 11.6436 15.0486 11.9373 -2.2871
# 2 29.3549 77.2497 11.1113 11.8628 0.9317 -0.1248
# 3 11.6436 11.1113 96.0018 15.8284 12.1554 -3.9029
# 4 15.0486 11.8628 15.8284 33.2834 0.8231 10.8304
# 5 11.9373 0.9317 12.1554 0.8231 42.5564 4.5273
# 6 -2.2871 -0.1248 -3.9029 10.8304 4.5273 43.2404
#
#
#
# Elastic Compliance Matrix: (Units=1/GPa)
#
#
# Indices 1 2 3 4 5 6 
#
# 1 0.011325 -0.003599 0.000306 -0.004588 -0.003321 0.002113
# 2 -0.003599 0.014960 -0.000807 -0.003529 0.000920 0.000567
# 3 0.000306 -0.000807 0.012158 -0.006564 -0.003749 0.003148
# 4 -0.004588 -0.003529 -0.006564 0.040074 0.003663 -0.011266
# 5 -0.003321 0.000920 -0.003749 0.003663 0.025850 -0.004135
# 6 0.002113 0.000567 0.003148 -0.011266 -0.004135 0.026779
#
#
# Mechanical properties :
#
#
# Convention : Reuss Voigt Hill
#
# Bulk Modulus (GPa) = 33.06568 42.75721 37.91145
# Shear Modulus (GPa) = 33.46132 39.04840 36.25486
#
# Velocity S-wave (km/s) = 3.87646 4.18760 4.03503
# Velocity P-wave (km/s) = 5.90637 6.52556 6.22367
#
# Compressibility (1/GPa) = 0.03024284
#
# Stress axis : x y z
#
# Youngs Moduli (GPa) = 88.30348 66.84281 82.25300
#
# Poissons Ratio (x) = 0.24059 -0.02517
# Poissons Ratio (y) = 0.31783 0.06635
# Poissons Ratio (z) = -0.02703 0.05392
#
# Static dielectric constant tensor:
#      x y z
#    x 1.898400 -0.018770 -0.085160 
#    y -0.018770 1.690310 0.088740 
#    z -0.085160 0.088740 1.757900 
# 
# From -- ./inp_files/593929.got.cif
#   From: 2010.05.17/outbox.cif.g08.bks.cpg/sg2_297_cif.got.tgz:593929.got - 2010.06.03 11:33:40.
