data_PCOD9064484
_publ_section_title
;
Structure prediction by ZEFSAII (Michael W. Deem and Ramdas Pophale) SiO2 
 PCOD9064484
Probable space group: P -1
;
_chemical_formula_sum "Si O2"
_cell_formula_units_Z 16
_cell_length_a 9.016272
_cell_length_b 15.337306
_cell_length_c 8.409794
_cell_angle_alpha 37.147232
_cell_angle_beta 109.049677
_cell_angle_gamma 104.588376
_cell_volume 663.736898
_symmetry_space_group_name_H-M "P -1"
_symmetry_group_IT_number 2
_symmetry_cell_setting 'triclinic'
loop_
_space_group_symop_operation_xyz
x,y,z
-x,-y,-z
loop_
_atom_site_type_symbol
_atom_site_label
_atom_site_fract_x
_atom_site_fract_y
_atom_site_fract_z
Si Si1 0.311480 0.164297 0.174133
Si Si2 0.490629 0.632760 0.558718
Si Si3 0.168499 0.479482 0.674020
Si Si4 0.662786 0.901423 0.359973
Si Si5 0.015696 0.620306 0.672808
Si Si6 0.425871 0.787239 0.016745
Si Si7 0.138700 0.109253 0.883418
Si Si8 0.749228 0.405890 0.973185
O O1 0.273977 0.116787 0.409473
O O2 0.495216 0.169998 0.185309
O O3 0.246728 0.326272 0.895556
O O4 0.244461 0.082450 0.115053
O O5 0.305916 0.598088 0.536866
O O6 0.541930 0.768570 0.486637
O O7 0.586318 0.485981 0.848737
O O8 0.530611 0.682863 0.318653
O O9 0.118168 0.491835 0.820562
O O10 0.000000 0.500000 0.500000
O O11 0.775057 0.892474 0.256570
O O12 0.600793 0.067083 0.104549
O O13 0.951601 0.737763 0.359287
O O14 0.860738 0.542697 0.789240
O O15 0.140937 0.689716 0.734118
O O16 0.281658 0.689632 0.053968
O O17 0.000000 0.000000 0.000000
#
# Coordination Sequence:
#
# PCOD9064484 Si02
#       8
#     2   2   2   2   2   2   2   2
#     4  12  27  50  77 113 155 200 268 317 381 474
#     4  12  25  48  80 107 159 203 259 322 389 455
#     4  12  26  44  76 117 150 203 264 319 391 464
#     4  12  29  50  78 115 152 209 266 315 388 476
#     4  11  25  46  73 115 158 192 269 319 392 462
#     4  12  26  47  78 111 156 202 264 318 388 462
#     4  12  29  51  76 108 162 209 254 325 392 466
#     4  11  24  45  78 109 150 208 251 328 383 459
#
# _framework density 24.105936
#
# number of rings (size 3 to 8) (size 9 to 14) (size 15 to 20)
#    0.000    0.250    5.000    2.625    7.000    2.500 
#    0.000    0.000    0.000    0.000    0.000    0.000 
#    0.000    0.000    0.000    0.000    0.000    0.000 
#
# Total GULP energy -89246.935913 kJ/mol
# GULP energy per Si atom -5577.933495 kJ/mol
# Density = 2.405107 g / cm^3
# Si number density = 24.105936 Si / 1000 Ang^3
#
#
#
# Elastic Constant Matrix: (Units=GPa)
#
#
# Indices 1 2 3 4 5 6 
#
# 1 107.3314 64.2380 23.2868 1.5246 -4.4680 11.6532
# 2 64.2380 138.3574 44.1790 10.4725 -9.3285 5.8194
# 3 23.2868 44.1790 76.0777 11.2139 -4.7195 10.2263
# 4 1.5246 10.4725 11.2139 47.0595 -9.5856 6.6986
# 5 -4.4680 -9.3285 -4.7195 -9.5856 29.7359 3.5445
# 6 11.6532 5.8194 10.2263 6.6986 3.5445 39.4376
#
#
#
# Elastic Compliance Matrix: (Units=1/GPa)
#
#
# Indices 1 2 3 4 5 6 
#
# 1 0.013375 -0.006022 -0.000330 0.001667 0.001005 -0.003351
# 2 -0.006022 0.011710 -0.004883 -0.001147 0.001459 0.001381
# 3 -0.000330 -0.004883 0.016904 -0.002319 0.000740 -0.003238
# 4 0.001667 -0.001147 -0.002319 0.024257 0.007885 -0.004551
# 5 0.001005 0.001459 0.000740 0.007885 0.037543 -0.005418
# 6 -0.003351 0.001381 -0.003238 -0.004551 -0.005418 0.028242
#
#
# Mechanical properties :
#
#
# Convention : Reuss Voigt Hill
#
# Bulk Modulus (GPa) = 51.23149 65.01935 58.12542
# Shear Modulus (GPa) = 31.05461 35.91745 33.48603
#
# Velocity S-wave (km/s) = 3.59312 3.86422 3.73113
# Velocity P-wave (km/s) = 6.20587 6.85131 6.53656
#
# Compressibility (1/GPa) = 0.01951925
#
# Stress axis : x y z
#
# Youngs Moduli (GPa) = 74.76854 85.39862 59.15792
#
# Poissons Ratio (x) = 0.51426 0.01951
# Poissons Ratio (y) = 0.45025 0.28886
# Poissons Ratio (z) = 0.02466 0.41699
#
# Static dielectric constant tensor:
#      x y z
#    x 1.979440 0.051470 -0.016890 
#    y 0.051470 2.049280 0.071370 
#    z -0.016890 0.071370 1.971460 
# 
# From -- ./inp_files/205415.got.cif
#   From: 2010.05.17/outbox.cif.g08.bks.cpg/sg2_103_cif.got.tgz:205415.got - 2010.06.03 11:33:40.
