data_PCOD9064271
_publ_section_title
;
Structure prediction by ZEFSAII (Michael W. Deem and Ramdas Pophale) SiO2 
 PCOD9064271
Probable space group: P -1
;
_chemical_formula_sum "Si O2"
_cell_formula_units_Z 15
_cell_length_a 8.442940
_cell_length_b 11.094188
_cell_length_c 14.773392
_cell_angle_alpha 127.333172
_cell_angle_beta 54.023960
_cell_angle_gamma 85.790832
_cell_volume 662.835506
_symmetry_space_group_name_H-M "P -1"
_symmetry_group_IT_number 2
_symmetry_cell_setting 'triclinic'
loop_
_space_group_symop_operation_xyz
x,y,z
-x,-y,-z
loop_
_atom_site_type_symbol
_atom_site_label
_atom_site_fract_x
_atom_site_fract_y
_atom_site_fract_z
Si Si1 0.928316 0.896967 0.911987
Si Si2 0.783713 0.195938 0.943421
Si Si3 0.477720 0.568984 0.339470
Si Si4 0.677368 0.539632 0.914940
Si Si5 0.995065 0.163201 0.523842
Si Si6 0.500000 0.500000 0.500000
Si Si7 0.412507 0.102822 0.836007
Si Si8 0.645804 0.034078 0.396706
O O1 0.189269 0.665291 0.705081
O O2 0.850865 0.015419 0.898238
O O3 0.707847 0.916158 0.045555
O O4 0.000000 0.000000 0.000000
O O5 0.715104 0.372324 0.113540
O O6 0.517297 0.303505 0.027529
O O7 0.040831 0.102218 0.754666
O O8 0.237257 0.705663 0.411544
O O9 0.428629 0.499655 0.415062
O O10 0.499750 0.728772 0.442543
O O11 0.932710 0.329187 0.691965
O O12 0.500000 0.500000 0.000000
O O13 0.714141 0.663975 0.023728
O O14 0.000000 0.000000 0.500000
O O15 0.275616 0.039162 0.328240
O O16 0.363696 0.028580 0.729337
O O17 0.500000 0.000000 0.500000
#
# Coordination Sequence:
#
# PCOD9064271 Si02
#       8
#     2   2   2   2   2   1   2   2
#     4  12  24  47  72 102 146 187 238 301 347 425
#     4  11  25  49  70  99 145 192 235 295 363 414
#     4  11  24  45  73 103 137 198 233 296 363 420
#     4  11  26  46  74 101 143 190 235 296 358 434
#     4  11  24  47  74 102 148 189 239 294 362 430
#     4  12  22  42  76  98 140 186 240 288 356 416
#     4  12  26  45  73 109 140 191 238 294 366 427
#     4  12  26  42  70 106 141 185 243 300 354 433
#
# _framework density 22.630047999999999
#
# number of rings (size 3 to 8) (size 9 to 14) (size 15 to 20)
#    0.000    0.533    5.333    1.600    3.733    4.267 
#    0.000    1.333    0.000    0.000    0.000    0.000 
#    0.000    0.000    0.000    0.000    0.000    0.000 
#
# Total GULP energy -83677.796783 kJ/mol
# GULP energy per Si atom -5578.519786 kJ/mol
# Density = 2.257854 g / cm^3
# Si number density = 22.630048 Si / 1000 Ang^3
#
#
#
# Elastic Constant Matrix: (Units=GPa)
#
#
# Indices 1 2 3 4 5 6 
#
# 1 52.2460 24.3498 22.7968 5.5253 12.1493 8.7871
# 2 24.3498 71.2846 57.2930 -8.0415 -22.1040 -7.6557
# 3 22.7968 57.2930 202.4507 -11.4874 -1.6847 23.4630
# 4 5.5253 -8.0415 -11.4874 39.6247 9.5949 0.7835
# 5 12.1493 -22.1040 -1.6847 9.5949 47.3827 6.9500
# 6 8.7871 -7.6557 23.4630 0.7835 6.9500 45.1166
#
#
#
# Elastic Compliance Matrix: (Units=1/GPa)
#
#
# Indices 1 2 3 4 5 6 
#
# 1 0.032176 -0.018817 0.002321 -0.003849 -0.014950 -0.008297
# 2 -0.018817 0.034674 -0.008696 0.002424 0.018562 0.011170
# 3 0.002321 -0.008696 0.007804 0.001207 -0.003824 -0.005418
# 4 -0.003849 0.002424 0.001207 0.027447 -0.003484 0.000593
# 5 -0.014950 0.018562 -0.003824 -0.003484 0.033739 0.002913
# 6 -0.008297 0.011170 -0.005418 0.000593 0.002913 0.028035
#
#
# Mechanical properties :
#
#
# Convention : Reuss Voigt Hill
#
# Bulk Modulus (GPa) = 41.20482 59.42893 50.31688
# Shear Modulus (GPa) = 22.48706 41.19423 31.84064
#
# Velocity S-wave (km/s) = 3.15569 4.27117 3.75508
# Velocity P-wave (km/s) = 5.61475 7.11631 6.40965
#
# Compressibility (1/GPa) = 0.02426901
#
# Stress axis : x y z
#
# Youngs Moduli (GPa) = 31.07878 28.84004 128.14368
#
# Poissons Ratio (x) = 0.54268 -0.29739
# Poissons Ratio (y) = 0.58481 1.11437
# Poissons Ratio (z) = -0.07213 0.25080
#
# Static dielectric constant tensor:
#      x y z
#    x 1.911140 -0.028640 0.033660 
#    y -0.028640 1.893660 0.020620 
#    z 0.033660 0.020620 1.806840 
# 
# From -- ./inp_files/499284.got.cif
#   From: 2010.05.17/outbox.cif.g08.bks.cpg/sg2_250_cif.got.tgz:499284.got - 2010.06.03 11:33:40.
