data_PCOD9064684
_publ_section_title
;
Structure prediction by ZEFSAII (Michael W. Deem and Ramdas Pophale) SiO2 
 PCOD9064684
Probable space group: P -1
;
_chemical_formula_sum "Si O2"
_cell_formula_units_Z 16
_cell_length_a 5.285551
_cell_length_b 11.225408
_cell_length_c 13.855385
_cell_angle_alpha 107.860365
_cell_angle_beta 54.569127
_cell_angle_gamma 91.836003
_cell_volume 626.195538
_symmetry_space_group_name_H-M "P -1"
_symmetry_group_IT_number 2
_symmetry_cell_setting 'triclinic'
loop_
_space_group_symop_operation_xyz
x,y,z
-x,-y,-z
loop_
_atom_site_type_symbol
_atom_site_label
_atom_site_fract_x
_atom_site_fract_y
_atom_site_fract_z
Si Si1 0.855643 0.520960 0.930101
Si Si2 0.217390 0.138322 0.214818
Si Si3 0.693649 0.196014 0.652081
Si Si4 0.387823 0.680082 0.626103
Si Si5 0.581218 0.787771 0.079820
Si Si6 0.396646 0.428312 0.650042
Si Si7 0.681883 0.926181 0.611721
Si Si8 0.851391 0.091182 0.959124
O O1 0.072033 0.439619 0.782756
O O2 0.500000 0.500000 0.000000
O O3 0.823904 0.670126 0.953758
O O4 0.000000 0.500000 0.000000
O O5 0.172888 0.070515 0.310791
O O6 0.988959 0.276439 0.299514
O O7 0.143251 0.049676 0.120027
O O8 0.585303 0.137183 0.110458
O O9 0.570459 0.246542 0.795566
O O10 0.625974 0.313742 0.623821
O O11 0.056910 0.132185 0.539322
O O12 0.536352 0.068580 0.643710
O O13 0.461190 0.572950 0.666065
O O14 0.588380 0.615644 0.474503
O O15 0.477349 0.818550 0.647485
O O16 0.295155 0.825335 0.079011
O O17 0.805794 0.888155 0.080078
#
# Coordination Sequence:
#
# PCOD9064684 Si02
#       8
#     2   2   2   2   2   2   2   2
#     4  12  27  47  73 109 153 204 255 315 382 464
#     4  11  24  46  71 110 149 197 253 316 388 460
#     4  11  24  47  73 111 148 193 256 311 388 458
#     4  11  26  48  75 104 153 196 262 315 382 455
#     4  12  25  48  72 112 150 202 252 323 383 459
#     4  11  26  49  72 111 147 205 256 319 382 461
#     4  11  25  46  77 110 148 198 251 322 384 461
#     4  11  27  43  78 110 154 197 256 318 389 463
#
# _framework density 25.551123
#
# number of rings (size 3 to 8) (size 9 to 14) (size 15 to 20)
#    0.000    0.750    3.750    2.250    5.250    2.000 
#    0.000    0.000    0.000    0.000    0.000    0.000 
#    0.000    0.000    0.000    0.000    0.000    0.000 
#
# Total GULP energy -89463.555310 kJ/mol
# GULP energy per Si atom -5591.472207 kJ/mol
# Density = 2.549297 g / cm^3
# Si number density = 25.551123 Si / 1000 Ang^3
#
#
#
# Elastic Constant Matrix: (Units=GPa)
#
#
# Indices 1 2 3 4 5 6 
#
# 1 79.2995 36.4131 23.1721 -8.9290 2.7966 -8.2634
# 2 36.4131 140.9634 6.3295 2.4335 -7.4368 -22.1210
# 3 23.1721 6.3295 167.9270 -1.7370 -10.2161 -2.6718
# 4 -8.9290 2.4335 -1.7370 48.7834 -13.0095 -1.6639
# 5 2.7966 -7.4368 -10.2161 -13.0095 23.5726 -1.8840
# 6 -8.2634 -22.1210 -2.6718 -1.6639 -1.8840 41.2121
#
#
#
# Elastic Compliance Matrix: (Units=1/GPa)
#
#
# Indices 1 2 3 4 5 6 
#
# 1 0.015480 -0.003957 -0.002114 0.002267 -0.002685 0.000812
# 2 -0.003957 0.008960 0.000511 0.000023 0.003868 0.004227
# 3 -0.002114 0.000511 0.006469 0.000823 0.003707 0.000473
# 4 0.002267 0.000023 0.000823 0.024726 0.013913 0.002154
# 5 -0.002685 0.003868 0.003707 0.013913 0.053629 0.004792
# 6 0.000812 0.004227 0.000473 0.002154 0.004792 0.027033
#
#
# Mechanical properties :
#
#
# Convention : Reuss Voigt Hill
#
# Bulk Modulus (GPa) = 50.53271 57.77991 54.15631
# Shear Modulus (GPa) = 32.46483 44.19864 38.33173
#
# Velocity S-wave (km/s) = 3.56839 4.16361 3.87744
# Velocity P-wave (km/s) = 6.06613 6.76585 6.42552
#
# Compressibility (1/GPa) = 0.01978916
#
# Stress axis : x y z
#
# Youngs Moduli (GPa) = 64.60069 111.60344 154.58408
#
# Poissons Ratio (x) = 0.44164 0.32677
# Poissons Ratio (y) = 0.25564 -0.07901
# Poissons Ratio (z) = 0.13656 -0.05704
#
# Static dielectric constant tensor:
#      x y z
#    x 2.076540 0.051110 -0.000300 
#    y 0.051110 2.098930 0.008130 
#    z -0.000300 0.008130 1.976810 
# 
# From -- ./inp_files/482873.got.cif
#   From: 2010.05.17/outbox.cif.g08.bks.cpg/sg2_242_cif.got.tgz:482873.got - 2010.06.03 11:33:40.
