data_PCOD9064395
_publ_section_title
;
Structure prediction by ZEFSAII (Michael W. Deem and Ramdas Pophale) SiO2 
 PCOD9064395
Probable space group: P -1
;
_chemical_formula_sum "Si O2"
_cell_formula_units_Z 14
_cell_length_a 9.672314
_cell_length_b 15.999727
_cell_length_c 8.207206
_cell_angle_alpha 50.588877
_cell_angle_beta 61.305069
_cell_angle_gamma 37.157806
_cell_volume 591.804070
_symmetry_space_group_name_H-M "P -1"
_symmetry_group_IT_number 2
_symmetry_cell_setting 'triclinic'
loop_
_space_group_symop_operation_xyz
x,y,z
-x,-y,-z
loop_
_atom_site_type_symbol
_atom_site_label
_atom_site_fract_x
_atom_site_fract_y
_atom_site_fract_z
Si Si1 0.720334 0.443153 0.036081
Si Si2 0.647384 0.101356 0.944720
Si Si3 0.089781 0.072676 0.320716
Si Si4 0.260560 0.063997 0.568308
Si Si5 0.399775 0.634388 0.261198
Si Si6 0.968068 0.348878 0.579346
Si Si7 0.840754 0.655401 0.222680
O O1 0.600396 0.559739 0.113380
O O2 0.883764 0.260676 0.206686
O O3 0.500000 0.500000 0.000000
O O4 0.903475 0.436980 0.864960
O O5 0.220286 0.008276 0.153741
O O6 0.737402 0.010520 0.177911
O O7 0.679559 0.215421 0.796697
O O8 0.376635 0.210179 0.933601
O O9 0.235521 0.022371 0.460698
O O10 0.000000 0.000000 0.500000
O O11 0.069917 0.250729 0.477485
O O12 0.500000 0.000000 0.500000
O O13 0.500000 0.500000 0.500000
O O14 0.198411 0.664877 0.251712
O O15 0.839583 0.526735 0.409653
O O16 0.169187 0.276516 0.683418
#
# Coordination Sequence:
#
# PCOD9064395 Si02
#       7
#     2   2   2   2   2   2   2
#     4  12  27  47  77 112 148 199 262 311 377 461
#     4  12  28  49  82 112 156 207 255 322 391 460
#     4  12  29  50  78 113 157 201 258 322 388 459
#     4  12  28  48  76 113 157 201 261 317 389 459
#     4  12  25  48  74 111 153 197 254 316 384 454
#     4  11  24  45  74 110 154 201 249 318 381 456
#     4  11  25  46  78 109 153 199 258 312 385 453
#
# _framework density 23.656476999999999
#
# number of rings (size 3 to 8) (size 9 to 14) (size 15 to 20)
#    0.000    0.286    2.857    5.143    4.000    3.429 
#    0.000    0.000    0.000    0.000    0.000    0.000 
#    0.000    0.000    0.000    0.000    0.000    0.000 
#
# Total GULP energy -78319.993327 kJ/mol
# GULP energy per Si atom -5594.285238 kJ/mol
# Density = 2.360263 g / cm^3
# Si number density = 23.656477 Si / 1000 Ang^3
#
#
#
# Elastic Constant Matrix: (Units=GPa)
#
#
# Indices 1 2 3 4 5 6 
#
# 1 162.0777 39.2942 44.8269 -6.6997 11.9942 5.1986
# 2 39.2942 112.6819 25.0612 15.7223 3.9682 5.1398
# 3 44.8269 25.0612 107.4982 -1.0108 17.7340 8.4399
# 4 -6.6997 15.7223 -1.0108 33.5301 -2.9227 -0.8051
# 5 11.9942 3.9682 17.7340 -2.9227 36.5941 0.3905
# 6 5.1986 5.1398 8.4399 -0.8051 0.3905 46.2635
#
#
#
# Elastic Compliance Matrix: (Units=1/GPa)
#
#
# Indices 1 2 3 4 5 6 
#
# 1 0.007600 -0.002425 -0.002433 0.002506 -0.000848 -0.000090
# 2 -0.002425 0.010882 -0.001503 -0.005660 -0.000101 -0.000760
# 3 -0.002433 -0.001503 0.011557 0.000126 -0.004613 -0.001627
# 4 0.002506 -0.005660 0.000126 0.033210 0.002374 0.000882
# 5 -0.000848 -0.000101 -0.004613 0.002374 0.030033 0.000736
# 6 -0.000090 -0.000760 -0.001627 0.000882 0.000736 0.022016
#
#
# Mechanical properties :
#
#
# Convention : Reuss Voigt Hill
#
# Bulk Modulus (GPa) = 57.74419 66.73581 62.24000
# Shear Modulus (GPa) = 37.37108 41.48257 39.42683
#
# Velocity S-wave (km/s) = 3.97891 4.19207 4.08688
# Velocity P-wave (km/s) = 6.75066 7.19047 6.97403
#
# Compressibility (1/GPa) = 0.01731776
#
# Stress axis : x y z
#
# Youngs Moduli (GPa) = 131.57918 91.89315 86.52404
#
# Poissons Ratio (x) = 0.22282 0.21055
# Poissons Ratio (y) = 0.31905 0.13002
# Poissons Ratio (z) = 0.32019 0.13809
#
# Static dielectric constant tensor:
#      x y z
#    x 1.912280 0.293010 -0.028280 
#    y 0.293010 3.914070 -0.253190 
#    z -0.028280 -0.253190 1.957900 
# 
# From -- ./inp_files/205880.got.cif
#   From: 2010.05.17/outbox.cif.g08.bks.cpg/sg2_103_cif.got.tgz:205880.got - 2010.06.03 11:33:40.
