data_PCOD9064378
_publ_section_title
;
Structure prediction by ZEFSAII (Michael W. Deem and Ramdas Pophale) SiO2 
 PCOD9064378
Probable space group: P -1
;
_chemical_formula_sum "Si O2"
_cell_formula_units_Z 14
_cell_length_a 8.755864
_cell_length_b 10.895416
_cell_length_c 11.807891
_cell_angle_alpha 39.191002
_cell_angle_beta 58.073994
_cell_angle_gamma 52.961195
_cell_volume 563.887917
_symmetry_space_group_name_H-M "P -1"
_symmetry_group_IT_number 2
_symmetry_cell_setting 'triclinic'
loop_
_space_group_symop_operation_xyz
x,y,z
-x,-y,-z
loop_
_atom_site_type_symbol
_atom_site_label
_atom_site_fract_x
_atom_site_fract_y
_atom_site_fract_z
Si Si1 0.055970 0.879903 0.738526
Si Si2 0.739315 0.788653 0.795244
Si Si3 0.566514 0.138087 0.964416
Si Si4 0.007243 0.648278 0.605423
Si Si5 0.463706 0.840210 0.539033
Si Si6 0.798906 0.413174 0.660475
Si Si7 0.074447 0.221321 0.897430
O O1 0.284385 0.786658 0.696770
O O2 0.936353 0.769676 0.793753
O O3 0.986650 0.120589 0.549992
O O4 0.002318 0.860214 0.903652
O O5 0.809938 0.669903 0.734532
O O6 0.621006 0.026072 0.636032
O O7 0.600621 0.735859 0.974073
O O8 0.660153 0.290404 0.762885
O O9 0.500000 0.000000 0.000000
O O10 0.741523 0.965331 0.085560
O O11 0.047973 0.615419 0.479429
O O12 0.137779 0.418965 0.762585
O O13 0.652585 0.645084 0.576814
O O14 0.500000 0.000000 0.500000
O O15 0.911867 0.302422 0.807731
#
# Coordination Sequence:
#
# PCOD9064378 Si02
#       7
#     2   2   2   2   2   2   2
#     4  11  25  48  72 110 149 198 248 312 377 437
#     4  11  25  48  74 105 152 197 251 310 369 447
#     4  12  26  46  72 112 149 196 252 305 368 451
#     4  11  24  45  74 107 144 197 247 299 380 437
#     4  11  26  47  77 112 150 193 256 308 376 451
#     4  12  26  47  75 111 150 198 248 311 382 438
#     4  12  26  46  76 104 153 192 252 311 375 444
#
# _framework density 24.827629000000002
#
# number of rings (size 3 to 8) (size 9 to 14) (size 15 to 20)
#    0.000    0.571    2.857    5.143    4.000    4.571 
#    0.000    5.000    0.000    0.000    0.000    0.000 
#    0.000    0.000    0.000    0.000    0.000    0.000 
#
# Total GULP energy -78238.363050 kJ/mol
# GULP energy per Si atom -5588.454504 kJ/mol
# Density = 2.477112 g / cm^3
# Si number density = 24.827629 Si / 1000 Ang^3
#
#
#
# Elastic Constant Matrix: (Units=GPa)
#
#
# Indices 1 2 3 4 5 6 
#
# 1 101.7008 50.0799 18.6682 6.7926 -0.9218 -19.2546
# 2 50.0799 168.8815 37.3974 11.3315 -8.2127 -16.1850
# 3 18.6682 37.3974 103.0708 20.3955 -12.9591 -5.7954
# 4 6.7926 11.3315 20.3955 62.4425 1.4648 -7.3572
# 5 -0.9218 -8.2127 -12.9591 1.4648 27.6012 2.3991
# 6 -19.2546 -16.1850 -5.7954 -7.3572 2.3991 33.0044
#
#
#
# Elastic Compliance Matrix: (Units=1/GPa)
#
#
# Indices 1 2 3 4 5 6 
#
# 1 0.012598 -0.003024 -0.001098 0.000261 -0.001516 0.005842
# 2 -0.003024 0.007442 -0.001879 -0.000268 0.001123 0.001414
# 3 -0.001098 -0.001879 0.011926 -0.003636 0.005254 -0.000661
# 4 0.000261 -0.000268 -0.003636 0.017712 -0.003027 0.003551
# 5 -0.001516 0.001123 0.005254 -0.003027 0.039398 -0.002950
# 6 0.005842 0.001414 -0.000661 0.003551 -0.002950 0.035291
#
#
# Mechanical properties :
#
#
# Convention : Reuss Voigt Hill
#
# Bulk Modulus (GPa) = 50.09153 65.10491 57.59822
# Shear Modulus (GPa) = 34.95916 42.44345 38.70130
#
# Velocity S-wave (km/s) = 3.75650 4.13913 3.95245
# Velocity P-wave (km/s) = 6.24777 7.00877 6.63918
#
# Compressibility (1/GPa) = 0.01996346
#
# Stress axis : x y z
#
# Youngs Moduli (GPa) = 79.37490 134.36876 83.85279
#
# Poissons Ratio (x) = 0.40633 0.09211
# Poissons Ratio (y) = 0.24003 0.15756
# Poissons Ratio (z) = 0.08719 0.25247
#
# Static dielectric constant tensor:
#      x y z
#    x 2.026790 0.036900 -0.034740 
#    y 0.036900 1.976760 -0.028150 
#    z -0.034740 -0.028150 1.967470 
# 
# From -- ./inp_files/154177.got.cif
#   From: 2010.05.17/outbox.cif.g08.bks.cpg/sg2_78_cif.got.tgz:154177.got - 2010.06.03 11:33:40.
