data_PCOD9064438
_publ_section_title
;
Structure prediction by ZEFSAII (Michael W. Deem and Ramdas Pophale) SiO2 
 PCOD9064438
Probable space group: P -1
;
_chemical_formula_sum "Si O2"
_cell_formula_units_Z 16
_cell_length_a 18.367187
_cell_length_b 8.486333
_cell_length_c 8.527541
_cell_angle_alpha 51.262453
_cell_angle_beta 84.803836
_cell_angle_gamma 123.862529
_cell_volume 632.727255
_symmetry_space_group_name_H-M "P -1"
_symmetry_group_IT_number 2
_symmetry_cell_setting 'triclinic'
loop_
_space_group_symop_operation_xyz
x,y,z
-x,-y,-z
loop_
_atom_site_type_symbol
_atom_site_label
_atom_site_fract_x
_atom_site_fract_y
_atom_site_fract_z
Si Si1 0.411041 0.930897 0.669776
Si Si2 0.096874 0.881101 0.078622
Si Si3 0.834375 0.708817 0.750944
Si Si4 0.954880 0.565719 0.842602
Si Si5 0.387988 0.271707 0.284585
Si Si6 0.180952 0.831845 0.371232
Si Si7 0.437865 0.684070 0.301258
Si Si8 0.210441 0.450380 0.510122
O O1 0.361606 0.993752 0.527897
O O2 0.483027 0.187474 0.641484
O O3 0.500000 0.000000 0.500000
O O4 0.299874 0.567484 0.988947
O O5 0.955645 0.536837 0.345667
O O6 0.886651 0.867907 0.161609
O O7 0.131661 0.763592 0.037354
O O8 0.171655 0.995440 0.147956
O O9 0.890021 0.628231 0.870319
O O10 0.733027 0.925093 0.654141
O O11 0.824057 0.643818 0.606538
O O12 0.065114 0.897057 0.512873
O O13 0.000000 0.500000 0.000000
O O14 0.417641 0.470671 0.307052
O O15 0.500000 0.500000 0.000000
O O16 0.237750 0.744183 0.351522
O O17 0.316914 0.527046 0.476399
O O18 0.500000 0.000000 0.000000
#
# Coordination Sequence:
#
# PCOD9064438 Si02
#       8
#     2   2   2   2   2   2   2   2
#     4  12  28  52  79 118 159 213 269 334 411 478
#     4  11  26  45  78 109 162 208 268 320 407 475
#     4  11  26  44  79 113 162 202 268 328 402 482
#     4  11  24  45  75 119 153 207 259 329 400 483
#     4  12  30  50  82 113 156 210 268 334 401 482
#     4  11  27  50  70 117 162 205 263 332 400 477
#     4  12  27  51  78 114 154 201 263 330 399 480
#     4  12  24  47  77 108 156 209 261 326 399 473
#
# _framework density 25.28736
#
# number of rings (size 3 to 8) (size 9 to 14) (size 15 to 20)
#    0.000    0.500    3.750    3.000    7.000    0.000 
#    9.000    0.000    0.000    0.000    0.000    0.000 
#    0.000    0.000    0.000    0.000    0.000    0.000 
#
# Total GULP energy -89571.513986 kJ/mol
# GULP energy per Si atom -5598.219624 kJ/mol
# Density = 2.522980 g / cm^3
# Si number density = 25.287360 Si / 1000 Ang^3
#
#
#
# Elastic Constant Matrix: (Units=GPa)
#
#
# Indices 1 2 3 4 5 6 
#
# 1 129.7418 37.9578 64.7792 -3.5473 7.5900 13.8399
# 2 37.9578 125.4206 39.1426 7.6279 7.7549 8.4929
# 3 64.7792 39.1426 134.0352 2.1138 13.7286 1.2906
# 4 -3.5473 7.6279 2.1138 31.3038 1.1392 9.3279
# 5 7.5900 7.7549 13.7286 1.1392 53.5975 1.6736
# 6 13.8399 8.4929 1.2906 9.3279 1.6736 46.6764
#
#
#
# Elastic Compliance Matrix: (Units=1/GPa)
#
#
# Indices 1 2 3 4 5 6 
#
# 1 0.011111 -0.001798 -0.004857 0.003052 -0.000027 -0.003442
# 2 -0.001798 0.009270 -0.001739 -0.002127 -0.000575 -0.000660
# 3 -0.004857 -0.001739 0.010502 -0.001305 -0.001779 0.001791
# 4 0.003052 -0.002127 -0.001305 0.035141 -0.000303 -0.007494
# 5 -0.000027 -0.000575 -0.001779 -0.000303 0.019221 -0.000467
# 6 -0.003442 -0.000660 0.001791 -0.007494 -0.000467 0.024029
#
#
# Mechanical properties :
#
#
# Convention : Reuss Voigt Hill
#
# Bulk Modulus (GPa) = 70.95334 74.77296 72.86315
# Shear Modulus (GPa) = 38.23782 42.80341 40.52061
#
# Velocity S-wave (km/s) = 3.89283 4.11868 4.00735
# Velocity P-wave (km/s) = 6.95164 7.22852 7.09143
#
# Compressibility (1/GPa) = 0.01409377
#
# Stress axis : x y z
#
# Youngs Moduli (GPa) = 90.00210 107.87826 95.22298
#
# Poissons Ratio (x) = 0.19393 0.46251
# Poissons Ratio (y) = 0.16179 0.16563
# Poissons Ratio (z) = 0.43716 0.18765
#
# Static dielectric constant tensor:
#      x y z
#    x 1.782720 -0.027270 0.201440 
#    y -0.027270 2.085950 0.004030 
#    z 0.201440 0.004030 1.769810 
# 
# From -- ./inp_files/294062.got.cif
#   From: 2010.05.17/outbox.cif.g08.bks.cpg/sg2_148_cif.got.tgz:294062.got - 2010.06.03 11:33:40.
