data_PCOD9064754
_publ_section_title
;
Structure prediction by ZEFSAII (Michael W. Deem and Ramdas Pophale) SiO2 
 PCOD9064754
Probable space group: P -1
;
_chemical_formula_sum "Si O2"
_cell_formula_units_Z 14
_cell_length_a 6.618531
_cell_length_b 17.250133
_cell_length_c 9.346018
_cell_angle_alpha 124.760856
_cell_angle_beta 48.351732
_cell_angle_gamma 101.721125
_cell_volume 627.622159
_symmetry_space_group_name_H-M "P -1"
_symmetry_group_IT_number 2
_symmetry_cell_setting 'triclinic'
loop_
_space_group_symop_operation_xyz
x,y,z
-x,-y,-z
loop_
_atom_site_type_symbol
_atom_site_label
_atom_site_fract_x
_atom_site_fract_y
_atom_site_fract_z
Si Si1 0.887446 0.411832 0.898957
Si Si2 0.138174 0.950880 0.530209
Si Si3 0.936617 0.319395 0.070224
Si Si4 0.254918 0.418873 0.220710
Si Si5 0.197992 0.114429 0.888174
Si Si6 0.653819 0.686709 0.648171
Si Si7 0.712935 0.893531 0.830094
O O1 0.066352 0.368950 0.628712
O O2 0.948357 0.325961 0.900914
O O3 0.546848 0.443863 0.080209
O O4 0.000000 0.500000 0.000000
O O5 0.467324 0.904806 0.306356
O O6 0.973496 0.875835 0.580670
O O7 0.108194 0.029980 0.755377
O O8 0.000000 0.000000 0.500000
O O9 0.607855 0.355876 0.310614
O O10 0.125076 0.385954 0.107298
O O11 0.050572 0.214467 0.980570
O O12 0.310996 0.330787 0.217402
O O13 0.000000 0.500000 0.500000
O O14 0.164795 0.110482 0.070542
O O15 0.579240 0.803502 0.780968
O O16 0.500000 0.000000 0.000000
#
# Coordination Sequence:
#
# PCOD9064754 Si02
#       7
#     2   2   2   2   2   2   2
#     4  11  26  45  70 103 139 176 230 289 348 414
#     4  11  25  42  69  96 138 178 233 282 345 402
#     4  11  25  43  69  97 139 175 226 283 342 408
#     4  11  24  46  72  97 138 179 224 287 348 413
#     4  11  25  44  65 100 133 183 229 285 344 407
#     4  11  26  43  68 103 137 183 230 282 347 409
#     4  12  24  43  70  95 141 184 230 283 342 409
#
# _framework density 22.306412999999999
#
# number of rings (size 3 to 8) (size 9 to 14) (size 15 to 20)
#    0.000    0.857    2.857    3.000    4.000    6.857 
#    0.000    0.000    0.000    0.000    0.000    0.000 
#    0.000    0.000    0.000    0.000    0.000    0.000 
#
# Total GULP energy -78273.678311 kJ/mol
# GULP energy per Si atom -5590.977022 kJ/mol
# Density = 2.225564 g / cm^3
# Si number density = 22.306413 Si / 1000 Ang^3
#
#
#
# Elastic Constant Matrix: (Units=GPa)
#
#
# Indices 1 2 3 4 5 6 
#
# 1 119.6637 34.0099 40.1770 -22.0773 -12.3168 9.5472
# 2 34.0099 104.5097 25.9177 -18.5565 -5.0990 -4.8304
# 3 40.1770 25.9177 83.7503 -23.9339 -7.4885 9.0055
# 4 -22.0773 -18.5565 -23.9339 40.3446 -0.2331 -1.3893
# 5 -12.3168 -5.0990 -7.4885 -0.2331 39.3019 -9.9207
# 6 9.5472 -4.8304 9.0055 -1.3893 -9.9207 45.0991
#
#
#
# Elastic Compliance Matrix: (Units=1/GPa)
#
#
# Indices 1 2 3 4 5 6 
#
# 1 0.010996 -0.002156 -0.003425 0.002962 0.002204 -0.001299
# 2 -0.002156 0.011424 -0.001769 0.003113 0.001086 0.002368
# 3 -0.003425 -0.001769 0.016500 0.007030 0.001314 -0.002254
# 4 0.002962 0.003113 0.007030 0.032023 0.002840 -0.000086
# 5 0.002204 0.001086 0.001314 0.002840 0.027963 0.005626
# 6 -0.001299 0.002368 -0.002254 -0.000086 0.005626 0.024387
#
#
# Mechanical properties :
#
#
# Convention : Reuss Voigt Hill
#
# Bulk Modulus (GPa) = 41.28717 56.45921 48.87319
# Shear Modulus (GPa) = 34.23124 38.80374 36.51749
#
# Velocity S-wave (km/s) = 3.92164 4.17535 4.05048
# Velocity P-wave (km/s) = 6.24939 6.97212 6.62063
#
# Compressibility (1/GPa) = 0.02422060
#
# Stress axis : x y z
#
# Youngs Moduli (GPa) = 90.94010 87.53591 60.60753
#
# Poissons Ratio (x) = 0.18870 0.20757
# Poissons Ratio (y) = 0.19604 0.10722
# Poissons Ratio (z) = 0.31146 0.15485
#
# Static dielectric constant tensor:
#      x y z
#    x 1.677200 0.353360 -0.041850 
#    y 0.353360 1.082350 0.089380 
#    z -0.041850 0.089380 1.796790 
# 
# From -- ./inp_files/46446.got.cif
#   From: 2010.05.17/outbox.cif.g08.bks.cpg/sg2_24_cif.got.tgz:46446.got - 2010.06.03 11:33:40.
