data_PCOD9064293
_publ_section_title
;
Structure prediction by ZEFSAII (Michael W. Deem and Ramdas Pophale) SiO2 
 PCOD9064293
Probable space group: P -1
;
_chemical_formula_sum "Si O2"
_cell_formula_units_Z 16
_cell_length_a 11.701132
_cell_length_b 9.085883
_cell_length_c 12.398738
_cell_angle_alpha 112.071527
_cell_angle_beta 48.696127
_cell_angle_gamma 141.364654
_cell_volume 590.153292
_symmetry_space_group_name_H-M "P -1"
_symmetry_group_IT_number 2
_symmetry_cell_setting 'triclinic'
loop_
_space_group_symop_operation_xyz
x,y,z
-x,-y,-z
loop_
_atom_site_type_symbol
_atom_site_label
_atom_site_fract_x
_atom_site_fract_y
_atom_site_fract_z
Si Si1 0.325263 0.434381 0.367257
Si Si2 0.288476 0.955317 0.115100
Si Si3 0.804631 0.706204 0.051152
Si Si4 0.736748 0.789483 0.449550
Si Si5 0.052159 0.519950 0.598180
Si Si6 0.086056 0.619930 0.835283
Si Si7 0.410056 0.043454 0.281855
Si Si8 0.804930 0.801295 0.845318
O O1 0.183243 0.232495 0.495826
O O2 0.270703 0.571078 0.472202
O O3 0.234115 0.333152 0.275134
O O4 0.595040 0.596966 0.228265
O O5 0.050271 0.660360 0.161207
O O6 0.362889 0.110732 0.221924
O O7 0.302866 0.107335 0.061708
O O8 0.500000 0.000000 0.000000
O O9 0.729841 0.646194 0.954795
O O10 0.920337 0.628896 0.984665
O O11 0.000000 0.000000 0.000000
O O12 0.500000 0.500000 0.500000
O O13 0.676938 0.921950 0.554141
O O14 0.921554 0.934377 0.278326
O O15 0.117232 0.682013 0.704277
O O16 0.000000 0.500000 0.500000
O O17 0.785125 0.241608 0.710792
O O18 0.328406 0.802166 0.803529
#
# Coordination Sequence:
#
# PCOD9064293 Si02
#       8
#     2   2   2   2   2   2   2   2
#     4  12  24  47  76 107 148 192 250 310 375 447
#     4  11  25  45  74 104 143 197 251 308 375 444
#     4  12  30  49  72 112 153 200 244 310 390 449
#     4  12  23  43  73 109 140 188 249 307 366 442
#     4  11  25  45  74 104 143 197 251 308 375 444
#     4  11  27  48  72 107 153 197 253 309 376 459
#     4  11  24  45  73 106 141 192 253 306 370 445
#     4  12  24  47  76 107 148 192 250 310 375 447
#
# _framework density 27.111598000000001
#
# number of rings (size 3 to 8) (size 9 to 14) (size 15 to 20)
#    0.000    0.500    2.500    6.000    3.500    2.000 
#    0.000    0.000    0.000    0.000    0.000    0.000 
#    0.000    0.000    0.000    0.000    0.000    0.000 
#
# Total GULP energy -89308.379138 kJ/mol
# GULP energy per Si atom -5581.773696 kJ/mol
# Density = 2.704989 g / cm^3
# Si number density = 27.111598 Si / 1000 Ang^3
#
#
#
# Elastic Constant Matrix: (Units=GPa)
#
#
# Indices 1 2 3 4 5 6 
#
# 1 95.8563 11.7905 59.1232 13.6130 -0.3336 5.4390
# 2 11.7905 103.4561 28.0748 -5.0604 -13.9075 30.9796
# 3 59.1232 28.0748 149.0473 -9.2705 -26.8389 3.4037
# 4 13.6130 -5.0604 -9.2705 30.3358 -6.0488 5.8086
# 5 -0.3336 -13.9075 -26.8389 -6.0488 56.5294 9.3446
# 6 5.4390 30.9796 3.4037 5.8086 9.3446 40.9567
#
#
#
# Elastic Compliance Matrix: (Units=1/GPa)
#
#
# Indices 1 2 3 4 5 6 
#
# 1 0.017619 -0.002142 -0.008613 -0.012804 -0.006425 0.003278
# 2 -0.002142 0.015413 -0.000019 0.007587 0.006900 -0.014023
# 3 -0.008613 -0.000019 0.012077 0.009524 0.007165 -0.002831
# 4 -0.012804 0.007587 0.009524 0.048524 0.013968 -0.014899
# 5 -0.006425 0.006900 0.007165 0.013968 0.026389 -0.012963
# 6 0.003278 -0.014023 -0.002831 -0.014899 -0.012963 0.039893
#
#
# Mechanical properties :
#
#
# Convention : Reuss Voigt Hill
#
# Bulk Modulus (GPa) = 42.44558 60.70409 51.57483
# Shear Modulus (GPa) = 26.41073 42.18912 34.29993
#
# Velocity S-wave (km/s) = 3.12452 3.94906 3.56074
# Velocity P-wave (km/s) = 5.35786 6.57514 5.99747
#
# Compressibility (1/GPa) = 0.02355958
#
# Stress axis : x y z
#
# Youngs Moduli (GPa) = 56.75849 64.88058 82.80314
#
# Poissons Ratio (x) = 0.13898 0.71322
# Poissons Ratio (y) = 0.12158 0.00156
# Poissons Ratio (z) = 0.48889 0.00122
#
# Static dielectric constant tensor:
#      x y z
#    x 2.634950 -0.035830 0.405340 
#    y -0.035830 2.268810 -0.128450 
#    z 0.405340 -0.128450 2.613000 
# 
# From -- ./inp_files/515891.got.cif
#   From: 2010.05.17/outbox.cif.g08.bks.cpg/sg2_258_cif.got.tgz:515891.got - 2010.06.03 11:33:40.
