data_PCOD9064010
_publ_section_title
;
Structure prediction by ZEFSAII (Michael W. Deem and Ramdas Pophale) SiO2 
 PCOD9064010
Probable space group: P -1
;
_chemical_formula_sum "Si O2"
_cell_formula_units_Z 14
_cell_length_a 17.516897
_cell_length_b 14.245183
_cell_length_c 7.424953
_cell_angle_alpha 124.881753
_cell_angle_beta 50.727180
_cell_angle_gamma 158.862903
_cell_volume 516.066286
_symmetry_space_group_name_H-M "P -1"
_symmetry_group_IT_number 2
_symmetry_cell_setting 'triclinic'
loop_
_space_group_symop_operation_xyz
x,y,z
-x,-y,-z
loop_
_atom_site_type_symbol
_atom_site_label
_atom_site_fract_x
_atom_site_fract_y
_atom_site_fract_z
Si Si1 0.067169 0.263133 0.965087
Si Si2 0.235396 0.486436 0.341197
Si Si3 0.900376 0.338438 0.222226
Si Si4 0.500000 0.000000 0.500000
Si Si5 0.415642 0.312041 0.792951
Si Si6 0.000000 0.000000 0.500000
Si Si7 0.669555 0.087509 0.927758
Si Si8 0.262759 0.098759 0.419439
O O1 0.118890 0.215139 0.699158
O O2 0.025607 0.347064 0.037868
O O3 0.229212 0.439300 0.090484
O O4 0.824296 0.978491 0.096544
O O5 0.332813 0.713885 0.450268
O O6 0.395237 0.583557 0.340403
O O7 0.987395 0.201138 0.470772
O O8 0.085862 0.621973 0.194067
O O9 0.731397 0.174550 0.460542
O O10 0.686902 0.124682 0.161284
O O11 0.373871 0.286262 0.617873
O O12 0.500000 0.500000 0.000000
O O13 0.799007 0.887106 0.640665
O O14 0.618613 0.900765 0.777178
O O15 0.500000 0.000000 0.000000
#
# Coordination Sequence:
#
# PCOD9064010 Si02
#       8
#     2   2   2   1   2   1   2   2
#     4  11  25  45  72 105 145 191 245 310 365 446
#     4  11  25  44  75 107 147 187 246 313 376 447
#     4  11  25  45  71 111 146 191 250 304 378 453
#     4  12  24  44  78 106 150 196 242 314 378 458
#     4  11  24  45  69 105 143 186 247 303 370 439
#     4  12  24  50  74  96 146 202 254 300 374 440
#     4  11  26  45  72 106 154 192 239 313 383 442
#     4  11  25  47  76 106 144 199 247 309 376 445
#
# _framework density 27.128298000000001
#
# number of rings (size 3 to 8) (size 9 to 14) (size 15 to 20)
#    0.000    0.857    4.286    1.714    4.000    2.857 
#    2.571    3.571    0.000    0.000    0.000    0.000 
#    0.000    0.000    0.000    0.000    0.000    0.000 
#
# Total GULP energy -78006.539607 kJ/mol
# GULP energy per Si atom -5571.895686 kJ/mol
# Density = 2.706655 g / cm^3
# Si number density = 27.128298 Si / 1000 Ang^3
#
#
#
# Elastic Constant Matrix: (Units=GPa)
#
#
# Indices 1 2 3 4 5 6 
#
# 1 140.1789 -5.7027 34.8610 2.8175 3.0164 51.1957
# 2 -5.7027 208.9245 0.7699 6.0998 0.2292 -61.7794
# 3 34.8610 0.7699 94.0066 14.5188 1.6758 6.0004
# 4 2.8175 6.0998 14.5188 74.3260 1.9320 -26.7495
# 5 3.0164 0.2292 1.6758 1.9320 48.4528 12.7161
# 6 51.1957 -61.7794 6.0004 -26.7495 12.7161 82.2654
#
#
#
# Elastic Compliance Matrix: (Units=1/GPa)
#
#
# Indices 1 2 3 4 5 6 
#
# 1 0.011672 -0.002685 -0.003141 -0.003458 0.002296 -0.010530
# 2 -0.002685 0.007029 0.000079 0.002467 -0.002085 0.008068
# 3 -0.003141 0.000079 0.012093 -0.002061 -0.000273 0.000504
# 4 -0.003458 0.002467 -0.002061 0.017597 -0.003147 0.010363
# 5 0.002296 -0.002085 -0.000273 -0.003147 0.022607 -0.007492
# 6 -0.010530 0.008068 0.000504 0.010363 -0.007492 0.029259
#
#
# Mechanical properties :
#
#
# Convention : Reuss Voigt Hill
#
# Bulk Modulus (GPa) = 51.81516 55.88516 53.85016
# Shear Modulus (GPa) = 42.30732 68.55431 55.43081
#
# Velocity S-wave (km/s) = 3.95337 5.03242 4.52517
# Velocity P-wave (km/s) = 6.32300 7.37645 6.86995
#
# Compressibility (1/GPa) = 0.01929937
#
# Stress axis : x y z
#
# Youngs Moduli (GPa) = 85.67860 142.26964 82.69464
#
# Poissons Ratio (x) = 0.38202 0.25974
# Poissons Ratio (y) = 0.23006 -0.00656
# Poissons Ratio (z) = 0.26911 -0.01128
#
# Static dielectric constant tensor:
#      x y z
#    x 1.960110 -0.056240 0.354560 
#    y -0.056240 2.254570 -0.468650 
#    z 0.354560 -0.468650 3.194400 
# 
# From -- ./inp_files/27522.got.cif
#   From: 2010.05.17/outbox.cif.g08.bks.cpg/sg2_14_cif.got.tgz:27522.got - 2010.06.03 11:33:40.
