data_PCOD9064111
_publ_section_title
;
Structure prediction by ZEFSAII (Michael W. Deem and Ramdas Pophale) SiO2 
 PCOD9064111
Probable space group: P -1
;
_chemical_formula_sum "Si O2"
_cell_formula_units_Z 15
_cell_length_a 8.665126
_cell_length_b 6.859309
_cell_length_c 18.708640
_cell_angle_alpha 56.753138
_cell_angle_beta 56.222866
_cell_angle_gamma 55.311072
_cell_volume 714.938317
_symmetry_space_group_name_H-M "P -1"
_symmetry_group_IT_number 2
_symmetry_cell_setting 'triclinic'
loop_
_space_group_symop_operation_xyz
x,y,z
-x,-y,-z
loop_
_atom_site_type_symbol
_atom_site_label
_atom_site_fract_x
_atom_site_fract_y
_atom_site_fract_z
Si Si1 0.474573 0.748869 0.586091
Si Si2 0.060471 0.511841 0.900230
Si Si3 0.957164 0.196730 0.370812
Si Si4 0.493397 0.487938 0.225231
Si Si5 0.885531 0.376817 0.502933
Si Si6 0.452537 0.705995 0.908283
Si Si7 0.761132 0.944704 0.803554
Si Si8 0.000000 0.000000 0.000000
O O1 0.258582 0.751677 0.619131
O O2 0.501813 0.704522 0.673492
O O3 0.650291 0.517658 0.549702
O O4 0.500000 0.000000 0.500000
O O5 0.289919 0.484408 0.835712
O O6 0.912228 0.788738 0.857257
O O7 0.000000 0.500000 0.000000
O O8 0.021058 0.279763 0.921171
O O9 0.934521 0.382801 0.405454
O O10 0.038464 0.913219 0.436788
O O11 0.117410 0.184206 0.272526
O O12 0.471419 0.404414 0.167275
O O13 0.312806 0.754761 0.234391
O O14 0.000000 0.500000 0.500000
O O15 0.561256 0.888024 0.868608
O O16 0.500000 0.500000 0.000000
O O17 0.216029 0.851972 0.937456
#
# Coordination Sequence:
#
# PCOD9064111 Si02
#       8
#     2   2   2   2   2   2   2   1
#     4  12  25  48  72 105 144 191 242 295 359 419
#     4  12  25  45  71 102 139 186 231 291 356 424
#     4  11  25  44  71 102 139 184 231 294 356 414
#     4  12  27  45  73 103 146 188 238 294 356 427
#     4  11  24  45  71 102 137 179 234 290 350 421
#     4  12  27  45  70 107 140 187 235 294 358 426
#     4  12  26  44  71 102 142 184 238 288 358 422
#     4  12  24  44  68 102 142 176 236 288 350 426
#
# _framework density 20.980830999999998
#
# number of rings (size 3 to 8) (size 9 to 14) (size 15 to 20)
#    0.000    0.267    8.000    0.400    3.733    1.067 
#    4.800    0.000    0.000    0.000    0.000    0.000 
#    0.000    0.000    0.000    0.000    0.000    0.000 
#
# Total GULP energy -83563.230550 kJ/mol
# GULP energy per Si atom -5570.882037 kJ/mol
# Density = 2.093308 g / cm^3
# Si number density = 20.980831 Si / 1000 Ang^3
#
#
#
# Elastic Constant Matrix: (Units=GPa)
#
#
# Indices 1 2 3 4 5 6 
#
# 1 65.4621 39.3515 25.9873 1.2454 10.3291 -13.8482
# 2 39.3515 96.7378 34.4817 9.9104 14.3778 -19.0647
# 3 25.9873 34.4817 121.5345 12.1978 30.2232 -8.3425
# 4 1.2454 9.9104 12.1978 43.2069 -1.4629 -5.6736
# 5 10.3291 14.3778 30.2232 -1.4629 44.8487 2.5614
# 6 -13.8482 -19.0647 -8.3425 -5.6736 2.5614 25.9120
#
#
#
# Elastic Compliance Matrix: (Units=1/GPa)
#
#
# Indices 1 2 3 4 5 6 
#
# 1 0.021837 -0.006804 -0.002079 0.002336 -0.001752 0.006679
# 2 -0.006804 0.015748 -0.001581 -0.002114 -0.002900 0.007265
# 3 -0.002079 -0.001581 0.011161 -0.002775 -0.006705 0.001374
# 4 0.002336 -0.002114 -0.002775 0.024960 0.002595 0.004008
# 5 -0.001752 -0.002900 -0.006705 0.002595 0.028661 -0.007494
# 6 0.006679 0.007265 0.001374 0.004008 -0.007494 0.049568
#
#
# Mechanical properties :
#
#
# Convention : Reuss Voigt Hill
#
# Bulk Modulus (GPa) = 35.94891 53.70839 44.82865
# Shear Modulus (GPa) = 27.45197 35.05442 31.25319
#
# Velocity S-wave (km/s) = 3.62115 4.09196 3.86373
# Velocity P-wave (km/s) = 5.88685 6.92675 6.42786
#
# Compressibility (1/GPa) = 0.02781726
#
# Stress axis : x y z
#
# Youngs Moduli (GPa) = 45.79457 63.50010 89.59376
#
# Poissons Ratio (x) = 0.43208 0.18626
# Poissons Ratio (y) = 0.31160 0.14166
# Poissons Ratio (z) = 0.09521 0.10040
#
# Static dielectric constant tensor:
#      x y z
#    x 1.774760 0.025150 0.010550 
#    y 0.025150 1.735770 -0.003830 
#    z 0.010550 -0.003830 1.752720 
# 
# From -- ./inp_files/553219.got.cif
#   From: 2010.05.17/outbox.cif.g08.bks.cpg/sg2_277_cif.got.tgz:553219.got - 2010.06.03 11:33:40.
