data_PCOD9064429
_publ_section_title
;
Structure prediction by ZEFSAII (Michael W. Deem and Ramdas Pophale) SiO2 
 PCOD9064429
Probable space group: P -1
;
_chemical_formula_sum "Si O2"
_cell_formula_units_Z 16
_cell_length_a 15.569673
_cell_length_b 13.046149
_cell_length_c 14.073130
_cell_angle_alpha 55.561483
_cell_angle_beta 29.311982
_cell_angle_gamma 36.247178
_cell_volume 727.845134
_symmetry_space_group_name_H-M "P -1"
_symmetry_group_IT_number 2
_symmetry_cell_setting 'triclinic'
loop_
_space_group_symop_operation_xyz
x,y,z
-x,-y,-z
loop_
_atom_site_type_symbol
_atom_site_label
_atom_site_fract_x
_atom_site_fract_y
_atom_site_fract_z
Si Si1 0.680569 0.389637 0.786559
Si Si2 0.724095 0.092205 0.925273
Si Si3 0.064168 0.956030 0.850199
Si Si4 0.500550 0.940579 0.425165
Si Si5 0.463932 0.525586 0.727055
Si Si6 0.186602 0.284030 0.398541
Si Si7 0.124760 0.505306 0.993566
Si Si8 0.047651 0.665478 0.782385
O O1 0.759092 0.204790 0.781948
O O2 0.502816 0.538769 0.792276
O O3 0.967083 0.305564 0.562402
O O4 0.500000 0.500000 0.000000
O O5 0.407896 0.224033 0.147199
O O6 0.810574 0.085176 0.953642
O O7 0.898461 0.875497 0.843359
O O8 0.280255 0.948556 0.624822
O O9 0.222769 0.739284 0.800590
O O10 0.000000 0.000000 0.000000
O O11 0.810472 0.721670 0.213631
O O12 0.500000 0.000000 0.500000
O O13 0.380708 0.110987 0.380739
O O14 0.733897 0.415431 0.465778
O O15 0.356522 0.444607 0.864592
O O16 0.000000 0.500000 0.500000
O O17 0.138277 0.348711 0.065963
O O18 0.176073 0.530671 0.824132
#
# Coordination Sequence:
#
# PCOD9064429 Si02
#       8
#     2   2   2   2   2   2   2   2
#     4  12  28  47  70 103 147 190 236 292 362 435
#     4  12  25  47  72 103 139 194 232 294 357 422
#     4  12  24  43  72 107 146 175 244 302 356 419
#     4  12  25  42  73 111 141 182 239 297 359 424
#     4  12  26  45  73 105 141 193 237 294 359 425
#     4  12  26  44  69  99 144 187 230 287 362 421
#     4  11  24  45  75 110 141 183 242 303 354 421
#     4  11  25  45  74 106 145 185 242 298 357 419
#
# _framework density 21.982697999999999
#
# number of rings (size 3 to 8) (size 9 to 14) (size 15 to 20)
#    0.000    0.250    6.250    2.625    3.500    2.500 
#    0.000    1.250    0.000    0.000    0.000    0.000 
#    0.000    0.000    0.000    0.000    0.000    0.000 
#
# Total GULP energy -89415.011398 kJ/mol
# GULP energy per Si atom -5588.438212 kJ/mol
# Density = 2.193266 g / cm^3
# Si number density = 21.982698 Si / 1000 Ang^3
#
#
#
# Elastic Constant Matrix: (Units=GPa)
#
#
# Indices 1 2 3 4 5 6 
#
# 1 83.1368 17.3201 47.2918 -10.8416 -13.0383 13.5746
# 2 17.3201 122.1899 20.5942 -18.4845 -9.7239 25.3369
# 3 47.2918 20.5942 103.2728 -36.9694 -11.1853 11.7683
# 4 -10.8416 -18.4845 -36.9694 27.1141 15.2846 -10.7511
# 5 -13.0383 -9.7239 -11.1853 15.2846 39.1336 -2.1749
# 6 13.5746 25.3369 11.7683 -10.7511 -2.1749 32.7163
#
#
#
# Elastic Compliance Matrix: (Units=1/GPa)
#
#
# Indices 1 2 3 4 5 6 
#
# 1 0.021443 -0.001135 -0.015825 -0.023758 0.011096 -0.009395
# 2 -0.001135 0.010265 0.001292 0.006014 -0.000139 -0.005976
# 3 -0.015825 0.001292 0.032023 0.050483 -0.014980 0.009641
# 4 -0.023758 0.006014 0.050483 0.136412 -0.043661 0.028965
# 5 0.011096 -0.000139 -0.014980 -0.043661 0.041392 -0.010703
# 6 -0.009395 -0.005976 0.009641 0.028965 -0.010703 0.044432
#
#
# Mechanical properties :
#
#
# Convention : Reuss Voigt Hill
#
# Bulk Modulus (GPa) = 30.87020 53.22355 42.04687
# Shear Modulus (GPa) = 15.23915 34.68567 24.96241
#
# Velocity S-wave (km/s) = 2.63579 3.97654 3.37345
# Velocity P-wave (km/s) = 4.83080 6.73409 5.86023
#
# Compressibility (1/GPa) = 0.03239370
#
# Stress axis : x y z
#
# Youngs Moduli (GPa) = 46.63511 97.41723 31.22732
#
# Poissons Ratio (x) = 0.11058 0.49419
# Poissons Ratio (y) = 0.05293 -0.04033
# Poissons Ratio (z) = 0.73802 -0.12583
#
# Static dielectric constant tensor:
#      x y z
#    x 1.800160 0.056330 0.027120 
#    y 0.056330 1.782490 -0.051720 
#    z 0.027120 -0.051720 1.777840 
# 
# From -- ./inp_files/532452.got.cif
#   From: 2010.05.17/outbox.cif.g08.bks.cpg/sg2_267_cif.got.tgz:532452.got - 2010.06.03 11:33:40.
