data_PCOD9064026
_publ_section_title
;
Structure prediction by ZEFSAII (Michael W. Deem and Ramdas Pophale) SiO2 
 PCOD9064026
Probable space group: P -1
;
_chemical_formula_sum "Si O2"
_cell_formula_units_Z 16
_cell_length_a 24.019547
_cell_length_b 5.204147
_cell_length_c 4.913945
_cell_angle_alpha 93.107047
_cell_angle_beta 101.263045
_cell_angle_gamma 93.047222
_cell_volume 600.258085
_symmetry_space_group_name_H-M "P -1"
_symmetry_group_IT_number 2
_symmetry_cell_setting 'triclinic'
loop_
_space_group_symop_operation_xyz
x,y,z
-x,-y,-z
loop_
_atom_site_type_symbol
_atom_site_label
_atom_site_fract_x
_atom_site_fract_y
_atom_site_fract_z
Si Si1 0.169620 0.814092 0.110147
Si Si2 0.635388 0.749414 0.539961
Si Si3 0.464163 0.606053 0.721813
Si Si4 0.991203 0.742587 0.798816
Si Si5 0.758176 0.806257 0.547897
Si Si6 0.386392 0.934771 0.969604
Si Si7 0.093674 0.623532 0.527120
Si Si8 0.263588 0.705909 0.837256
O O1 0.187428 0.115053 0.207846
O O2 0.126782 0.728903 0.301970
O O3 0.137387 0.697906 0.811228
O O4 0.232736 0.720024 0.099893
O O5 0.701424 0.765028 0.676639
O O6 0.603451 0.933991 0.722372
O O7 0.598591 0.485843 0.464258
O O8 0.635222 0.850346 0.238479
O O9 0.500000 0.500000 0.500000
O O10 0.500000 0.500000 0.000000
O O11 0.442966 0.857648 0.869192
O O12 0.037406 0.745736 0.600969
O O13 0.930663 0.665957 0.592048
O O14 0.000000 0.500000 0.000000
O O15 0.000000 0.000000 0.000000
O O16 0.753441 0.048242 0.347563
O O17 0.758362 0.551591 0.353691
O O18 0.332183 0.729233 0.932606
#
# Coordination Sequence:
#
# PCOD9064026 Si02
#       8
#     2   2   2   2   2   2   2   2
#     4  12  24  49  72 118 150 195 248 313 372 439
#     4  11  24  45  69  97 137 185 234 296 364 444
#     4  12  26  44  68 104 134 180 240 307 362 431
#     4  11  26  52  79 109 151 208 254 302 377 435
#     4  11  25  47  73 107 146 198 244 300 372 451
#     4  11  24  45  69  97 137 185 234 296 364 444
#     4  11  26  48  76 114 154 195 252 317 364 439
#     4  11  25  47  73 107 146 198 244 300 372 451
#
# _framework density 26.655199
#
# number of rings (size 3 to 8) (size 9 to 14) (size 15 to 20)
#    0.000    0.750    5.000    1.500    0.000    8.000 
#    0.000    0.000    0.000    0.000    0.000    0.000 
#    0.000    0.000    0.000    0.000    0.000    0.000 
#
# Total GULP energy -89370.182400 kJ/mol
# GULP energy per Si atom -5585.636400 kJ/mol
# Density = 2.659453 g / cm^3
# Si number density = 26.655199 Si / 1000 Ang^3
#
#
#
# Elastic Constant Matrix: (Units=GPa)
#
#
# Indices 1 2 3 4 5 6 
#
# 1 123.3162 18.1106 45.5974 17.4372 -24.6560 27.3691
# 2 18.1106 95.1557 60.4327 33.2827 -4.7510 5.5872
# 3 45.5974 60.4327 204.4189 21.3586 -19.7805 19.5023
# 4 17.4372 33.2827 21.3586 55.3858 9.1277 7.8201
# 5 -24.6560 -4.7510 -19.7805 9.1277 79.4932 2.3379
# 6 27.3691 5.5872 19.5023 7.8201 2.3379 35.2073
#
#
#
# Elastic Compliance Matrix: (Units=1/GPa)
#
#
# Indices 1 2 3 4 5 6 
#
# 1 0.011427 0.000212 -0.001200 -0.002776 0.003809 -0.007888
# 2 0.000212 0.015861 -0.003881 -0.008443 0.000980 0.001279
# 3 -0.001200 -0.003881 0.006592 0.000309 0.001066 -0.002242
# 4 -0.002776 -0.008443 0.000309 0.024827 -0.004083 -0.001917
# 5 0.003809 0.000980 0.001066 -0.004083 0.014665 -0.003774
# 6 -0.007888 0.001279 -0.002242 -0.001917 -0.003774 0.036250
#
#
# Mechanical properties :
#
#
# Convention : Reuss Voigt Hill
#
# Bulk Modulus (GPa) = 41.42543 74.57469 58.00006
# Shear Modulus (GPa) = 39.24415 53.93390 46.58903
#
# Velocity S-wave (km/s) = 3.84120 4.50309 4.18525
# Velocity P-wave (km/s) = 5.93701 7.42128 6.72025
#
# Compressibility (1/GPa) = 0.02413976
#
# Stress axis : x y z
#
# Youngs Moduli (GPa) = 87.51449 63.04904 151.70257
#
# Poissons Ratio (x) = -0.01335 0.18209
# Poissons Ratio (y) = -0.01853 0.58878
# Poissons Ratio (z) = 0.10504 0.24470
#
# Static dielectric constant tensor:
#      x y z
#    x 2.241440 -0.054920 0.038850 
#    y -0.054920 2.150730 -0.035630 
#    z 0.038850 -0.035630 2.039090 
# 
# From -- ./inp_files/121896.got.cif
#   From: 2010.05.17/outbox.cif.g08.bks.cpg/sg2_61_cif.got.tgz:121896.got - 2010.06.03 11:33:40.
