data_PCOD9064868
_publ_section_title
;
Structure prediction by ZEFSAII (Michael W. Deem and Ramdas Pophale) SiO2 
 PCOD9064868
Probable space group: P -1
;
_chemical_formula_sum "Si O2"
_cell_formula_units_Z 12
_cell_length_a 8.082345
_cell_length_b 13.790579
_cell_length_c 14.069996
_cell_angle_alpha 159.407845
_cell_angle_beta 87.278729
_cell_angle_gamma 83.123176
_cell_volume 487.087733
_symmetry_space_group_name_H-M "P -1"
_symmetry_group_IT_number 2
_symmetry_cell_setting 'triclinic'
loop_
_space_group_symop_operation_xyz
x,y,z
-x,-y,-z
loop_
_atom_site_type_symbol
_atom_site_label
_atom_site_fract_x
_atom_site_fract_y
_atom_site_fract_z
Si Si1 0.898061 0.479327 0.357869
Si Si2 0.538371 0.526423 0.912607
Si Si3 0.321102 0.232144 0.543394
Si Si4 0.101316 0.877422 0.687662
Si Si5 0.622484 0.627260 0.665919
Si Si6 0.037248 0.805395 0.416711
O O1 0.735100 0.562251 0.361049
O O2 0.812767 0.501731 0.483522
O O3 0.951185 0.755517 0.600216
O O4 0.065841 0.155066 0.016827
O O5 0.411639 0.866475 0.186377
O O6 0.500000 0.500000 0.000000
O O7 0.470737 0.296571 0.655043
O O8 0.750906 0.464040 0.842121
O O9 0.125841 0.294997 0.658082
O O10 0.299976 0.568243 0.417624
O O11 0.055802 0.976049 0.669256
O O12 0.500000 0.500000 0.500000
O O13 0.500000 0.000000 0.000000
O O14 0.000000 0.000000 0.500000
#
# Coordination Sequence:
#
# PCOD9064868 Si02
#       6
#     2   2   2   2   2   2
#     4  11  24  46  74  96 145 181 235 289 357 434
#     4  12  26  44  71 101 146 191 244 300 360 422
#     4  11  26  46  68 106 141 192 240 296 366 424
#     4  11  25  47  70 103 136 193 234 287 361 423
#     4  12  26  43  73 108 140 178 231 295 358 426
#     4  11  26  46  74 104 148 191 247 298 357 434
#
# _framework density 24.636219000000001
#
# number of rings (size 3 to 8) (size 9 to 14) (size 15 to 20)
#    0.000    0.667    1.667    5.500    4.667    4.667 
#    0.000    0.000    0.000    0.000    0.000    0.000 
#    0.000    0.000    0.000    0.000    0.000    0.000 
#
# Total GULP energy -67092.224727 kJ/mol
# GULP energy per Si atom -5591.018727 kJ/mol
# Density = 2.458015 g / cm^3
# Si number density = 24.636219 Si / 1000 Ang^3
#
#
#
# Elastic Constant Matrix: (Units=GPa)
#
#
# Indices 1 2 3 4 5 6 
#
# 1 118.3773 7.8644 12.9923 5.9906 -13.1594 -2.1929
# 2 7.8644 139.6792 28.9472 7.0557 -10.6612 -19.9094
# 3 12.9923 28.9472 129.8500 21.6953 -3.5866 5.9645
# 4 5.9906 7.0557 21.6953 32.6916 -6.4260 -9.4875
# 5 -13.1594 -10.6612 -3.5866 -6.4260 42.5834 2.6783
# 6 -2.1929 -19.9094 5.9645 -9.4875 2.6783 36.1996
#
#
#
# Elastic Compliance Matrix: (Units=1/GPa)
#
#
# Indices 1 2 3 4 5 6 
#
# 1 0.008849 -0.000088 -0.000717 -0.000546 0.002552 0.000274
# 2 -0.000088 0.008467 -0.002350 0.001653 0.001808 0.005338
# 3 -0.000717 -0.002350 0.009727 -0.007370 -0.000800 -0.004811
# 4 -0.000546 0.001653 -0.007370 0.039699 0.004852 0.012136
# 5 0.002552 0.001808 -0.000800 0.004852 0.025347 0.000677
# 6 0.000274 0.005338 -0.004811 0.012136 0.000677 0.034500
#
#
# Mechanical properties :
#
#
# Convention : Reuss Voigt Hill
#
# Bulk Modulus (GPa) = 48.23363 54.16825 51.20094
# Shear Modulus (GPa) = 35.76305 44.83511 40.29908
#
# Velocity S-wave (km/s) = 3.81418 4.27064 4.04885
# Velocity P-wave (km/s) = 6.24645 6.80829 6.53341
#
# Compressibility (1/GPa) = 0.02073242
#
# Stress axis : x y z
#
# Youngs Moduli (GPa) = 113.01347 118.11094 102.80567
#
# Poissons Ratio (x) = 0.01043 0.07367
# Poissons Ratio (y) = 0.00998 0.24160
# Poissons Ratio (z) = 0.08098 0.27756
#
# Static dielectric constant tensor:
#      x y z
#    x 1.931190 -0.042470 -0.080000 
#    y -0.042470 2.195460 0.037060 
#    z -0.080000 0.037060 2.026940 
# 
# From -- ./inp_files/309860.got.cif
#   From: 2010.05.17/outbox.cif.g08.bks.cpg/sg2_155_cif.got.tgz:309860.got - 2010.06.03 11:33:40.
