data_PCOD9064990
_publ_section_title
;
Structure prediction by ZEFSAII (Michael W. Deem and Ramdas Pophale) SiO2 
 PCOD9064990
Probable space group: P -1
;
_chemical_formula_sum "Si O2"
_cell_formula_units_Z 12
_cell_length_a 7.495664
_cell_length_b 8.690665
_cell_length_c 7.755868
_cell_angle_alpha 81.460217
_cell_angle_beta 106.031398
_cell_angle_gamma 82.819938
_cell_volume 472.822598
_symmetry_space_group_name_H-M "P -1"
_symmetry_group_IT_number 2
_symmetry_cell_setting 'triclinic'
loop_
_space_group_symop_operation_xyz
x,y,z
-x,-y,-z
loop_
_atom_site_type_symbol
_atom_site_label
_atom_site_fract_x
_atom_site_fract_y
_atom_site_fract_z
Si Si1 0.828785 0.442152 0.362452
Si Si2 0.425170 0.066990 0.717098
Si Si3 0.182509 0.865909 0.110808
Si Si4 0.499373 0.724750 0.624244
Si Si5 0.012135 0.151741 0.583371
Si Si6 0.785521 0.484797 0.966555
O O1 0.649622 0.395530 0.420555
O O2 0.000000 0.500000 0.500000
O O3 0.955062 0.272733 0.390776
O O4 0.745377 0.520691 0.151902
O O5 0.622440 0.067349 0.864795
O O6 0.435804 0.193015 0.542601
O O7 0.219302 0.138218 0.722087
O O8 0.423847 0.885950 0.687157
O O9 0.220393 0.697853 0.050634
O O10 0.134535 0.828015 0.302496
O O11 0.000000 0.000000 0.000000
O O12 0.662890 0.613513 0.791224
O O13 0.000000 0.000000 0.500000
O O14 0.000000 0.500000 0.000000
#
# Coordination Sequence:
#
# PCOD9064990 Si02
#       6
#     2   2   2   2   2   2
#     4  12  26  47  78 111 151 201 252 310 382 456
#     4  11  24  46  80 108 152 202 254 314 369 458
#     4  12  27  47  74 113 155 199 252 313 380 447
#     4  11  24  49  76 113 151 201 258 307 382 444
#     4  12  23  47  77 106 149 203 256 300 376 453
#     4  12  27  48  72 111 159 195 252 320 372 454
#
# _framework density 25.379497000000001
#
# number of rings (size 3 to 8) (size 9 to 14) (size 15 to 20)
#    0.000    0.333    3.333    5.500    2.333    1.333 
#    3.000    0.000    0.000    0.000    0.000    0.000 
#    0.000    0.000    0.000    0.000    0.000    0.000 
#
# Total GULP energy -66962.175179 kJ/mol
# GULP energy per Si atom -5580.181265 kJ/mol
# Density = 2.532173 g / cm^3
# Si number density = 25.379497 Si / 1000 Ang^3
#
#
#
# Elastic Constant Matrix: (Units=GPa)
#
#
# Indices 1 2 3 4 5 6 
#
# 1 134.8786 14.9784 25.1026 2.7789 25.4392 20.6925
# 2 14.9784 119.5107 35.1186 2.3822 10.2382 16.6353
# 3 25.1026 35.1186 131.5235 -30.6523 21.9101 -1.0089
# 4 2.7789 2.3822 -30.6523 52.8515 -9.2801 14.9061
# 5 25.4392 10.2382 21.9101 -9.2801 50.2026 -0.2928
# 6 20.6925 16.6353 -1.0089 14.9061 -0.2928 33.3471
#
#
#
# Elastic Compliance Matrix: (Units=1/GPa)
#
#
# Indices 1 2 3 4 5 6 
#
# 1 0.009347 0.000415 -0.001298 -0.000356 -0.004355 -0.005925
# 2 0.000415 0.009937 -0.002780 -0.000914 -0.001221 -0.004901
# 3 -0.001298 -0.002780 0.010316 0.005823 -0.002202 -0.000118
# 4 -0.000356 -0.000914 0.005823 0.025810 0.002534 -0.010662
# 5 -0.004355 -0.001221 -0.002202 0.002534 0.023818 0.002321
# 6 -0.005925 -0.004901 -0.000118 -0.010662 0.002321 0.040892
#
#
# Mechanical properties :
#
#
# Convention : Reuss Voigt Hill
#
# Bulk Modulus (GPa) = 44.89251 59.59021 52.24136
# Shear Modulus (GPa) = 37.07224 47.99446 42.53335
#
# Velocity S-wave (km/s) = 3.82608 4.35336 4.09821
# Velocity P-wave (km/s) = 6.10290 6.98568 6.55916
#
# Compressibility (1/GPa) = 0.02227543
#
# Stress axis : x y z
#
# Youngs Moduli (GPa) = 106.98207 100.63076 96.93475
#
# Poissons Ratio (x) = -0.04175 0.12580
# Poissons Ratio (y) = -0.04438 0.26946
# Poissons Ratio (z) = 0.13884 0.27973
#
# Static dielectric constant tensor:
#      x y z
#    x 2.047300 -0.057370 -0.043680 
#    y -0.057370 1.965230 -0.033410 
#    z -0.043680 -0.033410 2.127800 
# 
# From -- ./inp_files/158250.got.cif
#   From: 2010.05.17/outbox.cif.g08.bks.cpg/sg2_80_cif.got.tgz:158250.got - 2010.06.03 11:33:40.
