data_PCOD9064601
_publ_section_title
;
Structure prediction by ZEFSAII (Michael W. Deem and Ramdas Pophale) SiO2 
 PCOD9064601
Probable space group: P -1
;
_chemical_formula_sum "Si O2"
_cell_formula_units_Z 14
_cell_length_a 9.293571
_cell_length_b 8.681217
_cell_length_c 11.098203
_cell_angle_alpha 119.051368
_cell_angle_beta 56.929874
_cell_angle_gamma 94.180473
_cell_volume 632.993672
_symmetry_space_group_name_H-M "P -1"
_symmetry_group_IT_number 2
_symmetry_cell_setting 'triclinic'
loop_
_space_group_symop_operation_xyz
x,y,z
-x,-y,-z
loop_
_atom_site_type_symbol
_atom_site_label
_atom_site_fract_x
_atom_site_fract_y
_atom_site_fract_z
Si Si1 0.138899 0.953594 0.720400
Si Si2 0.601021 0.961900 0.756929
Si Si3 0.213206 0.117427 0.105891
Si Si4 0.515653 0.298017 0.458889
Si Si5 0.757373 0.665780 0.215386
Si Si6 0.912042 0.512164 0.840715
Si Si7 0.162392 0.828463 0.394282
O O1 0.284435 0.825781 0.690312
O O2 0.159313 0.837660 0.543237
O O3 0.937145 0.992592 0.872253
O O4 0.191954 0.142120 0.748209
O O5 0.727235 0.885096 0.783114
O O6 0.605612 0.800338 0.600934
O O7 0.666454 0.120971 0.721732
O O8 0.399015 0.035229 0.922487
O O9 0.120978 0.312982 0.164228
O O10 0.500000 0.500000 0.500000
O O11 0.439163 0.300881 0.629640
O O12 0.894524 0.548611 0.206840
O O13 0.784816 0.566553 0.036584
O O14 0.871235 0.348703 0.720699
O O15 0.000000 0.000000 0.500000
#
# Coordination Sequence:
#
# PCOD9064601 Si02
#       7
#     2   2   2   2   2   2   2
#     4  12  25  45  75  98 142 188 229 276 355 407
#     4  11  25  47  69 100 145 180 231 283 351 405
#     4  11  26  44  71 105 138 184 227 291 339 409
#     4  12  27  44  70 105 139 179 234 290 340 410
#     4  11  24  46  70 103 140 184 229 287 343 413
#     4  11  25  42  72 103 141 177 236 281 346 403
#     4  12  23  46  72 100 136 187 231 282 342 418
#
# _framework density 22.117124
#
# number of rings (size 3 to 8) (size 9 to 14) (size 15 to 20)
#    0.000    0.571    4.286    2.143    4.000    8.000 
#    0.000    0.000    0.000    0.000    0.000    0.000 
#    0.000    0.000    0.000    0.000    0.000    0.000 
#
# Total GULP energy -78359.962453 kJ/mol
# GULP energy per Si atom -5597.140175 kJ/mol
# Density = 2.206678 g / cm^3
# Si number density = 22.117124 Si / 1000 Ang^3
#
#
#
# Elastic Constant Matrix: (Units=GPa)
#
#
# Indices 1 2 3 4 5 6 
#
# 1 70.9494 25.8934 17.9242 4.5721 -5.9648 -7.8425
# 2 25.8934 107.6541 10.9247 4.5331 -8.5318 -4.7805
# 3 17.9242 10.9247 89.7164 -10.3602 -2.5474 14.0233
# 4 4.5721 4.5331 -10.3602 34.9572 12.7079 -8.7085
# 5 -5.9648 -8.5318 -2.5474 12.7079 53.6367 4.7523
# 6 -7.8425 -4.7805 14.0233 -8.7085 4.7523 34.2873
#
#
#
# Elastic Compliance Matrix: (Units=1/GPa)
#
#
# Indices 1 2 3 4 5 6 
#
# 1 0.017021 -0.003301 -0.003898 -0.002401 0.001377 0.004226
# 2 -0.003301 0.010378 -0.000808 -0.001639 0.001600 0.000384
# 3 -0.003898 -0.000808 0.013263 0.003229 -0.000203 -0.005580
# 4 -0.002401 -0.001639 0.003229 0.035621 -0.009547 0.008272
# 5 0.001377 0.001600 -0.000203 -0.009547 0.021731 -0.004816
# 6 0.004226 0.000384 -0.005580 0.008272 -0.004816 0.035237
#
#
# Mechanical properties :
#
#
# Convention : Reuss Voigt Hill
#
# Bulk Modulus (GPa) = 40.56948 41.97830 41.27389
# Shear Modulus (GPa) = 31.75018 38.81476 35.28247
#
# Velocity S-wave (km/s) = 3.79297 4.19377 3.99840
# Velocity P-wave (km/s) = 6.12903 6.51702 6.32600
#
# Compressibility (1/GPa) = 0.02464907
#
# Stress axis : x y z
#
# Youngs Moduli (GPa) = 58.74933 96.35962 75.39959
#
# Poissons Ratio (x) = 0.31805 0.29387
# Poissons Ratio (y) = 0.19391 0.06094
# Poissons Ratio (z) = 0.22898 0.07788
#
# Static dielectric constant tensor:
#      x y z
#    x 1.841550 -0.010930 -0.003440 
#    y -0.010930 1.760240 -0.029050 
#    z -0.003440 -0.029050 1.841770 
# 
# From -- ./inp_files/156149.got.cif
#   From: 2010.05.17/outbox.cif.g08.bks.cpg/sg2_79_cif.got.tgz:156149.got - 2010.06.03 11:33:40.
