data_PCOD9064598
_publ_section_title
;
Structure prediction by ZEFSAII (Michael W. Deem and Ramdas Pophale) SiO2 
 PCOD9064598
Probable space group: P -1
;
_chemical_formula_sum "Si O2"
_cell_formula_units_Z 12
_cell_length_a 6.726715
_cell_length_b 16.728168
_cell_length_c 16.707886
_cell_angle_alpha 154.844618
_cell_angle_beta 41.125202
_cell_angle_gamma 141.256621
_cell_volume 492.180169
_symmetry_space_group_name_H-M "P -1"
_symmetry_group_IT_number 2
_symmetry_cell_setting 'triclinic'
loop_
_space_group_symop_operation_xyz
x,y,z
-x,-y,-z
loop_
_atom_site_type_symbol
_atom_site_label
_atom_site_fract_x
_atom_site_fract_y
_atom_site_fract_z
Si Si1 0.019184 0.727189 0.599553
Si Si2 0.286491 0.410324 0.263994
Si Si3 0.883811 0.123638 0.992988
Si Si4 0.158610 0.098649 0.622507
Si Si5 0.966095 0.381932 0.040094
Si Si6 0.893661 0.236859 0.560444
O O1 0.302583 0.636709 0.447179
O O2 0.895716 0.657341 0.483766
O O3 0.790527 0.637159 0.662534
O O4 0.065314 0.961745 0.796549
O O5 0.609000 0.367094 0.109905
O O6 0.004315 0.267815 0.163861
O O7 0.961656 0.252693 0.004693
O O8 0.500000 0.000000 0.000000
O O9 0.535494 0.131584 0.539158
O O10 0.993972 0.932179 0.589179
O O11 0.000000 0.000000 0.500000
O O12 0.121298 0.303251 0.848711
O O13 0.129911 0.610728 0.226361
#
# Coordination Sequence:
#
# PCOD9064598 Si02
#       6
#     2   2   2   2   2   2
#     4  11  24  46  70 102 151 176 233 282 349 418
#     4  11  27  42  70 111 140 186 230 282 347 420
#     4  12  25  43  69 104 143 189 230 282 343 418
#     4  11  28  48  74 100 135 186 239 296 351 410
#     4  12  26  46  74 101 143 184 236 292 348 414
#     4  11  26  47  71 105 137 186 233 291 351 410
#
# _framework density 24.381314
#
# number of rings (size 3 to 8) (size 9 to 14) (size 15 to 20)
#    0.000    0.667    5.000    1.000    4.667    4.667 
#    0.000    0.000    0.000    0.000    0.000    0.000 
#    0.000    0.000    0.000    0.000    0.000    0.000 
#
# Total GULP energy -67147.758974 kJ/mol
# GULP energy per Si atom -5595.646581 kJ/mol
# Density = 2.432582 g / cm^3
# Si number density = 24.381314 Si / 1000 Ang^3
#
#
#
# Elastic Constant Matrix: (Units=GPa)
#
#
# Indices 1 2 3 4 5 6 
#
# 1 117.0688 31.9388 34.3954 0.6875 25.3857 13.6539
# 2 31.9388 36.0059 4.3847 3.1518 6.8815 -11.0111
# 3 34.3954 4.3847 140.0116 3.7257 9.7710 -6.1991
# 4 0.6875 3.1518 3.7257 39.7652 -10.2060 1.2873
# 5 25.3857 6.8815 9.7710 -10.2060 53.9901 10.9855
# 6 13.6539 -11.0111 -6.1991 1.2873 10.9855 35.8398
#
#
#
# Elastic Compliance Matrix: (Units=1/GPa)
#
#
# Indices 1 2 3 4 5 6 
#
# 1 0.016080 -0.016978 -0.003805 0.001239 -0.002158 -0.011383
# 2 -0.016978 0.051624 0.004231 -0.006462 -0.005678 0.025033
# 3 -0.003805 0.004231 0.008300 -0.001587 -0.001510 0.004705
# 4 0.001239 -0.006462 -0.001587 0.027766 0.006971 -0.005866
# 5 -0.002158 -0.005678 -0.001510 0.006971 0.023616 -0.008673
# 6 -0.011383 0.025033 0.004705 -0.005866 -0.008673 0.043612
#
#
# Mechanical properties :
#
#
# Convention : Reuss Voigt Hill
#
# Bulk Modulus (GPa) = 23.30964 48.28045 35.79504
# Shear Modulus (GPa) = 22.89353 40.74352 31.81852
#
# Velocity S-wave (km/s) = 3.06760 4.09234 3.61645
# Velocity P-wave (km/s) = 4.70405 6.49422 5.67023
#
# Compressibility (1/GPa) = 0.04290071
#
# Stress axis : x y z
#
# Youngs Moduli (GPa) = 62.18908 19.37081 120.47616
#
# Poissons Ratio (x) = 0.32887 0.45840
# Poissons Ratio (y) = 1.05582 -0.50968
# Poissons Ratio (z) = 0.23663 -0.08195
#
# Static dielectric constant tensor:
#      x y z
#    x 1.909170 -0.021930 -0.005800 
#    y -0.021930 1.976450 -0.017040 
#    z -0.005800 -0.017040 1.937680 
# 
# From -- ./inp_files/22095.got.cif
#   From: 2010.05.17/outbox.cif.g08.bks.cpg/sg2_12_cif.got.tgz:22095.got - 2010.06.03 11:33:40.
