data_PCOD9064135
_publ_section_title
;
Structure prediction by ZEFSAII (Michael W. Deem and Ramdas Pophale) SiO2 
 PCOD9064135
Probable space group: P -1
;
_chemical_formula_sum "Si O2"
_cell_formula_units_Z 16
_cell_length_a 19.867413
_cell_length_b 12.546307
_cell_length_c 9.458448
_cell_angle_alpha 107.839556
_cell_angle_beta 144.091810
_cell_angle_gamma 44.331508
_cell_volume 720.654514
_symmetry_space_group_name_H-M "P -1"
_symmetry_group_IT_number 2
_symmetry_cell_setting 'triclinic'
loop_
_space_group_symop_operation_xyz
x,y,z
-x,-y,-z
loop_
_atom_site_type_symbol
_atom_site_label
_atom_site_fract_x
_atom_site_fract_y
_atom_site_fract_z
Si Si1 0.338279 0.079396 0.644358
Si Si2 0.607587 0.397295 0.350102
Si Si3 0.019983 0.612757 0.628394
Si Si4 0.225752 0.275468 0.239481
Si Si5 0.156937 0.792617 0.596225
Si Si6 0.839703 0.871562 0.151103
Si Si7 0.467030 0.297452 0.589034
Si Si8 0.491804 0.718006 0.661785
O O1 0.107371 0.275968 0.397707
O O2 0.346137 0.134033 0.527627
O O3 0.394679 0.904320 0.648594
O O4 0.500000 0.000000 0.000000
O O5 0.775540 0.219752 0.448236
O O6 0.653474 0.489646 0.499476
O O7 0.583939 0.333427 0.414437
O O8 0.375173 0.593062 0.966528
O O9 0.902313 0.778188 0.373544
O O10 0.000000 0.500000 0.500000
O O11 0.256559 0.465909 0.980986
O O12 0.327624 0.301063 0.353472
O O13 0.218605 0.183216 0.073794
O O14 0.000000 0.500000 0.000000
O O15 0.037018 0.772654 0.376929
O O16 0.000000 0.000000 0.500000
O O17 0.650152 0.115203 0.935439
O O18 0.573914 0.226549 0.590501
#
# Coordination Sequence:
#
# PCOD9064135 Si02
#       8
#     2   2   2   2   2   2   2   2
#     4  12  26  43  71 107 143 184 238 292 363 423
#     4  11  26  45  73 101 142 191 243 285 358 427
#     4  12  25  43  69 103 143 185 233 297 355 424
#     4  12  26  45  72 105 141 188 237 294 359 428
#     4  11  24  45  71 105 136 186 239 296 349 425
#     4  12  24  45  73 101 143 184 238 295 358 420
#     4  12  25  47  72 101 147 188 240 296 356 428
#     4  12  26  46  69 105 145 188 237 294 360 423
#
# _framework density 22.202038999999999
#
# number of rings (size 3 to 8) (size 9 to 14) (size 15 to 20)
#    0.000    0.250    5.000    4.500    1.750    2.000 
#    0.000    0.625    0.000    0.000    0.000    0.000 
#    0.000    0.000    0.000    0.000    0.000    0.000 
#
# Total GULP energy -89577.721167 kJ/mol
# GULP energy per Si atom -5598.607573 kJ/mol
# Density = 2.215151 g / cm^3
# Si number density = 22.202039 Si / 1000 Ang^3
#
#
#
# Elastic Constant Matrix: (Units=GPa)
#
#
# Indices 1 2 3 4 5 6 
#
# 1 155.4407 47.1921 19.1242 -0.3920 5.7385 19.5937
# 2 47.1921 124.4040 16.5374 -1.9255 10.3093 1.5553
# 3 19.1242 16.5374 39.1770 5.8627 -4.9237 12.2629
# 4 -0.3920 -1.9255 5.8627 30.8504 3.7597 5.5538
# 5 5.7385 10.3093 -4.9237 3.7597 40.8005 -6.0363
# 6 19.5937 1.5553 12.2629 5.5538 -6.0363 43.4399
#
#
#
# Elastic Compliance Matrix: (Units=1/GPa)
#
#
# Indices 1 2 3 4 5 6 
#
# 1 0.007925 -0.002562 -0.002108 0.001076 -0.001295 -0.003205
# 2 -0.002562 0.009724 -0.003794 0.001352 -0.002478 0.001361
# 3 -0.002108 -0.003794 0.031611 -0.005671 0.004635 -0.006468
# 4 0.001076 0.001352 -0.005671 0.034937 -0.005003 -0.004095
# 5 -0.001295 -0.002478 0.004635 -0.005003 0.026891 0.003741
# 6 -0.003205 0.001361 -0.006468 -0.004095 0.003741 0.027287
#
#
# Mechanical properties :
#
#
# Convention : Reuss Voigt Hill
#
# Bulk Modulus (GPa) = 30.92788 53.85880 42.39334
# Shear Modulus (GPa) = 30.10600 38.76271 34.43435
#
# Velocity S-wave (km/s) = 3.68639 4.18294 3.94249
# Velocity P-wave (km/s) = 5.66390 6.90221 6.31348
#
# Compressibility (1/GPa) = 0.03233329
#
# Stress axis : x y z
#
# Youngs Moduli (GPa) = 126.18191 102.84042 31.63431
#
# Poissons Ratio (x) = 0.26349 0.06667
# Poissons Ratio (y) = 0.32329 0.12001
# Poissons Ratio (z) = 0.26593 0.39015
#
# Static dielectric constant tensor:
#      x y z
#    x 1.868690 0.091350 0.017960 
#    y 0.091350 1.901720 0.017550 
#    z 0.017960 0.017550 1.848900 
# 
# From -- ./inp_files/282760.got.cif
#   From: 2010.05.17/outbox.cif.g08.bks.cpg/sg2_142_cif.got.tgz:282760.got - 2010.06.03 11:33:40.
