data_PCOD9064587
_publ_section_title
;
Structure prediction by ZEFSAII (Michael W. Deem and Ramdas Pophale) SiO2 
 PCOD9064587
Probable space group: P -1
;
_chemical_formula_sum "Si O2"
_cell_formula_units_Z 14
_cell_length_a 6.954396
_cell_length_b 6.533261
_cell_length_c 17.231224
_cell_angle_alpha 122.851560
_cell_angle_beta 101.186312
_cell_angle_gamma 94.519327
_cell_volume 628.908452
_symmetry_space_group_name_H-M "P -1"
_symmetry_group_IT_number 2
_symmetry_cell_setting 'triclinic'
loop_
_space_group_symop_operation_xyz
x,y,z
-x,-y,-z
loop_
_atom_site_type_symbol
_atom_site_label
_atom_site_fract_x
_atom_site_fract_y
_atom_site_fract_z
Si Si1 0.604710 0.163714 0.810877
Si Si2 0.628449 0.276889 0.552859
Si Si3 0.044835 0.264082 0.603025
Si Si4 0.653167 0.342138 0.385537
Si Si5 0.382099 0.012398 0.913961
Si Si6 0.055772 0.301338 0.903329
Si Si7 0.689571 0.550918 0.201957
O O1 0.455588 0.923328 0.712607
O O2 0.540212 0.160454 0.895032
O O3 0.837913 0.161728 0.823991
O O4 0.532334 0.398828 0.816654
O O5 0.500789 0.477746 0.603116
O O6 0.831745 0.307784 0.623237
O O7 0.500000 0.000000 0.500000
O O8 0.000000 0.000000 0.500000
O O9 0.145835 0.498122 0.604990
O O10 0.189508 0.260773 0.686338
O O11 0.318367 0.689660 0.527204
O O12 0.316302 0.724408 0.824353
O O13 0.187961 0.132997 0.923002
O O14 0.500000 0.000000 0.000000
O O15 0.192625 0.412599 0.863077
O O16 0.000000 0.500000 0.000000
#
# Coordination Sequence:
#
# PCOD9064587 Si02
#       7
#     2   2   2   2   2   2   2
#     4  11  25  43  69  97 138 175 226 279 344 406
#     4  11  25  42  66 100 134 177 235 277 335 410
#     4  12  24  44  70  96 141 186 227 280 346 401
#     4  11  25  43  65  98 134 182 224 288 339 398
#     4  11  24  46  70 100 136 175 230 281 342 420
#     4  11  26  45  69 103 136 181 224 289 351 403
#     4  11  26  43  68 103 136 180 233 278 340 416
#
# _framework density 22.260788999999999
#
# number of rings (size 3 to 8) (size 9 to 14) (size 15 to 20)
#    0.000    0.857    2.857    3.000    4.000    5.714 
#    0.000    0.000    0.000    0.000    0.000    0.000 
#    0.000    0.000    0.000    0.000    0.000    0.000 
#
# Total GULP energy -78315.849764 kJ/mol
# GULP energy per Si atom -5593.989269 kJ/mol
# Density = 2.221012 g / cm^3
# Si number density = 22.260789 Si / 1000 Ang^3
#
#
#
# Elastic Constant Matrix: (Units=GPa)
#
#
# Indices 1 2 3 4 5 6 
#
# 1 121.2822 39.7811 -1.7896 0.5839 16.7888 -21.2568
# 2 39.7811 108.3702 9.7683 8.4144 1.2819 -26.5354
# 3 -1.7896 9.7683 70.0917 4.7030 8.3611 -7.5987
# 4 0.5839 8.4144 4.7030 36.4281 -2.7627 2.9914
# 5 16.7888 1.2819 8.3611 -2.7627 29.1363 -0.4928
# 6 -21.2568 -26.5354 -7.5987 2.9914 -0.4928 44.8471
#
#
#
# Elastic Compliance Matrix: (Units=1/GPa)
#
#
# Indices 1 2 3 4 5 6 
#
# 1 0.010863 -0.003174 0.001933 -0.000488 -0.006660 0.003558
# 2 -0.003174 0.012096 -0.001124 -0.002955 0.001435 0.005675
# 3 0.001933 -0.001124 0.015649 -0.002474 -0.005739 0.003004
# 4 -0.000488 -0.002955 -0.002474 0.029103 0.003808 -0.004298
# 5 -0.006660 0.001435 -0.005739 0.003808 0.040052 -0.003094
# 6 0.003558 0.005675 0.003004 -0.004298 -0.003094 0.028104
#
#
# Mechanical properties :
#
#
# Convention : Reuss Voigt Hill
#
# Bulk Modulus (GPa) = 29.51910 43.91820 36.71865
# Shear Modulus (GPa) = 32.91851 38.88125 35.89988
#
# Velocity S-wave (km/s) = 3.84965 4.18380 4.02020
# Velocity P-wave (km/s) = 5.74883 6.56587 6.17089
#
# Compressibility (1/GPa) = 0.03387637
#
# Stress axis : x y z
#
# Youngs Moduli (GPa) = 92.05852 82.67072 63.90070
#
# Poissons Ratio (x) = 0.26239 -0.12349
# Poissons Ratio (y) = 0.29219 0.07185
# Poissons Ratio (z) = -0.17791 0.09296
#
# Static dielectric constant tensor:
#      x y z
#    x 1.851990 0.002770 0.059050 
#    y 0.002770 1.809980 0.024460 
#    z 0.059050 0.024460 1.928840 
# 
# From -- ./inp_files/10009.got.cif
#   From: 2010.05.17/outbox.cif.g08.bks.cpg/sg2_6_cif.got.tgz:10009.got - 2010.06.03 11:33:40.
