data_PCOD9064911
_publ_section_title
;
Structure prediction by ZEFSAII (Michael W. Deem and Ramdas Pophale) SiO2 
 PCOD9064911
Probable space group: P -1
;
_chemical_formula_sum "Si O2"
_cell_formula_units_Z 14
_cell_length_a 13.661671
_cell_length_b 5.935689
_cell_length_c 9.019345
_cell_angle_alpha 95.013556
_cell_angle_beta 61.592053
_cell_angle_gamma 71.883702
_cell_volume 586.703909
_symmetry_space_group_name_H-M "P -1"
_symmetry_group_IT_number 2
_symmetry_cell_setting 'triclinic'
loop_
_space_group_symop_operation_xyz
x,y,z
-x,-y,-z
loop_
_atom_site_type_symbol
_atom_site_label
_atom_site_fract_x
_atom_site_fract_y
_atom_site_fract_z
Si Si1 0.631526 0.144688 0.814913
Si Si2 0.792633 0.895111 0.430723
Si Si3 0.398265 0.109715 0.892622
Si Si4 0.243521 0.597429 0.106332
Si Si5 0.105695 0.565280 0.501434
Si Si6 0.988265 0.026918 0.833416
Si Si7 0.438032 0.802927 0.578726
O O1 0.516892 0.172700 0.798912
O O2 0.638738 0.368198 0.914468
O O3 0.751815 0.047103 0.621977
O O4 0.628605 0.944738 0.923804
O O5 0.796689 0.635492 0.470820
O O6 0.926895 0.833010 0.270539
O O7 0.693223 0.068552 0.397937
O O8 0.418249 0.870401 0.769987
O O9 0.283659 0.361581 0.956006
O O10 0.174296 0.582509 0.304251
O O11 0.152188 0.830908 0.097452
O O12 0.041394 0.793505 0.671404
O O13 0.000000 0.500000 0.500000
O O14 0.000000 0.000000 0.000000
O O15 0.500000 0.500000 0.500000
O O16 0.500000 0.000000 0.500000
#
# Coordination Sequence:
#
# PCOD9064911 Si02
#       7
#     2   2   2   2   2   2   2
#     4  11  24  46  75 115 145 199 263 336 385 473
#     4  12  26  49  80 108 155 205 262 329 401 479
#     4  11  27  46  76 113 152 202 266 327 395 476
#     4  12  25  46  79 109 157 205 267 328 402 474
#     4  12  25  48  77 111 153 205 268 324 400 471
#     4  12  30  46  74 115 155 208 259 330 402 490
#     4  12  31  52  78 116 163 215 264 327 410 487
#
# _framework density 23.862124999999999
#
# number of rings (size 3 to 8) (size 9 to 14) (size 15 to 20)
#    0.000    0.286    5.714    1.714    8.000    2.857 
#    0.000    0.000    0.000    0.000    0.000    0.000 
#    0.000    0.000    0.000    0.000    0.000    0.000 
#
# Total GULP energy -78067.882434 kJ/mol
# GULP energy per Si atom -5576.277317 kJ/mol
# Density = 2.380781 g / cm^3
# Si number density = 23.862125 Si / 1000 Ang^3
#
#
#
# Elastic Constant Matrix: (Units=GPa)
#
#
# Indices 1 2 3 4 5 6 
#
# 1 93.4340 39.3825 27.9265 3.7619 5.0194 -4.7438
# 2 39.3825 103.5022 30.8539 33.6522 14.8429 -11.6990
# 3 27.9265 30.8539 120.9992 10.2551 11.0865 3.5473
# 4 3.7619 33.6522 10.2551 55.2996 8.8053 -1.5888
# 5 5.0194 14.8429 11.0865 8.8053 29.5893 -5.0686
# 6 -4.7438 -11.6990 3.5473 -1.5888 -5.0686 35.8276
#
#
#
# Elastic Compliance Matrix: (Units=1/GPa)
#
#
# Indices 1 2 3 4 5 6 
#
# 1 0.013478 -0.005427 -0.002009 0.002697 0.000454 0.000395
# 2 -0.005427 0.015899 -0.001915 -0.008331 -0.003200 0.003840
# 3 -0.002009 -0.001915 0.009530 -0.000113 -0.002614 -0.002210
# 4 0.002697 -0.008331 -0.000113 0.023502 -0.003540 -0.001811
# 5 0.000454 -0.003200 -0.002614 -0.003540 0.038130 0.004511
# 6 0.000395 0.003840 -0.002210 -0.001811 0.004511 0.029994
#
#
# Mechanical properties :
#
#
# Convention : Reuss Voigt Hill
#
# Bulk Modulus (GPa) = 49.48928 57.14015 53.31471
# Shear Modulus (GPa) = 32.05740 38.79478 35.42609
#
# Velocity S-wave (km/s) = 3.66928 4.03648 3.85725
# Velocity P-wave (km/s) = 6.22384 6.76182 6.49840
#
# Compressibility (1/GPa) = 0.02020640
#
# Stress axis : x y z
#
# Youngs Moduli (GPa) = 74.19728 62.89644 104.92899
#
# Poissons Ratio (x) = 0.34133 0.21076
# Poissons Ratio (y) = 0.40265 0.20093
# Poissons Ratio (z) = 0.14903 0.12044
#
# Static dielectric constant tensor:
#      x y z
#    x 1.979980 0.077480 -0.021330 
#    y 0.077480 1.996120 -0.021210 
#    z -0.021330 -0.021210 1.919960 
# 
# From -- ./inp_files/288754.got.cif
#   From: 2010.05.17/outbox.cif.g08.bks.cpg/sg2_145_cif.got.tgz:288754.got - 2010.06.03 11:33:40.
