data_PCOD9064335
_publ_section_title
;
Structure prediction by ZEFSAII (Michael W. Deem and Ramdas Pophale) SiO2 
 PCOD9064335
Probable space group: P -1
;
_chemical_formula_sum "Si O2"
_cell_formula_units_Z 16
_cell_length_a 20.680533
_cell_length_b 7.765350
_cell_length_c 6.557805
_cell_angle_alpha 94.233421
_cell_angle_beta 49.168276
_cell_angle_gamma 115.634122
_cell_volume 683.839706
_symmetry_space_group_name_H-M "P -1"
_symmetry_group_IT_number 2
_symmetry_cell_setting 'triclinic'
loop_
_space_group_symop_operation_xyz
x,y,z
-x,-y,-z
loop_
_atom_site_type_symbol
_atom_site_label
_atom_site_fract_x
_atom_site_fract_y
_atom_site_fract_z
Si Si1 0.612033 0.567546 0.822871
Si Si2 0.759687 0.982556 0.704865
Si Si3 0.652108 0.072943 0.244936
Si Si4 0.930607 0.681278 0.631690
Si Si5 0.760896 0.501210 0.271508
Si Si6 0.534641 0.148887 0.138020
Si Si7 0.109488 0.581247 0.684395
Si Si8 0.049892 0.004524 0.687864
O O1 0.685227 0.572678 0.497090
O O2 0.657733 0.792025 0.829814
O O3 0.500000 0.500000 0.000000
O O4 0.600444 0.383457 0.969230
O O5 0.813875 0.178827 0.466166
O O6 0.833403 0.896860 0.540649
O O7 0.738240 0.040573 0.975678
O O8 0.698285 0.273744 0.300399
O O9 0.598569 0.098237 0.157335
O O10 0.565578 0.897929 0.541433
O O11 0.907643 0.496162 0.521176
O O12 0.972567 0.859537 0.398646
O O13 0.831108 0.630572 0.951636
O O14 0.010390 0.783439 0.656672
O O15 0.831989 0.503411 0.308558
O O16 0.500000 0.000000 0.000000
O O17 0.000000 0.500000 0.000000
O O18 0.000000 0.000000 0.000000
#
# Coordination Sequence:
#
# PCOD9064335 Si02
#       8
#     2   2   2   2   2   2   2   2
#     4  12  28  46  75 109 151 194 242 310 371 439
#     4  12  26  45  70 110 147 183 253 302 372 434
#     4  11  26  44  77 104 138 195 246 299 368 441
#     4  11  24  45  74 101 146 195 243 293 387 434
#     4  12  26  47  74 105 147 196 245 300 371 439
#     4  11  24  49  74 100 147 194 244 303 372 436
#     4  12  27  46  76 107 150 196 249 307 369 449
#     4  11  25  47  71 107 147 191 238 313 368 446
#
# _framework density 23.397296999999998
#
# number of rings (size 3 to 8) (size 9 to 14) (size 15 to 20)
#    0.000    0.500    2.500    5.250    7.000    3.500 
#    0.000    0.000    0.000    0.000    0.000    0.000 
#    0.000    0.000    0.000    0.000    0.000    0.000 
#
# Total GULP energy -89431.229964 kJ/mol
# GULP energy per Si atom -5589.451873 kJ/mol
# Density = 2.334404 g / cm^3
# Si number density = 23.397297 Si / 1000 Ang^3
#
#
#
# Elastic Constant Matrix: (Units=GPa)
#
#
# Indices 1 2 3 4 5 6 
#
# 1 62.5839 18.3677 24.0082 14.9165 -3.9443 15.8286
# 2 18.3677 135.8666 30.7154 -1.1525 10.2917 16.2792
# 3 24.0082 30.7154 161.2554 -0.3707 -3.6139 -7.6699
# 4 14.9165 -1.1525 -0.3707 45.1788 -6.5685 -5.2583
# 5 -3.9443 10.2917 -3.6139 -6.5685 36.7590 -5.6339
# 6 15.8286 16.2792 -7.6699 -5.2583 -5.6339 36.9925
#
#
#
# Elastic Compliance Matrix: (Units=1/GPa)
#
#
# Indices 1 2 3 4 5 6 
#
# 1 0.022710 -0.000806 -0.003826 -0.009064 -0.001113 -0.011614
# 2 -0.000806 0.008674 -0.001823 -0.000552 -0.003476 -0.004458
# 3 -0.003826 -0.001823 0.007382 0.002083 0.001896 0.004555
# 4 -0.009064 -0.000552 0.002083 0.027026 0.005634 0.009252
# 5 -0.001113 -0.003476 0.001896 0.005634 0.030453 0.007838
# 6 -0.011614 -0.004458 0.004555 0.009252 0.007838 0.037417
#
#
# Mechanical properties :
#
#
# Convention : Reuss Voigt Hill
#
# Bulk Modulus (GPa) = 38.67638 56.20983 47.44310
# Shear Modulus (GPa) = 32.21833 42.89371 37.55602
#
# Velocity S-wave (km/s) = 3.71484 4.28632 4.01077
# Velocity P-wave (km/s) = 5.91322 6.96943 6.46294
#
# Compressibility (1/GPa) = 0.02585558
#
# Stress axis : x y z
#
# Youngs Moduli (GPa) = 44.03313 115.28458 135.46160
#
# Poissons Ratio (x) = 0.09296 0.51824
# Poissons Ratio (y) = 0.03551 0.24700
# Poissons Ratio (z) = 0.16846 0.21021
#
# Static dielectric constant tensor:
#      x y z
#    x 1.944450 0.011960 0.000320 
#    y 0.011960 1.958310 -0.016060 
#    z 0.000320 -0.016060 1.847650 
# 
# From -- ./inp_files/117109.got.cif
#   From: 2010.05.17/outbox.cif.g08.bks.cpg/sg2_59_cif.got.tgz:117109.got - 2010.06.03 11:33:40.
