data_PCOD9064526
_publ_section_title
;
Structure prediction by ZEFSAII (Michael W. Deem and Ramdas Pophale) SiO2 
 PCOD9064526
Probable space group: P -1
;
_chemical_formula_sum "Si O2"
_cell_formula_units_Z 16
_cell_length_a 25.256880
_cell_length_b 14.996398
_cell_length_c 8.357382
_cell_angle_alpha 131.991939
_cell_angle_beta 138.182128
_cell_angle_gamma 19.532297
_cell_volume 697.716934
_symmetry_space_group_name_H-M "P -1"
_symmetry_group_IT_number 2
_symmetry_cell_setting 'triclinic'
loop_
_space_group_symop_operation_xyz
x,y,z
-x,-y,-z
loop_
_atom_site_type_symbol
_atom_site_label
_atom_site_fract_x
_atom_site_fract_y
_atom_site_fract_z
Si Si1 0.839088 0.190455 0.248358
Si Si2 0.530021 0.861725 0.040796
Si Si3 0.082433 0.137251 0.173404
Si Si4 0.461631 0.680616 0.051564
Si Si5 0.570350 0.270805 0.346890
Si Si6 0.909165 0.289680 0.275983
Si Si7 0.840813 0.628528 0.012938
Si Si8 0.915435 0.770299 0.190601
O O1 0.857982 0.237144 0.183019
O O2 0.654333 0.481055 0.265100
O O3 0.000000 0.000000 0.500000
O O4 0.846793 0.042847 0.027324
O O5 0.727673 0.613051 0.256710
O O6 0.523274 0.728859 0.813470
O O7 0.500000 0.000000 0.000000
O O8 0.367749 0.092049 0.078759
O O9 0.979125 0.195648 0.140831
O O10 0.946141 0.419853 0.139866
O O11 0.242928 0.982628 0.443382
O O12 0.434336 0.720425 0.845910
O O13 0.267905 0.992068 0.039783
O O14 0.500000 0.500000 0.000000
O O15 0.500000 0.500000 0.500000
O O16 0.063442 0.137062 0.551537
O O17 0.907516 0.673084 0.182920
O O18 0.911551 0.470419 0.820944
#
# Coordination Sequence:
#
# PCOD9064526 Si02
#       8
#     2   2   2   2   2   2   2   2
#     4  12  26  45  68 103 148 186 239 308 372 426
#     4  12  25  46  71 106 149 186 237 310 374 425
#     4  12  24  42  73 102 140 190 246 291 368 443
#     4  12  23  45  69 101 139 191 241 293 360 437
#     4  12  25  47  74 106 141 190 250 299 355 442
#     4  12  23  43  68 101 141 182 238 308 369 421
#     4  11  24  46  68 101 141 189 244 292 366 445
#     4  11  25  44  71 101 140 193 242 296 357 445
#
# _framework density 22.931937000000001
#
# number of rings (size 3 to 8) (size 9 to 14) (size 15 to 20)
#    0.000    0.250    6.250    2.625    1.750    1.500 
#    0.000    2.500    0.000    0.000    0.000    0.000 
#    0.000    0.000    0.000    0.000    0.000    0.000 
#
# Total GULP energy -89319.696718 kJ/mol
# GULP energy per Si atom -5582.481045 kJ/mol
# Density = 2.287974 g / cm^3
# Si number density = 22.931937 Si / 1000 Ang^3
#
#
#
# Elastic Constant Matrix: (Units=GPa)
#
#
# Indices 1 2 3 4 5 6 
#
# 1 139.4401 27.9929 10.3093 0.3600 8.5593 10.6062
# 2 27.9929 95.8624 27.3408 -19.9070 -0.6679 -0.4966
# 3 10.3093 27.3408 74.8465 -29.5722 -2.7889 -3.3992
# 4 0.3600 -19.9070 -29.5722 38.6356 -3.0580 4.8020
# 5 8.5593 -0.6679 -2.7889 -3.0580 25.1044 -2.1929
# 6 10.6062 -0.4966 -3.3992 4.8020 -2.1929 56.2858
#
#
#
# Elastic Compliance Matrix: (Units=1/GPa)
#
#
# Indices 1 2 3 4 5 6 
#
# 1 0.008117 -0.002530 -0.001388 -0.002520 -0.003432 -0.001554
# 2 -0.002530 0.012881 -0.002320 0.004998 0.001564 0.000085
# 3 -0.001388 -0.002320 0.020413 0.014750 0.004510 0.000391
# 4 -0.002520 0.004998 0.014750 0.040578 0.007420 -0.001763
# 5 -0.003432 0.001564 0.004510 0.007420 0.042621 0.001960
# 6 -0.001554 0.000085 0.000391 -0.001763 0.001960 0.018311
#
#
# Mechanical properties :
#
#
# Convention : Reuss Voigt Hill
#
# Bulk Modulus (GPa) = 34.55922 49.04834 41.80378
# Shear Modulus (GPa) = 30.29511 40.30557 35.30034
#
# Velocity S-wave (km/s) = 3.63862 4.19694 3.92772
# Velocity P-wave (km/s) = 5.72327 6.70230 6.23204
#
# Compressibility (1/GPa) = 0.02893584
#
# Stress axis : x y z
#
# Youngs Moduli (GPa) = 123.19176 77.63199 48.98807
#
# Poissons Ratio (x) = 0.19639 0.06800
# Poissons Ratio (y) = 0.31164 0.11366
# Poissons Ratio (z) = 0.17101 0.18012
#
# Static dielectric constant tensor:
#      x y z
#    x 1.881640 -0.045940 0.018700 
#    y -0.045940 1.943930 0.007530 
#    z 0.018700 0.007530 1.836640 
# 
# From -- ./inp_files/357447.got.cif
#   From: 2010.05.17/outbox.cif.g08.bks.cpg/sg2_179_cif.got.tgz:357447.got - 2010.06.03 11:33:40.
