data_PCOD9064237
_publ_section_title
;
Structure prediction by ZEFSAII (Michael W. Deem and Ramdas Pophale) SiO2 
 PCOD9064237
Probable space group: P -1
;
_chemical_formula_sum "Si O2"
_cell_formula_units_Z 8
_cell_length_a 14.966872
_cell_length_b 14.429619
_cell_length_c 5.236983
_cell_angle_alpha 56.730652
_cell_angle_beta 122.850856
_cell_angle_gamma 161.169117
_cell_volume 304.095847
_symmetry_space_group_name_H-M "P -1"
_symmetry_group_IT_number 2
_symmetry_cell_setting 'triclinic'
loop_
_space_group_symop_operation_xyz
x,y,z
-x,-y,-z
loop_
_atom_site_type_symbol
_atom_site_label
_atom_site_fract_x
_atom_site_fract_y
_atom_site_fract_z
Si Si1 0.016044 0.696799 0.299346
Si Si2 0.253405 0.279680 0.642109
Si Si3 0.694268 0.180570 0.779765
Si Si4 0.493677 0.676486 0.761623
O O1 0.900651 0.483970 0.613117
O O2 0.746385 0.515803 0.123361
O O3 0.124526 0.753485 0.111254
O O4 0.279504 0.008311 0.372255
O O5 0.500000 0.500000 0.500000
O O6 0.297919 0.443115 0.584236
O O7 0.307322 0.237016 0.002238
O O8 0.000000 0.000000 0.500000
O O9 0.500000 0.000000 0.500000
O O10 0.500000 0.000000 0.000000
#
# Coordination Sequence:
#
# PCOD9064237 Si02
#       4
#     2   2   2   2
#     4  11  24  47  76 112 150 211 252 321 386 464
#     4  11  24  45  72 108 151 203 249 319 384 457
#     4  11  26  52  77 113 160 205 257 326 389 463
#     4  11  24  47  72 110 158 195 262 315 382 462
#
# _framework density 26.307497999999999
#
# number of rings (size 3 to 8) (size 9 to 14) (size 15 to 20)
#    0.000    1.000    2.500    3.000    0.000   10.000 
#   18.000    0.000    0.000    0.000    0.000    0.000 
#    0.000    0.000    0.000    0.000    0.000    0.000 
#
# Total GULP energy -44740.568541 kJ/mol
# GULP energy per Si atom -5592.571068 kJ/mol
# Density = 2.624762 g / cm^3
# Si number density = 26.307498 Si / 1000 Ang^3
#
#
#
# Elastic Constant Matrix: (Units=GPa)
#
#
# Indices 1 2 3 4 5 6 
#
# 1 180.7562 108.5748 59.7427 -9.3065 -28.0270 -10.7758
# 2 108.5748 289.9013 60.0523 -1.8846 -21.7429 -34.4750
# 3 59.7427 60.0523 85.5463 -5.2655 -33.1187 -14.3186
# 4 -9.3065 -1.8846 -5.2655 47.8973 13.7913 4.1523
# 5 -28.0270 -21.7429 -33.1187 13.7913 41.8050 -5.0948
# 6 -10.7758 -34.4750 -14.3186 4.1523 -5.0948 72.5915
#
#
#
# Elastic Compliance Matrix: (Units=1/GPa)
#
#
# Indices 1 2 3 4 5 6 
#
# 1 0.008373 -0.002325 -0.003895 0.000886 0.000951 -0.000613
# 2 -0.002325 0.004835 -0.001425 -0.000639 0.000248 0.001724
# 3 -0.003895 -0.001425 0.022026 -0.003297 0.015718 0.004381
# 4 0.000886 -0.000639 -0.003297 0.023975 -0.010617 -0.002939
# 5 0.000951 0.000248 0.015718 -0.010617 0.041480 0.006878
# 6 -0.000613 0.001724 0.004381 -0.002939 0.006878 0.016018
#
#
# Mechanical properties :
#
#
# Convention : Reuss Voigt Hill
#
# Bulk Modulus (GPa) = 50.14281 112.54927 81.34604
# Shear Modulus (GPa) = 36.06338 54.31436 45.18887
#
# Velocity S-wave (km/s) = 3.70650 4.54871 4.14903
# Velocity P-wave (km/s) = 6.11712 8.39421 7.34445
#
# Compressibility (1/GPa) = 0.01994304
#
# Stress axis : x y z
#
# Youngs Moduli (GPa) = 119.43622 206.83391 45.40082
#
# Poissons Ratio (x) = 0.48084 0.17684
# Poissons Ratio (y) = 0.27766 0.06471
# Poissons Ratio (z) = 0.46522 0.29481
#
# Static dielectric constant tensor:
#      x y z
#    x 2.292550 -0.054520 0.242640 
#    y -0.054520 2.048930 0.014210 
#    z 0.242640 0.014210 2.327230 
# 
# From -- ./inp_files/62222.got.cif
#   From: 2010.05.17/outbox.cif.g08.bks.cpg/sg2_32_cif.got.tgz:62222.got - 2010.06.03 11:33:40.
