data_PCOD9064486
_publ_section_title
;
Structure prediction by ZEFSAII (Michael W. Deem and Ramdas Pophale) SiO2 
 PCOD9064486
Probable space group: P -1
;
_chemical_formula_sum "Si O2"
_cell_formula_units_Z 11
_cell_length_a 14.281021
_cell_length_b 13.381717
_cell_length_c 6.250281
_cell_angle_alpha 47.744056
_cell_angle_beta 50.912361
_cell_angle_gamma 30.603915
_cell_volume 445.821382
_symmetry_space_group_name_H-M "P -1"
_symmetry_group_IT_number 2
_symmetry_cell_setting 'triclinic'
loop_
_space_group_symop_operation_xyz
x,y,z
-x,-y,-z
loop_
_atom_site_type_symbol
_atom_site_label
_atom_site_fract_x
_atom_site_fract_y
_atom_site_fract_z
Si Si1 0.307712 0.481840 0.344611
Si Si2 0.000000 0.000000 0.000000
Si Si3 0.811714 0.023281 0.846950
Si Si4 0.641863 0.341196 0.273891
Si Si5 0.584416 0.037969 0.478751
Si Si6 0.931286 0.712608 0.755003
O O1 0.435149 0.469416 0.324641
O O2 0.409639 0.253266 0.540333
O O3 0.093000 0.657131 0.469562
O O4 0.328054 0.526813 0.012697
O O5 0.041954 0.022548 0.151316
O O6 0.216228 0.842899 0.840537
O O7 0.696772 0.228261 0.578302
O O8 0.896626 0.835702 0.835606
O O9 0.678451 0.057759 0.147308
O O10 0.500000 0.000000 0.500000
O O11 0.743918 0.862668 0.669379
O O12 0.000000 0.500000 0.000000
#
# Coordination Sequence:
#
# PCOD9064486 Si02
#       6
#     2   1   2   2   2   2
#     4  11  25  50  76 119 158 197 270 312 401 470
#     4  12  24  48  72 118 156 200 256 326 384 472
#     4  12  25  49  80 113 160 204 261 325 402 461
#     4  11  24  45  78 113 157 205 245 332 393 473
#     4  12  28  51  77 116 160 206 272 326 377 476
#     4  12  29  52  80 114 157 217 265 323 390 467
#
# _framework density 24.673559000000001
#
# number of rings (size 3 to 8) (size 9 to 14) (size 15 to 20)
#    0.000    0.364    3.636    3.818    2.545    6.545 
#    0.000    0.000    0.000    0.000    0.000    0.000 
#    0.000    0.000    0.000    0.000    0.000    0.000 
#
# Total GULP energy -61380.632654 kJ/mol
# GULP energy per Si atom -5580.057514 kJ/mol
# Density = 2.461740 g / cm^3
# Si number density = 24.673559 Si / 1000 Ang^3
#
#
#
# Elastic Constant Matrix: (Units=GPa)
#
#
# Indices 1 2 3 4 5 6 
#
# 1 206.7197 67.7581 51.0900 -14.8474 19.7842 -12.7188
# 2 67.7581 143.0924 14.8389 -16.3482 25.4162 -6.7102
# 3 51.0900 14.8389 89.5957 -24.2420 19.7138 -7.0451
# 4 -14.8474 -16.3482 -24.2420 46.6273 -10.2282 5.6890
# 5 19.7842 25.4162 19.7138 -10.2282 37.2542 2.6875
# 6 -12.7188 -6.7102 -7.0451 5.6890 2.6875 39.9128
#
#
#
# Elastic Compliance Matrix: (Units=1/GPa)
#
#
# Indices 1 2 3 4 5 6 
#
# 1 0.006624 -0.002802 -0.003420 -0.000815 -0.000104 0.001159
# 2 -0.002802 0.009367 0.001877 0.002048 -0.005411 0.001085
# 3 -0.003420 0.001877 0.016026 0.006322 -0.006323 0.001579
# 4 -0.000815 0.002048 0.006322 0.026202 0.003082 -0.002742
# 5 -0.000104 -0.005411 -0.006323 0.003082 0.035133 -0.004864
# 6 0.001159 0.001085 0.001579 -0.002742 -0.004864 0.026604
#
#
# Mechanical properties :
#
#
# Convention : Reuss Voigt Hill
#
# Bulk Modulus (GPa) = 42.86916 78.53131 60.70024
# Shear Modulus (GPa) = 36.65101 45.14025 40.89563
#
# Velocity S-wave (km/s) = 3.85832 4.28190 4.07562
# Velocity P-wave (km/s) = 6.10418 7.50623 6.84122
#
# Compressibility (1/GPa) = 0.02332679
#
# Stress axis : x y z
#
# Youngs Moduli (GPa) = 150.96990 106.75884 62.39726
#
# Poissons Ratio (x) = 0.29917 0.21338
# Poissons Ratio (y) = 0.42307 -0.11711
# Poissons Ratio (z) = 0.51626 -0.20036
#
# Static dielectric constant tensor:
#      x y z
#    x 1.667220 0.059910 -0.209680 
#    y 0.059910 1.897000 0.014100 
#    z -0.209680 0.014100 1.968460 
# 
# From -- ./inp_files/96207.got.cif
#   From: 2010.05.17/outbox.cif.g08.bks.cpg/sg2_49_cif.got.tgz:96207.got - 2010.06.03 11:33:40.
