data_PCOD9064875
_publ_section_title
;
Structure prediction by ZEFSAII (Michael W. Deem and Ramdas Pophale) SiO2 
 PCOD9064875
Probable space group: P -1
;
_chemical_formula_sum "Si O2"
_cell_formula_units_Z 10
_cell_length_a 8.956087
_cell_length_b 17.855842
_cell_length_c 11.612286
_cell_angle_alpha 21.835573
_cell_angle_beta 37.237520
_cell_angle_gamma 37.668397
_cell_volume 406.411416
_symmetry_space_group_name_H-M "P -1"
_symmetry_group_IT_number 2
_symmetry_cell_setting 'triclinic'
loop_
_space_group_symop_operation_xyz
x,y,z
-x,-y,-z
loop_
_atom_site_type_symbol
_atom_site_label
_atom_site_fract_x
_atom_site_fract_y
_atom_site_fract_z
Si Si1 0.578823 0.792168 0.598075
Si Si2 0.802579 0.789249 0.810902
Si Si3 0.701339 0.535480 0.655526
Si Si4 0.431275 0.183472 0.868900
Si Si5 0.111373 0.698852 0.538227
O O1 0.617849 0.703583 0.569659
O O2 0.855152 0.751632 0.545311
O O3 0.423096 0.029047 0.357892
O O4 0.409004 0.657230 0.961282
O O5 0.036483 0.786271 0.587837
O O6 0.806977 0.829416 0.887552
O O7 0.792386 0.548518 0.160243
O O8 0.601960 0.616125 0.476257
O O9 0.000000 0.500000 0.500000
O O10 0.667252 0.195715 0.788537
O O11 0.500000 0.000000 0.000000
#
# Coordination Sequence:
#
# PCOD9064875 Si02
#       5
#     2   2   2   2   2
#     4  11  25  47  73 105 140 190 237 290 355 419
#     4  11  24  46  75 103 140 188 237 289 355 418
#     4  11  25  46  71 106 146 180 237 297 352 424
#     4  12  26  47  70 106 142 188 236 291 358 417
#     4  11  26  46  72 106 146 183 240 295 345 426
#
# _framework density 24.605606999999999
#
# number of rings (size 3 to 8) (size 9 to 14) (size 15 to 20)
#    0.000    0.800    2.000    4.800    2.800    4.800 
#    0.000    0.000    0.000    3.600    0.000    0.000 
#    0.000    0.000    0.000    0.000    0.000    0.000 
#
# Total GULP energy -55928.906774 kJ/mol
# GULP energy per Si atom -5592.890677 kJ/mol
# Density = 2.454960 g / cm^3
# Si number density = 24.605607 Si / 1000 Ang^3
#
#
#
# Elastic Constant Matrix: (Units=GPa)
#
#
# Indices 1 2 3 4 5 6 
#
# 1 86.4635 36.9370 39.9928 0.4512 5.0650 -11.9560
# 2 36.9370 148.5805 47.7956 -9.0895 12.2982 5.7795
# 3 39.9928 47.7956 99.2809 -7.2776 16.8463 -19.8162
# 4 0.4512 -9.0895 -7.2776 52.0052 3.6686 13.5200
# 5 5.0650 12.2982 16.8463 3.6686 35.0297 10.2792
# 6 -11.9560 5.7795 -19.8162 13.5200 10.2792 50.1956
#
#
#
# Elastic Compliance Matrix: (Units=1/GPa)
#
#
# Indices 1 2 3 4 5 6 
#
# 1 0.015092 -0.002529 -0.004557 -0.001892 0.000355 0.002524
# 2 -0.002529 0.008856 -0.003822 0.001989 -0.000040 -0.003659
# 3 -0.004557 -0.003822 0.016682 0.000328 -0.008270 0.007546
# 4 -0.001892 0.001989 0.000328 0.021290 -0.001030 -0.006074
# 5 0.000355 -0.000040 -0.008270 -0.001030 0.035584 -0.010185
# 6 0.002524 -0.003659 0.007546 -0.006074 -0.010185 0.027645
#
#
# Mechanical properties :
#
#
# Convention : Reuss Voigt Hill
#
# Bulk Modulus (GPa) = 53.15567 64.86394 59.00980
# Shear Modulus (GPa) = 32.62931 41.41938 37.02435
#
# Velocity S-wave (km/s) = 3.64551 4.10729 3.88327
# Velocity P-wave (km/s) = 6.27452 6.99370 6.64385
#
# Compressibility (1/GPa) = 0.01881267
#
# Stress axis : x y z
#
# Youngs Moduli (GPa) = 66.26074 112.91834 59.94648
#
# Poissons Ratio (x) = 0.28560 0.27317
# Poissons Ratio (y) = 0.16759 0.22913
# Poissons Ratio (z) = 0.30194 0.43160
#
# Static dielectric constant tensor:
#      x y z
#    x 2.071820 -0.005760 0.038310 
#    y -0.005760 1.937820 -0.023640 
#    z 0.038310 -0.023640 1.901940 
# 
# From -- ./inp_files/145228.got.cif
#   From: 2010.05.17/outbox.cif.g08.bks.cpg/sg2_73_cif.got.tgz:145228.got - 2010.06.03 11:33:40.
