data_PCOD9064268
_publ_section_title
;
Structure prediction by ZEFSAII (Michael W. Deem and Ramdas Pophale) SiO2 
 PCOD9064268
Probable space group: P -1
;
_chemical_formula_sum "Si O2"
_cell_formula_units_Z 14
_cell_length_a 14.493938
_cell_length_b 5.163961
_cell_length_c 22.708152
_cell_angle_alpha 73.071809
_cell_angle_beta 19.233647
_cell_angle_gamma 79.756641
_cell_volume 509.577102
_symmetry_space_group_name_H-M "P -1"
_symmetry_group_IT_number 2
_symmetry_cell_setting 'triclinic'
loop_
_space_group_symop_operation_xyz
x,y,z
-x,-y,-z
loop_
_atom_site_type_symbol
_atom_site_label
_atom_site_fract_x
_atom_site_fract_y
_atom_site_fract_z
Si Si1 0.754958 0.139175 0.428282
Si Si2 0.806195 0.754107 0.257830
Si Si3 0.255467 0.474907 0.046754
Si Si4 0.894564 0.606844 0.687798
Si Si5 0.318527 0.548107 0.773212
Si Si6 0.644231 0.746150 0.118479
Si Si7 0.116949 0.809118 0.376573
O O1 0.504905 0.222118 0.535598
O O2 0.038397 0.157675 0.215810
O O3 0.915610 0.347596 0.370772
O O4 0.554282 0.854451 0.599910
O O5 0.741552 0.590958 0.245409
O O6 0.012608 0.636742 0.182459
O O7 0.021864 0.062793 0.090791
O O8 0.362240 0.476515 0.914741
O O9 0.544777 0.570511 0.905516
O O10 0.884119 0.315015 0.680315
O O11 0.005030 0.921282 0.567806
O O12 0.461124 0.386522 0.746049
O O13 0.000000 0.500000 0.000000
O O14 0.440442 0.918207 0.203014
O O15 0.000000 0.500000 0.500000
#
# Coordination Sequence:
#
# PCOD9064268 Si02
#       7
#     2   2   2   2   2   2   2
#     4  12  28  44  73 106 142 190 243 301 362 441
#     4  12  24  44  73 101 141 186 243 295 367 430
#     4  11  25  50  70 103 144 192 240 297 369 436
#     4  11  26  48  72 109 147 195 242 307 364 438
#     4  12  25  44  69 103 147 184 239 304 368 431
#     4  11  24  45  73 102 142 191 237 303 364 437
#     4  11  24  45  76 108 148 193 246 302 370 439
#
# _framework density 27.473761
#
# number of rings (size 3 to 8) (size 9 to 14) (size 15 to 20)
#    0.000    0.571    4.286    2.571    4.000    4.571 
#    0.000    2.143    0.000    0.000    0.000    0.000 
#    0.000    0.000    0.000    0.000    0.000    0.000 
#
# Total GULP energy -78266.993048 kJ/mol
# GULP energy per Si atom -5590.499503 kJ/mol
# Density = 2.741123 g / cm^3
# Si number density = 27.473761 Si / 1000 Ang^3
#
#
#
# Elastic Constant Matrix: (Units=GPa)
#
#
# Indices 1 2 3 4 5 6 
#
# 1 142.4426 36.4490 37.4089 -4.7736 -21.5394 9.9463
# 2 36.4490 99.5612 28.1268 -5.7177 -11.5208 10.0009
# 3 37.4089 28.1268 146.9855 -18.2610 -28.0965 7.3297
# 4 -4.7736 -5.7177 -18.2610 36.2385 -1.9019 -8.8542
# 5 -21.5394 -11.5208 -28.0965 -1.9019 52.8911 -0.5927
# 6 9.9463 10.0009 7.3297 -8.8542 -0.5927 47.2147
#
#
#
# Elastic Compliance Matrix: (Units=1/GPa)
#
#
# Indices 1 2 3 4 5 6 
#
# 1 0.008348 -0.002355 -0.001195 -0.000013 0.002240 -0.001049
# 2 -0.002355 0.011569 -0.001304 0.000501 0.000868 -0.001647
# 3 -0.001195 -0.001304 0.008637 0.004203 0.003969 0.000025
# 4 -0.000013 0.000501 0.004203 0.031232 0.003518 0.005145
# 5 0.002240 0.000868 0.003969 0.003518 0.022239 -0.000333
# 6 -0.001049 -0.001647 0.000025 0.005145 -0.000333 0.022706
#
#
# Mechanical properties :
#
#
# Convention : Reuss Voigt Hill
#
# Bulk Modulus (GPa) = 53.06303 65.88430 59.47367
# Shear Modulus (GPa) = 41.41735 46.40251 43.90993
#
# Velocity S-wave (km/s) = 3.88690 4.11417 4.00215
# Velocity P-wave (km/s) = 6.28490 6.82652 6.56130
#
# Compressibility (1/GPa) = 0.01884551
#
# Stress axis : x y z
#
# Youngs Moduli (GPa) = 119.78460 86.43565 115.78466
#
# Poissons Ratio (x) = 0.20354 0.13839
# Poissons Ratio (y) = 0.28208 0.15102
# Poissons Ratio (z) = 0.14318 0.11274
#
# Static dielectric constant tensor:
#      x y z
#    x 2.164760 -0.089930 0.095990 
#    y -0.089930 2.271520 -0.062660 
#    z 0.095990 -0.062660 2.267280 
# 
# From -- ./inp_files/124216.got.cif
#   From: 2010.05.17/outbox.cif.g08.bks.cpg/sg2_63_cif.got.tgz:124216.got - 2010.06.03 11:33:40.
