data_PCOD9064471
_publ_section_title
;
Structure prediction by ZEFSAII (Michael W. Deem and Ramdas Pophale) SiO2 
 PCOD9064471
Probable space group: P -1
;
_chemical_formula_sum "Si O2"
_cell_formula_units_Z 15
_cell_length_a 15.052999
_cell_length_b 9.853183
_cell_length_c 12.203629
_cell_angle_alpha 56.359136
_cell_angle_beta 131.680913
_cell_angle_gamma 153.639770
_cell_volume 595.438858
_symmetry_space_group_name_H-M "P -1"
_symmetry_group_IT_number 2
_symmetry_cell_setting 'triclinic'
loop_
_space_group_symop_operation_xyz
x,y,z
-x,-y,-z
loop_
_atom_site_type_symbol
_atom_site_label
_atom_site_fract_x
_atom_site_fract_y
_atom_site_fract_z
Si Si1 0.190594 0.791107 0.233657
Si Si2 0.736964 0.688905 0.111001
Si Si3 0.669619 0.257245 0.349947
Si Si4 0.000000 0.500000 0.000000
Si Si5 0.706077 0.745242 0.818323
Si Si6 0.254068 0.258861 0.559573
Si Si7 0.819112 0.642807 0.754798
Si Si8 0.875033 0.252392 0.357761
O O1 0.152256 0.791513 0.075606
O O2 0.962672 0.420862 0.236448
O O3 0.435420 0.993483 0.341789
O O4 0.183316 0.945336 0.232751
O O5 0.710888 0.477769 0.228156
O O6 0.500000 0.500000 0.000000
O O7 0.786734 0.754894 0.991992
O O8 0.923755 0.993654 0.201417
O O9 0.881078 0.470418 0.507809
O O10 0.705584 0.169147 0.321959
O O11 0.171146 0.539776 0.143618
O O12 0.441533 0.485125 0.706053
O O13 0.737234 0.655247 0.785125
O O14 0.305509 0.440224 0.420047
O O15 0.000000 0.000000 0.500000
O O16 0.235861 0.051441 0.599982
#
# Coordination Sequence:
#
# PCOD9064471 Si02
#       8
#     2   2   2   1   2   2   2   2
#     4  12  26  49  74 111 153 199 251 315 384 444
#     4  12  22  47  74 105 147 202 251 305 380 458
#     4  11  24  45  77 110 149 197 251 317 377 456
#     4  12  28  46  72 116 146 202 250 320 370 450
#     4  12  27  46  81 110 148 204 256 309 387 457
#     4  12  26  50  75 111 152 202 251 315 381 459
#     4  12  26  48  77 109 158 193 257 310 380 459
#     4  11  26  45  75 111 151 193 255 313 382 447
#
# _framework density 25.191502
#
# number of rings (size 3 to 8) (size 9 to 14) (size 15 to 20)
#    0.000    0.267    4.000    4.400    5.600    2.133 
#    0.000    1.333    0.000    0.000    0.000    0.000 
#    0.000    0.000    0.000    0.000    0.000    0.000 
#
# Total GULP energy -83702.802223 kJ/mol
# GULP energy per Si atom -5580.186815 kJ/mol
# Density = 2.513416 g / cm^3
# Si number density = 25.191502 Si / 1000 Ang^3
#
#
#
# Elastic Constant Matrix: (Units=GPa)
#
#
# Indices 1 2 3 4 5 6 
#
# 1 124.9482 39.5534 13.5704 -19.0015 20.7155 -12.3682
# 2 39.5534 60.7828 22.1146 -9.2868 18.5277 -5.5466
# 3 13.5704 22.1146 57.2060 -1.5524 12.9608 -3.7088
# 4 -19.0015 -9.2868 -1.5524 41.3727 -11.1539 6.1736
# 5 20.7155 18.5277 12.9608 -11.1539 32.8878 -8.5614
# 6 -12.3682 -5.5466 -3.7088 6.1736 -8.5614 49.1923
#
#
#
# Elastic Compliance Matrix: (Units=1/GPa)
#
#
# Indices 1 2 3 4 5 6 
#
# 1 0.010770 -0.005900 0.000415 0.002814 -0.002326 0.001316
# 2 -0.005900 0.025093 -0.006563 0.000672 -0.007758 -0.000583
# 3 0.000415 -0.006563 0.021129 -0.002012 -0.005508 0.000251
# 4 0.002814 0.000672 -0.002012 0.027838 0.007686 -0.001524
# 5 -0.002326 -0.007758 -0.005508 0.007686 0.042192 0.004504
# 6 0.001316 -0.000583 0.000251 -0.001524 0.004504 0.021587
#
#
# Mechanical properties :
#
#
# Convention : Reuss Voigt Hill
#
# Bulk Modulus (GPa) = 30.39902 43.71263 37.05583
# Shear Modulus (GPa) = 27.22258 35.87046 31.54652
#
# Velocity S-wave (km/s) = 3.29085 3.77757 3.54258
# Velocity P-wave (km/s) = 5.15102 6.03461 5.61024
#
# Compressibility (1/GPa) = 0.03289580
#
# Stress axis : x y z
#
# Youngs Moduli (GPa) = 92.85155 39.85127 47.32851
#
# Poissons Ratio (x) = 0.23512 -0.01963
# Poissons Ratio (y) = 0.54783 0.31061
# Poissons Ratio (z) = -0.03851 0.26154
#
# Static dielectric constant tensor:
#      x y z
#    x 0.016960 -2.340650 1.758070 
#    y -2.340650 -0.783270 2.060820 
#    z 1.758070 2.060820 0.479580 
# 
# From -- ./inp_files/446992.got.cif
#   From: 2010.05.17/outbox.cif.g08.bks.cpg/sg2_224_cif.got.tgz:446992.got - 2010.06.03 11:33:40.
