data_PCOD9064564
_publ_section_title
;
Structure prediction by ZEFSAII (Michael W. Deem and Ramdas Pophale) SiO2 
 PCOD9064564
Probable space group: P -1
;
_chemical_formula_sum "Si O2"
_cell_formula_units_Z 14
_cell_length_a 14.401106
_cell_length_b 5.128248
_cell_length_c 8.494189
_cell_angle_alpha 123.110383
_cell_angle_beta 94.578675
_cell_angle_gamma 87.976850
_cell_volume 523.749977
_symmetry_space_group_name_H-M "P -1"
_symmetry_group_IT_number 2
_symmetry_cell_setting 'triclinic'
loop_
_space_group_symop_operation_xyz
x,y,z
-x,-y,-z
loop_
_atom_site_type_symbol
_atom_site_label
_atom_site_fract_x
_atom_site_fract_y
_atom_site_fract_z
Si Si1 0.430054 0.509937 0.141067
Si Si2 0.711684 0.223782 0.327240
Si Si3 0.264027 0.642330 0.962165
Si Si4 0.876317 0.765107 0.081658
Si Si5 0.795904 0.724103 0.725139
Si Si6 0.497934 0.849647 0.681070
Si Si7 0.029801 0.140166 0.384440
O O1 0.325884 0.483393 0.051977
O O2 0.456578 0.237018 0.172678
O O3 0.447866 0.873610 0.311407
O O4 0.500000 0.500000 0.000000
O O5 0.740674 0.434690 0.549041
O O6 0.611392 0.071664 0.294806
O O7 0.798628 0.008040 0.219032
O O8 0.698754 0.417202 0.226813
O O9 0.267354 0.000267 0.130091
O O10 0.156156 0.535521 0.922025
O O11 0.861947 0.666888 0.866152
O O12 0.973872 0.926302 0.182084
O O13 0.861352 0.854092 0.637203
O O14 0.500000 0.500000 0.500000
O O15 0.000000 0.500000 0.500000
O O16 0.000000 0.000000 0.500000
#
# Coordination Sequence:
#
# PCOD9064564 Si02
#       7
#     2   2   2   2   2   2   2
#     4  12  25  47  71 101 148 190 243 298 365 418
#     4  11  24  46  69 104 146 189 244 300 364 425
#     4  11  26  43  73 105 143 195 242 304 359 429
#     4  11  26  46  76 106 144 191 240 298 364 431
#     4  11  26  46  75 108 146 188 244 298 358 438
#     4  12  27  45  71 105 142 195 244 303 357 431
#     4  12  27  51  79 109 148 191 237 293 370 434
#
# _framework density 26.730312999999999
#
# number of rings (size 3 to 8) (size 9 to 14) (size 15 to 20)
#    0.000    0.571    2.857    3.857   10.000    1.714 
#    0.000    0.000    0.000    0.000    0.000    0.000 
#    0.000    0.000    0.000    0.000    0.000    0.000 
#
# Total GULP energy -78436.129436 kJ/mol
# GULP energy per Si atom -5602.580674 kJ/mol
# Density = 2.666947 g / cm^3
# Si number density = 26.730313 Si / 1000 Ang^3
#
#
#
# Elastic Constant Matrix: (Units=GPa)
#
#
# Indices 1 2 3 4 5 6 
#
# 1 105.9419 20.7415 9.8190 5.3071 28.0578 23.7219
# 2 20.7415 113.5062 36.8421 5.0217 7.2189 15.1320
# 3 9.8190 36.8421 145.7772 9.5301 23.9815 -3.0300
# 4 5.3071 5.0217 9.5301 43.4135 3.5937 0.8683
# 5 28.0578 7.2189 23.9815 3.5937 44.7267 6.9031
# 6 23.7219 15.1320 -3.0300 0.8683 6.9031 44.6886
#
#
#
# Elastic Compliance Matrix: (Units=1/GPa)
#
#
# Indices 1 2 3 4 5 6 
#
# 1 0.012761 -0.001351 0.000625 -0.000837 -0.007262 -0.005136
# 2 -0.001351 0.010311 -0.002743 -0.000460 0.001175 -0.003133
# 3 0.000625 -0.002743 0.008397 -0.001256 -0.004645 0.001909
# 4 -0.000837 -0.000460 -0.001256 0.023515 -0.000641 0.000157
# 5 -0.007262 0.001175 -0.004645 -0.000641 0.029482 -0.001399
# 6 -0.005136 -0.003133 0.001909 0.000157 -0.001399 0.026507
#
#
# Mechanical properties :
#
#
# Convention : Reuss Voigt Hill
#
# Bulk Modulus (GPa) = 40.76740 55.55897 48.16318
# Shear Modulus (GPa) = 39.65478 46.42061 43.03770
#
# Velocity S-wave (km/s) = 3.85582 4.17181 4.01692
# Velocity P-wave (km/s) = 5.92517 6.63592 6.29059
#
# Compressibility (1/GPa) = 0.02452941
#
# Stress axis : x y z
#
# Youngs Moduli (GPa) = 78.36368 96.98777 119.09191
#
# Poissons Ratio (x) = 0.13103 -0.07438
# Poissons Ratio (y) = 0.10587 0.32668
# Poissons Ratio (z) = -0.04894 0.26604
#
# Static dielectric constant tensor:
#      x y z
#    x 2.049190 -0.048000 -0.012660 
#    y -0.048000 2.167610 0.027650 
#    z -0.012660 0.027650 2.193210 
# 
# From -- ./inp_files/45623.got.cif
#   From: 2010.05.17/outbox.cif.g08.bks.cpg/sg2_23_cif.got.tgz:45623.got - 2010.06.03 11:33:40.
