data_PCOD9064874
_publ_section_title
;
Structure prediction by ZEFSAII (Michael W. Deem and Ramdas Pophale) SiO2 
 PCOD9064874
Probable space group: P -1
;
_chemical_formula_sum "Si O2"
_cell_formula_units_Z 15
_cell_length_a 6.334828
_cell_length_b 25.836052
_cell_length_c 7.782360
_cell_angle_alpha 149.703690
_cell_angle_beta 64.205763
_cell_angle_gamma 116.292666
_cell_volume 572.156026
_symmetry_space_group_name_H-M "P -1"
_symmetry_group_IT_number 2
_symmetry_cell_setting 'triclinic'
loop_
_space_group_symop_operation_xyz
x,y,z
-x,-y,-z
loop_
_atom_site_type_symbol
_atom_site_label
_atom_site_fract_x
_atom_site_fract_y
_atom_site_fract_z
Si Si1 0.744892 0.953517 0.244001
Si Si2 0.902644 0.305986 0.716248
Si Si3 0.745534 0.516019 0.356650
Si Si4 0.000000 0.000000 0.000000
Si Si5 0.620938 0.116820 0.326760
Si Si6 0.601125 0.615566 0.358325
Si Si7 0.866898 0.318762 0.171875
Si Si8 0.144061 0.145637 0.726090
O O1 0.798946 0.881856 0.176859
O O2 0.500000 0.000000 0.500000
O O3 0.772837 0.917442 0.937801
O O4 0.994110 0.038839 0.392513
O O5 0.769712 0.197947 0.377282
O O6 0.184775 0.326736 0.662437
O O7 0.803962 0.405148 0.956004
O O8 0.839545 0.304664 0.937094
O O9 0.500000 0.500000 0.500000
O O10 0.715380 0.593730 0.437061
O O11 0.965894 0.571251 0.546146
O O12 0.823913 0.089080 0.302450
O O13 0.401819 0.169089 0.619835
O O14 0.500000 0.000000 0.000000
O O15 0.385673 0.677693 0.642735
O O16 0.500000 0.500000 0.000000
O O17 0.990987 0.232670 0.978242
#
# Coordination Sequence:
#
# PCOD9064874 Si02
#       8
#     2   2   2   1   2   2   2   2
#     4  11  24  46  75 102 147 197 260 318 388 452
#     4  12  27  50  81 112 158 213 258 331 400 463
#     4  12  24  49  80 114 159 204 256 326 395 474
#     4  12  24  48  74 104 148 194 258 332 376 454
#     4  12  27  51  75 113 159 202 270 325 390 465
#     4  12  27  51  78 120 163 202 266 321 393 482
#     4  12  27  50  78 114 163 201 262 325 397 474
#     4  11  26  48  72 109 150 203 255 322 390 468
#
# _framework density 26.216626000000002
#
# number of rings (size 3 to 8) (size 9 to 14) (size 15 to 20)
#    0.000    0.267    5.333    3.200    0.000    2.133 
#    2.400    0.000    0.000    0.000    0.000    0.000 
#    0.000    0.000    0.000    0.000    0.000    0.000 
#
# Total GULP energy -83804.310185 kJ/mol
# GULP energy per Si atom -5586.954012 kJ/mol
# Density = 2.615696 g / cm^3
# Si number density = 26.216626 Si / 1000 Ang^3
#
#
#
# Elastic Constant Matrix: (Units=GPa)
#
#
# Indices 1 2 3 4 5 6 
#
# 1 133.5657 55.8997 65.4848 -9.1492 -45.9825 23.8612
# 2 55.8997 109.3764 34.3816 -3.7397 -26.7471 43.9755
# 3 65.4848 34.3816 93.8857 18.6524 -32.0131 24.2082
# 4 -9.1492 -3.7397 18.6524 51.1101 13.1664 -10.5079
# 5 -45.9825 -26.7471 -32.0131 13.1664 78.8721 3.5056
# 6 23.8612 43.9755 24.2082 -10.5079 3.5056 73.7953
#
#
#
# Elastic Compliance Matrix: (Units=1/GPa)
#
#
# Indices 1 2 3 4 5 6 
#
# 1 0.014923 -0.004575 -0.009495 0.005561 0.002291 0.001699
# 2 -0.004575 0.015447 0.002060 -0.003441 0.004386 -0.009100
# 3 -0.009495 0.002060 0.024097 -0.014050 0.007663 -0.008427
# 4 0.005561 -0.003441 -0.014050 0.029715 -0.009011 0.009521
# 5 0.002291 0.004386 0.007663 -0.009011 0.020478 -0.008124
# 6 0.001699 -0.009100 -0.008427 0.009521 -0.008124 0.022930
#
#
# Mechanical properties :
#
#
# Convention : Reuss Voigt Hill
#
# Bulk Modulus (GPa) = 32.84423 72.03997 52.44210
# Shear Modulus (GPa) = 30.91022 52.82630 41.86826
#
# Velocity S-wave (km/s) = 3.43743 4.49374 4.00060
# Velocity P-wave (km/s) = 5.32069 7.37992 6.43324
#
# Compressibility (1/GPa) = 0.03044675
#
# Stress axis : x y z
#
# Youngs Moduli (GPa) = 67.01102 64.73790 41.49940
#
# Poissons Ratio (x) = 0.29615 0.39403
# Poissons Ratio (y) = 0.30655 -0.08547
# Poissons Ratio (z) = 0.63626 -0.13334
#
# Static dielectric constant tensor:
#      x y z
#    x 1.837470 0.212490 -0.101790 
#    y 0.212490 1.919220 0.235960 
#    z -0.101790 0.235960 1.965080 
# 
# From -- ./inp_files/143179.got.cif
#   From: 2010.05.17/outbox.cif.g08.bks.cpg/sg2_72_cif.got.tgz:143179.got - 2010.06.03 11:33:40.
