data_PCOD9064673
_publ_section_title
;
Structure prediction by ZEFSAII (Michael W. Deem and Ramdas Pophale) SiO2 
 PCOD9064673
Probable space group: P -1
;
_chemical_formula_sum "Si O2"
_cell_formula_units_Z 10
_cell_length_a 5.977944
_cell_length_b 6.391764
_cell_length_c 15.543163
_cell_angle_alpha 103.503228
_cell_angle_beta 46.610546
_cell_angle_gamma 102.162612
_cell_volume 418.592123
_symmetry_space_group_name_H-M "P -1"
_symmetry_group_IT_number 2
_symmetry_cell_setting 'triclinic'
loop_
_space_group_symop_operation_xyz
x,y,z
-x,-y,-z
loop_
_atom_site_type_symbol
_atom_site_label
_atom_site_fract_x
_atom_site_fract_y
_atom_site_fract_z
Si Si1 0.606762 0.975870 0.275195
Si Si2 0.741463 0.657205 0.556196
Si Si3 0.539337 0.375744 0.858656
Si Si4 0.722264 0.807349 0.918789
Si Si5 0.215908 0.282486 0.646916
O O1 0.333898 0.134781 0.348603
O O2 0.930394 0.102978 0.179634
O O3 0.572000 0.757868 0.207922
O O4 0.622104 0.902781 0.363291
O O5 0.425768 0.504751 0.623190
O O6 0.822276 0.739414 0.446941
O O7 0.000000 0.500000 0.500000
O O8 0.596055 0.633299 0.864181
O O9 0.881682 0.300010 0.779277
O O10 0.314194 0.313195 0.991251
O O11 0.500000 0.000000 0.000000
#
# Coordination Sequence:
#
# PCOD9064673 Si02
#       5
#     2   2   2   2   2
#     4  12  25  46  77 106 143 194 235 297 363 420
#     4  11  26  46  73 106 146 191 241 295 359 427
#     4  11  25  44  73 107 143 188 242 287 363 431
#     4  11  24  47  72 105 147 187 236 300 354 428
#     4  11  24  46  71 107 145 186 242 298 352 432
#
# _framework density 23.889607000000002
#
# number of rings (size 3 to 8) (size 9 to 14) (size 15 to 20)
#    0.000    0.800    4.000    2.400    0.000   10.400 
#    0.000    0.000    0.000    0.000    0.000    0.000 
#    0.000    0.000    0.000    0.000    0.000    0.000 
#
# Total GULP energy -55993.270887 kJ/mol
# GULP energy per Si atom -5599.327089 kJ/mol
# Density = 2.383523 g / cm^3
# Si number density = 23.889607 Si / 1000 Ang^3
#
#
#
# Elastic Constant Matrix: (Units=GPa)
#
#
# Indices 1 2 3 4 5 6 
#
# 1 83.0444 67.2450 47.8258 8.3948 5.4826 4.0459
# 2 67.2450 136.4683 67.5115 29.4917 -10.2001 15.4279
# 3 47.8258 67.5115 105.0759 2.7482 2.8229 7.1788
# 4 8.3948 29.4917 2.7482 55.6585 -0.0727 -6.9059
# 5 5.4826 -10.2001 2.8229 -0.0727 29.8894 -1.4767
# 6 4.0459 15.4279 7.1788 -6.9059 -1.4767 46.7643
#
#
#
# Elastic Compliance Matrix: (Units=1/GPa)
#
#
# Indices 1 2 3 4 5 6 
#
# 1 0.023154 -0.011210 -0.003371 0.002902 -0.007629 0.002400
# 2 -0.011210 0.019643 -0.007155 -0.009029 0.009144 -0.005457
# 3 -0.003371 -0.007155 0.015594 0.003611 -0.003253 0.000689
# 4 0.002902 -0.009029 0.003611 0.022803 -0.003631 0.005426
# 5 -0.007629 0.009144 -0.003253 -0.003631 0.038216 -0.001187
# 6 0.002400 -0.005457 0.000689 0.005426 -0.001187 0.023635
#
#
# Mechanical properties :
#
#
# Convention : Reuss Voigt Hill
#
# Bulk Modulus (GPa) = 67.02962 76.63926 71.83444
# Shear Modulus (GPa) = 26.11113 35.92953 31.02033
#
# Velocity S-wave (km/s) = 3.30963 3.88233 3.60736
# Velocity P-wave (km/s) = 6.53635 7.22820 6.89096
#
# Compressibility (1/GPa) = 0.01491878
#
# Stress axis : x y z
#
# Youngs Moduli (GPa) = 43.18937 50.90996 64.12683
#
# Poissons Ratio (x) = 0.57071 0.21617
# Poissons Ratio (y) = 0.48416 0.45881
# Poissons Ratio (z) = 0.14559 0.36425
#
# Static dielectric constant tensor:
#      x y z
#    x 1.906900 0.003320 0.021830 
#    y 0.003320 1.922440 0.021590 
#    z 0.021830 0.021590 1.891830 
# 
# From -- ./inp_files/1482.got.cif
#   From: 2010.05.17/outbox.cif.g08.bks.cpg/sg2_1_cif.got.tgz:1482.got - 2010.06.03 11:33:40.
