data_PCOD9064817
_publ_section_title
;
Structure prediction by ZEFSAII (Michael W. Deem and Ramdas Pophale) SiO2 
 PCOD9064817
Probable space group: P -1
;
_chemical_formula_sum "Si O2"
_cell_formula_units_Z 16
_cell_length_a 8.564067
_cell_length_b 19.891081
_cell_length_c 8.642002
_cell_angle_alpha 103.636312
_cell_angle_beta 64.279208
_cell_angle_gamma 50.577543
_cell_volume 694.973154
_symmetry_space_group_name_H-M "P -1"
_symmetry_group_IT_number 2
_symmetry_cell_setting 'triclinic'
loop_
_space_group_symop_operation_xyz
x,y,z
-x,-y,-z
loop_
_atom_site_type_symbol
_atom_site_label
_atom_site_fract_x
_atom_site_fract_y
_atom_site_fract_z
Si Si1 0.148720 0.144608 0.778613
Si Si2 0.832975 0.125050 0.454573
Si Si3 0.183477 0.298771 0.338690
Si Si4 0.856967 0.620828 0.092260
Si Si5 0.706864 0.217572 0.225468
Si Si6 0.460658 0.890860 0.205974
Si Si7 0.127899 0.649150 0.214529
Si Si8 0.677888 0.512266 0.453497
O O1 0.244151 0.166182 0.884247
O O2 0.942608 0.257466 0.803215
O O3 0.500000 0.000000 0.500000
O O4 0.953733 0.148178 0.942690
O O5 0.514346 0.273094 0.714234
O O6 0.855512 0.128600 0.262242
O O7 0.708819 0.094489 0.570757
O O8 0.163833 0.033958 0.342377
O O9 0.415078 0.270530 0.318278
O O10 0.045229 0.287864 0.509963
O O11 0.866720 0.446781 0.498746
O O12 0.398516 0.198212 0.049647
O O13 0.944025 0.649466 0.198190
O O14 0.000000 0.500000 0.000000
O O15 0.034052 0.584955 0.844283
O O16 0.554148 0.344642 0.395142
O O17 0.500000 0.500000 0.000000
O O18 0.500000 0.500000 0.500000
#
# Coordination Sequence:
#
# PCOD9064817 Si02
#       8
#     2   2   2   2   2   2   2   2
#     4  12  29  50  70 105 150 185 236 299 358 427
#     4  11  24  46  74 102 137 182 243 288 353 428
#     4  12  24  44  74 101 139 187 239 289 352 423
#     4  12  22  44  71  99 138 182 235 291 345 418
#     4  12  26  44  71 107 138 183 240 293 352 419
#     4  11  26  48  74 101 139 188 235 287 365 423
#     4  12  26  48  70 105 145 187 234 295 358 416
#     4  12  24  43  68 101 144 186 231 292 350 420
#
# _framework density 23.022472
#
# number of rings (size 3 to 8) (size 9 to 14) (size 15 to 20)
#    0.000    0.250    5.000    3.375    5.250    3.000 
#    2.250    0.000    0.000    0.000    0.000    0.000 
#    0.000    0.000    0.000    0.000    0.000    0.000 
#
# Total GULP energy -89352.775939 kJ/mol
# GULP energy per Si atom -5584.548496 kJ/mol
# Density = 2.297007 g / cm^3
# Si number density = 23.022472 Si / 1000 Ang^3
#
#
#
# Elastic Constant Matrix: (Units=GPa)
#
#
# Indices 1 2 3 4 5 6 
#
# 1 40.1954 36.8011 5.2486 -5.0166 -7.7237 -7.4889
# 2 36.8011 174.6914 59.2573 -6.1422 -16.9003 -24.3118
# 3 5.2486 59.2573 134.9063 -12.5960 -17.7586 2.7057
# 4 -5.0166 -6.1422 -12.5960 51.6313 2.4227 -5.3540
# 5 -7.7237 -16.9003 -17.7586 2.4227 39.4360 8.5846
# 6 -7.4889 -24.3118 2.7057 -5.3540 8.5846 25.3648
#
#
#
# Elastic Compliance Matrix: (Units=1/GPa)
#
#
# Indices 1 2 3 4 5 6 
#
# 1 0.032372 -0.006925 0.002534 0.002959 0.003907 0.001952
# 2 -0.006925 0.009658 -0.004221 0.000321 -0.000886 0.008030
# 3 0.002534 -0.004221 0.009975 0.001404 0.004294 -0.005518
# 4 0.002959 0.000321 0.001404 0.020693 -0.001185 0.005800
# 5 0.003907 -0.000886 0.004294 -0.001185 0.030052 -0.010575
# 6 0.001952 0.008030 -0.005518 0.005800 -0.010575 0.053090
#
#
# Mechanical properties :
#
#
# Convention : Reuss Voigt Hill
#
# Bulk Modulus (GPa) = 28.75168 61.37857 45.06512
# Shear Modulus (GPa) = 27.07718 39.85215 33.46466
#
# Velocity S-wave (km/s) = 3.43318 4.16506 3.81670
# Velocity P-wave (km/s) = 5.31331 7.06034 6.24819
#
# Compressibility (1/GPa) = 0.03478058
#
# Stress axis : x y z
#
# Youngs Moduli (GPa) = 30.89106 103.53969 100.25160
#
# Poissons Ratio (x) = 0.71706 -0.25403
# Poissons Ratio (y) = 0.21394 0.42312
# Poissons Ratio (z) = -0.07828 0.43700
#
# Static dielectric constant tensor:
#      x y z
#    x 1.843410 -0.031330 0.053220 
#    y -0.031330 1.895910 -0.037030 
#    z 0.053220 -0.037030 1.912860 
# 
# From -- ./inp_files/223680.got.cif
#   From: 2010.05.17/outbox.cif.g08.bks.cpg/sg2_112_cif.got.tgz:223680.got - 2010.06.03 11:33:40.
