data_PCOD9064027
_publ_section_title
;
Structure prediction by ZEFSAII (Michael W. Deem and Ramdas Pophale) SiO2 
 PCOD9064027
Probable space group: P -1
;
_chemical_formula_sum "Si O2"
_cell_formula_units_Z 12
_cell_length_a 15.331363
_cell_length_b 12.959133
_cell_length_c 9.940334
_cell_angle_alpha 67.221712
_cell_angle_beta 129.623387
_cell_angle_gamma 153.358290
_cell_volume 578.682651
_symmetry_space_group_name_H-M "P -1"
_symmetry_group_IT_number 2
_symmetry_cell_setting 'triclinic'
loop_
_space_group_symop_operation_xyz
x,y,z
-x,-y,-z
loop_
_atom_site_type_symbol
_atom_site_label
_atom_site_fract_x
_atom_site_fract_y
_atom_site_fract_z
Si Si1 0.009367 0.393834 0.732631
Si Si2 0.752127 0.806327 0.134383
Si Si3 0.669538 0.766803 0.536315
Si Si4 0.315690 0.105760 0.225033
Si Si5 0.925918 0.575386 0.535048
Si Si6 0.590227 0.841822 0.178601
O O1 0.989585 0.346845 0.578330
O O2 0.911721 0.432797 0.635288
O O3 0.325839 0.666571 0.949437
O O4 0.837020 0.148249 0.769965
O O5 0.664432 0.807189 0.169194
O O6 0.500000 0.500000 0.000000
O O7 0.817053 0.943351 0.001094
O O8 0.023055 0.978984 0.344111
O O9 0.500000 0.500000 0.500000
O O10 0.693091 0.832245 0.677548
O O11 0.532179 0.734550 0.320755
O O12 0.630600 0.365911 0.365650
O O13 0.153133 0.844908 0.708269
#
# Coordination Sequence:
#
# PCOD9064027 Si02
#       6
#     2   2   2   2   2   2
#     4  11  24  45  69  99 134 173 219 277 334 388
#     4  12  24  42  67  98 135 178 216 268 330 390
#     4  12  24  40  63 100 133 170 224 272 316 396
#     4  12  23  45  68  99 134 174 222 269 333 389
#     4  11  24  45  69  99 134 173 219 277 334 388
#     4  12  23  45  68  99 134 174 222 269 333 389
#
# _framework density 20.736754000000001
#
# number of rings (size 3 to 8) (size 9 to 14) (size 15 to 20)
#    0.000    0.333    3.333    7.000    0.000    0.000 
#    0.000    1.667    0.000    0.000    0.000    0.000 
#    0.000    0.000    0.000    0.000    0.000    0.000 
#
# Total GULP energy -67221.181225 kJ/mol
# GULP energy per Si atom -5601.765102 kJ/mol
# Density = 2.068956 g / cm^3
# Si number density = 20.736754 Si / 1000 Ang^3
#
#
#
# Elastic Constant Matrix: (Units=GPa)
#
#
# Indices 1 2 3 4 5 6 
#
# 1 36.8728 -12.4544 3.1773 12.3706 9.9530 -2.6512
# 2 -12.4544 103.8176 4.3375 4.0810 -12.6413 -20.3305
# 3 3.1773 4.3375 78.9622 3.3693 -3.9862 -13.2386
# 4 12.3706 4.0810 3.3693 45.3812 -0.6866 -4.5996
# 5 9.9530 -12.6413 -3.9862 -0.6866 26.6557 -4.1323
# 6 -2.6512 -20.3305 -13.2386 -4.5996 -4.1323 21.4113
#
#
#
# Elastic Compliance Matrix: (Units=1/GPa)
#
#
# Indices 1 2 3 4 5 6 
#
# 1 0.035017 0.003844 -0.001281 -0.009667 -0.011236 0.002949
# 2 0.003844 0.014382 0.002368 -0.000660 0.008369 0.017069
# 3 -0.001281 0.002368 0.014965 0.000384 0.005793 0.012543
# 4 -0.009667 -0.000660 0.000384 0.025255 0.004741 0.004754
# 5 -0.011236 0.008369 0.005793 0.004741 0.049890 0.020784
# 6 0.002949 0.017069 0.012543 0.004754 0.020784 0.076065
#
#
# Mechanical properties :
#
#
# Convention : Reuss Voigt Hill
#
# Bulk Modulus (GPa) = 13.47249 23.30816 18.39033
# Shear Modulus (GPa) = 21.69635 33.66247 27.67941
#
# Velocity S-wave (km/s) = 3.23813 4.03342 3.65745
# Velocity P-wave (km/s) = 4.52677 5.74071 5.16950
#
# Compressibility (1/GPa) = 0.07422531
#
# Stress axis : x y z
#
# Youngs Moduli (GPa) = 28.55767 69.53105 66.82382
#
# Poissons Ratio (x) = -0.26725 0.08557
# Poissons Ratio (y) = -0.10976 -0.15822
# Poissons Ratio (z) = 0.03657 -0.16463
#
# Static dielectric constant tensor:
#      x y z
#    x 1.702290 0.003400 -0.000170 
#    y 0.003400 1.728150 -0.011550 
#    z -0.000170 -0.011550 1.703080 
# 
# From -- ./inp_files/3883.got.cif
#   From: 2010.05.17/outbox.cif.g08.bks.cpg/sg2_2_cif.got.tgz:3883.got - 2010.06.03 11:33:40.
