data_PCOD9064121
_publ_section_title
;
Structure prediction by ZEFSAII (Michael W. Deem and Ramdas Pophale) SiO2 
 PCOD9064121
Probable space group: P -1
;
_chemical_formula_sum "Si O2"
_cell_formula_units_Z 15
_cell_length_a 22.418211
_cell_length_b 6.913243
_cell_length_c 18.135924
_cell_angle_alpha 118.337677
_cell_angle_beta 15.310741
_cell_angle_gamma 122.281185
_cell_volume 617.087374
_symmetry_space_group_name_H-M "P -1"
_symmetry_group_IT_number 2
_symmetry_cell_setting 'triclinic'
loop_
_space_group_symop_operation_xyz
x,y,z
-x,-y,-z
loop_
_atom_site_type_symbol
_atom_site_label
_atom_site_fract_x
_atom_site_fract_y
_atom_site_fract_z
Si Si1 0.500000 0.000000 0.000000
Si Si2 0.757915 0.931429 0.823582
Si Si3 0.652673 0.227562 0.314854
Si Si4 0.123482 0.284746 0.542741
Si Si5 0.340513 0.566857 0.085053
Si Si6 0.900312 0.847572 0.294053
Si Si7 0.097237 0.383968 0.188021
Si Si8 0.513217 0.366696 0.350083
O O1 0.432956 0.009550 0.989298
O O2 0.757777 0.243409 0.728131
O O3 0.871140 0.091267 0.788443
O O4 0.000000 0.000000 0.500000
O O5 0.675957 0.661304 0.892666
O O6 0.568321 0.241992 0.333880
O O7 0.500000 0.000000 0.500000
O O8 0.917256 0.216778 0.989226
O O9 0.619466 0.451983 0.433514
O O10 0.377095 0.244764 0.211852
O O11 0.145710 0.316790 0.609261
O O12 0.116331 0.509978 0.548313
O O13 0.249726 0.489147 0.097791
O O14 0.659191 0.816778 0.532518
O O15 0.014035 0.108556 0.234519
O O16 0.257736 0.481616 0.941613
#
# Coordination Sequence:
#
# PCOD9064121 Si02
#       8
#     1   2   2   2   2   2   2   2
#     4  12  26  46  74 100 140 182 230 284 352 412
#     4  12  27  47  71 104 140 180 230 287 351 421
#     4  11  24  45  71 102 144 181 229 287 338 413
#     4  12  26  44  70 102 138 181 232 289 346 413
#     4  12  27  47  72 105 137 183 236 287 348 418
#     4  12  25  44  71 101 138 186 232 284 349 406
#     4  12  25  44  70 102 137 183 236 284 342 414
#     4  11  25  44  70 103 140 182 234 281 344 412
#
# _framework density 24.307739999999999
#
# number of rings (size 3 to 8) (size 9 to 14) (size 15 to 20)
#    0.000    0.267    8.000    0.800    0.000    6.400 
#    0.000    0.000    0.000    0.000    0.000    0.000 
#    0.000    0.000    0.000    0.000    0.000    0.000 
#
# Total GULP energy -83828.715876 kJ/mol
# GULP energy per Si atom -5588.581058 kJ/mol
# Density = 2.425241 g / cm^3
# Si number density = 24.307740 Si / 1000 Ang^3
#
#
#
# Elastic Constant Matrix: (Units=GPa)
#
#
# Indices 1 2 3 4 5 6 
#
# 1 145.3343 41.3280 38.3736 -16.5922 -19.7069 -19.2215
# 2 41.3280 133.1757 27.7046 -12.0229 -15.9540 -28.4180
# 3 38.3736 27.7046 85.8737 9.7829 -8.6479 -11.5651
# 4 -16.5922 -12.0229 9.7829 41.3685 2.3894 3.6570
# 5 -19.7069 -15.9540 -8.6479 2.3894 39.0827 -2.4316
# 6 -19.2215 -28.4180 -11.5651 3.6570 -2.4316 48.2797
#
#
#
# Elastic Compliance Matrix: (Units=1/GPa)
#
#
# Indices 1 2 3 4 5 6 
#
# 1 0.009309 -0.000894 -0.003687 0.003957 0.003406 0.002169
# 2 -0.000894 0.009880 -0.002060 0.002372 0.003290 0.004952
# 3 -0.003687 -0.002060 0.014907 -0.005785 0.001038 0.001381
# 4 0.003957 0.002372 -0.005785 0.027867 -0.000053 -0.000527
# 5 0.003406 0.003290 0.001038 -0.000053 0.029192 0.005015
# 6 0.002169 0.004952 0.001381 -0.000527 0.005015 0.025114
#
#
# Mechanical properties :
#
#
# Convention : Reuss Voigt Hill
#
# Bulk Modulus (GPa) = 48.04599 64.35513 56.20056
# Shear Modulus (GPa) = 36.63307 42.87801 39.75554
#
# Velocity S-wave (km/s) = 3.88629 4.20452 4.04853
# Velocity P-wave (km/s) = 6.32031 7.07836 6.71005
#
# Compressibility (1/GPa) = 0.02081339
#
# Stress axis : x y z
#
# Youngs Moduli (GPa) = 107.42449 101.21732 67.08348
#
# Poissons Ratio (x) = 0.09045 0.24735
# Poissons Ratio (y) = 0.09600 0.13820
# Poissons Ratio (z) = 0.39610 0.20852
#
# Static dielectric constant tensor:
#      x y z
#    x 1.959990 0.055440 -0.017890 
#    y 0.055440 2.042980 0.021510 
#    z -0.017890 0.021510 2.011030 
# 
# From -- ./inp_files/576633.got.cif
#   From: 2010.05.17/outbox.cif.g08.bks.cpg/sg2_289_cif.got.tgz:576633.got - 2010.06.03 11:33:40.
