data_PCOD9064353
_publ_section_title
;
Structure prediction by ZEFSAII (Michael W. Deem and Ramdas Pophale) SiO2 
 PCOD9064353
Probable space group: P -1
;
_chemical_formula_sum "Si O2"
_cell_formula_units_Z 16
_cell_length_a 15.318377
_cell_length_b 8.083515
_cell_length_c 9.699290
_cell_angle_alpha 64.933423
_cell_angle_beta 52.654832
_cell_angle_gamma 100.368334
_cell_volume 687.445443
_symmetry_space_group_name_H-M "P -1"
_symmetry_group_IT_number 2
_symmetry_cell_setting 'triclinic'
loop_
_space_group_symop_operation_xyz
x,y,z
-x,-y,-z
loop_
_atom_site_type_symbol
_atom_site_label
_atom_site_fract_x
_atom_site_fract_y
_atom_site_fract_z
Si Si1 0.799704 0.722080 0.675161
Si Si2 0.792941 0.092524 0.170502
Si Si3 0.102898 0.792095 0.659411
Si Si4 0.421655 0.663689 0.159852
Si Si5 0.712768 0.091677 0.779806
Si Si6 0.050556 0.744076 0.307886
Si Si7 0.222693 0.522474 0.936442
Si Si8 0.640247 0.569373 0.407772
O O1 0.662189 0.564050 0.771399
O O2 0.770035 0.592781 0.893066
O O3 0.928515 0.754866 0.463274
O O4 0.856919 0.982913 0.539857
O O5 0.841264 0.134229 0.266872
O O6 0.715460 0.828349 0.298621
O O7 0.917417 0.222824 0.895167
O O8 0.715975 0.212127 0.190372
O O9 0.187413 0.740474 0.499429
O O10 0.940175 0.604679 0.886018
O O11 0.358792 0.797610 0.132134
O O12 0.390424 0.586426 0.375640
O O13 0.586725 0.844904 0.928091
O O14 0.801995 0.084736 0.816195
O O15 0.000000 0.500000 0.500000
O O16 0.280519 0.468635 0.770681
O O17 0.500000 0.500000 0.500000
#
# Coordination Sequence:
#
# PCOD9064353 Si02
#       8
#     2   2   2   2   2   2   2   2
#     4  12  25  44  72 108 144 190 243 304 362 440
#     4  12  26  46  74 109 146 195 239 310 369 433
#     4  12  26  44  73 110 144 185 246 311 367 429
#     4  11  25  46  70 106 144 199 242 300 365 446
#     4  11  24  45  74 103 148 192 247 298 369 438
#     4  12  22  43  74 104 145 190 243 297 368 436
#     4  12  27  47  75 109 146 190 250 303 371 440
#     4  12  29  49  73 106 152 196 246 304 372 439
#
# _framework density 23.274574000000001
#
# number of rings (size 3 to 8) (size 9 to 14) (size 15 to 20)
#    0.000    0.250    5.000    3.000    5.250    4.000 
#    0.000    0.000    0.000    0.000    0.000    0.000 
#    0.000    0.000    0.000    0.000    0.000    0.000 
#
# Total GULP energy -89573.373014 kJ/mol
# GULP energy per Si atom -5598.335813 kJ/mol
# Density = 2.322160 g / cm^3
# Si number density = 23.274574 Si / 1000 Ang^3
#
#
#
# Elastic Constant Matrix: (Units=GPa)
#
#
# Indices 1 2 3 4 5 6 
#
# 1 63.9802 12.4637 37.4108 7.6383 -5.6121 7.8648
# 2 12.4637 82.0106 26.5909 6.2679 -10.8588 -4.7193
# 3 37.4108 26.5909 106.1178 21.5781 -0.5872 5.9863
# 4 7.6383 6.2679 21.5781 41.1248 9.3505 8.8227
# 5 -5.6121 -10.8588 -0.5872 9.3505 52.9951 -1.8333
# 6 7.8648 -4.7193 5.9863 8.8227 -1.8333 33.0240
#
#
#
# Elastic Compliance Matrix: (Units=1/GPa)
#
#
# Indices 1 2 3 4 5 6 
#
# 1 0.020348 -0.000904 -0.006795 0.000338 0.001705 -0.003739
# 2 -0.000904 0.014070 -0.003004 -0.001868 0.003203 0.003448
# 3 -0.006795 -0.003004 0.013667 -0.005434 -0.000220 0.000151
# 4 0.000338 -0.001868 -0.005434 0.030445 -0.006050 -0.007832
# 5 0.001705 0.003203 -0.000220 -0.006050 0.020871 0.002866
# 6 -0.003739 0.003448 0.000151 -0.007832 0.002866 0.033888
#
#
# Mechanical properties :
#
#
# Convention : Reuss Voigt Hill
#
# Bulk Modulus (GPa) = 37.48363 45.00436 41.24400
# Shear Modulus (GPa) = 30.56440 37.13833 33.85137
#
# Velocity S-wave (km/s) = 3.62776 3.99891 3.81784
# Velocity P-wave (km/s) = 5.80409 6.37965 6.09866
#
# Compressibility (1/GPa) = 0.02667831
#
# Stress axis : x y z
#
# Youngs Moduli (GPa) = 49.14430 71.07239 73.16936
#
# Poissons Ratio (x) = 0.06428 0.49722
# Poissons Ratio (y) = 0.04445 0.21978
# Poissons Ratio (z) = 0.33396 0.21348
#
# Static dielectric constant tensor:
#      x y z
#    x 1.886730 -0.071910 -0.049770 
#    y -0.071910 2.151100 0.053870 
#    z -0.049770 0.053870 1.904070 
# 
# From -- ./inp_files/256786.got.cif
#   From: 2010.05.17/outbox.cif.g08.bks.cpg/sg2_129_cif.got.tgz:256786.got - 2010.06.03 11:33:40.
