data_PCOD9064291
_publ_section_title
;
Structure prediction by ZEFSAII (Michael W. Deem and Ramdas Pophale) SiO2 
 PCOD9064291
Probable space group: P -1
;
_chemical_formula_sum "Si O2"
_cell_formula_units_Z 12
_cell_length_a 6.999461
_cell_length_b 9.265780
_cell_length_c 9.127859
_cell_angle_alpha 85.087351
_cell_angle_beta 122.432687
_cell_angle_gamma 73.234792
_cell_volume 456.770569
_symmetry_space_group_name_H-M "P -1"
_symmetry_group_IT_number 2
_symmetry_cell_setting 'triclinic'
loop_
_space_group_symop_operation_xyz
x,y,z
-x,-y,-z
loop_
_atom_site_type_symbol
_atom_site_label
_atom_site_fract_x
_atom_site_fract_y
_atom_site_fract_z
Si Si1 0.973957 0.735178 0.679648
Si Si2 0.217394 0.385923 0.818526
Si Si3 0.015588 0.024277 0.833030
Si Si4 0.363997 0.101726 0.750186
Si Si5 0.285061 0.659289 0.452949
Si Si6 0.608924 0.749271 0.782108
O O1 0.824613 0.817903 0.466709
O O2 0.791592 0.703979 0.723804
O O3 0.186069 0.562314 0.760339
O O4 0.038917 0.867737 0.772727
O O5 0.426473 0.245691 0.825291
O O6 0.959539 0.378439 0.658667
O O7 0.267388 0.346259 0.013463
O O8 0.777268 0.182918 0.683413
O O9 0.233500 0.061189 0.842266
O O10 0.000000 0.000000 0.000000
O O11 0.539584 0.933760 0.772067
O O12 0.500000 0.500000 0.500000
O O13 0.374550 0.716353 0.633676
#
# Coordination Sequence:
#
# PCOD9064291 Si02
#       6
#     2   2   2   2   2   2
#     4  12  23  44  74 106 144 190 236 294 355 420
#     4  11  26  45  73 107 145 185 244 292 346 426
#     4  11  26  46  73 105 146 187 240 298 356 422
#     4  11  25  48  69 106 148 187 235 298 357 422
#     4  11  24  45  73 105 146 185 237 293 357 415
#     4  12  25  46  77 106 144 191 238 289 356 426
#
# _framework density 26.271391999999999
#
# number of rings (size 3 to 8) (size 9 to 14) (size 15 to 20)
#    0.000    0.667    3.333    4.500    4.667    0.000 
#    0.000    0.833    0.000    0.000    0.000    0.000 
#    0.000    0.000    0.000    0.000    0.000    0.000 
#
# Total GULP energy -67228.057937 kJ/mol
# GULP energy per Si atom -5602.338161 kJ/mol
# Density = 2.621160 g / cm^3
# Si number density = 26.271392 Si / 1000 Ang^3
#
#
#
# Elastic Constant Matrix: (Units=GPa)
#
#
# Indices 1 2 3 4 5 6 
#
# 1 69.7845 32.8277 53.3547 -3.6549 -12.4749 -1.5960
# 2 32.8277 258.8676 79.8734 -14.0723 -10.8149 -4.6036
# 3 53.3547 79.8734 198.5098 8.3308 -9.8131 7.2218
# 4 -3.6549 -14.0723 8.3308 46.6541 -9.6664 -3.7984
# 5 -12.4749 -10.8149 -9.8131 -9.6664 33.3903 -1.9709
# 6 -1.5960 -4.6036 7.2218 -3.7984 -1.9709 31.6057
#
#
#
# Elastic Compliance Matrix: (Units=1/GPa)
#
#
# Indices 1 2 3 4 5 6 
#
# 1 0.020029 -0.000365 -0.005165 0.004129 0.007224 0.003085
# 2 -0.000365 0.004689 -0.001855 0.002155 0.001546 0.001444
# 3 -0.005165 -0.001855 0.007317 -0.002760 -0.001334 -0.002618
# 4 0.004129 0.002155 -0.002760 0.025149 0.008990 0.004736
# 5 0.007224 0.001546 -0.001334 0.008990 0.035607 0.004196
# 6 0.003085 0.001444 -0.002618 0.004736 0.004196 0.033435
#
#
# Mechanical properties :
#
#
# Convention : Reuss Voigt Hill
#
# Bulk Modulus (GPa) = 57.92061 95.47485 76.69773
# Shear Modulus (GPa) = 34.07145 46.40376 40.23761
#
# Velocity S-wave (km/s) = 3.60516 4.20732 3.91783
# Velocity P-wave (km/s) = 6.27889 7.74743 7.05150
#
# Compressibility (1/GPa) = 0.01726501
#
# Stress axis : x y z
#
# Youngs Moduli (GPa) = 49.92867 213.26064 136.66336
#
# Poissons Ratio (x) = 0.07788 0.70582
# Poissons Ratio (y) = 0.01823 0.25352
# Poissons Ratio (z) = 0.25786 0.39562
#
# Static dielectric constant tensor:
#      x y z
#    x 2.208660 -0.013650 0.071360 
#    y -0.013650 2.025480 -0.009250 
#    z 0.071360 -0.009250 2.019560 
# 
# From -- ./inp_files/153339.got.cif
#   From: 2010.05.17/outbox.cif.g08.bks.cpg/sg2_77_cif.got.tgz:153339.got - 2010.06.03 11:33:40.
