data_PCOD9064305
_publ_section_title
;
Structure prediction by ZEFSAII (Michael W. Deem and Ramdas Pophale) SiO2 
 PCOD9064305
Probable space group: P -1
;
_chemical_formula_sum "Si O2"
_cell_formula_units_Z 14
_cell_length_a 24.246749
_cell_length_b 14.700388
_cell_length_c 5.159643
_cell_angle_alpha 80.074669
_cell_angle_beta 106.516663
_cell_angle_gamma 161.791769
_cell_volume 520.830809
_symmetry_space_group_name_H-M "P -1"
_symmetry_group_IT_number 2
_symmetry_cell_setting 'triclinic'
loop_
_space_group_symop_operation_xyz
x,y,z
-x,-y,-z
loop_
_atom_site_type_symbol
_atom_site_label
_atom_site_fract_x
_atom_site_fract_y
_atom_site_fract_z
Si Si1 0.485869 0.754015 0.193238
Si Si2 0.886128 0.394382 0.218478
Si Si3 0.839328 0.137968 0.038867
Si Si4 0.905928 0.622271 0.598987
Si Si5 0.317475 0.680043 0.065879
Si Si6 0.476996 0.560179 0.588986
Si Si7 0.834933 0.823087 0.321728
O O1 0.551209 0.761336 0.421884
O O2 0.681003 0.105597 0.199765
O O3 0.364477 0.646485 0.230779
O O4 0.339912 0.493597 0.906498
O O5 0.000000 0.500000 0.500000
O O6 0.039213 0.694561 0.141528
O O7 0.820931 0.219578 0.998395
O O8 0.623708 0.773271 0.919815
O O9 0.975230 0.289211 0.338841
O O10 0.834456 0.551216 0.262281
O O11 0.740970 0.358050 0.726903
O O12 0.050771 0.917088 0.783523
O O13 0.500000 0.000000 0.000000
O O14 0.500000 0.500000 0.500000
O O15 0.270476 0.282769 0.533994
O O16 0.000000 0.000000 0.500000
#
# Coordination Sequence:
#
# PCOD9064305 Si02
#       7
#     2   2   2   2   2   2   2
#     4  12  26  46  80 105 155 200 266 320 402 466
#     4  11  24  45  73 107 146 196 249 330 393 466
#     4  11  26  44  73 110 149 196 260 321 399 464
#     4  12  29  48  79 110 159 202 263 322 397 466
#     4  12  29  51  79 116 155 211 264 327 394 485
#     4  12  28  46  78 114 156 206 267 332 400 476
#     4  12  27  50  74 109 158 209 263 321 396 473
#
# _framework density 26.880129
#
# number of rings (size 3 to 8) (size 9 to 14) (size 15 to 20)
#    0.000    0.286    4.286    3.000   10.000    2.286 
#    0.000    0.000    0.000    0.000    0.000    0.000 
#    0.000    0.000    0.000    0.000    0.000    0.000 
#
# Total GULP energy -78247.307873 kJ/mol
# GULP energy per Si atom -5589.093419 kJ/mol
# Density = 2.681895 g / cm^3
# Si number density = 26.880129 Si / 1000 Ang^3
#
#
#
# Elastic Constant Matrix: (Units=GPa)
#
#
# Indices 1 2 3 4 5 6 
#
# 1 177.7378 17.1121 21.4077 -0.2699 36.1299 33.6308
# 2 17.1121 114.7401 22.4600 14.8483 10.8465 15.2448
# 3 21.4077 22.4600 88.6450 13.8025 11.8561 21.2883
# 4 -0.2699 14.8483 13.8025 45.8691 5.7152 6.5553
# 5 36.1299 10.8465 11.8561 5.7152 42.1670 -1.6363
# 6 33.6308 15.2448 21.2883 6.5553 -1.6363 41.2827
#
#
#
# Elastic Compliance Matrix: (Units=1/GPa)
#
#
# Indices 1 2 3 4 5 6 
#
# 1 0.008781 0.000187 0.000597 0.002019 -0.008330 -0.008181
# 2 0.000187 0.009787 -0.001211 -0.002120 -0.002162 -0.002891
# 3 0.000597 -0.001211 0.014054 -0.002309 -0.004113 -0.007082
# 4 0.002019 -0.002120 -0.002309 0.024212 -0.003959 -0.003673
# 5 -0.008330 -0.002162 -0.004113 -0.003959 0.033555 0.011664
# 6 -0.008181 -0.002891 -0.007082 -0.003673 0.011664 0.036653
#
#
# Mechanical properties :
#
#
# Convention : Reuss Voigt Hill
#
# Bulk Modulus (GPa) = 31.47985 55.89803 43.68894
# Shear Modulus (GPa) = 36.10436 47.20664 41.65550
#
# Velocity S-wave (km/s) = 3.66889 4.19524 3.94086
# Velocity P-wave (km/s) = 5.44833 6.65636 6.08241
#
# Compressibility (1/GPa) = 0.03176635
#
# Stress axis : x y z
#
# Youngs Moduli (GPa) = 113.88498 102.17178 71.15263
#
# Poissons Ratio (x) = -0.01909 -0.04245
# Poissons Ratio (y) = -0.02128 0.08620
# Poissons Ratio (z) = -0.06794 0.12378
#
# Static dielectric constant tensor:
#      x y z
#    x 2.256200 0.009320 -0.092840 
#    y 0.009320 2.247180 0.034220 
#    z -0.092840 0.034220 2.189380 
# 
# From -- ./inp_files/68320.got.cif
#   From: 2010.05.17/outbox.cif.g08.bks.cpg/sg2_35_cif.got.tgz:68320.got - 2010.06.03 11:33:40.
