data_PCOD9064578
_publ_section_title
;
Structure prediction by ZEFSAII (Michael W. Deem and Ramdas Pophale) SiO2 
 PCOD9064578
Probable space group: P -1
;
_chemical_formula_sum "Si O2"
_cell_formula_units_Z 16
_cell_length_a 19.753955
_cell_length_b 10.879938
_cell_length_c 16.989940
_cell_angle_alpha 30.941239
_cell_angle_beta 21.111163
_cell_angle_gamma 40.333283
_cell_volume 661.954258
_symmetry_space_group_name_H-M "P -1"
_symmetry_group_IT_number 2
_symmetry_cell_setting 'triclinic'
loop_
_space_group_symop_operation_xyz
x,y,z
-x,-y,-z
loop_
_atom_site_type_symbol
_atom_site_label
_atom_site_fract_x
_atom_site_fract_y
_atom_site_fract_z
Si Si1 0.797671 0.544152 0.272893
Si Si2 0.862783 0.754778 0.757056
Si Si3 0.213571 0.487895 0.870815
Si Si4 0.596144 0.974977 0.823548
Si Si5 0.931865 0.625309 0.333347
Si Si6 0.487794 0.147390 0.593914
Si Si7 0.378461 0.688242 0.064448
Si Si8 0.711516 0.994358 0.303917
O O1 0.820157 0.644717 0.103390
O O2 0.708071 0.253230 0.531391
O O3 0.653365 0.702695 0.378541
O O4 0.013427 0.576402 0.052115
O O5 0.992956 0.567398 0.695788
O O6 0.743559 0.804150 0.783416
O O7 0.746674 0.661714 0.013460
O O8 0.000000 0.000000 0.500000
O O9 0.405684 0.689578 0.540706
O O10 0.500000 0.000000 0.000000
O O11 0.468244 0.834483 0.967244
O O12 0.828154 0.475879 0.601000
O O13 0.771183 0.743603 0.399458
O O14 0.117559 0.843913 0.020404
O O15 0.678295 0.119448 0.354569
O O16 0.379574 0.891601 0.885031
O O17 0.500000 0.500000 0.000000
O O18 0.500000 0.000000 0.500000
#
# Coordination Sequence:
#
# PCOD9064578 Si02
#       8
#     2   2   2   2   2   2   2   2
#     4  11  26  44  76 110 149 203 255 319 393 471
#     4  12  25  43  74 113 156 198 256 333 392 460
#     4  11  24  46  69 110 155 195 254 315 397 463
#     4  12  27  45  78 116 152 203 263 323 395 465
#     4  11  27  47  76 104 148 200 255 318 385 457
#     4  12  25  46  77 106 151 202 256 321 387 464
#     4  12  28  52  74 111 162 207 259 327 392 475
#     4  11  27  49  76 108 142 203 264 312 383 472
#
# _framework density 24.170853999999999
#
# number of rings (size 3 to 8) (size 9 to 14) (size 15 to 20)
#    0.000    0.500    5.000    1.875    7.000    0.000 
#    0.000    1.250    0.000    0.000    0.000    0.000 
#    0.000    0.000    0.000    0.000    0.000    0.000 
#
# Total GULP energy -89373.162341 kJ/mol
# GULP energy per Si atom -5585.822646 kJ/mol
# Density = 2.411584 g / cm^3
# Si number density = 24.170854 Si / 1000 Ang^3
#
#
#
# Elastic Constant Matrix: (Units=GPa)
#
#
# Indices 1 2 3 4 5 6 
#
# 1 75.8022 18.1491 20.9909 0.9339 -1.3781 -14.2935
# 2 18.1491 141.3057 26.7847 4.2103 -4.6708 -14.0569
# 3 20.9909 26.7847 148.7220 -7.8142 19.1658 -19.9206
# 4 0.9339 4.2103 -7.8142 40.6976 -2.6053 2.6382
# 5 -1.3781 -4.6708 19.1658 -2.6053 35.7767 7.3885
# 6 -14.2935 -14.0569 -19.9206 2.6382 7.3885 35.7025
#
#
#
# Elastic Compliance Matrix: (Units=1/GPa)
#
#
# Indices 1 2 3 4 5 6 
#
# 1 0.014733 -0.001149 -0.001281 -0.000771 0.000062 0.004775
# 2 -0.001149 0.007693 -0.001195 -0.001037 0.001166 0.001737
# 3 -0.001281 -0.001195 0.008574 0.001115 -0.005730 0.004904
# 4 -0.000771 -0.001037 0.001115 0.025156 0.001539 -0.002272
# 5 0.000062 0.001166 -0.005730 0.001539 0.033294 -0.009717
# 6 0.004775 0.001737 0.004904 -0.002272 -0.009717 0.035520
#
#
# Mechanical properties :
#
#
# Convention : Reuss Voigt Hill
#
# Bulk Modulus (GPa) = 42.10833 55.29770 48.70302
# Shear Modulus (GPa) = 35.67878 42.42904 39.05391
#
# Velocity S-wave (km/s) = 3.84618 4.19427 4.02399
# Velocity P-wave (km/s) = 6.09779 6.81054 6.46400
#
# Compressibility (1/GPa) = 0.02374827
#
# Stress axis : x y z
#
# Youngs Moduli (GPa) = 67.87347 129.98264 116.63273
#
# Poissons Ratio (x) = 0.14940 0.14944
# Poissons Ratio (y) = 0.07801 0.13943
# Poissons Ratio (z) = 0.08697 0.15539
#
# Static dielectric constant tensor:
#      x y z
#    x 2.072390 0.110830 -0.009910 
#    y 0.110830 2.086310 -0.056540 
#    z -0.009910 -0.056540 2.082450 
# 
# From -- ./inp_files/577904.got.cif
#   From: 2010.05.17/outbox.cif.g08.bks.cpg/sg2_289_cif.got.tgz:577904.got - 2010.06.03 11:33:40.
