data_PCOD9064245
_publ_section_title
;
Structure prediction by ZEFSAII (Michael W. Deem and Ramdas Pophale) SiO2 
 PCOD9064245
Probable space group: P -1
;
_chemical_formula_sum "Si O2"
_cell_formula_units_Z 12
_cell_length_a 6.042213
_cell_length_b 12.906722
_cell_length_c 11.878666
_cell_angle_alpha 129.855615
_cell_angle_beta 131.208140
_cell_angle_gamma 70.512662
_cell_volume 528.666616
_symmetry_space_group_name_H-M "P -1"
_symmetry_group_IT_number 2
_symmetry_cell_setting 'triclinic'
loop_
_space_group_symop_operation_xyz
x,y,z
-x,-y,-z
loop_
_atom_site_type_symbol
_atom_site_label
_atom_site_fract_x
_atom_site_fract_y
_atom_site_fract_z
Si Si1 0.721122 0.064551 0.015039
Si Si2 0.241687 0.122121 0.710805
Si Si3 0.947219 0.506460 0.676542
Si Si4 0.777403 0.312065 0.696718
Si Si5 0.360283 0.633225 0.075449
Si Si6 0.171767 0.315038 0.428994
O O1 0.478144 0.079846 0.847798
O O2 0.890022 0.205655 0.224078
O O3 0.500000 0.000000 0.000000
O O4 0.000000 0.000000 0.000000
O O5 0.431114 0.220554 0.751864
O O6 0.023828 0.222871 0.753630
O O7 0.000000 0.000000 0.500000
O O8 0.857731 0.403571 0.677662
O O9 0.749020 0.583435 0.580230
O O10 0.106900 0.414798 0.578640
O O11 0.132764 0.632617 0.895798
O O12 0.747531 0.396806 0.856623
O O13 0.446321 0.238868 0.502303
O O14 0.500000 0.500000 0.000000
#
# Coordination Sequence:
#
# PCOD9064245 Si02
#       6
#     2   2   2   2   2   2
#     4  12  31  54  79 111 156 209 265 323 397 476
#     4  12  29  49  75 108 152 203 265 321 397 466
#     4  11  24  45  72 114 150 200 253 321 397 463
#     4  12  25  44  81 106 156 201 260 323 393 471
#     4  12  24  47  73 114 152 195 263 320 392 466
#     4  11  25  47  75 110 159 193 259 322 395 463
#
# _framework density 22.698613999999999
#
# number of rings (size 3 to 8) (size 9 to 14) (size 15 to 20)
#    0.000    0.333    5.000    2.000    9.333    0.667 
#    0.000    0.000    0.000    0.000    0.000    0.000 
#    0.000    0.000    0.000    0.000    0.000    0.000 
#
# Total GULP energy -66800.939941 kJ/mol
# GULP energy per Si atom -5566.744995 kJ/mol
# Density = 2.264695 g / cm^3
# Si number density = 22.698614 Si / 1000 Ang^3
#
#
#
# Elastic Constant Matrix: (Units=GPa)
#
#
# Indices 1 2 3 4 5 6 
#
# 1 115.3843 72.9810 65.9804 -22.4295 -16.2746 11.3569
# 2 72.9810 119.9885 52.0088 -33.8799 3.7515 0.4947
# 3 65.9804 52.0088 155.9252 -14.6204 15.0899 14.8078
# 4 -22.4295 -33.8799 -14.6204 49.9231 2.6720 12.4923
# 5 -16.2746 3.7515 15.0899 2.6720 44.0488 -8.9270
# 6 11.3569 0.4947 14.8078 12.4923 -8.9270 47.5344
#
#
#
# Elastic Compliance Matrix: (Units=1/GPa)
#
#
# Indices 1 2 3 4 5 6 
#
# 1 0.019737 -0.009640 -0.005983 0.000280 0.009952 -0.000956
# 2 -0.009640 0.016495 -0.000126 0.007320 -0.005527 -0.000791
# 3 -0.005983 -0.000126 0.010035 0.001317 -0.006373 -0.003238
# 4 0.000280 0.007320 0.001317 0.027931 -0.004434 -0.008726
# 5 0.009952 -0.005527 -0.006373 -0.004434 0.030636 0.006584
# 6 -0.000956 -0.000791 -0.003238 -0.008726 0.006584 0.025813
#
#
# Mechanical properties :
#
#
# Convention : Reuss Voigt Hill
#
# Bulk Modulus (GPa) = 67.70646 85.91536 76.81091
# Shear Modulus (GPa) = 29.92798 41.65644 35.79221
#
# Velocity S-wave (km/s) = 3.63505 4.28857 3.97526
# Velocity P-wave (km/s) = 6.89284 7.90285 7.41506
#
# Compressibility (1/GPa) = 0.01476964
#
# Stress axis : x y z
#
# Youngs Moduli (GPa) = 50.66585 60.62396 99.65303
#
# Poissons Ratio (x) = 0.58440 0.59618
# Poissons Ratio (y) = 0.48841 0.01260
# Poissons Ratio (z) = 0.30311 0.00766
#
# Static dielectric constant tensor:
#      x y z
#    x 1.894350 0.000140 0.190550 
#    y 0.000140 1.862780 -0.075030 
#    z 0.190550 -0.075030 1.788350 
# 
# From -- ./inp_files/365493.got.cif
#   From: 2010.05.17/outbox.cif.g08.bks.cpg/sg2_183_cif.got.tgz:365493.got - 2010.06.03 11:33:40.
