data_PCOD9064278
_publ_section_title
;
Structure prediction by ZEFSAII (Michael W. Deem and Ramdas Pophale) SiO2 
 PCOD9064278
Probable space group: P -1
;
_chemical_formula_sum "Si O2"
_cell_formula_units_Z 16
_cell_length_a 9.191032
_cell_length_b 22.920298
_cell_length_c 10.073019
_cell_angle_alpha 45.245413
_cell_angle_beta 138.373594
_cell_angle_gamma 149.429370
_cell_volume 705.331600
_symmetry_space_group_name_H-M "P -1"
_symmetry_group_IT_number 2
_symmetry_cell_setting 'triclinic'
loop_
_space_group_symop_operation_xyz
x,y,z
-x,-y,-z
loop_
_atom_site_type_symbol
_atom_site_label
_atom_site_fract_x
_atom_site_fract_y
_atom_site_fract_z
Si Si1 0.675356 0.168462 0.438644
Si Si2 0.687570 0.496434 0.238587
Si Si3 0.891560 0.706290 0.204581
Si Si4 0.687165 0.339062 0.073950
Si Si5 0.877867 0.456819 0.763634
Si Si6 0.141180 0.917216 0.851693
Si Si7 0.963143 0.058573 0.556483
Si Si8 0.730797 0.711641 0.518560
O O1 0.528946 0.215214 0.215140
O O2 0.857560 0.222718 0.617749
O O3 0.934353 0.222193 0.416860
O O4 0.382382 0.030882 0.474325
O O5 0.845382 0.602932 0.278382
O O6 0.424985 0.368384 0.329255
O O7 0.945769 0.518743 0.290372
O O8 0.500000 0.500000 0.000000
O O9 0.555965 0.651038 0.110074
O O10 0.981187 0.796993 0.007129
O O11 0.941881 0.426569 0.218908
O O12 0.852169 0.377099 0.982800
O O13 0.527123 0.384748 0.607094
O O14 0.069470 0.903915 0.667363
O O15 0.051620 0.986609 0.721418
O O16 0.500000 0.000000 0.000000
O O17 0.233948 0.180627 0.619323
#
# Coordination Sequence:
#
# PCOD9064278 Si02
#       8
#     2   2   2   2   2   2   2   2
#     4  12  25  46  71 101 136 190 234 287 347 415
#     4  12  25  43  69 104 143 179 225 292 354 409
#     4  12  24  45  74 102 139 184 235 285 348 421
#     4  11  24  46  72  98 143 183 233 286 345 421
#     4  11  25  44  68 103 140 183 232 282 353 419
#     4  11  24  45  73 104 133 188 235 282 350 412
#     4  11  26  46  70 100 145 179 233 293 340 413
#     4  12  27  45  68 103 142 185 232 287 356 414
#
# _framework density 22.684367000000002
#
# number of rings (size 3 to 8) (size 9 to 14) (size 15 to 20)
#    0.000    0.500    5.000    3.000    3.500    1.000 
#    0.000    1.250    0.000    0.000    0.000    0.000 
#    0.000    0.000    0.000    0.000    0.000    0.000 
#
# Total GULP energy -89332.221706 kJ/mol
# GULP energy per Si atom -5583.263857 kJ/mol
# Density = 2.263274 g / cm^3
# Si number density = 22.684367 Si / 1000 Ang^3
#
#
#
# Elastic Constant Matrix: (Units=GPa)
#
#
# Indices 1 2 3 4 5 6 
#
# 1 93.9207 40.7661 33.9854 -19.0305 -8.9237 21.7620
# 2 40.7661 118.9574 30.5622 -31.9257 -13.5345 22.4653
# 3 33.9854 30.5622 75.3861 -30.1826 -13.0736 8.1674
# 4 -19.0305 -31.9257 -30.1826 46.5920 8.9397 2.4063
# 5 -8.9237 -13.5345 -13.0736 8.9397 27.6483 -1.7702
# 6 21.7620 22.4653 8.1674 2.4063 -1.7702 27.3537
#
#
#
# Elastic Compliance Matrix: (Units=1/GPa)
#
#
# Indices 1 2 3 4 5 6 
#
# 1 0.015900 -0.001469 -0.003976 0.003302 0.000793 -0.010495
# 2 -0.001469 0.013544 0.000394 0.008958 0.002762 -0.010682
# 3 -0.003976 0.000394 0.020708 0.011353 0.004772 -0.004034
# 4 0.003302 0.008958 0.011353 0.037640 -0.002430 -0.016842
# 5 0.000793 0.002762 0.004772 -0.002430 0.040724 -0.001475
# 6 -0.010495 -0.010682 -0.004034 -0.016842 -0.001475 0.056271
#
#
# Mechanical properties :
#
#
# Convention : Reuss Voigt Hill
#
# Bulk Modulus (GPa) = 24.96845 55.43242 40.20043
# Shear Modulus (GPa) = 24.01088 32.51551 28.26320
#
# Velocity S-wave (km/s) = 3.25695 3.79012 3.53361
# Velocity P-wave (km/s) = 5.01741 6.60627 5.86589
#
# Compressibility (1/GPa) = 0.04005055
#
# Stress axis : x y z
#
# Youngs Moduli (GPa) = 62.89444 73.83263 48.29091
#
# Poissons Ratio (x) = 0.10845 0.19199
# Poissons Ratio (y) = 0.09238 -0.01903
# Poissons Ratio (z) = 0.25005 -0.02909
#
# Static dielectric constant tensor:
#      x y z
#    x 1.969030 0.004570 0.029420 
#    y 0.004570 1.796420 -0.014680 
#    z 0.029420 -0.014680 1.908300 
# 
# From -- ./inp_files/226200.got.cif
#   From: 2010.05.17/outbox.cif.g08.bks.cpg/sg2_114_cif.got.tgz:226200.got - 2010.06.03 11:33:40.
