data_PCOD9064259
_publ_section_title
;
Structure prediction by ZEFSAII (Michael W. Deem and Ramdas Pophale) SiO2 
 PCOD9064259
Probable space group: P -1
;
_chemical_formula_sum "Si O2"
_cell_formula_units_Z 14
_cell_length_a 9.106057
_cell_length_b 8.247263
_cell_length_c 14.190104
_cell_angle_alpha 122.619296
_cell_angle_beta 137.122061
_cell_angle_gamma 65.022121
_cell_volume 610.063843
_symmetry_space_group_name_H-M "P -1"
_symmetry_group_IT_number 2
_symmetry_cell_setting 'triclinic'
loop_
_space_group_symop_operation_xyz
x,y,z
-x,-y,-z
loop_
_atom_site_type_symbol
_atom_site_label
_atom_site_fract_x
_atom_site_fract_y
_atom_site_fract_z
Si Si1 0.876661 0.966727 0.336413
Si Si2 0.845928 0.263933 0.094597
Si Si3 0.153800 0.388973 0.111403
Si Si4 0.464700 0.707459 0.317632
Si Si5 0.544204 0.948307 0.917313
Si Si6 0.167630 0.075007 0.337508
Si Si7 0.549290 0.659779 0.121568
O O1 0.667194 0.104804 0.259176
O O2 0.764310 0.767217 0.231883
O O3 0.000000 0.000000 0.500000
O O4 0.038828 0.978453 0.330560
O O5 0.008432 0.330011 0.112534
O O6 0.249382 0.190948 0.051154
O O7 0.993516 0.180085 0.219696
O O8 0.661235 0.439241 0.071356
O O9 0.343734 0.538086 0.261129
O O10 0.523075 0.143598 0.035033
O O11 0.000000 0.500000 0.000000
O O12 0.308927 0.902300 0.300924
O O13 0.515983 0.644975 0.214409
O O14 0.673625 0.773745 0.493645
O O15 0.642246 0.135834 0.925944
#
# Coordination Sequence:
#
# PCOD9064259 Si02
#       7
#     2   2   2   2   2   2   2
#     4  11  24  45  73 101 141 192 228 289 365 427
#     4  11  25  42  70  96 138 183 229 289 348 420
#     4  12  26  43  69 102 140 186 233 295 354 408
#     4  11  26  45  71  99 144 184 243 286 350 438
#     4  11  25  43  72 107 134 180 244 285 347 439
#     4  11  25  47  69 103 136 192 235 288 361 426
#     4  11  26  42  68 108 135 177 239 294 347 420
#
# _framework density 22.948418
#
# number of rings (size 3 to 8) (size 9 to 14) (size 15 to 20)
#    0.000    0.857    4.286    1.286   10.000    0.571 
#    2.571    1.429    0.000    0.000    0.000    0.000 
#    0.000    0.000    0.000    0.000    0.000    0.000 
#
# Total GULP energy -77982.566624 kJ/mol
# GULP energy per Si atom -5570.183330 kJ/mol
# Density = 2.289619 g / cm^3
# Si number density = 22.948418 Si / 1000 Ang^3
#
#
#
# Elastic Constant Matrix: (Units=GPa)
#
#
# Indices 1 2 3 4 5 6 
#
# 1 189.5571 78.0509 92.7956 -8.9561 0.3078 4.1486
# 2 78.0509 116.5084 75.3236 5.0778 0.2829 -11.3365
# 3 92.7956 75.3236 178.5757 -9.2770 14.9569 3.5672
# 4 -8.9561 5.0778 -9.2770 40.9522 10.0783 11.9742
# 5 0.3078 0.2829 14.9569 10.0783 45.5168 3.9069
# 6 4.1486 -11.3365 3.5672 11.9742 3.9069 55.9017
#
#
#
# Elastic Compliance Matrix: (Units=1/GPa)
#
#
# Indices 1 2 3 4 5 6 
#
# 1 0.008391 -0.004347 -0.002406 0.002272 0.000418 -0.001867
# 2 -0.004347 0.015336 -0.004819 -0.005957 0.002420 0.004847
# 3 -0.002406 -0.004819 0.009423 0.003680 -0.003699 -0.001930
# 4 0.002272 -0.005957 0.003680 0.030515 -0.007289 -0.007638
# 5 0.000418 0.002420 -0.003699 -0.007289 0.024736 0.000528
# 6 -0.001867 0.004847 -0.001930 -0.007638 0.000528 0.020732
#
#
# Mechanical properties :
#
#
# Convention : Reuss Voigt Hill
#
# Bulk Modulus (GPa) = 99.95201 108.55351 104.25276
# Shear Modulus (GPa) = 36.86973 44.37222 40.62098
#
# Velocity S-wave (km/s) = 4.01263 4.40200 4.21182
# Velocity P-wave (km/s) = 8.06957 8.55820 8.31747
#
# Compressibility (1/GPa) = 0.01000480
#
# Stress axis : x y z
#
# Youngs Moduli (GPa) = 119.17633 65.20590 106.12894
#
# Poissons Ratio (x) = 0.28346 0.25539
# Poissons Ratio (y) = 0.51807 0.51142
# Poissons Ratio (z) = 0.28678 0.31422
#
# Static dielectric constant tensor:
#      x y z
#    x 1.942200 0.219770 -0.041530 
#    y 0.219770 3.203660 -0.560820 
#    z -0.041530 -0.560820 2.223340 
# 
# From -- ./inp_files/380158.got.cif
#   From: 2010.05.17/outbox.cif.g08.bks.cpg/sg2_191_cif.got.tgz:380158.got - 2010.06.03 11:33:40.
