data_PCOD9064049
_publ_section_title
;
Structure prediction by ZEFSAII (Michael W. Deem and Ramdas Pophale) SiO2 
 PCOD9064049
Probable space group: P -1
;
_chemical_formula_sum "Si O2"
_cell_formula_units_Z 16
_cell_length_a 8.352034
_cell_length_b 15.500891
_cell_length_c 6.718663
_cell_angle_alpha 95.947458
_cell_angle_beta 99.771289
_cell_angle_gamma 125.134928
_cell_volume 678.805948
_symmetry_space_group_name_H-M "P -1"
_symmetry_group_IT_number 2
_symmetry_cell_setting 'triclinic'
loop_
_space_group_symop_operation_xyz
x,y,z
-x,-y,-z
loop_
_atom_site_type_symbol
_atom_site_label
_atom_site_fract_x
_atom_site_fract_y
_atom_site_fract_z
Si Si1 0.226207 0.022640 0.422303
Si Si2 0.676522 0.522871 0.897686
Si Si3 0.923232 0.185218 0.388746
Si Si4 0.736210 0.728163 0.816608
Si Si5 0.673649 0.394502 0.518897
Si Si6 0.489327 0.904503 0.866751
Si Si7 0.049766 0.396237 0.660138
Si Si8 0.226234 0.127200 0.819843
O O1 0.178402 0.923674 0.527858
O O2 0.015494 0.971767 0.247507
O O3 0.403503 0.059496 0.316070
O O4 0.275701 0.119430 0.600370
O O5 0.727045 0.621603 0.796343
O O6 0.619360 0.425509 0.719853
O O7 0.500000 0.500000 0.000000
O O8 0.864499 0.562221 0.090653
O O9 0.750742 0.185659 0.238963
O O10 0.042136 0.292639 0.576023
O O11 0.069617 0.189001 0.258133
O O12 0.529309 0.694852 0.664443
O O13 0.753603 0.772405 0.051960
O O14 0.825786 0.365015 0.586822
O O15 0.801565 0.503431 0.434172
O O16 0.620587 0.881356 0.020781
O O17 0.500000 0.000000 0.000000
#
# Coordination Sequence:
#
# PCOD9064049 Si02
#       8
#     2   2   2   2   2   2   2   2
#     4  11  26  48  70 101 143 185 231 286 349 412
#     4  12  23  45  71  99 137 188 226 283 352 406
#     4  12  25  45  72 103 138 187 234 287 344 417
#     4  12  25  46  71 104 139 185 236 286 344 416
#     4  11  24  47  70  99 145 176 227 295 345 411
#     4  12  25  47  71 102 141 186 226 291 350 402
#     4  11  24  45  70 103 137 181 229 284 351 412
#     4  11  26  45  73 101 139 184 233 287 345 413
#
# _framework density 23.570799000000001
#
# number of rings (size 3 to 8) (size 9 to 14) (size 15 to 20)
#    0.000    0.500    3.750    4.500    3.500    0.000 
#    2.250    0.000    0.000    0.000    0.000    0.000 
#    0.000    0.000    0.000    0.000    0.000    0.000 
#
# Total GULP energy -89630.175058 kJ/mol
# GULP energy per Si atom -5601.885941 kJ/mol
# Density = 2.351715 g / cm^3
# Si number density = 23.570799 Si / 1000 Ang^3
#
#
#
# Elastic Constant Matrix: (Units=GPa)
#
#
# Indices 1 2 3 4 5 6 
#
# 1 137.0996 25.9356 56.5671 3.8757 7.6756 19.1201
# 2 25.9356 37.8231 28.4367 7.0476 -5.9904 2.0962
# 3 56.5671 28.4367 133.0215 29.6296 -8.6237 9.9996
# 4 3.8757 7.0476 29.6296 42.5721 -7.0256 -3.8377
# 5 7.6756 -5.9904 -8.6237 -7.0256 66.2721 4.4190
# 6 19.1201 2.0962 9.9996 -3.8377 4.4190 40.8932
#
#
#
# Elastic Compliance Matrix: (Units=1/GPa)
#
#
# Indices 1 2 3 4 5 6 
#
# 1 0.010156 -0.004689 -0.003570 0.001766 -0.001658 -0.003290
# 2 -0.004689 0.033936 -0.004906 -0.001209 0.002761 0.001241
# 3 -0.003570 -0.004906 0.011860 -0.007130 0.000874 -0.001743
# 4 0.001766 -0.001209 -0.007130 0.029075 0.001605 0.003535
# 5 -0.001658 0.002761 0.000874 0.001605 0.015891 -0.001147
# 6 -0.003290 0.001241 -0.001743 0.003535 -0.001147 0.026811
#
#
# Mechanical properties :
#
#
# Convention : Reuss Voigt Hill
#
# Bulk Modulus (GPa) = 33.75728 58.86924 46.31326
# Shear Modulus (GPa) = 30.50027 43.08113 36.79070
#
# Velocity S-wave (km/s) = 3.60110 4.27984 3.95506
# Velocity P-wave (km/s) = 5.62524 7.03224 6.36772
#
# Compressibility (1/GPa) = 0.02962324
#
# Stress axis : x y z
#
# Youngs Moduli (GPa) = 98.46699 29.46688 84.31533
#
# Poissons Ratio (x) = 0.13818 0.30098
# Poissons Ratio (y) = 0.46174 0.41361
# Poissons Ratio (z) = 0.35150 0.14455
#
# Static dielectric constant tensor:
#      x y z
#    x 1.869990 0.006760 0.027080 
#    y 0.006760 1.914930 -0.008410 
#    z 0.027080 -0.008410 1.884400 
# 
# From -- ./inp_files/48290.got.cif
#   From: 2010.05.17/outbox.cif.g08.bks.cpg/sg2_25_cif.got.tgz:48290.got - 2010.06.03 11:33:40.
