data_PCOD9064955
_publ_section_title
;
Structure prediction by ZEFSAII (Michael W. Deem and Ramdas Pophale) SiO2 
 PCOD9064955
Probable space group: P -1
;
_chemical_formula_sum "Si O2"
_cell_formula_units_Z 14
_cell_length_a 20.799446
_cell_length_b 8.950633
_cell_length_c 9.218092
_cell_angle_alpha 48.036738
_cell_angle_beta 131.632493
_cell_angle_gamma 148.526234
_cell_volume 646.386622
_symmetry_space_group_name_H-M "P -1"
_symmetry_group_IT_number 2
_symmetry_cell_setting 'triclinic'
loop_
_space_group_symop_operation_xyz
x,y,z
-x,-y,-z
loop_
_atom_site_type_symbol
_atom_site_label
_atom_site_fract_x
_atom_site_fract_y
_atom_site_fract_z
Si Si1 0.381352 0.405835 0.964938
Si Si2 0.383604 0.255702 0.382118
Si Si3 0.975083 0.814460 0.221148
Si Si4 0.129618 0.799196 0.837135
Si Si5 0.369193 0.790968 0.529503
Si Si6 0.157580 0.777568 0.558411
Si Si7 0.092058 0.340595 0.260138
O O1 0.375548 0.622706 0.762175
O O2 0.249036 0.079092 0.928004
O O3 0.500000 0.500000 0.000000
O O4 0.387500 0.399295 0.151619
O O5 0.500000 0.500000 0.500000
O O6 0.377316 0.022101 0.461174
O O7 0.267574 0.062501 0.442740
O O8 0.844801 0.472682 0.290016
O O9 0.045101 0.722400 0.357715
O O10 0.029923 0.037261 0.291726
O O11 0.000000 0.000000 0.000000
O O12 0.169406 0.860294 0.690229
O O13 0.006655 0.727766 0.729821
O O14 0.100518 0.525428 0.028059
O O15 0.233679 0.544484 0.401188
O O16 0.500000 0.000000 0.500000
#
# Coordination Sequence:
#
# PCOD9064955 Si02
#       7
#     2   2   2   2   2   2   2
#     4  12  25  49  79 104 147 195 250 307 361 444
#     4  12  29  49  73 108 150 193 246 309 374 435
#     4  11  25  43  70 104 153 190 236 301 374 432
#     4  11  24  46  77 108 149 194 249 301 368 444
#     4  12  27  49  78 107 142 197 254 301 371 446
#     4  11  27  44  69 108 153 189 240 304 371 438
#     4  11  25  45  78 110 145 196 251 305 368 437
#
# _framework density 21.658864000000001
#
# number of rings (size 3 to 8) (size 9 to 14) (size 15 to 20)
#    0.000    0.571    4.286    1.714   10.000    1.714 
#    0.000    0.000    0.000    0.000    0.000    0.000 
#    0.000    0.000    0.000    0.000    0.000    0.000 
#
# Total GULP energy -78170.431976 kJ/mol
# GULP energy per Si atom -5583.602284 kJ/mol
# Density = 2.160957 g / cm^3
# Si number density = 21.658864 Si / 1000 Ang^3
#
#
#
# Elastic Constant Matrix: (Units=GPa)
#
#
# Indices 1 2 3 4 5 6 
#
# 1 82.1265 25.3903 52.6742 6.6119 -15.8492 18.7779
# 2 25.3903 90.0326 53.5939 5.4767 -4.8606 -6.8422
# 3 52.6742 53.5939 203.2240 -17.7000 -19.6719 1.1028
# 4 6.6119 5.4767 -17.7000 47.2448 -3.1094 -2.2442
# 5 -15.8492 -4.8606 -19.6719 -3.1094 41.9814 -1.7877
# 6 18.7779 -6.8422 1.1028 -2.2442 -1.7877 34.8214
#
#
#
# Elastic Compliance Matrix: (Units=1/GPa)
#
#
# Indices 1 2 3 4 5 6 
#
# 1 0.019541 -0.003480 -0.004025 -0.004085 0.004311 -0.011136
# 2 -0.003480 0.014443 -0.003238 -0.002255 -0.001129 0.004614
# 3 -0.004025 -0.003238 0.007331 0.003889 0.001899 0.001650
# 4 -0.004085 -0.002255 0.003889 0.023737 0.001916 0.003265
# 5 0.004311 -0.001129 0.001899 0.001916 0.026301 -0.001133
# 6 -0.011136 0.004614 0.001650 0.003265 -0.001133 0.035730
#
#
# Mechanical properties :
#
#
# Convention : Reuss Voigt Hill
#
# Bulk Modulus (GPa) = 50.42941 70.96667 60.69804
# Shear Modulus (GPa) = 32.22116 41.05782 36.63949
#
# Velocity S-wave (km/s) = 3.86121 4.35864 4.11744
# Velocity P-wave (km/s) = 6.57363 7.62674 7.11968
#
# Compressibility (1/GPa) = 0.01982970
#
# Stress axis : x y z
#
# Youngs Moduli (GPa) = 51.17477 69.23994 136.40041
#
# Poissons Ratio (x) = 0.24094 0.54903
# Poissons Ratio (y) = 0.17808 0.44161
# Poissons Ratio (z) = 0.20599 0.22417
#
# Static dielectric constant tensor:
#      x y z
#    x 1.729960 -0.055050 0.024570 
#    y -0.055050 1.652770 0.053820 
#    z 0.024570 0.053820 1.791960 
# 
# From -- ./inp_files/241848.got.cif
#   From: 2010.05.17/outbox.cif.g08.bks.cpg/sg2_121_cif.got.tgz:241848.got - 2010.06.03 11:33:40.
