data_PCOD9064345
_publ_section_title
;
Structure prediction by ZEFSAII (Michael W. Deem and Ramdas Pophale) SiO2 
 PCOD9064345
Probable space group: P -1
;
_chemical_formula_sum "Si O2"
_cell_formula_units_Z 14
_cell_length_a 10.124464
_cell_length_b 18.665475
_cell_length_c 9.289965
_cell_angle_alpha 112.713639
_cell_angle_beta 53.965513
_cell_angle_gamma 151.532201
_cell_volume 636.426166
_symmetry_space_group_name_H-M "P -1"
_symmetry_group_IT_number 2
_symmetry_cell_setting 'triclinic'
loop_
_space_group_symop_operation_xyz
x,y,z
-x,-y,-z
loop_
_atom_site_type_symbol
_atom_site_label
_atom_site_fract_x
_atom_site_fract_y
_atom_site_fract_z
Si Si1 0.664125 0.872696 0.704972
Si Si2 0.789715 0.378688 0.720300
Si Si3 0.843993 0.144651 0.301876
Si Si4 0.822532 0.308588 0.379674
Si Si5 0.519759 0.676552 0.847313
Si Si6 0.827178 0.584240 0.319066
Si Si7 0.534687 0.950301 0.063105
O O1 0.398532 0.794519 0.699996
O O2 0.545180 0.741754 0.743451
O O3 0.692121 0.941903 0.874902
O O4 0.000000 0.000000 0.500000
O O5 0.617431 0.259684 0.608640
O O6 0.915089 0.513993 0.686316
O O7 0.081795 0.440835 0.634697
O O8 0.585439 0.314908 0.943685
O O9 0.958650 0.281378 0.314614
O O10 0.127651 0.215926 0.259088
O O11 0.500000 0.000000 0.500000
O O12 0.760999 0.073395 0.145028
O O13 0.254643 0.499597 0.837359
O O14 0.500000 0.500000 0.500000
O O15 0.164212 0.773949 0.223787
O O16 0.500000 0.000000 0.000000
#
# Coordination Sequence:
#
# PCOD9064345 Si02
#       7
#     2   2   2   2   2   2   2
#     4  12  26  45  73 103 146 191 243 298 362 433
#     4  11  24  45  74 103 140 186 244 304 356 424
#     4  12  27  48  70 107 150 189 235 298 370 436
#     4  11  24  46  69 102 146 184 241 298 357 434
#     4  12  26  46  77 104 141 194 248 297 362 432
#     4  12  25  47  76 107 145 191 243 301 367 436
#     4  12  27  47  73 106 149 191 240 298 367 437
#
# _framework density 21.997838000000002
#
# number of rings (size 3 to 8) (size 9 to 14) (size 15 to 20)
#    0.000    0.286    4.286    4.714    4.000    1.143 
#    2.571    0.000    0.000    0.000    0.000    0.000 
#    0.000    0.000    0.000    0.000    0.000    0.000 
#
# Total GULP energy -78345.659604 kJ/mol
# GULP energy per Si atom -5596.118543 kJ/mol
# Density = 2.194777 g / cm^3
# Si number density = 21.997838 Si / 1000 Ang^3
#
#
#
# Elastic Constant Matrix: (Units=GPa)
#
#
# Indices 1 2 3 4 5 6 
#
# 1 102.3289 3.5848 19.8722 -2.4271 -14.2665 -9.8443
# 2 3.5848 63.7826 24.0065 22.4081 -3.1304 -11.5223
# 3 19.8722 24.0065 110.9964 16.0439 -3.5425 -5.6057
# 4 -2.4271 22.4081 16.0439 43.6083 5.9770 7.6761
# 5 -14.2665 -3.1304 -3.5425 5.9770 35.4830 2.6457
# 6 -9.8443 -11.5223 -5.6057 7.6761 2.6457 34.5061
#
#
#
# Elastic Compliance Matrix: (Units=1/GPa)
#
#
# Indices 1 2 3 4 5 6 
#
# 1 0.010942 0.000876 -0.001840 -0.000230 0.004119 0.002851
# 2 0.000876 0.023321 -0.002649 -0.013265 0.003613 0.010281
# 3 -0.001840 -0.002649 0.010370 -0.002771 0.000465 0.000856
# 4 -0.000230 -0.013265 -0.002771 0.033727 -0.006329 -0.011963
# 5 0.004119 0.003613 0.000465 -0.006329 0.031160 0.001476
# 6 0.002851 0.010281 0.000856 -0.011963 0.001476 0.035914
#
#
# Mechanical properties :
#
#
# Convention : Reuss Voigt Hill
#
# Bulk Modulus (GPa) = 26.73277 41.33720 34.03498
# Shear Modulus (GPa) = 30.27940 38.02910 34.15425
#
# Velocity S-wave (km/s) = 3.71411 4.16235 3.94460
# Velocity P-wave (km/s) = 5.52916 6.47553 6.02097
#
# Compressibility (1/GPa) = 0.03740728
#
# Stress axis : x y z
#
# Youngs Moduli (GPa) = 91.39045 42.88040 96.43064
#
# Poissons Ratio (x) = -0.03754 0.17740
# Poissons Ratio (y) = -0.08001 0.25541
# Poissons Ratio (z) = 0.16812 0.11358
#
# Static dielectric constant tensor:
#      x y z
#    x 1.793420 -0.025890 0.013920 
#    y -0.025890 1.834590 0.015860 
#    z 0.013920 0.015860 1.814450 
# 
# From -- ./inp_files/159509.got.cif
#   From: 2010.05.17/outbox.cif.g08.bks.cpg/sg2_80_cif.got.tgz:159509.got - 2010.06.03 11:33:40.
