data_PCOD9064493
_publ_section_title
;
Structure prediction by ZEFSAII (Michael W. Deem and Ramdas Pophale) SiO2 
 PCOD9064493
Probable space group: P -1
;
_chemical_formula_sum "Si O2"
_cell_formula_units_Z 12
_cell_length_a 7.637215
_cell_length_b 13.014063
_cell_length_c 10.249668
_cell_angle_alpha 146.339357
_cell_angle_beta 106.526408
_cell_angle_gamma 94.506323
_cell_volume 435.706355
_symmetry_space_group_name_H-M "P -1"
_symmetry_group_IT_number 2
_symmetry_cell_setting 'triclinic'
loop_
_space_group_symop_operation_xyz
x,y,z
-x,-y,-z
loop_
_atom_site_type_symbol
_atom_site_label
_atom_site_fract_x
_atom_site_fract_y
_atom_site_fract_z
Si Si1 0.607444 0.421046 0.147259
Si Si2 0.024571 0.165197 0.919753
Si Si3 0.255617 0.106354 0.217376
Si Si4 0.936256 0.256822 0.523958
Si Si5 0.710799 0.059567 0.520979
Si Si6 0.670126 0.346642 0.377968
O O1 0.628682 0.649342 0.428257
O O2 0.651743 0.353452 0.226641
O O3 0.375105 0.198707 0.810306
O O4 0.805970 0.515128 0.181517
O O5 0.055747 0.962181 0.707600
O O6 0.232674 0.401542 0.276050
O O7 0.809640 0.074760 0.874436
O O8 0.431228 0.163065 0.202432
O O9 0.000000 0.000000 0.000000
O O10 0.773523 0.206306 0.556958
O O11 0.842246 0.296115 0.414593
O O12 0.059064 0.814168 0.214587
O O13 0.500000 0.000000 0.500000
#
# Coordination Sequence:
#
# PCOD9064493 Si02
#       6
#     2   2   2   2   2   2
#     4  11  26  45  76 111 147 194 249 304 371 439
#     4  11  26  48  75 110 152 193 245 309 367 444
#     4  11  24  45  79 112 146 192 247 306 379 437
#     4  11  27  46  74 110 149 194 253 296 375 438
#     4  12  27  48  73 107 153 200 248 304 369 439
#     4  12  25  47  80 108 150 193 246 309 372 440
#
# _framework density 27.541485000000002
#
# number of rings (size 3 to 8) (size 9 to 14) (size 15 to 20)
#    0.000    0.667    1.667    4.500    4.667    7.333 
#    0.000    0.000    0.000    0.000    0.000    0.000 
#    0.000    0.000    0.000    0.000    0.000    0.000 
#
# Total GULP energy -67284.722809 kJ/mol
# GULP energy per Si atom -5607.060234 kJ/mol
# Density = 2.747880 g / cm^3
# Si number density = 27.541485 Si / 1000 Ang^3
#
#
#
# Elastic Constant Matrix: (Units=GPa)
#
#
# Indices 1 2 3 4 5 6 
#
# 1 110.8498 26.4480 15.9959 16.5676 8.3746 33.3936
# 2 26.4480 102.0201 8.9394 6.0859 5.7046 29.3884
# 3 15.9959 8.9394 113.3034 6.1171 3.0607 13.2362
# 4 16.5676 6.0859 6.1171 42.9146 6.9800 15.3280
# 5 8.3746 5.7046 3.0607 6.9800 35.6874 20.7257
# 6 33.3936 29.3884 13.2362 15.3280 20.7257 61.6623
#
#
#
# Elastic Compliance Matrix: (Units=1/GPa)
#
#
# Indices 1 2 3 4 5 6 
#
# 1 0.011251 -0.001307 -0.000793 -0.002410 0.001041 -0.005051
# 2 -0.001307 0.011603 -0.000168 0.000580 0.001511 -0.005438
# 3 -0.000793 -0.000168 0.009138 -0.000516 0.000371 -0.001449
# 4 -0.002410 0.000580 -0.000516 0.026224 -0.001849 -0.004757
# 5 0.001041 0.001511 0.000371 -0.001849 0.035276 -0.012761
# 6 -0.005051 -0.005438 -0.001449 -0.004757 -0.012761 0.027327
#
#
# Mechanical properties :
#
#
# Convention : Reuss Voigt Hill
#
# Bulk Modulus (GPa) = 36.42145 47.65998 42.04071
# Shear Modulus (GPa) = 37.17296 46.37221 41.77258
#
# Velocity S-wave (km/s) = 3.67782 4.10777 3.89873
# Velocity P-wave (km/s) = 5.59358 6.31195 5.96359
#
# Compressibility (1/GPa) = 0.02745635
#
# Stress axis : x y z
#
# Youngs Moduli (GPa) = 88.88471 86.18484 109.43170
#
# Poissons Ratio (x) = 0.11261 0.08680
# Poissons Ratio (y) = 0.11614 0.01836
# Poissons Ratio (z) = 0.07050 0.01446
#
# Static dielectric constant tensor:
#      x y z
#    x 2.221350 0.022350 -0.086170 
#    y 0.022350 2.174330 -0.060430 
#    z -0.086170 -0.060430 2.142160 
# 
# From -- ./inp_files/394971.got.cif
#   From: 2010.05.17/outbox.cif.g08.bks.cpg/sg2_198_cif.got.tgz:394971.got - 2010.06.03 11:33:40.
