data_PCOD9064820
_publ_section_title
;
Structure prediction by ZEFSAII (Michael W. Deem and Ramdas Pophale) SiO2 
 PCOD9064820
Probable space group: P -1
;
_chemical_formula_sum "Si O2"
_cell_formula_units_Z 16
_cell_length_a 12.020924
_cell_length_b 9.484602
_cell_length_c 13.521384
_cell_angle_alpha 85.099578
_cell_angle_beta 30.524962
_cell_angle_gamma 75.804153
_cell_volume 733.898885
_symmetry_space_group_name_H-M "P -1"
_symmetry_group_IT_number 2
_symmetry_cell_setting 'triclinic'
loop_
_space_group_symop_operation_xyz
x,y,z
-x,-y,-z
loop_
_atom_site_type_symbol
_atom_site_label
_atom_site_fract_x
_atom_site_fract_y
_atom_site_fract_z
Si Si1 0.874765 0.674781 0.109420
Si Si2 0.802654 0.536657 0.567137
Si Si3 0.367924 0.790899 0.913979
Si Si4 0.806949 0.153612 0.171875
Si Si5 0.366901 0.017012 0.203225
Si Si6 0.637935 0.105804 0.512976
Si Si7 0.150518 0.798302 0.478130
Si Si8 0.882439 0.763712 0.330188
O O1 0.611344 0.772775 0.273828
O O2 0.877781 0.708464 0.223535
O O3 0.000000 0.500000 0.000000
O O4 0.044607 0.744076 0.918966
O O5 0.566950 0.635738 0.795571
O O6 0.780854 0.380191 0.557650
O O7 0.860051 0.638401 0.430779
O O8 0.000000 0.500000 0.500000
O O9 0.333546 0.783704 0.822983
O O10 0.473243 0.920606 0.852509
O O11 0.126512 0.797190 0.148702
O O12 0.668474 0.132370 0.372802
O O13 0.000000 0.000000 0.000000
O O14 0.104483 0.134179 0.380905
O O15 0.323175 0.866135 0.281842
O O16 0.500000 0.000000 0.000000
O O17 0.833188 0.138287 0.428781
O O18 0.689078 0.926960 0.490168
#
# Coordination Sequence:
#
# PCOD9064820 Si02
#       8
#     2   2   2   2   2   2   2   2
#     4  11  27  45  70 110 148 186 239 297 367 438
#     4  12  27  47  70  99 150 191 239 300 365 425
#     4  11  24  46  74 103 142 186 245 300 356 439
#     4  11  25  45  75 110 137 188 246 292 367 437
#     4  11  25  46  73  98 141 184 248 301 355 422
#     4  12  25  46  77 102 150 188 242 303 359 434
#     4  11  28  44  68 110 135 190 242 295 364 432
#     4  11  26  45  74 106 140 195 243 292 368 429
#
# _framework density 21.801368
#
# number of rings (size 3 to 8) (size 9 to 14) (size 15 to 20)
#    0.000    0.750    3.750    2.625   12.250    2.000 
#    0.000    0.000    0.000    0.000    0.000    0.000 
#    0.000    0.000    0.000    0.000    0.000    0.000 
#
# Total GULP energy -89404.889398 kJ/mol
# GULP energy per Si atom -5587.805587 kJ/mol
# Density = 2.175175 g / cm^3
# Si number density = 21.801368 Si / 1000 Ang^3
#
#
#
# Elastic Constant Matrix: (Units=GPa)
#
#
# Indices 1 2 3 4 5 6 
#
# 1 64.8809 19.3379 25.7846 -1.4051 -3.3165 -2.8747
# 2 19.3379 187.5817 64.8769 -3.8974 3.4044 2.9040
# 3 25.7846 64.8769 123.9358 -6.6900 -8.3441 -5.3309
# 4 -1.4051 -3.8974 -6.6900 42.2134 -1.9633 0.2592
# 5 -3.3165 3.4044 -8.3441 -1.9633 36.8506 1.1290
# 6 -2.8747 2.9040 -5.3309 0.2592 1.1290 35.9871
#
#
#
# Elastic Compliance Matrix: (Units=1/GPa)
#
#
# Indices 1 2 3 4 5 6 
#
# 1 0.016924 -0.000722 -0.003041 0.000050 0.000875 0.000932
# 2 -0.000722 0.006649 -0.003474 -0.000021 -0.001434 -0.001064
# 3 -0.003041 -0.003474 0.010832 0.001403 0.002527 0.001553
# 4 0.000050 -0.000021 0.001403 0.023986 0.001602 -0.000010
# 5 0.000875 -0.001434 0.002527 0.001602 0.028016 -0.000330
# 6 0.000932 -0.001064 0.001553 -0.000010 -0.000330 0.028188
#
#
# Mechanical properties :
#
#
# Convention : Reuss Voigt Hill
#
# Bulk Modulus (GPa) = 50.17312 66.26636 58.21974
# Shear Modulus (GPa) = 36.84245 40.77015 38.80630
#
# Velocity S-wave (km/s) = 4.11532 4.32913 4.22357
# Velocity P-wave (km/s) = 6.75609 7.44647 7.10967
#
# Compressibility (1/GPa) = 0.01993099
#
# Stress axis : x y z
#
# Youngs Moduli (GPa) = 59.08831 150.39977 92.31494
#
# Poissons Ratio (x) = 0.10861 0.28075
# Poissons Ratio (y) = 0.04267 0.32068
# Poissons Ratio (z) = 0.17970 0.52245
#
# Static dielectric constant tensor:
#      x y z
#    x 1.746610 0.076630 0.045340 
#    y 0.076630 1.703830 -0.070610 
#    z 0.045340 -0.070610 1.743170 
# 
# From -- ./inp_files/515600.got.cif
#   From: 2010.05.17/outbox.cif.g08.bks.cpg/sg2_258_cif.got.tgz:515600.got - 2010.06.03 11:33:40.
