data_PCOD9064787
_publ_section_title
;
Structure prediction by ZEFSAII (Michael W. Deem and Ramdas Pophale) SiO2 
 PCOD9064787
Probable space group: P -1
;
_chemical_formula_sum "Si O2"
_cell_formula_units_Z 13
_cell_length_a 9.611252
_cell_length_b 14.776648
_cell_length_c 8.238189
_cell_angle_alpha 39.353043
_cell_angle_beta 116.842753
_cell_angle_gamma 134.857627
_cell_volume 514.306253
_symmetry_space_group_name_H-M "P -1"
_symmetry_group_IT_number 2
_symmetry_cell_setting 'triclinic'
loop_
_space_group_symop_operation_xyz
x,y,z
-x,-y,-z
loop_
_atom_site_type_symbol
_atom_site_label
_atom_site_fract_x
_atom_site_fract_y
_atom_site_fract_z
Si Si1 0.948940 0.124710 0.874084
Si Si2 0.685921 0.500178 0.574637
Si Si3 0.731201 0.092269 0.492679
Si Si4 0.000000 0.500000 0.000000
Si Si5 0.333011 0.224272 0.279664
Si Si6 0.567186 0.877563 0.209944
Si Si7 0.747188 0.541159 0.925283
O O1 0.806991 0.121040 0.675163
O O2 0.152352 0.335914 0.689068
O O3 0.804196 0.012129 0.104572
O O4 0.000000 0.000000 0.000000
O O5 0.500000 0.500000 0.500000
O O6 0.577434 0.294867 0.746286
O O7 0.793521 0.545453 0.747102
O O8 0.500000 0.000000 0.500000
O O9 0.773092 0.961485 0.616559
O O10 0.845231 0.277473 0.196229
O O11 0.869291 0.474346 0.135611
O O12 0.446960 0.211902 0.503592
O O13 0.209786 0.283796 0.210987
O O14 0.508947 0.387768 0.031293
O O15 0.500000 0.000000 0.000000
#
# Coordination Sequence:
#
# PCOD9064787 Si02
#       7
#     2   2   2   1   2   2   2
#     4  12  26  47  79 109 139 203 252 286 377 453
#     4  12  24  50  76 102 148 196 241 301 368 441
#     4  12  26  47  77 106 150 193 241 308 370 435
#     4  12  26  44  74 104 138 190 252 286 370 438
#     4  11  25  46  71 108 146 190 239 306 366 427
#     4  12  28  46  72 110 153 189 245 309 369 434
#     4  11  24  46  73 105 138 190 244 294 361 438
#
# _framework density 25.276769000000002
#
# number of rings (size 3 to 8) (size 9 to 14) (size 15 to 20)
#    0.000    0.308    6.154    1.846    2.154    1.231 
#    2.769    0.000    0.000    0.000    0.000    0.000 
#    0.000    0.000    0.000    0.000    0.000    0.000 
#
# Total GULP energy -72588.917122 kJ/mol
# GULP energy per Si atom -5583.762856 kJ/mol
# Density = 2.521924 g / cm^3
# Si number density = 25.276769 Si / 1000 Ang^3
#
#
#
# Elastic Constant Matrix: (Units=GPa)
#
#
# Indices 1 2 3 4 5 6 
#
# 1 150.4131 37.9361 34.0719 -37.9849 19.1056 -13.6088
# 2 37.9361 100.4864 41.3654 -25.3209 -0.5367 3.7349
# 3 34.0719 41.3654 91.8790 -34.6456 -0.7175 -4.7637
# 4 -37.9849 -25.3209 -34.6456 65.4151 -3.3483 12.0493
# 5 19.1056 -0.5367 -0.7175 -3.3483 56.1949 -17.8796
# 6 -13.6088 3.7349 -4.7637 12.0493 -17.8796 49.8073
#
#
#
# Elastic Compliance Matrix: (Units=1/GPa)
#
#
# Indices 1 2 3 4 5 6 
#
# 1 0.008638 -0.002027 -0.000970 0.003465 -0.002550 0.000666
# 2 -0.002027 0.013181 -0.004570 0.001955 0.000105 -0.002415
# 3 -0.000970 -0.004570 0.015544 0.005859 0.000994 0.000504
# 4 0.003465 0.001955 0.005859 0.021901 -0.001166 -0.004356
# 5 -0.002550 0.000105 0.000994 -0.001166 0.020888 0.007171
# 6 0.000666 -0.002415 0.000504 -0.004356 0.007171 0.024116
#
#
# Mechanical properties :
#
#
# Convention : Reuss Voigt Hill
#
# Bulk Modulus (GPa) = 44.98476 63.28057 54.13266
# Shear Modulus (GPa) = 39.42830 49.57714 44.50272
#
# Velocity S-wave (km/s) = 3.95380 4.43354 4.20052
# Velocity P-wave (km/s) = 6.21923 7.16225 6.70733
#
# Compressibility (1/GPa) = 0.02222975
#
# Stress axis : x y z
#
# Youngs Moduli (GPa) = 115.76091 75.86683 64.33408
#
# Poissons Ratio (x) = 0.15382 0.06238
# Poissons Ratio (y) = 0.23470 0.29399
# Poissons Ratio (z) = 0.11224 0.34669
#
# Static dielectric constant tensor:
#      x y z
#    x 1.850430 -0.122520 -0.048880 
#    y -0.122520 1.928190 -0.112250 
#    z -0.048880 -0.112250 1.635240 
# 
# From -- ./inp_files/199110.got.cif
#   From: 2010.05.17/outbox.cif.g08.bks.cpg/sg2_100_cif.got.tgz:199110.got - 2010.06.03 11:33:40.
