data_PCOD9064643
_publ_section_title
;
Structure prediction by ZEFSAII (Michael W. Deem and Ramdas Pophale) SiO2 
 PCOD9064643
Probable space group: P -1
;
_chemical_formula_sum "Si O2"
_cell_formula_units_Z 14
_cell_length_a 16.977601
_cell_length_b 7.441082
_cell_length_c 6.803023
_cell_angle_alpha 123.547119
_cell_angle_beta 113.550593
_cell_angle_gamma 90.879951
_cell_volume 624.464840
_symmetry_space_group_name_H-M "P -1"
_symmetry_group_IT_number 2
_symmetry_cell_setting 'triclinic'
loop_
_space_group_symop_operation_xyz
x,y,z
-x,-y,-z
loop_
_atom_site_type_symbol
_atom_site_label
_atom_site_fract_x
_atom_site_fract_y
_atom_site_fract_z
Si Si1 0.465052 0.092572 0.827305
Si Si2 0.994359 0.760829 0.257115
Si Si3 0.291984 0.240658 0.829324
Si Si4 0.132435 0.030082 0.247761
Si Si5 0.098373 0.459039 0.317953
Si Si6 0.223957 0.891627 0.895004
Si Si7 0.628690 0.245391 0.810574
O O1 0.389297 0.206961 0.874772
O O2 0.549943 0.251647 0.887632
O O3 0.417701 0.885709 0.508325
O O4 0.500000 0.000000 0.000000
O O5 0.023598 0.591608 0.328049
O O6 0.070744 0.839048 0.211282
O O7 0.000000 0.000000 0.500000
O O8 0.905609 0.627260 0.965064
O O9 0.226651 0.143736 0.521942
O O10 0.247142 0.092347 0.882316
O O11 0.307394 0.505817 0.026230
O O12 0.087931 0.230880 0.291187
O O13 0.152153 0.927539 0.000947
O O14 0.186544 0.653644 0.597694
O O15 0.311922 0.889035 0.102348
#
# Coordination Sequence:
#
# PCOD9064643 Si02
#       7
#     2   2   2   2   2   2   2
#     4  11  24  46  71 101 140 181 236 283 343 413
#     4  11  26  48  71 106 138 181 237 283 348 418
#     4  12  25  44  69 103 139 184 232 284 346 412
#     4  12  26  44  72 102 141 183 230 286 350 411
#     4  11  25  45  73 101 139 183 227 288 346 410
#     4  12  25  44  69 106 139 184 236 281 346 416
#     4  11  25  45  70 101 140 185 227 288 344 405
#
# _framework density 22.419198000000002
#
# number of rings (size 3 to 8) (size 9 to 14) (size 15 to 20)
#    0.000    0.571    5.714    1.714    0.000    7.429 
#    0.000    0.000    0.000    0.000    0.000    0.000 
#    0.000    0.000    0.000    0.000    0.000    0.000 
#
# Total GULP energy -78346.444118 kJ/mol
# GULP energy per Si atom -5596.174580 kJ/mol
# Density = 2.236817 g / cm^3
# Si number density = 22.419198 Si / 1000 Ang^3
#
#
#
# Elastic Constant Matrix: (Units=GPa)
#
#
# Indices 1 2 3 4 5 6 
#
# 1 69.0852 17.3028 22.9501 -0.3027 -10.3047 -6.9983
# 2 17.3028 120.4265 41.7935 0.0145 0.6106 -3.1137
# 3 22.9501 41.7935 142.5691 -3.1556 16.1135 -1.5047
# 4 -0.3027 0.0145 -3.1556 34.7472 -6.7975 12.2931
# 5 -10.3047 0.6106 16.1135 -6.7975 39.5908 -4.2818
# 6 -6.9983 -3.1137 -1.5047 12.2931 -4.2818 40.9798
#
#
#
# Elastic Compliance Matrix: (Units=1/GPa)
#
#
# Indices 1 2 3 4 5 6 
#
# 1 0.017047 -0.001353 -0.002995 -0.000137 0.006018 0.003368
# 2 -0.001353 0.009415 -0.002608 -0.000336 0.000565 0.000548
# 3 -0.002995 -0.002608 0.008749 0.000241 -0.004358 -0.000916
# 4 -0.000137 -0.000336 0.000241 0.033037 0.004518 -0.009479
# 5 0.006018 0.000565 -0.004358 0.004518 0.029652 0.002653
# 6 0.003368 0.000548 -0.000916 -0.009479 0.002653 0.028106
#
#
# Mechanical properties :
#
#
# Convention : Reuss Voigt Hill
#
# Bulk Modulus (GPa) = 46.95143 55.13042 51.04093
# Shear Modulus (GPa) = 34.00958 39.73253 36.87105
#
# Velocity S-wave (km/s) = 3.89907 4.21438 4.05979
# Velocity P-wave (km/s) = 6.42327 6.95165 6.69268
#
# Compressibility (1/GPa) = 0.02129861
#
# Stress axis : x y z
#
# Youngs Moduli (GPa) = 58.66155 106.21859 114.30067
#
# Poissons Ratio (x) = 0.14374 0.34233
# Poissons Ratio (y) = 0.07939 0.29804
# Poissons Ratio (z) = 0.17569 0.27697
#
# Static dielectric constant tensor:
#      x y z
#    x 1.841680 -0.016940 0.007500 
#    y -0.016940 1.777330 0.007070 
#    z 0.007500 0.007070 1.843710 
# 
# From -- ./inp_files/114264.got.cif
#   From: 2010.05.17/outbox.cif.g08.bks.cpg/sg2_58_cif.got.tgz:114264.got - 2010.06.03 11:33:40.
