data_PCOD9064092
_publ_section_title
;
Structure prediction by ZEFSAII (Michael W. Deem and Ramdas Pophale) SiO2 
 PCOD9064092
Probable space group: P -1
;
_chemical_formula_sum "Si O2"
_cell_formula_units_Z 16
_cell_length_a 15.152748
_cell_length_b 12.901044
_cell_length_c 16.368095
_cell_angle_alpha 131.853273
_cell_angle_beta 29.908984
_cell_angle_gamma 150.414886
_cell_volume 737.382972
_symmetry_space_group_name_H-M "P -1"
_symmetry_group_IT_number 2
_symmetry_cell_setting 'triclinic'
loop_
_space_group_symop_operation_xyz
x,y,z
-x,-y,-z
loop_
_atom_site_type_symbol
_atom_site_label
_atom_site_fract_x
_atom_site_fract_y
_atom_site_fract_z
Si Si1 0.164826 0.027552 0.181717
Si Si2 0.141142 0.966337 0.811777
Si Si3 0.965786 0.561824 0.270552
Si Si4 0.679509 0.917962 0.460453
Si Si5 0.314523 0.752883 0.362235
Si Si6 0.828328 0.031381 0.669323
Si Si7 0.307407 0.564028 0.112929
Si Si8 0.216049 0.746890 0.988141
O O1 0.161664 0.869533 0.062511
O O2 0.865911 0.921687 0.362479
O O3 0.253438 0.043239 0.209857
O O4 0.394398 0.272864 0.086914
O O5 0.898997 0.696536 0.853099
O O6 0.238917 0.058743 0.688630
O O7 0.433114 0.100368 0.695126
O O8 0.000000 0.000000 0.000000
O O9 0.652274 0.312135 0.378031
O O10 0.131417 0.565302 0.200767
O O11 0.148316 0.696572 0.112828
O O12 0.954418 0.711090 0.390625
O O13 0.731431 0.110859 0.543553
O O14 0.397084 0.701012 0.194773
O O15 0.000000 0.500000 0.500000
O O16 0.534323 0.893108 0.790154
O O17 0.000000 0.000000 0.500000
O O18 0.000000 0.500000 0.000000
#
# Coordination Sequence:
#
# PCOD9064092 Si02
#       8
#     2   2   2   2   2   2   2   2
#     4  11  26  44  68 101 140 180 234 284 356 419
#     4  12  28  49  70 104 146 186 240 295 353 424
#     4  11  24  45  70  97 144 183 232 294 347 420
#     4  12  27  45  70 110 138 183 245 291 354 426
#     4  12  26  45  73 100 143 186 235 301 353 413
#     4  11  25  45  68 102 140 180 233 290 347 419
#     4  12  24  48  74  99 142 193 234 292 358 421
#     4  11  25  45  69 100 141 184 231 289 354 416
#
# _framework density 21.698359
#
# number of rings (size 3 to 8) (size 9 to 14) (size 15 to 20)
#    0.000    0.500    5.000    2.625    8.750    4.000 
#    0.000    0.000    0.000    0.000    0.000    0.000 
#    0.000    0.000    0.000    0.000    0.000    0.000 
#
# Total GULP energy -89314.082739 kJ/mol
# GULP energy per Si atom -5582.130171 kJ/mol
# Density = 2.164897 g / cm^3
# Si number density = 21.698359 Si / 1000 Ang^3
#
#
#
# Elastic Constant Matrix: (Units=GPa)
#
#
# Indices 1 2 3 4 5 6 
#
# 1 52.4959 9.1003 0.4154 -1.7028 -8.4303 4.0527
# 2 9.1003 144.5249 40.7994 -3.9136 -12.3200 -1.7894
# 3 0.4154 40.7994 64.2444 -1.9916 -5.9218 -2.2938
# 4 -1.7028 -3.9136 -1.9916 43.8336 -6.6187 -2.7664
# 5 -8.4303 -12.3200 -5.9218 -6.6187 40.4175 -2.0468
# 6 4.0527 -1.7894 -2.2938 -2.7664 -2.0468 27.2896
#
#
#
# Elastic Compliance Matrix: (Units=1/GPa)
#
#
# Indices 1 2 3 4 5 6 
#
# 1 0.020132 -0.001190 0.000942 0.001166 0.004035 -0.002568
# 2 -0.001190 0.008666 -0.005290 0.000787 0.001773 0.000513
# 3 0.000942 -0.005290 0.019135 0.000755 0.001578 0.001317
# 4 0.001166 0.000787 0.000755 0.023834 0.004634 0.002706
# 5 0.004035 0.001773 0.001578 0.004634 0.027223 0.002161
# 6 -0.002568 0.000513 0.001317 0.002706 0.002161 0.037606
#
#
# Mechanical properties :
#
#
# Convention : Reuss Voigt Hill
#
# Bulk Modulus (GPa) = 27.13150 40.21062 33.67106
# Shear Modulus (GPa) = 31.25830 36.37150 33.81490
#
# Velocity S-wave (km/s) = 3.79962 4.09862 3.95195
# Velocity P-wave (km/s) = 5.63743 6.40079 6.03120
#
# Compressibility (1/GPa) = 0.03685753
#
# Stress axis : x y z
#
# Youngs Moduli (GPa) = 49.67221 115.38968 52.26117
#
# Poissons Ratio (x) = 0.13729 -0.04922
# Poissons Ratio (y) = 0.05910 0.27645
# Poissons Ratio (z) = -0.04678 0.61039
#
# Static dielectric constant tensor:
#      x y z
#    x 1.865010 0.064710 0.212100 
#    y 0.064710 1.819100 0.083840 
#    z 0.212100 0.083840 2.333250 
# 
# From -- ./inp_files/352381.got.cif
#   From: 2010.05.17/outbox.cif.g08.bks.cpg/sg2_177_cif.got.tgz:352381.got - 2010.06.03 11:33:40.
