data_PCOD9064328
_publ_section_title
;
Structure prediction by ZEFSAII (Michael W. Deem and Ramdas Pophale) SiO2 
 PCOD9064328
Probable space group: P -1
;
_chemical_formula_sum "Si O2"
_cell_formula_units_Z 16
_cell_length_a 9.157648
_cell_length_b 11.068227
_cell_length_c 20.375916
_cell_angle_alpha 130.566465
_cell_angle_beta 152.039984
_cell_angle_gamma 57.857384
_cell_volume 730.355937
_symmetry_space_group_name_H-M "P -1"
_symmetry_group_IT_number 2
_symmetry_cell_setting 'triclinic'
loop_
_space_group_symop_operation_xyz
x,y,z
-x,-y,-z
loop_
_atom_site_type_symbol
_atom_site_label
_atom_site_fract_x
_atom_site_fract_y
_atom_site_fract_z
Si Si1 0.732393 0.191216 0.093779
Si Si2 0.966493 0.333724 0.468003
Si Si3 0.696749 0.562953 0.539005
Si Si4 0.444128 0.181752 0.115042
Si Si5 0.530116 0.679877 0.097908
Si Si6 0.243540 0.797487 0.392533
Si Si7 0.080706 0.645841 0.032051
Si Si8 0.442090 0.861820 0.349164
O O1 0.509212 0.221959 0.078209
O O2 0.041408 0.300128 0.280542
O O3 0.635067 0.237818 0.998638
O O4 0.716884 0.999837 0.013980
O O5 0.824698 0.406448 0.502753
O O6 0.755436 0.205750 0.292680
O O7 0.000000 0.500000 0.500000
O O8 0.283331 0.255075 0.579981
O O9 0.500000 0.500000 0.500000
O O10 0.461474 0.654456 0.433537
O O11 0.242618 0.312785 0.112271
O O12 0.347021 0.658917 0.086898
O O13 0.897233 0.750790 0.267677
O O14 0.500000 0.500000 0.000000
O O15 0.254500 0.849281 0.338893
O O16 0.410707 0.960168 0.548028
O O17 0.193949 0.796218 0.174678
O O18 0.000000 0.500000 0.000000
#
# Coordination Sequence:
#
# PCOD9064328 Si02
#       8
#     2   2   2   2   2   2   2   2
#     4  11  24  47  70 100 137 181 224 278 349 408
#     4  12  23  43  71 105 132 176 234 283 334 407
#     4  12  27  43  69 101 140 179 225 283 344 406
#     4  11  24  45  73  99 135 180 228 280 340 412
#     4  12  27  43  67 100 139 176 228 283 338 400
#     4  11  24  47  70 100 137 181 224 278 349 408
#     4  12  27  43  69 100 135 180 230 279 336 405
#     4  11  24  45  73  99 135 180 228 280 340 412
#
# _framework density 21.907126000000002
#
# number of rings (size 3 to 8) (size 9 to 14) (size 15 to 20)
#    0.000    0.500    2.500    5.250    7.000    5.000 
#    4.500    0.000    0.000    0.000    0.000    0.000 
#    0.000    0.000    0.000    0.000    0.000    0.000 
#
# Total GULP energy -89263.338910 kJ/mol
# GULP energy per Si atom -5578.958682 kJ/mol
# Density = 2.185726 g / cm^3
# Si number density = 21.907126 Si / 1000 Ang^3
#
#
#
# Elastic Constant Matrix: (Units=GPa)
#
#
# Indices 1 2 3 4 5 6 
#
# 1 65.8721 74.4442 78.4452 46.4653 42.5476 5.3148
# 2 74.4442 43.7607 -3.4534 -8.4786 10.8382 -0.8691
# 3 78.4452 -3.4534 79.8937 3.8083 2.9708 4.8808
# 4 46.4653 -8.4786 3.8083 30.6570 -6.6778 2.8343
# 5 42.5476 10.8382 2.9708 -6.6778 33.5350 3.4757
# 6 5.3148 -0.8691 4.8808 2.8343 3.4757 29.2052
#
#
#
# Elastic Compliance Matrix: (Units=1/GPa)
#
#
# Indices 1 2 3 4 5 6 
#
# 1 -0.003383 0.006565 0.003177 0.007377 0.003446 -0.000846
# 2 0.006565 0.013098 -0.005081 -0.009026 -0.014180 0.002608
# 3 0.003177 -0.005081 0.009817 -0.008402 -0.004830 -0.000980
# 4 0.007377 -0.009026 -0.008402 0.019828 -0.001548 -0.001947
# 5 0.003446 -0.014180 -0.004830 -0.001548 0.030536 -0.003726
# 6 -0.000846 0.002608 -0.000980 -0.001947 -0.003726 0.035268
#
#
# Mechanical properties :
#
#
# Convention : Reuss Voigt Hill
#
# Bulk Modulus (GPa) = 34.65823 54.26651 44.46237
# Shear Modulus (GPa) = 47.41090 21.35214 34.38152
#
# Velocity S-wave (km/s) = 4.65712 3.12535 3.96589
# Velocity P-wave (km/s) = 6.69128 6.15213 6.42736
#
# Compressibility (1/GPa) = 0.02885317
#
# Stress axis : x y z
#
# Youngs Moduli (GPa) = -295.59809 76.35031 101.86140
#
# Poissons Ratio (x) = -0.50123 -0.32365
# Poissons Ratio (y) = 1.94056 0.51761
# Poissons Ratio (z) = 0.93921 0.38797
#
# Static dielectric constant tensor:
#      x y z
#    x 2.228950 0.278290 -0.280820 
#    y 0.278290 3.836920 -0.663270 
#    z -0.280820 -0.663270 2.145800 
# 
# From -- ./inp_files/589583.got.cif
#   From: 2010.05.17/outbox.cif.g08.bks.cpg/sg2_295_cif.got.tgz:589583.got - 2010.06.03 11:33:40.
