data_PCOD9064444
_publ_section_title
;
Structure prediction by ZEFSAII (Michael W. Deem and Ramdas Pophale) SiO2 
 PCOD9064444
Probable space group: P -1
;
_chemical_formula_sum "Si O2"
_cell_formula_units_Z 16
_cell_length_a 8.856834
_cell_length_b 11.848611
_cell_length_c 17.711585
_cell_angle_alpha 151.272315
_cell_angle_beta 50.720542
_cell_angle_gamma 129.148199
_cell_volume 676.885984
_symmetry_space_group_name_H-M "P -1"
_symmetry_group_IT_number 2
_symmetry_cell_setting 'triclinic'
loop_
_space_group_symop_operation_xyz
x,y,z
-x,-y,-z
loop_
_atom_site_type_symbol
_atom_site_label
_atom_site_fract_x
_atom_site_fract_y
_atom_site_fract_z
Si Si1 0.519886 0.668425 0.888532
Si Si2 0.172107 0.773308 0.146742
Si Si3 0.167439 0.867909 0.899720
Si Si4 0.750320 0.306473 0.390118
Si Si5 0.840006 0.513517 0.205710
Si Si6 0.304472 0.057920 0.421122
Si Si7 0.309706 0.797945 0.416074
Si Si8 0.962108 0.831748 0.662786
O O1 0.380521 0.608162 0.824458
O O2 0.645971 0.463197 0.737309
O O3 0.358643 0.655135 0.999166
O O4 0.658889 0.929058 0.000919
O O5 0.981833 0.595747 0.137725
O O6 0.238494 0.963036 0.304167
O O7 0.123168 0.930261 0.183406
O O8 0.244591 0.740178 0.728054
O O9 0.083376 0.668630 0.870766
O O10 0.000000 0.000000 0.000000
O O11 0.537184 0.181003 0.415987
O O12 0.799396 0.587780 0.559822
O O13 0.921284 0.194257 0.311954
O O14 0.815724 0.749021 0.397058
O O15 0.276393 0.846875 0.367816
O O16 0.124631 0.832182 0.545398
O O17 0.500000 0.000000 0.500000
#
# Coordination Sequence:
#
# PCOD9064444 Si02
#       8
#     2   2   2   2   2   2   2   2
#     4  12  27  48  74 109 148 194 238 304 367 436
#     4  12  27  46  74 116 144 187 242 315 364 421
#     4  12  29  48  70 106 151 192 243 300 371 431
#     4  11  25  45  71 106 143 199 241 304 350 441
#     4  12  27  48  75 106 148 197 241 297 368 439
#     4  12  25  45  77 106 145 192 247 300 357 435
#     4  12  23  47  75 106 144 192 245 293 364 440
#     4  11  24  45  76 105 148 191 253 291 366 434
#
# _framework density 23.637658999999999
#
# number of rings (size 3 to 8) (size 9 to 14) (size 15 to 20)
#    0.000    0.250    5.000    2.625    7.000    3.500 
#    0.000    0.000    0.000    0.000    0.000    0.000 
#    0.000    0.000    0.000    0.000    0.000    0.000 
#
# Total GULP energy -89770.889465 kJ/mol
# GULP energy per Si atom -5610.680592 kJ/mol
# Density = 2.358386 g / cm^3
# Si number density = 23.637659 Si / 1000 Ang^3
#
#
#
# Elastic Constant Matrix: (Units=GPa)
#
#
# Indices 1 2 3 4 5 6 
#
# 1 71.8425 23.8014 10.5759 22.6163 -0.4044 -4.7514
# 2 23.8014 90.5482 3.8163 14.9166 2.2957 -2.4897
# 3 10.5759 3.8163 74.8242 2.2086 1.0336 -3.2633
# 4 22.6163 14.9166 2.2086 42.5364 -0.6887 -3.3852
# 5 -0.4044 2.2957 1.0336 -0.6887 35.3513 6.5317
# 6 -4.7514 -2.4897 -3.2633 -3.3852 6.5317 48.7998
#
#
#
# Elastic Compliance Matrix: (Units=1/GPa)
#
#
# Indices 1 2 3 4 5 6 
#
# 1 0.017953 -0.003257 -0.002094 -0.008224 0.000161 0.000850
# 2 -0.003257 0.012361 -0.000070 -0.002595 -0.000935 0.000254
# 3 -0.002094 -0.000070 0.013693 0.000483 -0.000561 0.000817
# 4 -0.008224 -0.002595 0.000483 0.028857 0.000430 0.001043
# 5 0.000161 -0.000935 -0.000561 0.000430 0.029102 -0.003935
# 6 0.000850 0.000254 0.000817 0.001043 -0.003935 0.021241
#
#
# Mechanical properties :
#
#
# Convention : Reuss Voigt Hill
#
# Bulk Modulus (GPa) = 30.15056 34.84467 32.49761
# Shear Modulus (GPa) = 34.45841 38.60559 36.53200
#
# Velocity S-wave (km/s) = 3.82223 4.04570 3.93555
# Velocity P-wave (km/s) = 5.67998 6.04953 5.86766
#
# Compressibility (1/GPa) = 0.03316688
#
# Stress axis : x y z
#
# Youngs Moduli (GPa) = 55.70214 80.90004 73.02850
#
# Poissons Ratio (x) = 0.26346 0.15291
# Poissons Ratio (y) = 0.18140 0.00508
# Poissons Ratio (z) = 0.11663 0.00563
#
# Static dielectric constant tensor:
#      x y z
#    x 1.888610 0.005830 0.042850 
#    y 0.005830 1.866860 -0.003920 
#    z 0.042850 -0.003920 1.871980 
# 
# From -- ./inp_files/298102.got.cif
#   From: 2010.05.17/outbox.cif.g08.bks.cpg/sg2_150_cif.got.tgz:298102.got - 2010.06.03 11:33:40.
