data_PCOD9064752
_publ_section_title
;
Structure prediction by ZEFSAII (Michael W. Deem and Ramdas Pophale) SiO2 
 PCOD9064752
Probable space group: P -1
;
_chemical_formula_sum "Si O2"
_cell_formula_units_Z 14
_cell_length_a 5.182529
_cell_length_b 9.033047
_cell_length_c 15.438221
_cell_angle_alpha 55.998501
_cell_angle_beta 93.098524
_cell_angle_gamma 106.933324
_cell_volume 567.757483
_symmetry_space_group_name_H-M "P -1"
_symmetry_group_IT_number 2
_symmetry_cell_setting 'triclinic'
loop_
_space_group_symop_operation_xyz
x,y,z
-x,-y,-z
loop_
_atom_site_type_symbol
_atom_site_label
_atom_site_fract_x
_atom_site_fract_y
_atom_site_fract_z
Si Si1 0.275835 0.325796 0.379850
Si Si2 0.926668 0.915664 0.198550
Si Si3 0.072135 0.749993 0.009197
Si Si4 0.728049 0.944379 0.685191
Si Si5 0.678378 0.273896 0.808809
Si Si6 0.797660 0.333154 0.493531
Si Si7 0.345039 0.610941 0.901524
O O1 0.254458 0.151008 0.374625
O O2 0.297240 0.508320 0.262765
O O3 0.546191 0.376359 0.428090
O O4 0.004127 0.289685 0.442789
O O5 0.608279 0.837371 0.202123
O O6 0.079880 0.765254 0.228667
O O7 0.002037 0.992617 0.271080
O O8 0.039876 0.082757 0.075163
O O9 0.299326 0.795915 0.071124
O O10 0.850546 0.560083 0.101400
O O11 0.180196 0.695117 0.938809
O O12 0.521579 0.780579 0.791505
O O13 0.664460 0.138516 0.606496
O O14 0.000000 0.500000 0.500000
O O15 0.500000 0.500000 0.000000
#
# Coordination Sequence:
#
# PCOD9064752 Si02
#       7
#     2   2   2   2   2   2   2
#     4  12  28  50  79 113 150 199 258 312 379 459
#     4  12  27  47  73 113 154 203 253 311 385 447
#     4  11  26  43  74 109 157 204 261 310 375 456
#     4  12  27  49  81 110 157 199 255 316 384 454
#     4  12  27  47  75 109 154 204 255 315 379 445
#     4  12  28  53  81 114 153 194 253 321 386 452
#     4  11  24  46  72 115 154 202 255 317 375 452
#
# _framework density 24.658414
#
# number of rings (size 3 to 8) (size 9 to 14) (size 15 to 20)
#    0.000    0.286    1.429    6.429    8.000    3.429 
#    0.000    0.000    0.000    0.000    0.000    0.000 
#    0.000    0.000    0.000    0.000    0.000    0.000 
#
# Total GULP energy -78480.517860 kJ/mol
# GULP energy per Si atom -5605.751276 kJ/mol
# Density = 2.460229 g / cm^3
# Si number density = 24.658414 Si / 1000 Ang^3
#
#
#
# Elastic Constant Matrix: (Units=GPa)
#
#
# Indices 1 2 3 4 5 6 
#
# 1 94.9575 1.5395 8.5083 -1.6967 14.3785 6.2351
# 2 1.5395 89.3322 18.1261 -15.0035 12.3600 1.6911
# 3 8.5083 18.1261 84.9153 -21.5811 11.7245 -3.8193
# 4 -1.6967 -15.0035 -21.5811 44.2232 1.0497 6.6456
# 5 14.3785 12.3600 11.7245 1.0497 50.5088 0.7459
# 6 6.2351 1.6911 -3.8193 6.6456 0.7459 36.6002
#
#
#
# Elastic Compliance Matrix: (Units=1/GPa)
#
#
# Indices 1 2 3 4 5 6 
#
# 1 0.011210 0.000536 -0.000736 0.000637 -0.003134 -0.002063
# 2 0.000536 0.012560 -0.001404 0.003887 -0.002959 -0.001464
# 3 -0.000736 -0.001404 0.014203 0.006410 -0.002885 0.000567
# 4 0.000637 0.003887 0.006410 0.027851 -0.003131 -0.004612
# 5 -0.003134 -0.002959 -0.002885 -0.003131 0.022143 0.000487
# 6 -0.002063 -0.001464 0.000567 -0.004612 0.000487 0.028628
#
#
# Mechanical properties :
#
#
# Convention : Reuss Voigt Hill
#
# Bulk Modulus (GPa) = 28.76511 36.17252 32.46882
# Shear Modulus (GPa) = 38.05465 42.33519 40.19492
#
# Velocity S-wave (km/s) = 3.93271 4.14800 4.04179
# Velocity P-wave (km/s) = 5.68440 6.13535 5.91417
#
# Compressibility (1/GPa) = 0.03476433
#
# Stress axis : x y z
#
# Youngs Moduli (GPa) = 89.20851 79.61928 70.40868
#
# Poissons Ratio (x) = -0.04266 0.05179
# Poissons Ratio (y) = -0.04780 0.09887
# Poissons Ratio (z) = 0.06562 0.11180
#
# Static dielectric constant tensor:
#      x y z
#    x 1.957920 0.025040 -0.005430 
#    y 0.025040 1.979090 -0.036850 
#    z -0.005430 -0.036850 1.998860 
# 
# From -- ./inp_files/480223.got.cif
#   From: 2010.05.17/outbox.cif.g08.bks.cpg/sg2_241_cif.got.tgz:480223.got - 2010.06.03 11:33:40.
