data_PCOD9064570
_publ_section_title
;
Structure prediction by ZEFSAII (Michael W. Deem and Ramdas Pophale) SiO2 
 PCOD9064570
Probable space group: P -1
;
_chemical_formula_sum "Si O2"
_cell_formula_units_Z 14
_cell_length_a 11.261088
_cell_length_b 16.743732
_cell_length_c 8.396943
_cell_angle_alpha 136.885770
_cell_angle_beta 41.038852
_cell_angle_gamma 140.078639
_cell_volume 622.468780
_symmetry_space_group_name_H-M "P -1"
_symmetry_group_IT_number 2
_symmetry_cell_setting 'triclinic'
loop_
_space_group_symop_operation_xyz
x,y,z
-x,-y,-z
loop_
_atom_site_type_symbol
_atom_site_label
_atom_site_fract_x
_atom_site_fract_y
_atom_site_fract_z
Si Si1 0.593636 0.527197 0.621526
Si Si2 0.224844 0.982071 0.639999
Si Si3 0.861342 0.391549 0.117945
Si Si4 0.812354 0.640928 0.070041
Si Si5 0.530766 0.090167 0.941225
Si Si6 0.126033 0.116873 0.417566
Si Si7 0.867284 0.785042 0.890440
O O1 0.500000 0.500000 0.500000
O O2 0.699064 0.435615 0.407506
O O3 0.407850 0.488577 0.875302
O O4 0.766357 0.677107 0.696294
O O5 0.416206 0.976479 0.358728
O O6 0.037855 0.918524 0.608006
O O7 0.109639 0.885458 0.763245
O O8 0.250093 0.127317 0.856040
O O9 0.727353 0.238660 0.973445
O O10 0.000000 0.500000 0.000000
O O11 0.010813 0.393135 0.107137
O O12 0.817345 0.746082 0.350145
O O13 0.841542 0.707608 0.967305
O O14 0.330543 0.109234 0.152729
O O15 0.500000 0.000000 0.000000
O O16 0.000000 0.000000 0.500000
#
# Coordination Sequence:
#
# PCOD9064570 Si02
#       7
#     2   2   2   2   2   2   2
#     4  12  25  47  73 101 139 190 247 291 355 431
#     4  11  24  46  69 105 148 185 237 295 362 425
#     4  12  25  42  74 110 139 185 244 295 352 427
#     4  12  23  45  71 106 145 187 238 294 358 427
#     4  12  23  41  75 110 134 185 252 291 350 431
#     4  12  21  42  76 102 138 187 240 298 353 427
#     4  11  26  46  69 103 152 192 229 301 367 421
#
# _framework density 22.491088999999999
#
# number of rings (size 3 to 8) (size 9 to 14) (size 15 to 20)
#    0.000    0.286    7.143    2.143    0.000    0.571 
#    0.000    5.714    0.000    0.000    0.000    0.000 
#    0.000    0.000    0.000    0.000    0.000    0.000 
#
# Total GULP energy -78396.618176 kJ/mol
# GULP energy per Si atom -5599.758441 kJ/mol
# Density = 2.243990 g / cm^3
# Si number density = 22.491089 Si / 1000 Ang^3
#
#
#
# Elastic Constant Matrix: (Units=GPa)
#
#
# Indices 1 2 3 4 5 6 
#
# 1 99.3659 34.5723 38.4400 -5.7384 -11.1540 -2.9357
# 2 34.5723 118.3061 10.5537 -3.0288 3.3886 -20.2707
# 3 38.4400 10.5537 111.7282 1.9064 -23.1398 2.0165
# 4 -5.7384 -3.0288 1.9064 50.1144 5.3358 5.5196
# 5 -11.1540 3.3886 -23.1398 5.3358 44.7909 -8.6536
# 6 -2.9357 -20.2707 2.0165 5.5196 -8.6536 30.8190
#
#
#
# Elastic Compliance Matrix: (Units=1/GPa)
#
#
# Indices 1 2 3 4 5 6 
#
# 1 0.013010 -0.003586 -0.003903 0.001382 0.001180 -0.000780
# 2 -0.003586 0.010631 0.000048 -0.000465 -0.000335 0.006637
# 3 -0.003903 0.000048 0.011381 -0.001503 0.005208 0.000647
# 4 0.001382 -0.000465 -0.001503 0.021097 -0.003865 -0.004940
# 5 0.001180 -0.000335 0.005208 -0.003865 0.027326 0.007916
# 6 -0.000780 0.006637 0.000647 -0.004940 0.007916 0.039804
#
#
# Mechanical properties :
#
#
# Convention : Reuss Voigt Hill
#
# Bulk Modulus (GPa) = 49.64718 55.17026 52.40872
# Shear Modulus (GPa) = 34.52001 41.53381 38.02691
#
# Velocity S-wave (km/s) = 3.92194 4.30196 4.11634
# Velocity P-wave (km/s) = 6.52923 7.01847 6.77827
#
# Compressibility (1/GPa) = 0.02014213
#
# Stress axis : x y z
#
# Youngs Moduli (GPa) = 76.86156 94.06348 87.86535
#
# Poissons Ratio (x) = 0.33731 0.34291
# Poissons Ratio (y) = 0.27562 -0.00425
# Poissons Ratio (z) = 0.29997 -0.00455
#
# Static dielectric constant tensor:
#      x y z
#    x 1.848640 -0.015210 0.048760 
#    y -0.015210 1.887240 -0.012440 
#    z 0.048760 -0.012440 1.855270 
# 
# From -- ./inp_files/280036.got.cif
#   From: 2010.05.17/outbox.cif.g08.bks.cpg/sg2_141_cif.got.tgz:280036.got - 2010.06.03 11:33:40.
