data_PCOD9064103
_publ_section_title
;
Structure prediction by ZEFSAII (Michael W. Deem and Ramdas Pophale) SiO2 
 PCOD9064103
Probable space group: P -1
;
_chemical_formula_sum "Si O2"
_cell_formula_units_Z 14
_cell_length_a 17.236140
_cell_length_b 12.472323
_cell_length_c 9.528218
_cell_angle_alpha 48.821824
_cell_angle_beta 110.493518
_cell_angle_gamma 149.677373
_cell_volume 637.203335
_symmetry_space_group_name_H-M "P -1"
_symmetry_group_IT_number 2
_symmetry_cell_setting 'triclinic'
loop_
_space_group_symop_operation_xyz
x,y,z
-x,-y,-z
loop_
_atom_site_type_symbol
_atom_site_label
_atom_site_fract_x
_atom_site_fract_y
_atom_site_fract_z
Si Si1 0.325456 0.316326 0.399101
Si Si2 0.690852 0.268543 0.234804
Si Si3 0.326682 0.640794 0.147458
Si Si4 0.969586 0.722089 0.511230
Si Si5 0.269525 0.509966 0.659019
Si Si6 0.009349 0.560985 0.290691
Si Si7 0.280905 0.219590 0.776436
O O1 0.393814 0.584464 0.213310
O O2 0.235028 0.151929 0.638316
O O3 0.498971 0.479863 0.344190
O O4 0.178418 0.074893 0.388706
O O5 0.726049 0.454135 0.203347
O O6 0.810517 0.320373 0.323192
O O7 0.470433 0.888282 0.414642
O O8 0.752862 0.412484 0.997563
O O9 0.166243 0.398051 0.370857
O O10 0.500000 0.000000 0.000000
O O11 0.902788 0.666917 0.363052
O O12 0.940706 0.509030 0.695488
O O13 0.254964 0.328928 0.745903
O O14 0.000000 0.500000 0.500000
O O15 0.161717 0.915055 0.042173
#
# Coordination Sequence:
#
# PCOD9064103 Si02
#       7
#     2   2   2   2   2   2   2
#     4  11  25  43  72 106 144 180 239 290 350 412
#     4  11  25  44  71 101 142 188 230 289 353 416
#     4  12  23  42  73 106 139 183 236 288 348 417
#     4  12  24  44  71 101 142 183 234 289 346 420
#     4  11  24  45  71 100 143 185 235 282 352 423
#     4  12  27  46  70 103 143 183 235 291 352 414
#     4  11  25  46  71 104 142 186 233 294 349 415
#
# _framework density 21.971008000000001
#
# number of rings (size 3 to 8) (size 9 to 14) (size 15 to 20)
#    0.000    0.571    4.286    3.000    2.000    6.286 
#    0.000    2.143    0.000    0.000    0.000    0.000 
#    0.000    0.000    0.000    0.000    0.000    0.000 
#
# Total GULP energy -78337.301396 kJ/mol
# GULP energy per Si atom -5595.521528 kJ/mol
# Density = 2.192100 g / cm^3
# Si number density = 21.971008 Si / 1000 Ang^3
#
#
#
# Elastic Constant Matrix: (Units=GPa)
#
#
# Indices 1 2 3 4 5 6 
#
# 1 118.0543 31.6020 13.5923 -7.4163 31.3000 -5.7920
# 2 31.6020 120.0098 50.2189 3.7876 5.0824 1.0621
# 3 13.5923 50.2189 85.0115 4.9152 16.7768 -10.0076
# 4 -7.4163 3.7876 4.9152 35.0534 -0.8778 5.0610
# 5 31.3000 5.0824 16.7768 -0.8778 34.0425 -8.4602
# 6 -5.7920 1.0621 -10.0076 5.0610 -8.4602 33.5258
#
#
#
# Elastic Compliance Matrix: (Units=1/GPa)
#
#
# Indices 1 2 3 4 5 6 
#
# 1 0.012639 -0.003949 0.002551 0.002494 -0.012328 -0.000417
# 2 -0.003949 0.012541 -0.008004 -0.000640 0.005173 -0.002067
# 3 0.002551 -0.008004 0.018528 -0.002030 -0.009294 0.004186
# 4 0.002494 -0.000640 -0.002030 0.030107 -0.001695 -0.005128
# 5 -0.012328 0.005173 -0.009294 -0.001695 0.046174 0.006840
# 6 -0.000417 -0.002067 0.004186 -0.005128 0.006840 0.033571
#
#
# Mechanical properties :
#
#
# Convention : Reuss Voigt Hill
#
# Bulk Modulus (GPa) = 40.15341 57.10023 48.62682
# Shear Modulus (GPa) = 27.67558 35.70183 31.68871
#
# Velocity S-wave (km/s) = 3.55299 4.03544 3.80188
# Velocity P-wave (km/s) = 5.92849 6.91074 6.43838
#
# Compressibility (1/GPa) = 0.02490449
#
# Stress axis : x y z
#
# Youngs Moduli (GPa) = 79.12233 79.73614 53.97272
#
# Poissons Ratio (x) = 0.31485 -0.13770
# Poissons Ratio (y) = 0.31243 0.43202
# Poissons Ratio (z) = -0.20187 0.63824
#
# Static dielectric constant tensor:
#      x y z
#    x 1.775100 -0.002570 -0.009560 
#    y -0.002570 1.813290 0.012120 
#    z -0.009560 0.012120 1.783370 
# 
# From -- ./inp_files/156820.got.cif
#   From: 2010.05.17/outbox.cif.g08.bks.cpg/sg2_79_cif.got.tgz:156820.got - 2010.06.03 11:33:40.
