data_PCOD9064381
_publ_section_title
;
Structure prediction by ZEFSAII (Michael W. Deem and Ramdas Pophale) SiO2 
 PCOD9064381
Probable space group: P -1
;
_chemical_formula_sum "Si O2"
_cell_formula_units_Z 14
_cell_length_a 12.141392
_cell_length_b 8.854319
_cell_length_c 9.000433
_cell_angle_alpha 77.190673
_cell_angle_beta 58.720308
_cell_angle_gamma 46.917281
_cell_volume 590.110081
_symmetry_space_group_name_H-M "P -1"
_symmetry_group_IT_number 2
_symmetry_cell_setting 'triclinic'
loop_
_space_group_symop_operation_xyz
x,y,z
-x,-y,-z
loop_
_atom_site_type_symbol
_atom_site_label
_atom_site_fract_x
_atom_site_fract_y
_atom_site_fract_z
Si Si1 0.579808 0.529737 0.800626
Si Si2 0.973182 0.365183 0.178540
Si Si3 0.231691 0.337001 0.228014
Si Si4 0.835547 0.180887 0.477248
Si Si5 0.634510 0.754612 0.158655
Si Si6 0.706243 0.983172 0.503624
Si Si7 0.291537 0.003977 0.833720
O O1 0.734086 0.530701 0.733345
O O2 0.668484 0.339662 0.665711
O O3 0.409192 0.755149 0.801623
O O4 0.500000 0.500000 0.000000
O O5 0.873096 0.312325 0.346370
O O6 0.825614 0.566748 0.136224
O O7 0.069735 0.401459 0.221977
O O8 0.110471 0.160118 0.018430
O O9 0.238678 0.191244 0.375982
O O10 0.363402 0.271326 0.011886
O O11 0.816634 0.050184 0.411404
O O12 0.000000 0.000000 0.500000
O O13 0.486927 0.803964 0.354954
O O14 0.594433 0.969453 0.156608
O O15 0.715256 0.919212 0.343020
#
# Coordination Sequence:
#
# PCOD9064381 Si02
#       7
#     2   2   2   2   2   2   2
#     4  12  27  45  75 109 143 186 243 296 354 425
#     4  11  26  47  72 106 150 185 237 298 356 416
#     4  11  24  45  76 103 141 194 237 287 358 428
#     4  12  27  46  70 106 149 184 236 300 351 422
#     4  11  24  45  74 108 141 186 242 296 351 422
#     4  12  25  45  78 101 143 194 239 287 363 421
#     4  11  25  45  72 106 143 185 240 298 349 426
#
# _framework density 23.724385999999999
#
# number of rings (size 3 to 8) (size 9 to 14) (size 15 to 20)
#    0.000    0.571    2.857    5.143    6.000    6.857 
#    0.000    0.000    0.000    0.000    0.000    0.000 
#    0.000    0.000    0.000    0.000    0.000    0.000 
#
# Total GULP energy -78067.740914 kJ/mol
# GULP energy per Si atom -5576.267208 kJ/mol
# Density = 2.367039 g / cm^3
# Si number density = 23.724386 Si / 1000 Ang^3
#
#
#
# Elastic Constant Matrix: (Units=GPa)
#
#
# Indices 1 2 3 4 5 6 
#
# 1 79.8579 18.0115 15.5655 -7.5259 2.7350 -0.1794
# 2 18.0115 107.3146 25.8681 -7.6453 9.8933 -23.5722
# 3 15.5655 25.8681 128.6736 -9.1710 8.9648 -12.8582
# 4 -7.5259 -7.6453 -9.1710 41.7494 3.0216 4.5224
# 5 2.7350 9.8933 8.9648 3.0216 42.3204 -6.8711
# 6 -0.1794 -23.5722 -12.8582 4.5224 -6.8711 41.2805
#
#
#
# Elastic Compliance Matrix: (Units=1/GPa)
#
#
# Indices 1 2 3 4 5 6 
#
# 1 0.013452 -0.002188 -0.001193 0.002005 -0.000553 -0.001874
# 2 -0.002188 0.011465 -0.001300 0.000891 -0.001385 0.005804
# 3 -0.001193 -0.001300 0.008516 0.001342 -0.001267 0.001547
# 4 0.002005 0.000891 0.001342 0.025222 -0.002795 -0.002293
# 5 -0.000553 -0.001385 -0.001267 -0.002795 0.024989 0.003278
# 6 -0.001874 0.005804 0.001547 -0.002293 0.003278 0.028809
#
#
# Mechanical properties :
#
#
# Convention : Reuss Voigt Hill
#
# Bulk Modulus (GPa) = 41.54574 48.30403 44.92489
# Shear Modulus (GPa) = 38.50888 42.16345 40.33616
#
# Velocity S-wave (km/s) = 4.03324 4.22028 4.12782
# Velocity P-wave (km/s) = 6.26412 6.64473 6.45723
#
# Compressibility (1/GPa) = 0.02406985
#
# Stress axis : x y z
#
# Youngs Moduli (GPa) = 74.33833 87.22107 117.42793
#
# Poissons Ratio (x) = 0.19084 0.14013
# Poissons Ratio (y) = 0.16266 0.15268
# Poissons Ratio (z) = 0.08871 0.11341
#
# Static dielectric constant tensor:
#      x y z
#    x 2.084710 0.110840 -0.168260 
#    y 0.110840 2.115070 -0.054540 
#    z -0.168260 -0.054540 1.962800 
# 
# From -- ./inp_files/217090.got.cif
#   From: 2010.05.17/outbox.cif.g08.bks.cpg/sg2_109_cif.got.tgz:217090.got - 2010.06.03 11:33:40.
