data_PCOD9064270
_publ_section_title
;
Structure prediction by ZEFSAII (Michael W. Deem and Ramdas Pophale) SiO2 
 PCOD9064270
Probable space group: P -1
;
_chemical_formula_sum "Si O2"
_cell_formula_units_Z 12
_cell_length_a 9.141272
_cell_length_b 15.700533
_cell_length_c 12.607865
_cell_angle_alpha 152.822392
_cell_angle_beta 127.889121
_cell_angle_gamma 42.756388
_cell_volume 556.628147
_symmetry_space_group_name_H-M "P -1"
_symmetry_group_IT_number 2
_symmetry_cell_setting 'triclinic'
loop_
_space_group_symop_operation_xyz
x,y,z
-x,-y,-z
loop_
_atom_site_type_symbol
_atom_site_label
_atom_site_fract_x
_atom_site_fract_y
_atom_site_fract_z
Si Si1 0.249395 0.654510 0.026967
Si Si2 0.738378 0.483888 0.351500
Si Si3 0.499094 0.651701 0.761696
Si Si4 0.969774 0.535322 0.899602
Si Si5 0.726694 0.940245 0.587154
Si Si6 0.220286 0.125322 0.214625
O O1 0.212027 0.886407 0.233382
O O2 0.500000 0.500000 0.000000
O O3 0.223040 0.544710 0.788161
O O4 0.086385 0.661516 0.049903
O O5 0.551077 0.445114 0.263207
O O6 0.697906 0.719813 0.623173
O O7 0.961029 0.288021 0.282944
O O8 0.500000 0.500000 0.500000
O O9 0.721945 0.645102 0.872959
O O10 0.309033 0.904334 0.943618
O O11 0.096642 0.299775 0.638807
O O12 0.000000 0.500000 0.000000
O O13 0.703719 0.947428 0.711705
O O14 0.500000 0.000000 0.500000
#
# Coordination Sequence:
#
# PCOD9064270 Si02
#       6
#     2   2   2   2   2   2
#     4  12  24  44  75 100 132 188 242 285 347 427
#     4  11  24  45  75  97 138 190 246 280 344 435
#     4  12  27  43  68 108 150 179 229 302 362 405
#     4  12  27  45  69 108 144 179 235 300 362 411
#     4  12  23  44  76 100 136 186 241 291 342 427
#     4  11  24  45  73 103 136 191 243 284 345 429
#
# _framework density 21.558375999999999
#
# number of rings (size 3 to 8) (size 9 to 14) (size 15 to 20)
#    0.000    0.333    5.000    3.500    4.667    2.667 
#    0.000    0.000    0.000    0.000    0.000    0.000 
#    0.000    0.000    0.000    0.000    0.000    0.000 
#
# Total GULP energy -67166.802263 kJ/mol
# GULP energy per Si atom -5597.233522 kJ/mol
# Density = 2.150931 g / cm^3
# Si number density = 21.558376 Si / 1000 Ang^3
#
#
#
# Elastic Constant Matrix: (Units=GPa)
#
#
# Indices 1 2 3 4 5 6 
#
# 1 129.9522 34.6569 27.3243 7.4283 28.5053 -3.0272
# 2 34.6569 96.4739 23.2812 -7.0299 8.7015 6.1863
# 3 27.3243 23.2812 132.4562 26.5754 7.4039 8.7809
# 4 7.4283 -7.0299 26.5754 46.9948 10.0892 3.0994
# 5 28.5053 8.7015 7.4039 10.0892 40.3530 -9.6051
# 6 -3.0272 6.1863 8.7809 3.0994 -9.6051 17.4591
#
#
#
# Elastic Compliance Matrix: (Units=1/GPa)
#
#
# Indices 1 2 3 4 5 6 
#
# 1 0.010071 -0.002726 -0.001248 0.000083 -0.006359 -0.000173
# 2 -0.002726 0.012880 -0.002011 0.004620 -0.003212 -0.006613
# 3 -0.001248 -0.002011 0.009421 -0.005244 0.000126 -0.003241
# 4 0.000083 0.004620 -0.005244 0.027451 -0.009061 -0.008843
# 5 -0.006359 -0.003212 0.000126 -0.009061 0.037494 0.022208
# 6 -0.000173 -0.006613 -0.003241 -0.008843 0.022208 0.075008
#
#
# Mechanical properties :
#
#
# Convention : Reuss Voigt Hill
#
# Bulk Modulus (GPa) = 49.01386 58.82301 53.91844
# Shear Modulus (GPa) = 26.16508 39.20273 32.68391
#
# Velocity S-wave (km/s) = 3.48758 4.26895 3.89789
# Velocity P-wave (km/s) = 6.24519 7.18632 6.73222
#
# Compressibility (1/GPa) = 0.02040239
#
# Stress axis : x y z
#
# Youngs Moduli (GPa) = 99.29890 77.63747 106.15144
#
# Poissons Ratio (x) = 0.21163 0.13248
# Poissons Ratio (y) = 0.27067 0.21344
# Poissons Ratio (z) = 0.12393 0.15611
#
# Static dielectric constant tensor:
#      x y z
#    x 1.821530 -0.037750 0.033150 
#    y -0.037750 1.804730 -0.025340 
#    z 0.033150 -0.025340 1.806490 
# 
# From -- ./inp_files/183441.got.cif
#   From: 2010.05.17/outbox.cif.g08.bks.cpg/sg2_92_cif.got.tgz:183441.got - 2010.06.03 11:33:40.
