data_PCOD9064705
_publ_section_title
;
Structure prediction by ZEFSAII (Michael W. Deem and Ramdas Pophale) SiO2 
 PCOD9064705
Probable space group: P -1
;
_chemical_formula_sum "Si O2"
_cell_formula_units_Z 12
_cell_length_a 13.912678
_cell_length_b 18.922238
_cell_length_c 13.296671
_cell_angle_alpha 155.191533
_cell_angle_beta 144.928858
_cell_angle_gamma 21.688679
_cell_volume 535.685690
_symmetry_space_group_name_H-M "P -1"
_symmetry_group_IT_number 2
_symmetry_cell_setting 'triclinic'
loop_
_space_group_symop_operation_xyz
x,y,z
-x,-y,-z
loop_
_atom_site_type_symbol
_atom_site_label
_atom_site_fract_x
_atom_site_fract_y
_atom_site_fract_z
Si Si1 0.359800 0.132593 0.351780
Si Si2 0.974620 0.710924 0.360585
Si Si3 0.499146 0.123521 0.064407
Si Si4 0.845045 0.957951 0.776446
Si Si5 0.651051 0.527826 0.105723
Si Si6 0.066136 0.967705 0.632449
O O1 0.274138 0.386122 0.639141
O O2 0.325262 0.118975 0.681303
O O3 0.206344 0.125887 0.283977
O O4 0.348941 0.085900 0.166968
O O5 0.200208 0.398720 0.132972
O O6 0.011417 0.838510 0.479975
O O7 0.002001 0.754596 0.555225
O O8 0.641997 0.187568 0.298367
O O9 0.500000 0.000000 0.000000
O O10 0.558969 0.229137 0.837130
O O11 0.000000 0.000000 0.000000
O O12 0.500000 0.500000 0.000000
O O13 0.881409 0.257921 0.894428
O O14 0.000000 0.000000 0.500000
#
# Coordination Sequence:
#
# PCOD9064705 Si02
#       6
#     2   2   2   2   2   2
#     4  11  25  47  74 101 141 184 236 296 347 418
#     4  11  24  49  67 103 143 187 234 287 356 414
#     4  12  29  44  70 105 141 189 238 290 352 419
#     4  11  25  43  74 104 140 185 230 294 350 419
#     4  11  24  46  72 102 140 183 238 286 355 409
#     4  12  27  46  72 104 146 188 231 291 352 423
#
# _framework density 22.401195999999999
#
# number of rings (size 3 to 8) (size 9 to 14) (size 15 to 20)
#    0.000    0.667    3.333    5.000    9.333    0.667 
#    0.000    0.000    0.000    0.000    0.000    0.000 
#    0.000    0.000    0.000    0.000    0.000    0.000 
#
# Total GULP energy -67215.644149 kJ/mol
# GULP energy per Si atom -5601.303679 kJ/mol
# Density = 2.235021 g / cm^3
# Si number density = 22.401196 Si / 1000 Ang^3
#
#
#
# Elastic Constant Matrix: (Units=GPa)
#
#
# Indices 1 2 3 4 5 6 
#
# 1 205.2944 30.7312 78.6413 -20.4988 -8.3541 2.8874
# 2 30.7312 81.0673 36.0633 2.6707 -4.8609 -2.7555
# 3 78.6413 36.0633 155.3686 -5.5335 -21.4059 10.8635
# 4 -20.4988 2.6707 -5.5335 57.1713 1.7848 4.7922
# 5 -8.3541 -4.8609 -21.4059 1.7848 42.7939 -7.8078
# 6 2.8874 -2.7555 10.8635 4.7922 -7.8078 37.1671
#
#
#
# Elastic Compliance Matrix: (Units=1/GPa)
#
#
# Indices 1 2 3 4 5 6 
#
# 1 0.006362 -0.001211 -0.002922 0.002077 -0.000461 -0.000095
# 2 -0.001211 0.014214 -0.002841 -0.001577 0.000438 0.002274
# 3 -0.002922 -0.002841 0.009173 0.000034 0.003335 -0.001969
# 4 0.002077 -0.001577 0.000034 0.018590 -0.001063 -0.002908
# 5 -0.000461 0.000438 0.003335 -0.001063 0.025892 0.004670
# 6 -0.000095 0.002274 -0.001969 -0.002908 0.004670 0.029013
#
#
# Mechanical properties :
#
#
# Convention : Reuss Voigt Hill
#
# Bulk Modulus (GPa) = 63.28938 81.40022 72.34480
# Shear Modulus (GPa) = 40.83039 47.17942 44.00491
#
# Velocity S-wave (km/s) = 4.27393 4.59422 4.43696
# Velocity P-wave (km/s) = 7.25736 8.03485 7.65598
#
# Compressibility (1/GPa) = 0.01580044
#
# Stress axis : x y z
#
# Youngs Moduli (GPa) = 157.19463 70.35368 109.01615
#
# Poissons Ratio (x) = 0.08520 0.31852
# Poissons Ratio (y) = 0.19037 0.30973
# Poissons Ratio (z) = 0.45929 0.19988
#
# Static dielectric constant tensor:
#      x y z
#    x 1.754030 -0.018010 -0.009210 
#    y -0.018010 1.879740 0.010260 
#    z -0.009210 0.010260 1.839540 
# 
# From -- ./inp_files/435207.got.cif
#   From: 2010.05.17/outbox.cif.g08.bks.cpg/sg2_218_cif.got.tgz:435207.got - 2010.06.03 11:33:40.
