data_PCOD9064647
_publ_section_title
;
Structure prediction by ZEFSAII (Michael W. Deem and Ramdas Pophale) SiO2 
 PCOD9064647
Probable space group: P -1
;
_chemical_formula_sum "Si O2"
_cell_formula_units_Z 16
_cell_length_a 15.224217
_cell_length_b 8.497239
_cell_length_c 9.407483
_cell_angle_alpha 72.589280
_cell_angle_beta 135.453381
_cell_angle_gamma 84.306901
_cell_volume 720.397427
_symmetry_space_group_name_H-M "P -1"
_symmetry_group_IT_number 2
_symmetry_cell_setting 'triclinic'
loop_
_space_group_symop_operation_xyz
x,y,z
-x,-y,-z
loop_
_atom_site_type_symbol
_atom_site_label
_atom_site_fract_x
_atom_site_fract_y
_atom_site_fract_z
Si Si1 0.065145 0.715638 0.340374
Si Si2 0.203358 0.210842 0.292087
Si Si3 0.512599 0.878182 0.186802
Si Si4 0.217093 0.973579 0.942724
Si Si5 0.192426 0.707223 0.778487
Si Si6 0.983672 0.432547 0.206922
Si Si7 0.227827 0.835334 0.290805
Si Si8 0.507573 0.507253 0.176888
O O1 0.170926 0.714139 0.583624
O O2 0.076554 0.518520 0.364797
O O3 0.102941 0.800584 0.222806
O O4 0.910618 0.837019 0.198003
O O5 0.353979 0.157735 0.551676
O O6 0.085204 0.271237 0.262215
O O7 0.213707 0.033090 0.269377
O O8 0.139171 0.394611 0.068338
O O9 0.532193 0.679996 0.206825
O O10 0.364535 0.972341 0.078141
O O11 0.500000 0.000000 0.000000
O O12 0.173441 0.899544 0.771906
O O13 0.234908 0.830472 0.129821
O O14 0.084618 0.646385 0.738549
O O15 0.351887 0.556121 0.038768
O O16 0.371670 0.677053 0.565731
O O17 0.500000 0.500000 0.000000
#
# Coordination Sequence:
#
# PCOD9064647 Si02
#       8
#     2   2   2   2   2   2   2   2
#     4  12  24  46  72 102 140 184 234 286 350 409
#     4  11  26  45  69 102 141 183 229 293 351 400
#     4  11  27  46  71 103 144 181 231 289 349 413
#     4  11  27  44  72 106 136 188 229 285 350 417
#     4  11  26  43  72 100 144 178 233 288 346 419
#     4  11  26  44  71 104 138 181 237 288 351 406
#     4  12  25  46  73  99 146 183 235 284 342 423
#     4  11  24  46  71 103 135 189 227 281 353 411
#
# _framework density 22.209961
#
# number of rings (size 3 to 8) (size 9 to 14) (size 15 to 20)
#    0.000    0.750    2.500    3.375   10.500    3.500 
#    0.000    0.000    0.000    0.000    0.000    0.000 
#    0.000    0.000    0.000    0.000    0.000    0.000 
#
# Total GULP energy -89588.894517 kJ/mol
# GULP energy per Si atom -5599.305907 kJ/mol
# Density = 2.215941 g / cm^3
# Si number density = 22.209961 Si / 1000 Ang^3
#
#
#
# Elastic Constant Matrix: (Units=GPa)
#
#
# Indices 1 2 3 4 5 6 
#
# 1 122.4593 11.2785 24.8135 -1.0921 7.3479 6.0364
# 2 11.2785 62.8944 30.0852 13.4868 12.5429 -4.6109
# 3 24.8135 30.0852 100.8596 4.9109 13.0119 -4.6105
# 4 -1.0921 13.4868 4.9109 39.6004 -4.0139 3.8595
# 5 7.3479 12.5429 13.0119 -4.0139 32.8169 0.5771
# 6 6.0364 -4.6109 -4.6105 3.8595 0.5771 29.5794
#
#
#
# Elastic Compliance Matrix: (Units=1/GPa)
#
#
# Indices 1 2 3 4 5 6 
#
# 1 0.008812 -0.000872 -0.001971 0.000942 -0.000702 -0.002351
# 2 -0.000872 0.021802 -0.004775 -0.007987 -0.007292 0.004017
# 3 -0.001971 -0.004775 0.012264 -0.000383 -0.002672 0.001671
# 4 0.000942 -0.007987 -0.000383 0.029252 0.006667 -0.005444
# 5 -0.000702 -0.007292 -0.002672 0.006667 0.035343 -0.002969
# 6 -0.002351 0.004017 0.001671 -0.005444 -0.002969 0.035942
#
#
# Mechanical properties :
#
#
# Convention : Reuss Voigt Hill
#
# Bulk Modulus (GPa) = 36.17760 46.50755 41.34257
# Shear Modulus (GPa) = 29.78581 35.06842 32.42711
#
# Velocity S-wave (km/s) = 3.66608 3.97791 3.82517
# Velocity P-wave (km/s) = 5.85187 6.48720 6.17771
#
# Compressibility (1/GPa) = 0.02764142
#
# Stress axis : x y z
#
# Youngs Moduli (GPa) = 113.48194 45.86786 81.54055
#
# Poissons Ratio (x) = 0.04000 0.16068
# Poissons Ratio (y) = 0.09896 0.38939
# Poissons Ratio (z) = 0.22363 0.21904
#
# Static dielectric constant tensor:
#      x y z
#    x 1.783270 -0.017780 0.005140 
#    y -0.017780 1.777530 0.006210 
#    z 0.005140 0.006210 1.850500 
# 
# From -- ./inp_files/297987.got.cif
#   From: 2010.05.17/outbox.cif.g08.bks.cpg/sg2_149_cif.got.tgz:297987.got - 2010.06.03 11:33:40.
