data_PCOD9064905
_publ_section_title
;
Structure prediction by ZEFSAII (Michael W. Deem and Ramdas Pophale) SiO2 
 PCOD9064905
Probable space group: P -1
;
_chemical_formula_sum "Si O2"
_cell_formula_units_Z 14
_cell_length_a 22.896565
_cell_length_b 11.335708
_cell_length_c 8.769390
_cell_angle_alpha 40.547767
_cell_angle_beta 31.655065
_cell_angle_gamma 27.018852
_cell_volume 542.629824
_symmetry_space_group_name_H-M "P -1"
_symmetry_group_IT_number 2
_symmetry_cell_setting 'triclinic'
loop_
_space_group_symop_operation_xyz
x,y,z
-x,-y,-z
loop_
_atom_site_type_symbol
_atom_site_label
_atom_site_fract_x
_atom_site_fract_y
_atom_site_fract_z
Si Si1 0.660561 0.681841 0.185958
Si Si2 0.059032 0.786542 0.784386
Si Si3 0.090570 0.155203 0.249848
Si Si4 0.508786 0.486697 0.735266
Si Si5 0.426023 0.915385 0.834570
Si Si6 0.753160 0.112123 0.310597
Si Si7 0.129527 0.418808 0.419525
O O1 0.536762 0.668713 0.514104
O O2 0.597013 0.958391 0.074554
O O3 0.797863 0.493634 0.190558
O O4 0.751926 0.573459 0.928534
O O5 0.977300 0.773586 0.840108
O O6 0.114229 0.916728 0.474962
O O7 0.931196 0.969130 0.022831
O O8 0.965873 0.388457 0.415956
O O9 0.259491 0.054394 0.992663
O O10 0.673967 0.239165 0.525439
O O11 0.361381 0.653369 0.784492
O O12 0.484290 0.375514 0.036587
O O13 0.500000 0.000000 0.500000
O O14 0.768368 0.878901 0.475024
O O15 0.000000 0.500000 0.500000
#
# Coordination Sequence:
#
# PCOD9064905 Si02
#       7
#     2   2   2   2   2   2   2
#     4  12  25  46  79 110 144 202 253 309 380 440
#     4  11  25  45  77 112 150 200 243 320 379 433
#     4  11  25  47  74 113 153 192 258 308 375 451
#     4  11  26  49  71 110 157 194 258 304 377 459
#     4  12  27  47  75 106 152 204 249 306 382 454
#     4  11  24  46  75 110 152 198 245 321 373 438
#     4  12  22  44  79 111 146 191 259 314 368 443
#
# _framework density 25.800277000000001
#
# number of rings (size 3 to 8) (size 9 to 14) (size 15 to 20)
#    0.000    0.571    5.714    0.857    2.000    6.857 
#    2.571    0.000    0.000    0.000    0.000    0.000 
#    0.000    0.000    0.000    0.000    0.000    0.000 
#
# Total GULP energy -78440.248185 kJ/mol
# GULP energy per Si atom -5602.874870 kJ/mol
# Density = 2.574155 g / cm^3
# Si number density = 25.800277 Si / 1000 Ang^3
#
#
#
# Elastic Constant Matrix: (Units=GPa)
#
#
# Indices 1 2 3 4 5 6 
#
# 1 86.5447 25.3857 31.7895 -10.4609 -7.7649 16.9474
# 2 25.3857 80.8442 17.8205 -8.7365 8.4614 17.7873
# 3 31.7895 17.8205 162.7340 -19.2451 -7.8623 -0.8558
# 4 -10.4609 -8.7365 -19.2451 41.9240 6.8828 4.7223
# 5 -7.7649 8.4614 -7.8623 6.8828 38.7880 -2.7040
# 6 16.9474 17.7873 -0.8558 4.7223 -2.7040 38.7003
#
#
#
# Elastic Compliance Matrix: (Units=1/GPa)
#
#
# Indices 1 2 3 4 5 6 
#
# 1 0.014756 -0.003006 -0.002200 0.002241 0.002401 -0.005235
# 2 -0.003006 0.016046 -0.001021 0.003803 -0.005467 -0.006927
# 3 -0.002200 -0.001021 0.006991 0.002141 0.000916 0.001390
# 4 0.002241 0.003803 0.002141 0.027788 -0.005327 -0.006445
# 5 0.002401 -0.005467 0.000916 -0.005327 0.028875 0.004149
# 6 -0.005235 -0.006927 0.001390 -0.006445 0.004149 0.032423
#
#
# Mechanical properties :
#
#
# Convention : Reuss Voigt Hill
#
# Bulk Modulus (GPa) = 39.46380 53.34600 46.40490
# Shear Modulus (GPa) = 33.83476 40.89093 37.36285
#
# Velocity S-wave (km/s) = 3.62527 3.98540 3.80959
# Velocity P-wave (km/s) = 5.73171 6.47297 6.11359
#
# Compressibility (1/GPa) = 0.02533968
#
# Stress axis : x y z
#
# Youngs Moduli (GPa) = 67.76973 62.32258 143.03600
#
# Poissons Ratio (x) = 0.18734 0.31465
# Poissons Ratio (y) = 0.20371 0.14600
# Poissons Ratio (z) = 0.14908 0.06361
#
# Static dielectric constant tensor:
#      x y z
#    x 2.042820 0.087060 0.048140 
#    y 0.087060 2.013560 0.039860 
#    z 0.048140 0.039860 2.060270 
# 
# From -- ./inp_files/353775.got.cif
#   From: 2010.05.17/outbox.cif.g08.bks.cpg/sg2_177_cif.got.tgz:353775.got - 2010.06.03 11:33:40.
