data_PCOD9064086
_publ_section_title
;
Structure prediction by ZEFSAII (Michael W. Deem and Ramdas Pophale) SiO2 
 PCOD9064086
Probable space group: P -1
;
_chemical_formula_sum "Si O2"
_cell_formula_units_Z 16
_cell_length_a 22.302673
_cell_length_b 9.958329
_cell_length_c 15.365918
_cell_angle_alpha 68.449727
_cell_angle_beta 160.807513
_cell_angle_gamma 123.816181
_cell_volume 759.640562
_symmetry_space_group_name_H-M "P -1"
_symmetry_group_IT_number 2
_symmetry_cell_setting 'triclinic'
loop_
_space_group_symop_operation_xyz
x,y,z
-x,-y,-z
loop_
_atom_site_type_symbol
_atom_site_label
_atom_site_fract_x
_atom_site_fract_y
_atom_site_fract_z
Si Si1 0.929894 0.617318 0.341753
Si Si2 0.531601 0.574429 0.621911
Si Si3 0.079424 0.252805 0.362182
Si Si4 0.283178 0.661981 0.526241
Si Si5 0.878618 0.165730 0.612744
Si Si6 0.621040 0.727085 0.386519
Si Si7 0.526767 0.878963 0.630552
Si Si8 0.218064 0.234884 0.747865
O O1 0.853682 0.687131 0.295945
O O2 0.000000 0.500000 0.500000
O O3 0.139173 0.798904 0.521880
O O4 0.676800 0.441704 0.985461
O O5 0.500000 0.500000 0.500000
O O6 0.337555 0.368817 0.459316
O O7 0.488265 0.714866 0.558784
O O8 0.830980 0.720215 0.010853
O O9 0.081567 0.423729 0.302183
O O10 0.261662 0.270639 0.541234
O O11 0.197435 0.295206 0.609716
O O12 0.803826 0.038844 0.017056
O O13 0.193161 0.736729 0.450422
O O14 0.345180 0.763549 0.492803
O O15 0.530514 0.713321 0.891055
O O16 0.719053 0.941909 0.478152
O O17 0.500000 0.000000 0.500000
O O18 0.000000 0.000000 0.500000
#
# Coordination Sequence:
#
# PCOD9064086 Si02
#       8
#     2   2   2   2   2   2   2   2
#     4  11  25  44  64 103 142 181 229 279 337 410
#     4  11  26  49  71  99 136 179 233 289 346 408
#     4  12  24  46  74  99 143 186 229 284 349 411
#     4  12  26  46  70 110 139 181 237 280 348 419
#     4  11  26  44  70 102 140 182 229 283 345 409
#     4  11  24  45  70  95 141 183 225 284 343 413
#     4  12  28  48  73 103 139 181 234 293 346 410
#     4  12  24  43  73 100 143 186 226 285 344 410
#
# _framework density 21.062594000000001
#
# number of rings (size 3 to 8) (size 9 to 14) (size 15 to 20)
#    0.000    0.500    5.000    2.625    7.000    3.500 
#    0.000    0.000    0.000    0.000    0.000    0.000 
#    0.000    0.000    0.000    0.000    0.000    0.000 
#
# Total GULP energy -89331.997879 kJ/mol
# GULP energy per Si atom -5583.249867 kJ/mol
# Density = 2.101466 g / cm^3
# Si number density = 21.062594 Si / 1000 Ang^3
#
#
#
# Elastic Constant Matrix: (Units=GPa)
#
#
# Indices 1 2 3 4 5 6 
#
# 1 86.3769 31.3200 -9.4729 -21.4752 7.2194 13.7820
# 2 31.3200 141.7229 1.6230 -0.9691 7.5352 -0.1436
# 3 -9.4729 1.6230 9.0732 0.1221 -0.1220 4.4411
# 4 -21.4752 -0.9691 0.1221 39.4355 -3.3010 5.1188
# 5 7.2194 7.5352 -0.1220 -3.3010 28.3238 -6.8478
# 6 13.7820 -0.1436 4.4411 5.1188 -6.8478 45.5976
#
#
#
# Elastic Compliance Matrix: (Units=1/GPa)
#
#
# Indices 1 2 3 4 5 6 
#
# 1 0.022165 -0.004863 0.029581 0.012934 -0.005595 -0.011888
# 2 -0.004863 0.008241 -0.007725 -0.002801 -0.000719 0.002455
# 3 0.029581 -0.007725 0.155605 0.018233 -0.009355 -0.027573
# 4 0.012934 -0.002801 0.018233 0.033445 -0.000892 -0.009582
# 5 -0.005595 -0.000719 -0.009355 -0.000892 0.038842 0.008533
# 6 -0.011888 0.002455 -0.027573 -0.009582 0.008533 0.030575
#
#
# Mechanical properties :
#
#
# Convention : Reuss Voigt Hill
#
# Bulk Modulus (GPa) = 4.54555 31.56814 18.05684
# Shear Modulus (GPa) = 15.23373 36.91823 26.07598
#
# Velocity S-wave (km/s) = 2.69227 4.19117 3.52237
# Velocity P-wave (km/s) = 3.43907 6.20012 5.01342
#
# Compressibility (1/GPa) = 0.21999515
#
# Stress axis : x y z
#
# Youngs Moduli (GPa) = 45.11678 121.34754 6.42654
#
# Poissons Ratio (x) = 0.59013 -0.19010
# Poissons Ratio (y) = 0.21941 0.04964
# Poissons Ratio (z) = -1.33458 0.93741
#
# Static dielectric constant tensor:
#      x y z
#    x 1.806710 0.184330 -0.093970 
#    y 0.184330 1.972480 -0.100400 
#    z -0.093970 -0.100400 1.818870 
# 
# From -- ./inp_files/246059.got.cif
#   From: 2010.05.17/outbox.cif.g08.bks.cpg/sg2_124_cif.got.tgz:246059.got - 2010.06.03 11:33:40.
