data_PCOD9064276
_publ_section_title
;
Structure prediction by ZEFSAII (Michael W. Deem and Ramdas Pophale) SiO2 
 PCOD9064276
Probable space group: P -1
;
_chemical_formula_sum "Si O2"
_cell_formula_units_Z 15
_cell_length_a 8.614630
_cell_length_b 12.540694
_cell_length_c 15.819382
_cell_angle_alpha 52.952588
_cell_angle_beta 85.231582
_cell_angle_gamma 130.001351
_cell_volume 667.452229
_symmetry_space_group_name_H-M "P -1"
_symmetry_group_IT_number 2
_symmetry_cell_setting 'triclinic'
loop_
_space_group_symop_operation_xyz
x,y,z
-x,-y,-z
loop_
_atom_site_type_symbol
_atom_site_label
_atom_site_fract_x
_atom_site_fract_y
_atom_site_fract_z
Si Si1 0.431046 0.449829 0.781131
Si Si2 0.337302 0.616118 0.588645
Si Si3 0.673516 0.253214 0.184806
Si Si4 0.258884 0.197779 0.644380
Si Si5 0.245166 0.772262 0.303552
Si Si6 0.376686 0.311253 0.169686
Si Si7 0.500000 0.000000 0.500000
Si Si8 0.726169 0.924167 0.125084
O O1 0.499661 0.612745 0.630697
O O2 0.638741 0.622199 0.773149
O O3 0.461492 0.322578 0.806175
O O4 0.059646 0.205001 0.932645
O O5 0.560360 0.791144 0.412419
O O6 0.352462 0.755941 0.579391
O O7 0.984884 0.327837 0.706515
O O8 0.602829 0.356009 0.154947
O O9 0.419211 0.000537 0.251328
O O10 0.640001 0.153355 0.324020
O O11 0.000000 0.500000 0.000000
O O12 0.500000 0.500000 0.500000
O O13 0.163512 0.079183 0.797514
O O14 0.951495 0.996022 0.700089
O O15 0.500932 0.873879 0.192005
O O16 0.000000 0.500000 0.500000
O O17 0.500000 0.500000 0.000000
#
# Coordination Sequence:
#
# PCOD9064276 Si02
#       8
#     2   2   2   2   2   2   1   2
#     4  11  25  47  70 108 146 187 242 315 363 447
#     4  12  26  46  72 104 147 189 247 309 372 438
#     4  12  28  51  78 110 156 201 251 316 381 448
#     4  12  24  44  73 102 142 188 238 302 366 437
#     4  12  25  46  77 106 142 203 248 300 386 448
#     4  12  27  47  77 107 146 200 249 300 382 449
#     4  12  26  48  74 108 156 194 250 312 372 448
#     4  11  24  45  73 103 147 184 243 302 367 442
#
# _framework density 22.473520000000001
#
# number of rings (size 3 to 8) (size 9 to 14) (size 15 to 20)
#    0.000    0.267    6.667    1.600    1.867    2.133 
#    0.000    0.000    0.000    0.000    0.000    0.000 
#    0.000    0.000    0.000    0.000    0.000    0.000 
#
# Total GULP energy -83595.549446 kJ/mol
# GULP energy per Si atom -5573.036630 kJ/mol
# Density = 2.242237 g / cm^3
# Si number density = 22.473520 Si / 1000 Ang^3
#
#
#
# Elastic Constant Matrix: (Units=GPa)
#
#
# Indices 1 2 3 4 5 6 
#
# 1 44.6513 16.5865 13.0197 10.1992 -1.9211 -3.2328
# 2 16.5865 187.0522 26.7621 4.8907 5.4312 -20.6460
# 3 13.0197 26.7621 98.3293 12.4246 11.8077 5.3665
# 4 10.1992 4.8907 12.4246 33.8780 -4.2948 2.5391
# 5 -1.9211 5.4312 11.8077 -4.2948 31.2533 7.4205
# 6 -3.2328 -20.6460 5.3665 2.5391 7.4205 38.4167
#
#
#
# Elastic Compliance Matrix: (Units=1/GPa)
#
#
# Indices 1 2 3 4 5 6 
#
# 1 0.025346 -0.001585 -0.002372 -0.006484 0.001419 0.001767
# 2 -0.001585 0.006155 -0.001435 -0.000359 -0.001552 0.003698
# 3 -0.002372 -0.001435 0.012012 -0.003958 -0.004624 -0.001494
# 4 -0.006484 -0.000359 -0.003958 0.034107 0.006734 -0.003741
# 5 0.001419 -0.001552 -0.004624 0.006734 0.036837 -0.007629
# 6 0.001767 0.003698 -0.001494 -0.003741 -0.007629 0.030096
#
#
# Mechanical properties :
#
#
# Convention : Reuss Voigt Hill
#
# Bulk Modulus (GPa) = 30.55505 49.19659 39.87582
# Shear Modulus (GPa) = 30.07566 38.95389 34.51478
#
# Velocity S-wave (km/s) = 3.66221 4.16784 3.92318
# Velocity P-wave (km/s) = 5.61319 6.71562 6.18900
#
# Compressibility (1/GPa) = 0.03272782
#
# Stress axis : x y z
#
# Youngs Moduli (GPa) = 39.45344 162.47901 83.25320
#
# Poissons Ratio (x) = 0.25749 0.19750
# Poissons Ratio (y) = 0.06252 0.11950
# Poissons Ratio (z) = 0.09359 0.23322
#
# Static dielectric constant tensor:
#      x y z
#    x 1.845040 -0.003780 0.008970 
#    y -0.003780 1.831780 -0.014430 
#    z 0.008970 -0.014430 1.818110 
# 
# From -- ./inp_files/391383.got.cif
#   From: 2010.05.17/outbox.cif.g08.bks.cpg/sg2_196_cif.got.tgz:391383.got - 2010.06.03 11:33:40.
