data_PCOD9064698
_publ_section_title
;
Structure prediction by ZEFSAII (Michael W. Deem and Ramdas Pophale) SiO2 
 PCOD9064698
Probable space group: P -1
;
_chemical_formula_sum "Si O2"
_cell_formula_units_Z 16
_cell_length_a 18.655905
_cell_length_b 17.045616
_cell_length_c 6.742828
_cell_angle_alpha 107.786969
_cell_angle_beta 110.270219
_cell_angle_gamma 21.969983
_cell_volume 751.755569
_symmetry_space_group_name_H-M "P -1"
_symmetry_group_IT_number 2
_symmetry_cell_setting 'triclinic'
loop_
_space_group_symop_operation_xyz
x,y,z
-x,-y,-z
loop_
_atom_site_type_symbol
_atom_site_label
_atom_site_fract_x
_atom_site_fract_y
_atom_site_fract_z
Si Si1 0.758605 0.397313 0.815229
Si Si2 0.106657 0.960918 0.709638
Si Si3 0.301523 0.711148 0.087624
Si Si4 0.893834 0.517753 0.899839
Si Si5 0.847117 0.834469 0.432747
Si Si6 0.528295 0.882591 0.533699
Si Si7 0.787119 0.528440 0.202865
Si Si8 0.623648 0.226512 0.471436
O O1 0.732609 0.334742 0.846404
O O2 0.604604 0.561481 0.617938
O O3 0.975255 0.172848 0.765809
O O4 0.734823 0.493675 0.023648
O O5 0.304090 0.792892 0.663739
O O6 0.000000 0.000000 0.500000
O O7 0.146758 0.881038 0.897927
O O8 0.325467 0.767955 0.288672
O O9 0.500000 0.500000 0.000000
O O10 0.696646 0.718925 0.736082
O O11 0.045502 0.307994 0.768175
O O12 0.837725 0.539446 0.078708
O O13 0.000000 0.500000 0.000000
O O14 0.019649 0.672455 0.633698
O O15 0.676154 0.944872 0.437853
O O16 0.739560 0.027008 0.440179
O O17 0.614624 0.735392 0.334522
O O18 0.500000 0.000000 0.500000
#
# Coordination Sequence:
#
# PCOD9064698 Si02
#       8
#     2   2   2   2   2   2   2   2
#     4  12  25  44  67  96 134 175 225 275 334 393
#     4  12  25  43  67  93 128 176 226 273 333 392
#     4  12  25  44  67  95 132 178 224 278 332 392
#     4  11  24  46  72 101 137 174 222 273 333 408
#     4  11  26  44  68 100 138 175 222 278 334 396
#     4  11  25  45  71 103 135 177 219 272 338 402
#     4  11  26  44  67 102 136 176 222 277 333 398
#     4  12  26  45  65  97 134 174 225 278 329 396
#
# _framework density 21.283511000000001
#
# number of rings (size 3 to 8) (size 9 to 14) (size 15 to 20)
#    0.000    0.500    2.500    5.250    3.500    9.000 
#    0.000    0.000    0.000    0.000    0.000    0.000 
#    0.000    0.000    0.000    0.000    0.000    0.000 
#
# Total GULP energy -89569.979831 kJ/mol
# GULP energy per Si atom -5598.123739 kJ/mol
# Density = 2.123507 g / cm^3
# Si number density = 21.283511 Si / 1000 Ang^3
#
#
#
# Elastic Constant Matrix: (Units=GPa)
#
#
# Indices 1 2 3 4 5 6 
#
# 1 43.4147 -1.3733 -5.4421 -6.9069 3.2149 6.9461
# 2 -1.3733 99.7902 21.2041 -13.1708 0.9248 6.3662
# 3 -5.4421 21.2041 97.3688 -14.4145 9.3420 9.5177
# 4 -6.9069 -13.1708 -14.4145 31.4158 0.6358 -3.8102
# 5 3.2149 0.9248 9.3420 0.6358 42.2187 6.8277
# 6 6.9461 6.3662 9.5177 -3.8102 6.8277 39.4664
#
#
#
# Elastic Compliance Matrix: (Units=1/GPa)
#
#
# Indices 1 2 3 4 5 6 
#
# 1 0.025329 0.000935 0.002825 0.006776 -0.001982 -0.004293
# 2 0.000935 0.010976 -0.001663 0.003896 0.000190 -0.001191
# 3 0.002825 -0.001663 0.012023 0.005228 -0.002565 -0.002180
# 4 0.006776 0.003896 0.005228 0.037521 -0.002480 0.000970
# 5 -0.001982 0.000190 -0.002565 -0.002480 0.025025 -0.003632
# 6 -0.004293 -0.001191 -0.002180 0.000970 -0.003632 0.027533
#
#
# Mechanical properties :
#
#
# Convention : Reuss Voigt Hill
#
# Bulk Modulus (GPa) = 19.03963 29.92788 24.48376
# Shear Modulus (GPa) = 32.95520 37.69918 35.32719
#
# Velocity S-wave (km/s) = 3.93923 4.21323 4.07853
# Velocity P-wave (km/s) = 5.44566 6.14496 5.80584
#
# Compressibility (1/GPa) = 0.05252203
#
# Stress axis : x y z
#
# Youngs Moduli (GPa) = 39.48033 91.11090 83.17047
#
# Poissons Ratio (x) = -0.08518 -0.23496
# Poissons Ratio (y) = -0.03691 0.13832
# Poissons Ratio (z) = -0.11153 0.15152
#
# Static dielectric constant tensor:
#      x y z
#    x 1.610370 0.218040 -0.078320 
#    y 0.218040 1.372530 0.115720 
#    z -0.078320 0.115720 1.715260 
# 
# From -- ./inp_files/120131.got.cif
#   From: 2010.05.17/outbox.cif.g08.bks.cpg/sg2_61_cif.got.tgz:120131.got - 2010.06.03 11:33:40.
