data_PCOD9064436
_publ_section_title
;
Structure prediction by ZEFSAII (Michael W. Deem and Ramdas Pophale) SiO2 
 PCOD9064436
Probable space group: P -1
;
_chemical_formula_sum "Si O2"
_cell_formula_units_Z 14
_cell_length_a 7.645136
_cell_length_b 5.770163
_cell_length_c 14.330468
_cell_angle_alpha 71.730862
_cell_angle_beta 108.443120
_cell_angle_gamma 114.685586
_cell_volume 532.698066
_symmetry_space_group_name_H-M "P -1"
_symmetry_group_IT_number 2
_symmetry_cell_setting 'triclinic'
loop_
_space_group_symop_operation_xyz
x,y,z
-x,-y,-z
loop_
_atom_site_type_symbol
_atom_site_label
_atom_site_fract_x
_atom_site_fract_y
_atom_site_fract_z
Si Si1 0.620819 0.104741 0.413650
Si Si2 0.052076 0.819369 0.129489
Si Si3 0.292402 0.352355 0.034301
Si Si4 0.103721 0.413162 0.317609
Si Si5 0.834117 0.691613 0.450420
Si Si6 0.845661 0.936653 0.248444
Si Si7 0.447791 0.437298 0.248235
O O1 0.737999 0.400119 0.432686
O O2 0.518616 0.188373 0.296439
O O3 0.500000 0.000000 0.500000
O O4 0.709022 0.881200 0.428161
O O5 0.132653 0.688327 0.241530
O O6 0.925817 0.947059 0.156675
O O7 0.221826 0.037154 0.074145
O O8 0.892337 0.627784 0.056633
O O9 0.322988 0.443920 0.134800
O O10 0.500000 0.500000 0.000000
O O11 0.082923 0.347687 0.430821
O O12 0.303363 0.381252 0.319248
O O13 0.903059 0.229379 0.256838
O O14 0.960518 0.839723 0.363596
O O15 0.631320 0.711316 0.244579
#
# Coordination Sequence:
#
# PCOD9064436 Si02
#       7
#     2   2   2   2   2   2   2
#     4  11  24  45  75 115 154 206 264 312 373 478
#     4  11  27  47  77 109 151 190 265 316 386 465
#     4  11  24  50  78 106 144 202 250 331 390 458
#     4  12  27  47  74 111 152 205 248 319 381 464
#     4  11  27  44  77 113 163 209 253 310 390 457
#     4  11  26  48  70 115 150 197 256 311 373 477
#     4  11  25  46  78 105 151 199 258 312 396 447
#
# _framework density 26.281305
#
# number of rings (size 3 to 8) (size 9 to 14) (size 15 to 20)
#    0.000    0.857    4.286    0.857   10.000    2.286 
#    0.000    1.429    0.000    0.000    0.000    0.000 
#    0.000    0.000    0.000    0.000    0.000    0.000 
#
# Total GULP energy -78118.472727 kJ/mol
# GULP energy per Si atom -5579.890909 kJ/mol
# Density = 2.622149 g / cm^3
# Si number density = 26.281305 Si / 1000 Ang^3
#
#
#
# Elastic Constant Matrix: (Units=GPa)
#
#
# Indices 1 2 3 4 5 6 
#
# 1 115.3071 54.0664 26.8079 -16.1316 -14.0345 8.9849
# 2 54.0664 135.7506 49.3050 -3.8735 4.7551 24.2081
# 3 26.8079 49.3050 175.6459 0.0138 -6.1413 1.6918
# 4 -16.1316 -3.8735 0.0138 53.2843 9.7363 -3.0902
# 5 -14.0345 4.7551 -6.1413 9.7363 38.7108 -11.7256
# 6 8.9849 24.2081 1.6918 -3.0902 -11.7256 53.5383
#
#
#
# Elastic Compliance Matrix: (Units=1/GPa)
#
#
# Indices 1 2 3 4 5 6 
#
# 1 0.011874 -0.004984 -0.000263 0.002458 0.004693 0.001439
# 2 -0.004984 0.011436 -0.002581 -0.000031 -0.005250 -0.005405
# 3 -0.000263 -0.002581 0.006508 -0.000518 0.001799 0.001370
# 4 0.002458 -0.000031 -0.000518 0.020293 -0.004340 -0.000161
# 5 0.004693 -0.005250 0.001799 -0.004340 0.032071 0.008303
# 6 0.001439 -0.005405 0.001370 -0.000161 0.008303 0.022646
#
#
# Mechanical properties :
#
#
# Convention : Reuss Voigt Hill
#
# Bulk Modulus (GPa) = 70.61852 76.34022 73.47937
# Shear Modulus (GPa) = 39.93467 48.87497 44.40482
#
# Velocity S-wave (km/s) = 3.90232 4.31709 4.11493
# Velocity P-wave (km/s) = 6.87260 7.34575 7.11311
#
# Compressibility (1/GPa) = 0.01416059
#
# Stress axis : x y z
#
# Youngs Moduli (GPa) = 84.21924 87.44462 153.66519
#
# Poissons Ratio (x) = 0.43586 0.04042
# Poissons Ratio (y) = 0.41978 0.39659
# Poissons Ratio (z) = 0.02215 0.22568
#
# Static dielectric constant tensor:
#      x y z
#    x 2.219600 -0.018620 0.138070 
#    y -0.018620 2.175880 0.045240 
#    z 0.138070 0.045240 2.127720 
# 
# From -- ./inp_files/488214.got.cif
#   From: 2010.05.17/outbox.cif.g08.bks.cpg/sg2_245_cif.got.tgz:488214.got - 2010.06.03 11:33:40.
