data_PCOD9064402
_publ_section_title
;
Structure prediction by ZEFSAII (Michael W. Deem and Ramdas Pophale) SiO2 
 PCOD9064402
Probable space group: P -1
;
_chemical_formula_sum "Si O2"
_cell_formula_units_Z 10
_cell_length_a 22.218085
_cell_length_b 6.810758
_cell_length_c 23.426882
_cell_angle_alpha 139.583042
_cell_angle_beta 12.570240
_cell_angle_gamma 136.873511
_cell_volume 498.001727
_symmetry_space_group_name_H-M "P -1"
_symmetry_group_IT_number 2
_symmetry_cell_setting 'triclinic'
loop_
_space_group_symop_operation_xyz
x,y,z
-x,-y,-z
loop_
_atom_site_type_symbol
_atom_site_label
_atom_site_fract_x
_atom_site_fract_y
_atom_site_fract_z
Si Si1 0.096590 0.836672 0.992479
Si Si2 0.507731 0.891266 0.403201
Si Si3 0.188428 0.147334 0.311577
Si Si4 0.074073 0.870155 0.573997
Si Si5 0.363828 0.819380 0.863912
O O1 0.277254 0.855845 0.886200
O O2 0.284169 0.921916 0.784556
O O3 0.000000 0.500000 0.000000
O O4 0.810204 0.051638 0.310470
O O5 0.613870 0.538506 0.222686
O O6 0.500000 0.000000 0.500000
O O7 0.162534 0.512600 0.422400
O O8 0.077578 0.088020 0.337504
O O9 0.000000 0.000000 0.500000
O O10 0.500000 0.000000 0.000000
O O11 0.344778 0.050385 0.365294
O O12 0.865423 0.000004 0.844672
#
# Coordination Sequence:
#
# PCOD9064402 Si02
#       5
#     2   2   2   2   2
#     4  12  26  43  68  95 132 183 232 278 333 388
#     4  12  26  43  68  95 132 183 232 278 333 388
#     4  11  24  45  74  96 136 173 214 271 339 409
#     4  11  26  44  66 106 132 172 220 276 336 395
#     4  12  26  43  68  98 142 170 228 281 324 396
#
# _framework density 20.080249999999999
#
# number of rings (size 3 to 8) (size 9 to 14) (size 15 to 20)
#    0.000    0.400    2.000    6.000    2.800   12.800 
#    0.000    0.000    0.000    0.000    0.000    0.000 
#    0.000    0.000    0.000    0.000    0.000    0.000 
#
# Total GULP energy -56012.705550 kJ/mol
# GULP energy per Si atom -5601.270555 kJ/mol
# Density = 2.003455 g / cm^3
# Si number density = 20.080250 Si / 1000 Ang^3
#
#
#
# Elastic Constant Matrix: (Units=GPa)
#
#
# Indices 1 2 3 4 5 6 
#
# 1 134.7628 100.2837 78.0154 -1.0058 2.0815 -0.1806
# 2 100.2837 140.3934 81.8923 -10.4262 8.0816 -2.7821
# 3 78.0154 81.8923 186.1855 -12.0499 4.0929 -7.0380
# 4 -1.0058 -10.4262 -12.0499 48.4831 -7.5511 1.3298
# 5 2.0815 8.0816 4.0929 -7.5511 46.1793 -0.4083
# 6 -0.1806 -2.7821 -7.0380 1.3298 -0.4083 37.7581
#
#
#
# Elastic Compliance Matrix: (Units=1/GPa)
#
#
# Indices 1 2 3 4 5 6 
#
# 1 0.016961 -0.010894 -0.002536 -0.002442 0.000958 -0.001098
# 2 -0.010894 0.016693 -0.002558 0.002431 -0.001801 0.000596
# 3 -0.002536 -0.002558 0.007685 0.001291 0.000102 0.001187
# 4 -0.002442 0.002431 0.001291 0.021919 0.003151 -0.000330
# 5 0.000958 -0.001801 0.000102 0.003151 0.022433 0.000023
# 6 -0.001098 0.000596 0.001187 -0.000330 0.000023 0.026756
#
#
# Mechanical properties :
#
#
# Convention : Reuss Voigt Hill
#
# Bulk Modulus (GPa) = 106.80807 109.08051 107.94429
# Shear Modulus (GPa) = 33.88838 39.89411 36.89124
#
# Velocity S-wave (km/s) = 4.11256 4.46211 4.29090
# Velocity P-wave (km/s) = 8.70959 8.99931 8.85563
#
# Compressibility (1/GPa) = 0.00936259
#
# Stress axis : x y z
#
# Youngs Moduli (GPa) = 58.95866 59.90620 130.12885
#
# Poissons Ratio (x) = 0.65265 0.32998
# Poissons Ratio (y) = 0.64232 0.33283
# Poissons Ratio (z) = 0.14951 0.15322
#
# Static dielectric constant tensor:
#      x y z
#    x 1.688150 -0.010810 -0.006490 
#    y -0.010810 1.699480 -0.054120 
#    z -0.006490 -0.054120 1.964750 
# 
# From -- ./inp_files/2232.got.cif
#   From: 2010.05.17/outbox.cif.g08.bks.cpg/sg2_2_cif.got.tgz:2232.got - 2010.06.03 11:33:40.
