data_PCOD9064833
_publ_section_title
;
Structure prediction by ZEFSAII (Michael W. Deem and Ramdas Pophale) SiO2 
 PCOD9064833
Probable space group: P -1
;
_chemical_formula_sum "Si O2"
_cell_formula_units_Z 16
_cell_length_a 16.647336
_cell_length_b 8.907546
_cell_length_c 8.582147
_cell_angle_alpha 73.697965
_cell_angle_beta 125.174396
_cell_angle_gamma 138.568554
_cell_volume 660.910132
_symmetry_space_group_name_H-M "P -1"
_symmetry_group_IT_number 2
_symmetry_cell_setting 'triclinic'
loop_
_space_group_symop_operation_xyz
x,y,z
-x,-y,-z
loop_
_atom_site_type_symbol
_atom_site_label
_atom_site_fract_x
_atom_site_fract_y
_atom_site_fract_z
Si Si1 0.652163 0.686757 0.944814
Si Si2 0.838555 0.868542 0.412531
Si Si3 0.834347 0.437611 0.000037
Si Si4 0.961777 0.633570 0.415643
Si Si5 0.533594 0.263260 0.734489
Si Si6 0.135027 0.818498 0.077946
Si Si7 0.589124 0.388125 0.419873
Si Si8 0.722072 0.242723 0.486860
O O1 0.578957 0.444972 0.859832
O O2 0.525648 0.669093 0.811021
O O3 0.778585 0.916626 0.911119
O O4 0.734283 0.754825 0.178520
O O5 0.746068 0.662631 0.496439
O O6 0.000000 0.000000 0.500000
O O7 0.889062 0.093714 0.471646
O O8 0.893196 0.577681 0.186621
O O9 0.960138 0.638665 0.957553
O O10 0.670249 0.307974 0.845652
O O11 0.836848 0.252966 0.025507
O O12 0.835494 0.489744 0.448485
O O13 0.000000 0.500000 0.500000
O O14 0.520424 0.328385 0.531336
O O15 0.383863 0.986862 0.675681
O O16 0.194985 0.778034 0.296884
O O17 0.616814 0.239456 0.459543
#
# Coordination Sequence:
#
# PCOD9064833 Si02
#       8
#     2   2   2   2   2   2   2   2
#     4  12  28  47  71 109 143 191 235 297 360 422
#     4  12  28  50  72 104 146 189 237 292 365 420
#     4  11  25  44  71 107 140 189 239 291 351 425
#     4  12  26  45  73 106 143 188 239 296 354 420
#     4  12  27  45  73 109 140 188 243 293 357 421
#     4  11  24  46  74 105 146 185 245 289 356 423
#     4  12  26  49  73 102 149 190 235 296 358 427
#     4  12  25  49  72 105 146 191 236 295 356 426
#
# _framework density 24.209040999999999
#
# number of rings (size 3 to 8) (size 9 to 14) (size 15 to 20)
#    0.000    0.250    5.000    3.375    7.000    1.000 
#    2.250    0.000    0.000    0.000    0.000    0.000 
#    0.000    0.000    0.000    0.000    0.000    0.000 
#
# Total GULP energy -89531.371161 kJ/mol
# GULP energy per Si atom -5595.710698 kJ/mol
# Density = 2.415394 g / cm^3
# Si number density = 24.209041 Si / 1000 Ang^3
#
#
#
# Elastic Constant Matrix: (Units=GPa)
#
#
# Indices 1 2 3 4 5 6 
#
# 1 42.6396 -10.4478 1.2064 -0.6894 2.2357 4.4763
# 2 -10.4478 130.5338 9.4523 35.8835 -13.5499 5.6383
# 3 1.2064 9.4523 110.5111 17.9823 -12.9662 0.0416
# 4 -0.6894 35.8835 17.9823 37.8065 -4.9644 -3.1609
# 5 2.2357 -13.5499 -12.9662 -4.9644 38.4434 12.1082
# 6 4.4763 5.6383 0.0416 -3.1609 12.1082 33.2502
#
#
#
# Elastic Compliance Matrix: (Units=1/GPa)
#
#
# Indices 1 2 3 4 5 6 
#
# 1 0.024545 0.002927 -0.000023 -0.002597 0.000605 -0.004268
# 2 0.002927 0.011643 0.001373 -0.011484 0.004523 -0.005109
# 3 -0.000023 0.001373 0.010352 -0.005900 0.003918 -0.002230
# 4 -0.002597 -0.011484 -0.005900 0.040324 -0.002951 0.007212
# 5 0.000605 0.004523 0.003918 -0.002951 0.032609 -0.013008
# 6 -0.004268 -0.005109 -0.002230 0.007212 -0.013008 0.036941
#
#
# Mechanical properties :
#
#
# Convention : Reuss Voigt Hill
#
# Bulk Modulus (GPa) = 18.15052 31.56736 24.85894
# Shear Modulus (GPa) = 30.08004 40.79825 35.43914
#
# Velocity S-wave (km/s) = 3.52875 4.10963 3.83022
# Velocity P-wave (km/s) = 4.91085 5.96545 5.46365
#
# Compressibility (1/GPa) = 0.05509483
#
# Stress axis : x y z
#
# Youngs Moduli (GPa) = 40.74208 85.89122 96.59831
#
# Poissons Ratio (x) = -0.25144 0.00223
# Poissons Ratio (y) = -0.11927 -0.13267
# Poissons Ratio (z) = 0.00094 -0.11796
#
# Static dielectric constant tensor:
#      x y z
#    x 2.066810 0.101360 0.100810 
#    y 0.101360 2.040560 -0.055060 
#    z 0.100810 -0.055060 1.661640 
# 
# From -- ./inp_files/328918.got.cif
#   From: 2010.05.17/outbox.cif.g08.bks.cpg/sg2_165_cif.got.tgz:328918.got - 2010.06.03 11:33:40.
