data_PCOD9064068
_publ_section_title
;
Structure prediction by ZEFSAII (Michael W. Deem and Ramdas Pophale) SiO2 
 PCOD9064068
Probable space group: P -1
;
_chemical_formula_sum "Si O2"
_cell_formula_units_Z 16
_cell_length_a 18.278199
_cell_length_b 12.241898
_cell_length_c 9.018800
_cell_angle_alpha 97.121496
_cell_angle_beta 131.937898
_cell_angle_gamma 42.712777
_cell_volume 698.642007
_symmetry_space_group_name_H-M "P -1"
_symmetry_group_IT_number 2
_symmetry_cell_setting 'triclinic'
loop_
_space_group_symop_operation_xyz
x,y,z
-x,-y,-z
loop_
_atom_site_type_symbol
_atom_site_label
_atom_site_fract_x
_atom_site_fract_y
_atom_site_fract_z
Si Si1 0.818216 0.135384 0.166992
Si Si2 0.265735 0.957526 0.181602
Si Si3 0.649854 0.152497 0.179424
Si Si4 0.006285 0.605638 0.929559
Si Si5 0.069639 0.599936 0.692324
Si Si6 0.431444 0.416078 0.223858
Si Si7 0.564917 0.833656 0.458099
Si Si8 0.646925 0.763002 0.229164
O O1 0.652150 0.242812 0.071873
O O2 0.875172 0.984488 0.098468
O O3 0.713586 0.335721 0.964333
O O4 0.000000 0.000000 0.500000
O O5 0.442980 0.716862 0.474402
O O6 0.374322 0.937310 0.213880
O O7 0.150852 0.148795 0.177399
O O8 0.876575 0.869721 0.435771
O O9 0.602698 0.245027 0.294596
O O10 0.471892 0.236888 0.929275
O O11 0.239067 0.420089 0.245955
O O12 0.995460 0.605515 0.737626
O O13 0.000000 0.500000 0.000000
O O14 0.148728 0.455052 0.631875
O O15 0.273846 0.468701 0.995726
O O16 0.648121 0.793182 0.407388
O O17 0.500000 0.000000 0.500000
O O18 0.500000 0.000000 0.000000
#
# Coordination Sequence:
#
# PCOD9064068 Si02
#       8
#     2   2   2   2   2   2   2   2
#     4  12  26  48  76 107 146 193 254 313 369 436
#     4  12  26  47  73 108 152 191 246 301 374 443
#     4  11  24  46  71 102 147 188 239 307 368 439
#     4  12  26  43  76 107 148 194 237 302 369 446
#     4  11  24  45  70 106 146 185 247 300 361 443
#     4  11  24  47  74 102 142 195 243 305 370 433
#     4  12  25  45  71 104 148 192 242 294 369 444
#     4  11  27  42  71 107 145 194 241 299 370 440
#
# _framework density 22.901572999999999
#
# number of rings (size 3 to 8) (size 9 to 14) (size 15 to 20)
#    0.000    0.500    6.250    1.500    5.250    0.500 
#    2.250    1.250    0.000    0.000    0.000    0.000 
#    0.000    0.000    0.000    0.000    0.000    0.000 
#
# Total GULP energy -89453.482990 kJ/mol
# GULP energy per Si atom -5590.842687 kJ/mol
# Density = 2.284945 g / cm^3
# Si number density = 22.901573 Si / 1000 Ang^3
#
#
#
# Elastic Constant Matrix: (Units=GPa)
#
#
# Indices 1 2 3 4 5 6 
#
# 1 136.9445 57.7244 17.8004 11.8443 -15.0864 -12.4877
# 2 57.7244 132.6147 42.6444 9.7802 -3.7498 -19.7028
# 3 17.8004 42.6444 88.7063 10.3268 -8.6583 1.9683
# 4 11.8443 9.7802 10.3268 43.4994 -0.4705 1.0884
# 5 -15.0864 -3.7498 -8.6583 -0.4705 39.4807 2.8635
# 6 -12.4877 -19.7028 1.9683 1.0884 2.8635 43.4316
#
#
#
# Elastic Compliance Matrix: (Units=1/GPa)
#
#
# Indices 1 2 3 4 5 6 
#
# 1 0.009490 -0.003961 0.000514 -0.001798 0.003288 0.000737
# 2 -0.003961 0.011500 -0.004958 -0.000461 -0.001836 0.004435
# 3 0.000514 -0.004958 0.014178 -0.002286 0.003017 -0.002885
# 4 -0.001798 -0.000461 -0.002286 0.024145 -0.000860 -0.001171
# 5 0.003288 -0.001836 0.003017 -0.000860 0.027192 -0.001795
# 6 0.000737 0.004435 -0.002885 -0.001171 -0.001795 0.025527
#
#
# Mechanical properties :
#
#
# Convention : Reuss Voigt Hill
#
# Bulk Modulus (GPa) = 54.47072 66.06710 60.26891
# Shear Modulus (GPa) = 37.04761 41.28875 39.16818
#
# Velocity S-wave (km/s) = 4.02641 4.25064 4.14004
# Velocity P-wave (km/s) = 6.74184 7.28021 7.01619
#
# Compressibility (1/GPa) = 0.01835849
#
# Stress axis : x y z
#
# Youngs Moduli (GPa) = 105.37423 86.95646 70.53186
#
# Poissons Ratio (x) = 0.34443 -0.03624
# Poissons Ratio (y) = 0.41738 0.34967
# Poissons Ratio (z) = -0.05414 0.43109
#
# Static dielectric constant tensor:
#      x y z
#    x 1.933190 -0.153030 -0.002200 
#    y -0.153030 1.751960 0.721890 
#    z -0.002200 0.721890 0.797420 
# 
# From -- ./inp_files/333426.got.cif
#   From: 2010.05.17/outbox.cif.g08.bks.cpg/sg2_167_cif.got.tgz:333426.got - 2010.06.03 11:33:40.
