data_PCOD9064987
_publ_section_title
;
Structure prediction by ZEFSAII (Michael W. Deem and Ramdas Pophale) SiO2 
 PCOD9064987
Probable space group: P -1
;
_chemical_formula_sum "Si O2"
_cell_formula_units_Z 14
_cell_length_a 8.174086
_cell_length_b 5.263219
_cell_length_c 16.308533
_cell_angle_alpha 89.684609
_cell_angle_beta 131.728371
_cell_angle_gamma 87.554168
_cell_volume 522.611140
_symmetry_space_group_name_H-M "P -1"
_symmetry_group_IT_number 2
_symmetry_cell_setting 'triclinic'
loop_
_space_group_symop_operation_xyz
x,y,z
-x,-y,-z
loop_
_atom_site_type_symbol
_atom_site_label
_atom_site_fract_x
_atom_site_fract_y
_atom_site_fract_z
Si Si1 0.682482 0.250577 0.399781
Si Si2 0.025704 0.069237 0.912656
Si Si3 0.457653 0.299645 0.056758
Si Si4 0.747807 0.919576 0.673467
Si Si5 0.647521 0.397976 0.817654
Si Si6 0.295379 0.050748 0.745214
Si Si7 0.100026 0.590040 0.368439
O O1 0.508742 0.088101 0.390806
O O2 0.519630 0.454945 0.299061
O O3 0.799015 0.086400 0.365784
O O4 0.831180 0.384223 0.514040
O O5 0.884600 0.338821 0.859115
O O6 0.896897 0.903740 0.805528
O O7 0.276477 0.102381 0.972897
O O8 0.000000 0.000000 0.000000
O O9 0.346307 0.455182 0.095589
O O10 0.666103 0.147285 0.168108
O O11 0.500000 0.500000 0.000000
O O12 0.826719 0.682378 0.643056
O O13 0.785447 0.187372 0.642770
O O14 0.534768 0.134547 0.799308
O O15 0.153995 0.305656 0.721666
#
# Coordination Sequence:
#
# PCOD9064987 Si02
#       7
#     2   2   2   2   2   2   2
#     4  11  25  51  78 110 156 211 260 323 394 482
#     4  12  24  51  79 111 152 217 266 322 395 476
#     4  11  27  47  79 116 162 205 261 338 406 460
#     4  12  28  49  78 117 155 204 271 325 393 479
#     4  11  24  46  79 110 155 202 277 313 386 492
#     4  11  26  49  74 118 153 207 264 318 391 493
#     4  12  30  48  80 117 163 202 256 339 407 454
#
# _framework density 26.788556
#
# number of rings (size 3 to 8) (size 9 to 14) (size 15 to 20)
#    0.000    0.571    2.857    3.429    8.000    4.571 
#    0.000    0.714    0.000    0.000    0.000    0.000 
#    0.000    0.000    0.000    0.000    0.000    0.000 
#
# Total GULP energy -78592.261018 kJ/mol
# GULP energy per Si atom -5613.732930 kJ/mol
# Density = 2.672758 g / cm^3
# Si number density = 26.788556 Si / 1000 Ang^3
#
#
#
# Elastic Constant Matrix: (Units=GPa)
#
#
# Indices 1 2 3 4 5 6 
#
# 1 90.9631 14.3668 22.0743 3.8940 -9.6404 -7.1286
# 2 14.3668 73.5250 26.8140 11.9075 -17.7750 -16.1461
# 3 22.0743 26.8140 125.7537 14.0881 -28.3725 -4.8180
# 4 3.8940 11.9075 14.0881 43.4001 -11.6834 -10.0338
# 5 -9.6404 -17.7750 -28.3725 -11.6834 42.6018 9.8245
# 6 -7.1286 -16.1461 -4.8180 -10.0338 9.8245 61.7955
#
#
#
# Elastic Compliance Matrix: (Units=1/GPa)
#
#
# Indices 1 2 3 4 5 6 
#
# 1 0.011736 -0.001372 -0.001555 0.000259 0.000942 0.000766
# 2 -0.001372 0.016574 -0.002054 -0.001977 0.003989 0.003057
# 3 -0.001555 -0.002054 0.009969 -0.001339 0.005293 -0.000998
# 4 0.000259 -0.001977 -0.001339 0.025948 0.004799 0.002859
# 5 0.000942 0.003989 0.005293 0.004799 0.030781 -0.002551
# 6 0.000766 0.003057 -0.000998 0.002859 -0.002551 0.017861
#
#
# Mechanical properties :
#
#
# Convention : Reuss Voigt Hill
#
# Bulk Modulus (GPa) = 35.31472 46.30577 40.81025
# Shear Modulus (GPa) = 37.80118 44.69192 41.24655
#
# Velocity S-wave (km/s) = 3.76053 4.08894 3.92817
# Velocity P-wave (km/s) = 5.66276 6.29410 5.98676
#
# Compressibility (1/GPa) = 0.02831680
#
# Stress axis : x y z
#
# Youngs Moduli (GPa) = 85.20576 60.33517 100.31074
#
# Poissons Ratio (x) = 0.08279 0.15595
# Poissons Ratio (y) = 0.11692 0.20609
# Poissons Ratio (z) = 0.13246 0.12396
#
# Static dielectric constant tensor:
#      x y z
#    x 2.126540 0.040930 0.013000 
#    y 0.040930 2.101190 0.011930 
#    z 0.013000 0.011930 2.120590 
# 
# From -- ./inp_files/553577.got.cif
#   From: 2010.05.17/outbox.cif.g08.bks.cpg/sg2_277_cif.got.tgz:553577.got - 2010.06.03 11:33:40.
