data_PCOD9064565
_publ_section_title
;
Structure prediction by ZEFSAII (Michael W. Deem and Ramdas Pophale) SiO2 
 PCOD9064565
Probable space group: P -1
;
_chemical_formula_sum "Si O2"
_cell_formula_units_Z 16
_cell_length_a 9.429653
_cell_length_b 15.760808
_cell_length_c 14.701746
_cell_angle_alpha 25.495619
_cell_angle_beta 109.787123
_cell_angle_gamma 92.360359
_cell_volume 670.439295
_symmetry_space_group_name_H-M "P -1"
_symmetry_group_IT_number 2
_symmetry_cell_setting 'triclinic'
loop_
_space_group_symop_operation_xyz
x,y,z
-x,-y,-z
loop_
_atom_site_type_symbol
_atom_site_label
_atom_site_fract_x
_atom_site_fract_y
_atom_site_fract_z
Si Si1 0.872060 0.807908 0.663244
Si Si2 0.417684 0.929174 0.130509
Si Si3 0.331019 0.755787 0.653206
Si Si4 0.187628 0.416014 0.718298
Si Si5 0.193759 0.729584 0.264606
Si Si6 0.563397 0.944199 0.705402
Si Si7 0.125572 0.566014 0.795194
Si Si8 0.152244 0.433665 0.392330
O O1 0.011148 0.778709 0.644033
O O2 0.814577 0.992080 0.557489
O O3 0.660092 0.930841 0.457889
O O4 0.000000 0.500000 0.000000
O O5 0.354270 0.764957 0.247981
O O6 0.617518 0.766533 0.392261
O O7 0.500000 0.000000 0.000000
O O8 0.231783 0.184816 0.892342
O O9 0.211571 0.682610 0.647111
O O10 0.413857 0.843751 0.513823
O O11 0.500000 0.500000 0.000000
O O12 0.253406 0.533090 0.551510
O O13 0.960486 0.617763 0.510211
O O14 0.317666 0.248700 0.996902
O O15 0.145380 0.643038 0.246880
O O16 0.000000 0.000000 0.000000
O O17 0.677238 0.731740 0.852752
O O18 0.976047 0.528863 0.757900
#
# Coordination Sequence:
#
# PCOD9064565 Si02
#       8
#     2   2   2   2   2   2   2   2
#     4  12  23  46  79 106 151 193 249 316 383 463
#     4  12  24  44  73 102 141 194 254 301 365 442
#     4  12  24  47  81 107 145 207 250 306 394 467
#     4  11  25  46  70 105 154 193 246 314 372 438
#     4  12  24  46  77 106 144 209 253 300 381 449
#     4  11  25  47  69 112 155 189 252 322 377 446
#     4  11  25  46  69 109 152 190 250 319 378 445
#     4  11  24  46  69 104 151 192 247 314 366 438
#
# _framework density 23.864947999999998
#
# number of rings (size 3 to 8) (size 9 to 14) (size 15 to 20)
#    0.000    0.500    5.000    3.750    0.000    2.000 
#    4.500    2.500    0.000    0.000    0.000    0.000 
#    0.000    0.000    0.000    0.000    0.000    0.000 
#
# Total GULP energy -89106.035121 kJ/mol
# GULP energy per Si atom -5569.127195 kJ/mol
# Density = 2.381063 g / cm^3
# Si number density = 23.864948 Si / 1000 Ang^3
#
#
#
# Elastic Constant Matrix: (Units=GPa)
#
#
# Indices 1 2 3 4 5 6 
#
# 1 106.8649 6.8143 33.5376 -12.1120 -27.6291 20.1825
# 2 6.8143 77.0728 32.2398 -0.8149 -20.2762 7.8281
# 3 33.5376 32.2398 104.9986 -3.2926 -11.2324 5.6907
# 4 -12.1120 -0.8149 -3.2926 26.9840 4.4276 9.8063
# 5 -27.6291 -20.2762 -11.2324 4.4276 52.5554 -17.1444
# 6 20.1825 7.8281 5.6907 9.8063 -17.1444 44.7726
#
#
#
# Elastic Compliance Matrix: (Units=1/GPa)
#
#
# Indices 1 2 3 4 5 6 
#
# 1 0.013569 0.002388 -0.004031 0.006979 0.004734 -0.005738
# 2 0.002388 0.016662 -0.005148 0.000294 0.006228 -0.001015
# 3 -0.004031 -0.005148 0.012203 -0.000592 -0.001171 0.000847
# 4 0.006979 0.000294 -0.000592 0.046568 -0.005271 -0.015340
# 5 0.004734 0.006228 -0.001171 -0.005271 0.026839 0.008358
# 6 -0.005738 -0.001015 0.000847 -0.015340 0.008358 0.031552
#
#
# Mechanical properties :
#
#
# Convention : Reuss Voigt Hill
#
# Bulk Modulus (GPa) = 34.66103 48.23553 41.44828
# Shear Modulus (GPa) = 29.30978 39.28536 34.29757
#
# Velocity S-wave (km/s) = 3.50830 4.06168 3.79509
# Velocity P-wave (km/s) = 5.56473 6.50016 6.05055
#
# Compressibility (1/GPa) = 0.02885084
#
# Stress axis : x y z
#
# Youngs Moduli (GPa) = 73.69781 60.01782 81.94983
#
# Poissons Ratio (x) = -0.14335 0.33036
# Poissons Ratio (y) = -0.17602 0.42191
# Poissons Ratio (z) = 0.29709 0.30900
#
# Static dielectric constant tensor:
#      x y z
#    x 2.030960 -0.117630 -0.006910 
#    y -0.117630 2.196290 0.102080 
#    z -0.006910 0.102080 2.021060 
# 
# From -- ./inp_files/561689.got.cif
#   From: 2010.05.17/outbox.cif.g08.bks.cpg/sg2_281_cif.got.tgz:561689.got - 2010.06.03 11:33:40.
