data_PCOD9064746
_publ_section_title
;
Structure prediction by ZEFSAII (Michael W. Deem and Ramdas Pophale) SiO2 
 PCOD9064746
Probable space group: P -1
;
_chemical_formula_sum "Si O2"
_cell_formula_units_Z 15
_cell_length_a 11.804771
_cell_length_b 11.178293
_cell_length_c 8.718650
_cell_angle_alpha 39.677957
_cell_angle_beta 53.262194
_cell_angle_gamma 61.952246
_cell_volume 588.549192
_symmetry_space_group_name_H-M "P -1"
_symmetry_group_IT_number 2
_symmetry_cell_setting 'triclinic'
loop_
_space_group_symop_operation_xyz
x,y,z
-x,-y,-z
loop_
_atom_site_type_symbol
_atom_site_label
_atom_site_fract_x
_atom_site_fract_y
_atom_site_fract_z
Si Si1 0.914123 0.239676 0.298972
Si Si2 0.500000 0.500000 0.500000
Si Si3 0.871945 0.791059 0.305432
Si Si4 0.563668 0.302902 0.331307
Si Si5 0.295994 0.553754 0.215077
Si Si6 0.153291 0.857441 0.198174
Si Si7 0.781012 0.637254 0.056597
Si Si8 0.285309 0.050672 0.427455
O O1 0.891692 0.193398 0.543482
O O2 0.854170 0.449437 0.114795
O O3 0.828932 0.088498 0.419619
O O4 0.080305 0.248452 0.121048
O O5 0.572771 0.377766 0.422812
O O6 0.658653 0.587707 0.323008
O O7 0.837385 0.575862 0.523637
O O8 0.030967 0.808293 0.222287
O O9 0.775652 0.875028 0.437868
O O10 0.832555 0.923584 0.063737
O O11 0.425250 0.408173 0.277029
O O12 0.574592 0.078236 0.544871
O O13 0.684130 0.363615 0.052395
O O14 0.287474 0.728405 0.166703
O O15 0.699198 0.768543 0.869955
#
# Coordination Sequence:
#
# PCOD9064746 Si02
#       8
#     2   1   2   2   2   2   2   2
#     4  11  25  46  75 113 143 189 243 302 370 431
#     4  12  24  50  68 106 138 196 246 290 362 430
#     4  11  25  44  74 107 143 190 234 304 362 427
#     4  11  26  46  72 102 146 192 242 297 354 439
#     4  11  25  49  68 104 148 195 236 290 365 437
#     4  11  24  46  72 110 141 185 243 298 357 438
#     4  11  25  44  73 104 149 187 234 303 364 426
#     4  12  24  48  75 111 146 188 244 307 364 428
#
# _framework density 25.486401000000001
#
# number of rings (size 3 to 8) (size 9 to 14) (size 15 to 20)
#    0.000    0.800    4.000    2.400    0.000    3.200 
#   14.400    0.000    0.000    0.000    0.000    0.000 
#    0.000    0.000    0.000    0.000    0.000    0.000 
#
# Total GULP energy -83736.304638 kJ/mol
# GULP energy per Si atom -5582.420309 kJ/mol
# Density = 2.542839 g / cm^3
# Si number density = 25.486401 Si / 1000 Ang^3
#
#
#
# Elastic Constant Matrix: (Units=GPa)
#
#
# Indices 1 2 3 4 5 6 
#
# 1 55.7197 23.8456 25.9953 -0.5503 5.6966 -17.1168
# 2 23.8456 147.8311 58.7420 -11.7865 25.3805 -12.7906
# 3 25.9953 58.7420 96.2320 -5.8637 18.1270 -4.3558
# 4 -0.5503 -11.7865 -5.8637 46.2877 -18.7479 4.0400
# 5 5.6966 25.3805 18.1270 -18.7479 43.3292 -7.6126
# 6 -17.1168 -12.7906 -4.3558 4.0400 -7.6126 46.1884
#
#
#
# Elastic Compliance Matrix: (Units=1/GPa)
#
#
# Indices 1 2 3 4 5 6 
#
# 1 0.023367 -0.001120 -0.005485 -0.001069 0.000833 0.008063
# 2 -0.001120 0.009538 -0.004874 0.000486 -0.002974 0.001234
# 3 -0.005485 -0.004874 0.015368 -0.000576 -0.003536 -0.002466
# 4 -0.001069 0.000486 -0.000576 0.026303 0.011347 -0.000746
# 5 0.000833 -0.002974 -0.003536 0.011347 0.031695 0.003383
# 6 0.008063 0.001234 -0.002466 -0.000746 0.003383 0.025370
#
#
# Mechanical properties :
#
#
# Convention : Reuss Voigt Hill
#
# Bulk Modulus (GPa) = 39.50491 57.43875 48.47183
# Shear Modulus (GPa) = 30.66790 39.90770 35.28780
#
# Velocity S-wave (km/s) = 3.47263 3.96137 3.72502
# Velocity P-wave (km/s) = 5.62254 6.59615 6.12871
#
# Compressibility (1/GPa) = 0.02531331
#
# Stress axis : x y z
#
# Youngs Moduli (GPa) = 42.79620 104.84502 65.07110
#
# Poissons Ratio (x) = 0.11743 0.35694
# Poissons Ratio (y) = 0.04793 0.31716
# Poissons Ratio (z) = 0.23476 0.51101
#
# Static dielectric constant tensor:
#      x y z
#    x 2.044280 -0.062050 -0.042570 
#    y -0.062050 1.914760 -0.048620 
#    z -0.042570 -0.048620 2.015700 
# 
# From -- ./inp_files/261259.got.cif
#   From: 2010.05.17/outbox.cif.g08.bks.cpg/sg2_131_cif.got.tgz:261259.got - 2010.06.03 11:33:40.
