data_PCOD9064682
_publ_section_title
;
Structure prediction by ZEFSAII (Michael W. Deem and Ramdas Pophale) SiO2 
 PCOD9064682
Probable space group: P -1
;
_chemical_formula_sum "Si O2"
_cell_formula_units_Z 12
_cell_length_a 7.361066
_cell_length_b 4.788422
_cell_length_c 25.225304
_cell_angle_alpha 109.506153
_cell_angle_beta 144.763228
_cell_angle_gamma 81.101482
_cell_volume 472.023513
_symmetry_space_group_name_H-M "P -1"
_symmetry_group_IT_number 2
_symmetry_cell_setting 'triclinic'
loop_
_space_group_symop_operation_xyz
x,y,z
-x,-y,-z
loop_
_atom_site_type_symbol
_atom_site_label
_atom_site_fract_x
_atom_site_fract_y
_atom_site_fract_z
Si Si1 0.498859 0.529101 0.269408
Si Si2 0.230091 0.696183 0.913300
Si Si3 0.431559 0.200941 0.427363
Si Si4 0.714873 0.973068 0.254016
Si Si5 0.310653 0.347044 0.564888
Si Si6 0.332288 0.627639 0.056591
O O1 0.532258 0.728870 0.237216
O O2 0.598443 0.717976 0.357750
O O3 0.145692 0.319856 0.183102
O O4 0.732322 0.301705 0.303216
O O5 0.358318 0.527299 0.883981
O O6 0.239587 0.593852 0.970545
O O7 0.500000 0.000000 0.000000
O O8 0.500000 0.500000 0.500000
O O9 0.316031 0.021299 0.518464
O O10 0.437788 0.373957 0.383697
O O11 0.086391 0.970695 0.334907
O O12 0.496686 0.934442 0.146148
O O13 0.000000 0.500000 0.500000
O O14 0.000000 0.500000 0.000000
#
# Coordination Sequence:
#
# PCOD9064682 Si02
#       6
#     2   2   2   2   2   2
#     4  12  27  48  73 112 151 198 250 313 388 455
#     4  11  26  42  75 108 154 197 253 311 381 459
#     4  12  27  49  77 110 148 199 261 318 391 463
#     4  12  27  47  76 108 153 198 251 314 382 460
#     4  12  27  49  77 108 152 198 255 325 391 459
#     4  11  24  46  71 109 151 200 250 310 382 456
#
# _framework density 25.422463
#
# number of rings (size 3 to 8) (size 9 to 14) (size 15 to 20)
#    0.000    0.333    1.667    6.000    7.000    4.000 
#    0.000    0.000    0.000    0.000    0.000    0.000 
#    0.000    0.000    0.000    0.000    0.000    0.000 
#
# Total GULP energy -66975.502346 kJ/mol
# GULP energy per Si atom -5581.291862 kJ/mol
# Density = 2.536460 g / cm^3
# Si number density = 25.422463 Si / 1000 Ang^3
#
#
#
# Elastic Constant Matrix: (Units=GPa)
#
#
# Indices 1 2 3 4 5 6 
#
# 1 144.1691 41.0955 45.0733 2.4180 3.1680 5.4943
# 2 41.0955 117.0621 2.8588 8.1365 2.9565 -10.6997
# 3 45.0733 2.8588 98.8390 11.4347 18.8335 0.2107
# 4 2.4180 8.1365 11.4347 33.2160 -4.2125 -3.5343
# 5 3.1680 2.9565 18.8335 -4.2125 27.1273 3.3468
# 6 5.4943 -10.6997 0.2107 -3.5343 3.3468 42.8392
#
#
#
# Elastic Compliance Matrix: (Units=1/GPa)
#
#
# Indices 1 2 3 4 5 6 
#
# 1 0.009572 -0.003677 -0.005172 0.002191 0.003487 -0.002212
# 2 -0.003677 0.010353 0.002344 -0.003157 -0.003191 0.003035
# 3 -0.005172 0.002344 0.015401 -0.006808 -0.011588 0.001517
# 4 0.002191 -0.003157 -0.006808 0.034445 0.010037 0.001021
# 5 0.003487 -0.003191 -0.011588 0.010037 0.046904 -0.004023
# 6 -0.002212 0.003035 0.001517 0.001021 -0.004023 0.024776
#
#
# Mechanical properties :
#
#
# Convention : Reuss Voigt Hill
#
# Bulk Modulus (GPa) = 44.80903 59.79174 52.30039
# Shear Modulus (GPa) = 30.88337 38.70600 34.79469
#
# Velocity S-wave (km/s) = 3.48919 3.90617 3.70355
# Velocity P-wave (km/s) = 5.82208 6.62681 6.23743
#
# Compressibility (1/GPa) = 0.02231693
#
# Stress axis : x y z
#
# Youngs Moduli (GPa) = 104.46839 96.58694 64.93239
#
# Poissons Ratio (x) = 0.35512 0.33583
# Poissons Ratio (y) = 0.38410 -0.15220
# Poissons Ratio (z) = 0.54032 -0.22640
#
# Static dielectric constant tensor:
#      x y z
#    x 2.192610 -0.078970 -0.082830 
#    y -0.078970 2.112180 -0.046700 
#    z -0.082830 -0.046700 2.034120 
# 
# From -- ./inp_files/478273.got.cif
#   From: 2010.05.17/outbox.cif.g08.bks.cpg/sg2_240_cif.got.tgz:478273.got - 2010.06.03 11:33:40.
