data_PCOD9064461
_publ_section_title
;
Structure prediction by ZEFSAII (Michael W. Deem and Ramdas Pophale) SiO2 
 PCOD9064461
Probable space group: P -1
;
_chemical_formula_sum "Si O2"
_cell_formula_units_Z 14
_cell_length_a 15.747267
_cell_length_b 13.491347
_cell_length_c 23.725831
_cell_angle_alpha 24.387832
_cell_angle_beta 161.286039
_cell_angle_gamma 160.407431
_cell_volume 534.251932
_symmetry_space_group_name_H-M "P -1"
_symmetry_group_IT_number 2
_symmetry_cell_setting 'triclinic'
loop_
_space_group_symop_operation_xyz
x,y,z
-x,-y,-z
loop_
_atom_site_type_symbol
_atom_site_label
_atom_site_fract_x
_atom_site_fract_y
_atom_site_fract_z
Si Si1 0.031360 0.258292 0.434305
Si Si2 0.648975 0.895424 0.808667
Si Si3 0.788563 0.676968 0.649607
Si Si4 0.836046 0.778234 0.183133
Si Si5 0.662019 0.082117 0.840663
Si Si6 0.027401 0.224907 0.161685
Si Si7 0.334246 0.726624 0.475826
O O1 0.396042 0.472916 0.525066
O O2 0.065476 0.438065 0.418880
O O3 0.932154 0.938634 0.558768
O O4 0.715911 0.166613 0.246392
O O5 0.455851 0.547631 0.853430
O O6 0.583757 0.025642 0.754863
O O7 0.570429 0.017682 0.642023
O O8 0.000000 0.000000 0.000000
O O9 0.815023 0.415421 0.783001
O O10 0.979619 0.834558 0.745942
O O11 0.147267 0.762949 0.390074
O O12 0.781841 0.922533 0.127799
O O13 0.887641 0.994979 0.052388
O O14 0.377518 0.310083 0.313910
O O15 0.000000 0.500000 0.000000
#
# Coordination Sequence:
#
# PCOD9064461 Si02
#       7
#     2   2   2   2   2   2   2
#     4  11  24  45  76 110 150 198 250 316 389 455
#     4  12  25  45  74 113 150 197 252 313 383 463
#     4  11  26  48  74 110 152 199 252 319 384 447
#     4  12  25  46  73 106 149 201 247 310 382 450
#     4  12  22  44  74 107 155 189 255 311 388 452
#     4  11  25  51  73 105 148 194 267 307 375 451
#     4  11  25  48  73 104 151 195 248 316 374 451
#
# _framework density 26.204865999999999
#
# number of rings (size 3 to 8) (size 9 to 14) (size 15 to 20)
#    0.000    0.571    4.286    4.286    0.000    2.857 
#    5.143    2.857    0.000    0.000    0.000    0.000 
#    0.000    0.000    0.000    0.000    0.000    0.000 
#
# Total GULP energy -78206.706714 kJ/mol
# GULP energy per Si atom -5586.193337 kJ/mol
# Density = 2.614522 g / cm^3
# Si number density = 26.204866 Si / 1000 Ang^3
#
#
#
# Elastic Constant Matrix: (Units=GPa)
#
#
# Indices 1 2 3 4 5 6 
#
# 1 99.2105 46.7496 31.1635 -13.1225 9.4296 -33.7953
# 2 46.7496 135.2170 59.7710 -37.3056 14.3668 -30.4595
# 3 31.1635 59.7710 156.3382 -19.2432 22.1757 2.2317
# 4 -13.1225 -37.3056 -19.2432 43.5990 -13.6667 8.1949
# 5 9.4296 14.3668 22.1757 -13.6667 41.3252 -5.5585
# 6 -33.7953 -30.4595 2.2317 8.1949 -5.5585 57.1611
#
#
#
# Elastic Compliance Matrix: (Units=1/GPa)
#
#
# Indices 1 2 3 4 5 6 
#
# 1 0.014340 -0.002448 -0.001983 -0.000148 -0.000434 0.007231
# 2 -0.002448 0.013110 -0.003757 0.008398 0.001416 0.004619
# 3 -0.001983 -0.003757 0.008744 -0.000353 -0.003563 -0.003812
# 4 -0.000148 0.008398 -0.000353 0.032350 0.008076 0.000549
# 5 -0.000434 0.001416 -0.003563 0.008076 0.028693 0.002269
# 6 0.007231 0.004619 -0.003812 0.000549 0.002269 0.024522
#
#
# Mechanical properties :
#
#
# Convention : Reuss Voigt Hill
#
# Bulk Modulus (GPa) = 50.45549 74.01486 62.23518
# Shear Modulus (GPa) = 34.54452 45.28918 39.91685
#
# Velocity S-wave (km/s) = 3.63471 4.16176 3.90713
# Velocity P-wave (km/s) = 6.07543 7.16936 6.64494
#
# Compressibility (1/GPa) = 0.01981945
#
# Stress axis : x y z
#
# Youngs Moduli (GPa) = 69.73291 76.28020 114.35776
#
# Poissons Ratio (x) = 0.18670 0.22674
# Poissons Ratio (y) = 0.17068 0.42967
# Poissons Ratio (z) = 0.13826 0.28660
#
# Static dielectric constant tensor:
#      x y z
#    x 2.303090 0.083090 0.127160 
#    y 0.083090 2.100640 0.080270 
#    z 0.127160 0.080270 2.168070 
# 
# From -- ./inp_files/620469.got.cif
#   From: 2010.05.17/outbox.cif.g08.bks.cpg/sg2_311_cif.got.tgz:620469.got - 2010.06.03 11:33:40.
