data_PCOD9064070
_publ_section_title
;
Structure prediction by ZEFSAII (Michael W. Deem and Ramdas Pophale) SiO2 
 PCOD9064070
Probable space group: P -1
;
_chemical_formula_sum "Si O2"
_cell_formula_units_Z 16
_cell_length_a 23.291508
_cell_length_b 5.185815
_cell_length_c 11.665592
_cell_angle_alpha 118.226587
_cell_angle_beta 148.462050
_cell_angle_gamma 65.464025
_cell_volume 649.144835
_symmetry_space_group_name_H-M "P -1"
_symmetry_group_IT_number 2
_symmetry_cell_setting 'triclinic'
loop_
_space_group_symop_operation_xyz
x,y,z
-x,-y,-z
loop_
_atom_site_type_symbol
_atom_site_label
_atom_site_fract_x
_atom_site_fract_y
_atom_site_fract_z
Si Si1 0.314128 0.534979 0.239013
Si Si2 0.103269 0.893814 0.978134
Si Si3 0.919220 0.570190 0.485894
Si Si4 0.812320 0.275686 0.443098
Si Si5 0.572423 0.491590 0.006965
Si Si6 0.299447 0.305946 0.923931
Si Si7 0.117284 0.554224 0.157803
Si Si8 0.434174 0.116660 0.522199
O O1 0.351075 0.358586 0.376899
O O2 0.374314 0.840642 0.412288
O O3 0.187737 0.632411 0.028873
O O4 0.344923 0.356415 0.138004
O O5 0.985624 0.851038 0.710356
O O6 0.106561 0.811712 0.101056
O O7 0.145826 0.219530 0.097047
O O8 0.910766 0.400454 0.560693
O O9 0.796688 0.448786 0.211233
O O10 0.000000 0.500000 0.500000
O O11 0.695476 0.425862 0.242985
O O12 0.815747 0.332964 0.596277
O O13 0.790700 0.941272 0.301603
O O14 0.603240 0.733512 0.011883
O O15 0.500000 0.500000 0.000000
O O16 0.515965 0.254327 0.780797
O O17 0.000000 0.500000 0.000000
O O18 0.500000 0.000000 0.500000
#
# Coordination Sequence:
#
# PCOD9064070 Si02
#       8
#     2   2   2   2   2   2   2   2
#     4  12  27  46  78 111 146 190 255 313 374 445
#     4  12  27  46  73 111 148 196 247 304 369 450
#     4  11  24  45  70 106 148 191 239 298 370 444
#     4  11  27  45  73 106 147 196 245 304 372 452
#     4  11  28  47  72 105 146 195 250 311 381 444
#     4  11  25  47  73 108 147 193 247 311 375 451
#     4  12  26  47  74 105 150 200 245 297 369 446
#     4  12  26  50  76 107 145 198 253 312 379 445
#
# _framework density 24.647811000000001
#
# number of rings (size 3 to 8) (size 9 to 14) (size 15 to 20)
#    0.000    0.500    3.750    3.000   10.500    2.000 
#    0.000    0.000    0.000    0.000    0.000    0.000 
#    0.000    0.000    0.000    0.000    0.000    0.000 
#
# Total GULP energy -89110.064161 kJ/mol
# GULP energy per Si atom -5569.379010 kJ/mol
# Density = 2.459171 g / cm^3
# Si number density = 24.647811 Si / 1000 Ang^3
#
#
#
# Elastic Constant Matrix: (Units=GPa)
#
#
# Indices 1 2 3 4 5 6 
#
# 1 141.9108 -7.6660 34.7858 -4.3654 8.2005 3.7928
# 2 -7.6660 74.2004 -13.8137 13.0822 6.1998 10.1558
# 3 34.7858 -13.8137 180.8321 -6.5933 -32.0300 13.6417
# 4 -4.3654 13.0822 -6.5933 42.6777 4.0733 3.9242
# 5 8.2005 6.1998 -32.0300 4.0733 56.2497 4.4688
# 6 3.7928 10.1558 13.6417 3.9242 4.4688 27.2036
#
#
#
# Elastic Compliance Matrix: (Units=1/GPa)
#
#
# Indices 1 2 3 4 5 6 
#
# 1 0.007667 0.000557 -0.001802 0.000557 -0.002239 -0.000086
# 2 0.000557 0.015282 0.001311 -0.003862 -0.000276 -0.005838
# 3 -0.001802 0.001311 0.007146 0.000513 0.004518 -0.004638
# 4 0.000557 -0.003862 0.000513 0.025062 -0.000992 -0.002345
# 5 -0.002239 -0.000276 0.004518 -0.000992 0.021192 -0.005189
# 6 -0.000086 -0.005838 -0.004638 -0.002345 -0.005189 0.042468
#
#
# Mechanical properties :
#
#
# Convention : Reuss Voigt Hill
#
# Bulk Modulus (GPa) = 33.08329 47.06171 40.07250
# Shear Modulus (GPa) = 38.83225 50.80202 44.81713
#
# Velocity S-wave (km/s) = 3.97354 4.54488 4.26878
# Velocity P-wave (km/s) = 5.87398 6.83201 6.37103
#
# Compressibility (1/GPa) = 0.03022674
#
# Stress axis : x y z
#
# Youngs Moduli (GPa) = 130.42343 65.43848 139.94410
#
# Poissons Ratio (x) = -0.03647 0.25220
# Poissons Ratio (y) = -0.07269 -0.18345
# Poissons Ratio (z) = 0.23504 -0.08578
#
# Static dielectric constant tensor:
#      x y z
#    x 2.087200 0.013800 -0.051690 
#    y 0.013800 2.026900 -0.075620 
#    z -0.051690 -0.075620 1.973390 
# 
# From -- ./inp_files/473507.got.cif
#   From: 2010.05.17/outbox.cif.g08.bks.cpg/sg2_237_cif.got.tgz:473507.got - 2010.06.03 11:33:40.
