data_PCOD9064656
_publ_section_title
;
Structure prediction by ZEFSAII (Michael W. Deem and Ramdas Pophale) SiO2 
 PCOD9064656
Probable space group: P -1
;
_chemical_formula_sum "Si O2"
_cell_formula_units_Z 13
_cell_length_a 7.459486
_cell_length_b 13.939753
_cell_length_c 6.412160
_cell_angle_alpha 114.321411
_cell_angle_beta 95.946073
_cell_angle_gamma 59.256753
_cell_volume 517.305987
_symmetry_space_group_name_H-M "P -1"
_symmetry_group_IT_number 2
_symmetry_cell_setting 'triclinic'
loop_
_space_group_symop_operation_xyz
x,y,z
-x,-y,-z
loop_
_atom_site_type_symbol
_atom_site_label
_atom_site_fract_x
_atom_site_fract_y
_atom_site_fract_z
Si Si1 0.317133 0.460790 0.024813
Si Si2 0.436211 0.718174 0.458568
Si Si3 0.500000 0.500000 0.500000
Si Si4 0.976830 0.844814 0.400275
Si Si5 0.165626 0.930835 0.144300
Si Si6 0.556055 0.859856 0.865143
Si Si7 0.923476 0.668867 0.986993
O O1 0.407643 0.506950 0.256598
O O2 0.169249 0.418338 0.073664
O O3 0.483723 0.342400 0.810112
O O4 0.174181 0.573026 0.945108
O O5 0.540889 0.611429 0.545970
O O6 0.186579 0.777458 0.504063
O O7 0.496487 0.820229 0.607874
O O8 0.065044 0.869088 0.217428
O O9 0.827366 0.970847 0.612187
O O10 0.885323 0.759449 0.257409
O O11 0.395246 0.851801 0.000868
O O12 0.000000 0.000000 0.000000
O O13 0.798015 0.761879 0.866501
O O14 0.500000 0.000000 0.000000
#
# Coordination Sequence:
#
# PCOD9064656 Si02
#       7
#     2   2   1   2   2   2   2
#     4  11  26  48  74 107 148 186 250 305 368 437
#     4  12  26  47  74 108 141 200 241 301 368 443
#     4  12  24  50  74 104 140 192 246 294 366 442
#     4  11  25  43  74 103 142 192 245 302 362 431
#     4  11  24  46  71 104 142 195 250 292 359 444
#     4  12  27  47  73 110 152 197 244 300 376 436
#     4  11  25  47  67 109 148 186 241 310 368 427
#
# _framework density 25.130196999999999
#
# number of rings (size 3 to 8) (size 9 to 14) (size 15 to 20)
#    0.000    0.615    4.615    2.308    4.308    1.231 
#    2.769    0.000    0.000    0.000    0.000    0.000 
#    0.000    0.000    0.000    0.000    0.000    0.000 
#
# Total GULP energy -72478.819078 kJ/mol
# GULP energy per Si atom -5575.293775 kJ/mol
# Density = 2.507300 g / cm^3
# Si number density = 25.130197 Si / 1000 Ang^3
#
#
#
# Elastic Constant Matrix: (Units=GPa)
#
#
# Indices 1 2 3 4 5 6 
#
# 1 75.9246 12.2416 53.0857 3.8169 28.4167 -3.2601
# 2 12.2416 106.5745 39.0717 -3.8960 9.4090 -0.9798
# 3 53.0857 39.0717 118.2225 21.0509 33.1576 -14.1065
# 4 3.8169 -3.8960 21.0509 34.7108 7.4267 8.3318
# 5 28.4167 9.4090 33.1576 7.4267 58.5438 3.6377
# 6 -3.2601 -0.9798 -14.1065 8.3318 3.6377 36.8940
#
#
#
# Elastic Compliance Matrix: (Units=1/GPa)
#
#
# Indices 1 2 3 4 5 6 
#
# 1 0.021649 0.001911 -0.010121 0.005821 -0.005656 -0.002663
# 2 0.001911 0.011543 -0.006056 0.005469 0.000145 -0.003089
# 3 -0.010121 -0.006056 0.019661 -0.012941 -0.004217 0.009801
# 4 0.005821 0.005469 -0.012941 0.039944 -0.000619 -0.013248
# 5 -0.005656 0.000145 -0.004217 -0.000619 0.022531 -0.004190
# 6 -0.002663 -0.003089 0.009801 -0.013248 -0.004190 0.033939
#
#
# Mechanical properties :
#
#
# Convention : Reuss Voigt Hill
#
# Bulk Modulus (GPa) = 41.11548 56.61330 48.86439
# Shear Modulus (GPa) = 26.89551 39.11791 33.00671
#
# Velocity S-wave (km/s) = 3.27501 3.94967 3.62806
# Velocity P-wave (km/s) = 5.54053 6.58610 6.08581
#
# Compressibility (1/GPa) = 0.02432174
#
# Stress axis : x y z
#
# Youngs Moduli (GPa) = 46.19133 86.63623 50.86199
#
# Poissons Ratio (x) = -0.16559 0.51475
# Poissons Ratio (y) = -0.08829 0.30803
# Poissons Ratio (z) = 0.46749 0.52469
#
# Static dielectric constant tensor:
#      x y z
#    x 1.989640 0.006630 -0.011620 
#    y 0.006630 2.038910 -0.036690 
#    z -0.011620 -0.036690 1.908950 
# 
# From -- ./inp_files/28785.got.cif
#   From: 2010.05.17/outbox.cif.g08.bks.cpg/sg2_15_cif.got.tgz:28785.got - 2010.06.03 11:33:40.
