data_PCOD9064225
_publ_section_title
;
Structure prediction by ZEFSAII (Michael W. Deem and Ramdas Pophale) SiO2 
 PCOD9064225
Probable space group: P -1
;
_chemical_formula_sum "Si O2"
_cell_formula_units_Z 16
_cell_length_a 9.109601
_cell_length_b 10.980990
_cell_length_c 17.039675
_cell_angle_alpha 34.475691
_cell_angle_beta 49.280148
_cell_angle_gamma 62.438712
_cell_volume 719.984105
_symmetry_space_group_name_H-M "P -1"
_symmetry_group_IT_number 2
_symmetry_cell_setting 'triclinic'
loop_
_space_group_symop_operation_xyz
x,y,z
-x,-y,-z
loop_
_atom_site_type_symbol
_atom_site_label
_atom_site_fract_x
_atom_site_fract_y
_atom_site_fract_z
Si Si1 0.467907 0.050454 0.187993
Si Si2 0.905410 0.537061 0.644170
Si Si3 0.491266 0.598089 0.363258
Si Si4 0.811558 0.504665 0.188428
Si Si5 0.550804 0.512886 0.121232
Si Si6 0.854941 0.169588 0.466178
Si Si7 0.124995 0.253402 0.616912
Si Si8 0.769763 0.194976 0.124144
O O1 0.689235 0.123438 0.103806
O O2 0.451459 0.843753 0.246818
O O3 0.340634 0.948783 0.360555
O O4 0.398286 0.260232 0.064526
O O5 0.677999 0.511324 0.762127
O O6 0.943551 0.710457 0.466683
O O7 0.040908 0.633258 0.618646
O O8 0.970234 0.321304 0.698047
O O9 0.500000 0.500000 0.500000
O O10 0.695185 0.601644 0.246594
O O11 0.320682 0.434770 0.465577
O O12 0.688313 0.518730 0.145912
O O13 0.814067 0.260315 0.347248
O O14 0.031922 0.629645 0.037785
O O15 0.602755 0.313743 0.157685
O O16 0.000000 0.000000 0.500000
O O17 0.182118 0.018966 0.736007
#
# Coordination Sequence:
#
# PCOD9064225 Si02
#       8
#     2   2   2   2   2   2   2   2
#     4  12  26  45  75 102 147 185 237 297 353 425
#     4  11  25  45  72 104 144 180 243 285 364 412
#     4  12  22  47  72 105 138 187 241 293 351 422
#     4  12  27  46  72 107 144 187 241 291 358 420
#     4  12  28  47  72 109 147 186 236 299 355 423
#     4  12  25  45  73 101 142 189 237 289 355 426
#     4  11  24  45  72 106 137 188 236 298 343 427
#     4  12  27  46  74 103 150 187 242 285 361 422
#
# _framework density 22.222712000000001
#
# number of rings (size 3 to 8) (size 9 to 14) (size 15 to 20)
#    0.000    0.250    5.000    3.000    5.250    1.500 
#    0.000    0.000    0.000    0.000    0.000    0.000 
#    0.000    0.000    0.000    0.000    0.000    0.000 
#
# Total GULP energy -89580.534274 kJ/mol
# GULP energy per Si atom -5598.783392 kJ/mol
# Density = 2.217213 g / cm^3
# Si number density = 22.222712 Si / 1000 Ang^3
#
#
#
# Elastic Constant Matrix: (Units=GPa)
#
#
# Indices 1 2 3 4 5 6 
#
# 1 103.0013 -13.2127 47.1079 -1.6377 5.2167 -6.4003
# 2 -13.2127 99.2648 44.5794 -17.4855 -10.8362 -29.6587
# 3 47.1079 44.5794 100.4552 -19.8175 6.3689 -12.4716
# 4 -1.6377 -17.4855 -19.8175 34.9093 -25.3341 6.3003
# 5 5.2167 -10.8362 6.3689 -25.3341 43.1199 0.5013
# 6 -6.4003 -29.6587 -12.4716 6.3003 0.5013 36.1746
#
#
#
# Elastic Compliance Matrix: (Units=1/GPa)
#
#
# Indices 1 2 3 4 5 6 
#
# 1 0.016339 0.009026 -0.011215 -0.001621 0.000918 0.006694
# 2 0.009026 0.025645 -0.011637 0.015387 0.015929 0.015710
# 3 -0.011215 -0.011637 0.020887 0.005435 -0.001399 -0.005251
# 4 -0.001621 0.015387 0.005435 0.072430 0.045804 0.000953
# 5 0.000918 0.015929 -0.001399 0.045804 0.054154 0.004012
# 6 0.006694 0.015710 -0.005251 0.000953 0.004012 0.039676
#
#
# Mechanical properties :
#
#
# Convention : Reuss Voigt Hill
#
# Bulk Modulus (GPa) = 28.39341 51.07450 39.73395
# Shear Modulus (GPa) = 18.62038 37.79055 28.20547
#
# Velocity S-wave (km/s) = 2.89779 4.12823 3.56647
# Velocity P-wave (km/s) = 4.89905 6.76432 5.90579
#
# Compressibility (1/GPa) = 0.03521944
#
# Stress axis : x y z
#
# Youngs Moduli (GPa) = 61.20264 38.99415 47.87694
#
# Poissons Ratio (x) = -0.35196 0.53692
# Poissons Ratio (y) = -0.55242 0.55716
# Poissons Ratio (z) = 0.68636 0.45379
#
# Static dielectric constant tensor:
#      x y z
#    x 1.831040 0.004110 0.025680 
#    y 0.004110 1.870460 0.028700 
#    z 0.025680 0.028700 1.826360 
# 
# From -- ./inp_files/446953.got.cif
#   From: 2010.05.17/outbox.cif.g08.bks.cpg/sg2_224_cif.got.tgz:446953.got - 2010.06.03 11:33:40.
