data_PCOD9064365
_publ_section_title
;
Structure prediction by ZEFSAII (Michael W. Deem and Ramdas Pophale) SiO2 
 PCOD9064365
Probable space group: P -1
;
_chemical_formula_sum "Si O2"
_cell_formula_units_Z 15
_cell_length_a 9.578326
_cell_length_b 12.698805
_cell_length_c 8.334310
_cell_angle_alpha 93.702187
_cell_angle_beta 90.839352
_cell_angle_gamma 40.567781
_cell_volume 656.975418
_symmetry_space_group_name_H-M "P -1"
_symmetry_group_IT_number 2
_symmetry_cell_setting 'triclinic'
loop_
_space_group_symop_operation_xyz
x,y,z
-x,-y,-z
loop_
_atom_site_type_symbol
_atom_site_label
_atom_site_fract_x
_atom_site_fract_y
_atom_site_fract_z
Si Si1 0.015594 0.196262 0.195611
Si Si2 0.542119 0.148449 0.902975
Si Si3 0.143062 0.612651 0.283999
Si Si4 0.428292 0.642636 0.911495
Si Si5 0.000000 0.500000 0.500000
Si Si6 0.527473 0.857771 0.476756
Si Si7 0.930764 0.921443 0.463894
Si Si8 0.098036 0.329676 0.018297
O O1 0.807375 0.250823 0.145588
O O2 0.062246 0.143634 0.373675
O O3 0.227211 0.037973 0.088110
O O4 0.003903 0.328530 0.175403
O O5 0.484378 0.171696 0.714532
O O6 0.352255 0.199653 0.001579
O O7 0.560168 0.258551 0.972120
O O8 0.391785 0.450983 0.232198
O O9 0.059977 0.573890 0.403859
O O10 0.095524 0.760176 0.345984
O O11 0.999791 0.680945 0.128980
O O12 0.500000 0.500000 0.000000
O O13 0.749063 0.686244 0.529839
O O14 0.500000 0.000000 0.500000
O O15 0.318220 0.936348 0.576611
O O16 0.000000 0.000000 0.500000
O O17 0.000000 0.500000 0.000000
#
# Coordination Sequence:
#
# PCOD9064365 Si02
#       8
#     2   2   2   2   1   2   2   2
#     4  11  27  46  72 104 148 201 246 305 383 445
#     4  11  24  45  74 105 144 193 247 311 370 448
#     4  12  27  45  77 107 153 197 252 320 378 453
#     4  12  26  47  70 107 148 192 249 306 376 456
#     4  12  26  46  78 110 150 204 250 312 394 436
#     4  11  24  49  75 109 149 193 254 314 371 457
#     4  11  28  50  71 107 154 198 252 309 381 458
#     4  12  23  46  73 109 144 187 251 311 373 448
#
# _framework density 22.831903000000001
#
# number of rings (size 3 to 8) (size 9 to 14) (size 15 to 20)
#    0.000    0.533    5.333    0.800    7.467    2.667 
#    2.400    0.000    0.000    0.000    0.000    0.000 
#    0.000    0.000    0.000    0.000    0.000    0.000 
#
# Total GULP energy -83716.022436 kJ/mol
# GULP energy per Si atom -5581.068162 kJ/mol
# Density = 2.277994 g / cm^3
# Si number density = 22.831903 Si / 1000 Ang^3
#
#
#
# Elastic Constant Matrix: (Units=GPa)
#
#
# Indices 1 2 3 4 5 6 
#
# 1 121.4061 44.2153 21.0660 4.2208 0.3959 -16.8647
# 2 44.2153 138.6042 20.9933 1.3868 15.4252 -14.2548
# 3 21.0660 20.9933 47.7606 4.5893 0.9177 7.2358
# 4 4.2208 1.3868 4.5893 28.5733 4.5771 -6.6283
# 5 0.3959 15.4252 0.9177 4.5771 37.6766 -1.6363
# 6 -16.8647 -14.2548 7.2358 -6.6283 -1.6363 54.9415
#
#
#
# Elastic Compliance Matrix: (Units=1/GPa)
#
#
# Indices 1 2 3 4 5 6 
#
# 1 0.010242 -0.002499 -0.003873 -0.000259 0.001172 0.003009
# 2 -0.002499 0.009130 -0.003307 0.001544 -0.003727 0.002112
# 3 -0.003873 -0.003307 0.025453 -0.004916 0.001113 -0.005959
# 4 -0.000259 0.001544 -0.004916 0.037778 -0.004866 0.005381
# 5 0.001172 -0.003727 0.001113 -0.004866 0.028598 -0.000489
# 6 0.003009 0.002112 -0.005959 0.005381 -0.000489 0.021092
#
#
# Mechanical properties :
#
#
# Convention : Reuss Voigt Hill
#
# Bulk Modulus (GPa) = 39.26660 53.36889 46.31775
# Shear Modulus (GPa) = 31.22250 39.00470 35.11360
#
# Velocity S-wave (km/s) = 3.70198 4.13769 3.92588
# Velocity P-wave (km/s) = 5.95888 6.80094 6.39379
#
# Compressibility (1/GPa) = 0.02546693
#
# Stress axis : x y z
#
# Youngs Moduli (GPa) = 97.63604 109.53472 39.28740
#
# Poissons Ratio (x) = 0.27374 0.15214
# Poissons Ratio (y) = 0.24400 0.12994
# Poissons Ratio (z) = 0.37810 0.36228
#
# Static dielectric constant tensor:
#      x y z
#    x 1.868650 -0.003720 0.001690 
#    y -0.003720 1.885380 0.026150 
#    z 0.001690 0.026150 1.899010 
# 
# From -- ./inp_files/187578.got.cif
#   From: 2010.05.17/outbox.cif.g08.bks.cpg/sg2_94_cif.got.tgz:187578.got - 2010.06.03 11:33:40.
