data_PCOD9064414
_publ_section_title
;
Structure prediction by ZEFSAII (Michael W. Deem and Ramdas Pophale) SiO2 
 PCOD9064414
Probable space group: P -1
;
_chemical_formula_sum "Si O2"
_cell_formula_units_Z 16
_cell_length_a 9.139311
_cell_length_b 9.121984
_cell_length_c 20.486405
_cell_angle_alpha 56.135349
_cell_angle_beta 31.449142
_cell_angle_gamma 62.211077
_cell_volume 739.760659
_symmetry_space_group_name_H-M "P -1"
_symmetry_group_IT_number 2
_symmetry_cell_setting 'triclinic'
loop_
_space_group_symop_operation_xyz
x,y,z
-x,-y,-z
loop_
_atom_site_type_symbol
_atom_site_label
_atom_site_fract_x
_atom_site_fract_y
_atom_site_fract_z
Si Si1 0.101614 0.553516 0.799875
Si Si2 0.106803 0.803478 0.002951
Si Si3 0.756740 0.383650 0.783682
Si Si4 0.944373 0.917939 0.325302
Si Si5 0.582669 0.777036 0.932699
Si Si6 0.360919 0.674294 0.807180
Si Si7 0.384352 0.008923 0.436859
Si Si8 0.254183 0.623703 0.586305
O O1 0.202078 0.627331 0.812403
O O2 0.272343 0.640618 0.653827
O O3 0.106983 0.342058 0.848872
O O4 0.780579 0.607957 0.898501
O O5 0.395662 0.794397 0.935429
O O6 0.160407 0.740295 0.924496
O O7 0.000000 0.000000 0.000000
O O8 0.934495 0.270836 0.693035
O O9 0.518247 0.500023 0.813192
O O10 0.966295 0.521255 0.705452
O O11 0.620936 0.249665 0.921446
O O12 0.815142 0.929048 0.443963
O O13 0.199227 0.059374 0.186041
O O14 0.691832 0.967763 0.360259
O O15 0.573884 0.836242 0.669492
O O16 0.272200 0.819216 0.501624
O O17 0.500000 0.500000 0.500000
#
# Coordination Sequence:
#
# PCOD9064414 Si02
#       8
#     2   2   2   2   2   2   2   2
#     4  12  24  49  76 101 147 193 233 293 358 430
#     4  12  29  45  70 110 147 182 238 301 358 416
#     4  12  27  45  74 110 141 190 241 293 363 421
#     4  11  24  45  75 104 140 189 243 288 353 432
#     4  12  24  48  77 102 142 188 241 288 360 426
#     4  12  28  45  70 109 147 184 236 302 356 415
#     4  11  24  47  71 104 141 189 239 291 351 422
#     4  12  25  47  77 101 140 197 240 287 351 436
#
# _framework density 21.628616999999998
#
# number of rings (size 3 to 8) (size 9 to 14) (size 15 to 20)
#    0.000    0.250    6.250    2.625    5.250    1.000 
#    0.000    0.000    0.000    0.000    0.000    0.000 
#    0.000    0.000    0.000    0.000    0.000    0.000 
#
# Total GULP energy -89595.528911 kJ/mol
# GULP energy per Si atom -5599.720557 kJ/mol
# Density = 2.157939 g / cm^3
# Si number density = 21.628617 Si / 1000 Ang^3
#
#
#
# Elastic Constant Matrix: (Units=GPa)
#
#
# Indices 1 2 3 4 5 6 
#
# 1 84.9120 25.1610 20.0349 7.7177 -8.4388 -0.2923
# 2 25.1610 129.5295 17.2093 -0.7565 1.1082 7.1829
# 3 20.0349 17.2093 76.7156 -11.9526 -5.1851 7.0620
# 4 7.7177 -0.7565 -11.9526 54.0727 4.9938 0.0558
# 5 -8.4388 1.1082 -5.1851 4.9938 24.4902 -6.2246
# 6 -0.2923 7.1829 7.0620 0.0558 -6.2246 21.7645
#
#
#
# Elastic Compliance Matrix: (Units=1/GPa)
#
#
# Indices 1 2 3 4 5 6 
#
# 1 0.014329 -0.002588 -0.003658 -0.003447 0.005988 0.003955
# 2 -0.002588 0.008563 -0.001036 0.000487 -0.002415 -0.003216
# 3 -0.003658 -0.001036 0.015259 0.003881 0.000042 -0.004656
# 4 -0.003447 0.000487 0.003881 0.020344 -0.005308 -0.003037
# 5 0.005988 -0.002415 0.000042 -0.005308 0.047794 0.014546
# 6 0.003955 -0.003216 -0.004656 -0.003037 0.014546 0.052740
#
#
# Mechanical properties :
#
#
# Convention : Reuss Voigt Hill
#
# Bulk Modulus (GPa) = 42.39796 46.21862 44.30829
# Shear Modulus (GPa) = 27.55510 35.31560 31.43535
#
# Velocity S-wave (km/s) = 3.57320 4.04520 3.81650
# Velocity P-wave (km/s) = 6.05549 6.57524 6.32071
#
# Compressibility (1/GPa) = 0.02358604
#
# Stress axis : x y z
#
# Youngs Moduli (GPa) = 69.78892 116.78797 65.53450
#
# Poissons Ratio (x) = 0.30226 0.23972
# Poissons Ratio (y) = 0.18062 0.06791
# Poissons Ratio (z) = 0.25528 0.12102
#
# Static dielectric constant tensor:
#      x y z
#    x 1.782630 0.020420 -0.007140 
#    y 0.020420 1.783330 -0.020100 
#    z -0.007140 -0.020100 1.791160 
# 
# From -- ./inp_files/207983.got.cif
#   From: 2010.05.17/outbox.cif.g08.bks.cpg/sg2_104_cif.got.tgz:207983.got - 2010.06.03 11:33:40.
