data_PCOD9064895
_publ_section_title
;
Structure prediction by ZEFSAII (Michael W. Deem and Ramdas Pophale) SiO2 
 PCOD9064895
Probable space group: P -1
;
_chemical_formula_sum "Si O2"
_cell_formula_units_Z 12
_cell_length_a 7.177499
_cell_length_b 9.249191
_cell_length_c 10.425069
_cell_angle_alpha 87.124553
_cell_angle_beta 135.391252
_cell_angle_gamma 74.157371
_cell_volume 435.861034
_symmetry_space_group_name_H-M "P -1"
_symmetry_group_IT_number 2
_symmetry_cell_setting 'triclinic'
loop_
_space_group_symop_operation_xyz
x,y,z
-x,-y,-z
loop_
_atom_site_type_symbol
_atom_site_label
_atom_site_fract_x
_atom_site_fract_y
_atom_site_fract_z
Si Si1 0.305411 0.884399 0.843866
Si Si2 0.746698 0.029781 0.696339
Si Si3 0.416275 0.262048 0.751071
Si Si4 0.774656 0.512165 0.702216
Si Si5 0.158614 0.603123 0.682754
Si Si6 0.777536 0.765021 0.887642
O O1 0.255397 0.728430 0.787524
O O2 0.491692 0.835716 0.067849
O O3 0.991586 0.029639 0.719217
O O4 0.507255 0.104525 0.184190
O O5 0.596067 0.172224 0.716768
O O6 0.500000 0.000000 0.500000
O O7 0.908188 0.865911 0.866231
O O8 0.416761 0.435799 0.767289
O O9 0.075386 0.309659 0.547741
O O10 0.500000 0.500000 0.500000
O O11 0.680355 0.659075 0.750743
O O12 0.976204 0.551541 0.698121
O O13 0.995575 0.352926 0.893291
#
# Coordination Sequence:
#
# PCOD9064895 Si02
#       6
#     2   2   2   2   2   2
#     4  12  25  47  76 106 146 193 240 304 361 431
#     4  12  26  52  69 106 155 192 244 300 366 434
#     4  11  25  43  75 105 142 198 238 292 368 434
#     4  11  25  45  72 112 148 190 244 305 359 433
#     4  11  24  46  75 108 145 189 247 298 365 428
#     4  11  27  46  74 111 145 190 248 301 363 434
#
# _framework density 27.531711000000001
#
# number of rings (size 3 to 8) (size 9 to 14) (size 15 to 20)
#    0.000    0.667    5.000    1.000    7.000    1.333 
#    3.000    0.000    0.000    0.000    0.000    0.000 
#    0.000    0.000    0.000    0.000    0.000    0.000 
#
# Total GULP energy -67457.090334 kJ/mol
# GULP energy per Si atom -5621.424194 kJ/mol
# Density = 2.746905 g / cm^3
# Si number density = 27.531711 Si / 1000 Ang^3
#
#
#
# Elastic Constant Matrix: (Units=GPa)
#
#
# Indices 1 2 3 4 5 6 
#
# 1 142.3832 30.4483 13.3652 15.1547 -1.8232 -28.2692
# 2 30.4483 139.3506 20.3996 37.4089 -0.3974 -31.5695
# 3 13.3652 20.3996 133.0051 22.6896 -7.8274 -4.2495
# 4 15.1547 37.4089 22.6896 54.8703 -1.5020 -5.4781
# 5 -1.8232 -0.3974 -7.8274 -1.5020 29.2527 2.3245
# 6 -28.2692 -31.5695 -4.2495 -5.4781 2.3245 68.1039
#
#
#
# Elastic Compliance Matrix: (Units=1/GPa)
#
#
# Indices 1 2 3 4 5 6 
#
# 1 0.007905 -0.000688 -0.000376 -0.001273 0.000092 0.002833
# 2 -0.000688 0.009851 -0.000328 -0.006028 -0.000608 0.003796
# 3 -0.000376 -0.000328 0.008240 -0.003035 0.002030 -0.000107
# 4 -0.001273 -0.006028 -0.003035 0.023791 0.000376 -0.001611
# 5 0.000092 -0.000608 0.002030 0.000376 0.034846 -0.001276
# 6 0.002833 0.003796 -0.000107 -0.001611 -0.001276 0.017526
#
#
# Mechanical properties :
#
#
# Convention : Reuss Voigt Hill
#
# Bulk Modulus (GPa) = 43.07969 60.35167 51.71568
# Shear Modulus (GPa) = 44.37301 53.81376 49.09338
#
# Velocity S-wave (km/s) = 4.01896 4.42589 4.22733
# Velocity P-wave (km/s) = 6.10060 6.93444 6.53084
#
# Compressibility (1/GPa) = 0.02321279
#
# Stress axis : x y z
#
# Youngs Moduli (GPa) = 126.50264 101.51184 121.35369
#
# Poissons Ratio (x) = 0.06987 0.04558
# Poissons Ratio (y) = 0.08708 0.03979
# Poissons Ratio (z) = 0.04751 0.03328
#
# Static dielectric constant tensor:
#      x y z
#    x 2.120240 -0.005030 0.019550 
#    y -0.005030 2.132130 -0.031160 
#    z 0.019550 -0.031160 2.119530 
# 
# From -- ./inp_files/379760.got.cif
#   From: 2010.05.17/outbox.cif.g08.bks.cpg/sg2_190_cif.got.tgz:379760.got - 2010.06.03 11:33:40.
