data_PCOD9064117
_publ_section_title
;
Structure prediction by ZEFSAII (Michael W. Deem and Ramdas Pophale) SiO2 
 PCOD9064117
Probable space group: P -1
;
_chemical_formula_sum "Si O2"
_cell_formula_units_Z 16
_cell_length_a 12.417103
_cell_length_b 8.615340
_cell_length_c 18.630003
_cell_angle_alpha 148.247467
_cell_angle_beta 52.052060
_cell_angle_gamma 127.708180
_cell_volume 807.935761
_symmetry_space_group_name_H-M "P -1"
_symmetry_group_IT_number 2
_symmetry_cell_setting 'triclinic'
loop_
_space_group_symop_operation_xyz
x,y,z
-x,-y,-z
loop_
_atom_site_type_symbol
_atom_site_label
_atom_site_fract_x
_atom_site_fract_y
_atom_site_fract_z
Si Si1 0.873252 0.787696 0.930556
Si Si2 0.418826 0.164369 0.889637
Si Si3 0.036869 0.860074 0.626703
Si Si4 0.594714 0.832460 0.587927
Si Si5 0.599096 0.202375 0.097370
Si Si6 0.632250 0.859858 0.412242
Si Si7 0.106645 0.914592 0.365149
Si Si8 0.897719 0.175568 0.927647
O O1 0.886958 0.441214 0.778452
O O2 0.872772 0.970367 0.928877
O O3 0.740725 0.810433 0.042656
O O4 0.000000 0.000000 0.000000
O O5 0.493304 0.034640 0.742339
O O6 0.421013 0.980117 0.890449
O O7 0.500000 0.500000 0.000000
O O8 0.000000 0.500000 0.500000
O O9 0.205561 0.982341 0.610372
O O10 0.961637 0.994068 0.644000
O O11 0.958128 0.964354 0.766562
O O12 0.500000 0.500000 0.500000
O O13 0.633973 0.868550 0.502163
O O14 0.736860 0.904328 0.605839
O O15 0.595586 0.536245 0.259513
O O16 0.745292 0.244076 0.011736
O O17 0.500000 0.000000 0.000000
O O18 0.500000 0.000000 0.500000
O O19 0.000000 0.000000 0.500000
O O20 0.000000 0.500000 0.000000
#
# Coordination Sequence:
#
# PCOD9064117 Si02
#       8
#     2   2   2   2   2   2   2   2
#     4  11  26  43  72 106 142 187 242 296 358 423
#     4  11  25  46  69 104 142 186 239 290 352 426
#     4  12  28  47  73 105 146 189 246 295 369 433
#     4  12  27  47  75 105 149 192 244 296 365 429
#     4  11  27  46  71 103 145 186 235 297 359 425
#     4  12  29  49  71 107 149 191 241 303 362 433
#     4  12  26  47  74 104 147 191 242 306 357 430
#     4  11  24  45  71 102 142 185 237 294 356 429
#
# _framework density 19.803556
#
# number of rings (size 3 to 8) (size 9 to 14) (size 15 to 20)
#    0.000    0.500    5.000    1.500   10.500    2.000 
#    0.000    0.000    0.000    0.000    0.000    0.000 
#    0.000    0.000    0.000    0.000    0.000    0.000 
#
# Total GULP energy -89123.869254 kJ/mol
# GULP energy per Si atom -5570.241828 kJ/mol
# Density = 1.975848 g / cm^3
# Si number density = 19.803556 Si / 1000 Ang^3
#
#
#
# Elastic Constant Matrix: (Units=GPa)
#
#
# Indices 1 2 3 4 5 6 
#
# 1 109.5503 45.1539 46.8823 10.1568 -10.5395 41.3557
# 2 45.1539 108.1066 66.2223 7.8180 -12.4500 39.2253
# 3 46.8823 66.2223 199.8366 6.8574 -14.2040 38.1145
# 4 10.1568 7.8180 6.8574 59.9302 2.4551 -1.4533
# 5 -10.5395 -12.4500 -14.2040 2.4551 30.9488 -1.4774
# 6 41.3557 39.2253 38.1145 -1.4533 -1.4774 34.3260
#
#
#
# Elastic Compliance Matrix: (Units=1/GPa)
#
#
# Indices 1 2 3 4 5 6 
#
# 1 0.018652 0.002277 0.000316 -0.004377 0.006551 -0.025328
# 2 0.002277 0.018163 -0.001936 -0.003312 0.006444 -0.021212
# 3 0.000316 -0.001936 0.006850 -0.000816 0.002265 -0.005712
# 4 -0.004377 -0.003312 -0.000816 0.018380 -0.004151 0.010564
# 5 0.006551 0.006444 0.002265 -0.004151 0.037724 -0.016323
# 6 -0.025328 -0.021212 -0.005712 0.010564 -0.016323 0.089974
#
#
# Mechanical properties :
#
#
# Convention : Reuss Voigt Hill
#
# Bulk Modulus (GPa) = 22.23250 81.55672 51.89461
# Shear Modulus (GPa) = 24.57963 42.32334 33.45148
#
# Velocity S-wave (km/s) = 3.52685 4.62796 4.11440
# Velocity P-wave (km/s) = 5.27596 8.35641 6.98804
#
# Compressibility (1/GPa) = 0.04497919
#
# Stress axis : x y z
#
# Youngs Moduli (GPa) = 53.61392 55.05681 145.99098
#
# Poissons Ratio (x) = -0.12534 -0.04618
# Poissons Ratio (y) = -0.12206 0.28259
# Poissons Ratio (z) = -0.01696 0.10657
#
# Static dielectric constant tensor:
#      x y z
#    x 1.686980 -0.020310 0.002230 
#    y -0.020310 1.695080 -0.091070 
#    z 0.002230 -0.091070 1.797750 
# 
# From -- ./inp_files/206367.got.cif
#   From: 2010.05.17/outbox.cif.g08.bks.cpg/sg2_104_cif.got.tgz:206367.got - 2010.06.03 11:33:40.
