data_PCOD9064933
_publ_section_title
;
Structure prediction by ZEFSAII (Michael W. Deem and Ramdas Pophale) SiO2 
 PCOD9064933
Probable space group: P -1
;
_chemical_formula_sum "Si O2"
_cell_formula_units_Z 11
_cell_length_a 11.720802
_cell_length_b 7.753542
_cell_length_c 5.405008
_cell_angle_alpha 66.152196
_cell_angle_beta 110.433114
_cell_angle_gamma 86.492756
_cell_volume 409.092578
_symmetry_space_group_name_H-M "P -1"
_symmetry_group_IT_number 2
_symmetry_cell_setting 'triclinic'
loop_
_space_group_symop_operation_xyz
x,y,z
-x,-y,-z
loop_
_atom_site_type_symbol
_atom_site_label
_atom_site_fract_x
_atom_site_fract_y
_atom_site_fract_z
Si Si1 0.058474 0.125692 0.783672
Si Si2 0.598605 0.379374 0.335451
Si Si3 0.773189 0.573096 0.652118
Si Si4 0.458885 0.120260 0.647174
Si Si5 0.811715 0.222895 0.260000
Si Si6 0.000000 0.500000 0.500000
O O1 0.931471 0.263050 0.481416
O O2 0.101585 0.303498 0.829033
O O3 0.138578 0.974643 0.742200
O O4 0.000000 0.000000 0.000000
O O5 0.685804 0.517725 0.402537
O O6 0.535059 0.289513 0.564019
O O7 0.698911 0.213321 0.360445
O O8 0.500000 0.500000 0.000000
O O9 0.688500 0.781314 0.537465
O O10 0.908891 0.546931 0.655219
O O11 0.773115 0.404178 0.947027
O O12 0.500000 0.000000 0.500000
O O13 0.500000 0.000000 0.000000
#
# Coordination Sequence:
#
# PCOD9064933 Si02
#       6
#     2   2   2   2   2   1
#     4  11  24  48  71 111 154 205 261 330 399 484
#     4  12  25  50  81 107 157 214 269 334 413 486
#     4  12  27  50  77 113 160 212 274 329 414 486
#     4  12  30  50  78 121 161 213 277 343 406 490
#     4  11  24  46  76 107 153 208 266 324 413 476
#     4  12  26  48  78 110 162 204 266 336 400 482
#
# _framework density 26.888783
#
# number of rings (size 3 to 8) (size 9 to 14) (size 15 to 20)
#    0.000    0.364    5.455    1.636    5.091    2.182 
#    0.000    0.000    0.000    0.000    0.000    0.000 
#    0.000    0.000    0.000    0.000    0.000    0.000 
#
# Total GULP energy -61476.053504 kJ/mol
# GULP energy per Si atom -5588.732137 kJ/mol
# Density = 2.682758 g / cm^3
# Si number density = 26.888783 Si / 1000 Ang^3
#
#
#
# Elastic Constant Matrix: (Units=GPa)
#
#
# Indices 1 2 3 4 5 6 
#
# 1 173.4413 49.1972 64.6577 -3.1169 -26.5875 -30.8374
# 2 49.1972 138.3771 26.8291 -31.1268 3.1618 -51.3831
# 3 64.6577 26.8291 174.6186 -13.4946 -3.9436 -5.2624
# 4 -3.1169 -31.1268 -13.4946 41.2088 6.1333 0.9744
# 5 -26.5875 3.1618 -3.9436 6.1333 56.9061 -0.7248
# 6 -30.8374 -51.3831 -5.2624 0.9744 -0.7248 67.2567
#
#
#
# Elastic Compliance Matrix: (Units=1/GPa)
#
#
# Indices 1 2 3 4 5 6 
#
# 1 0.008448 -0.002527 -0.002811 -0.002862 0.004224 0.001810
# 2 -0.002527 0.014128 -0.000196 0.010640 -0.003006 0.009433
# 3 -0.002811 -0.000196 0.006906 0.002081 -0.001060 -0.000940
# 4 -0.002862 0.010640 0.002081 0.033406 -0.005302 0.006439
# 5 0.004224 -0.003006 -0.001060 -0.005302 0.020210 -0.000148
# 6 0.001810 0.009433 -0.000940 0.006439 -0.000148 0.022737
#
#
# Mechanical properties :
#
#
# Convention : Reuss Voigt Hill
#
# Bulk Modulus (GPa) = 54.30604 85.31166 69.80885
# Shear Modulus (GPa) = 40.63687 56.12453 48.38070
#
# Velocity S-wave (km/s) = 3.89175 4.57364 4.24640
# Velocity P-wave (km/s) = 6.35883 7.72576 7.07538
#
# Compressibility (1/GPa) = 0.01841416
#
# Stress axis : x y z
#
# Youngs Moduli (GPa) = 118.36700 70.78206 144.79315
#
# Poissons Ratio (x) = 0.17883 0.40705
# Poissons Ratio (y) = 0.29906 0.02845
# Poissons Ratio (z) = 0.33276 0.01391
#
# Static dielectric constant tensor:
#      x y z
#    x 1.660540 -0.753790 0.150410 
#    y -0.753790 1.067070 0.270620 
#    z 0.150410 0.270620 2.115290 
# 
# From -- ./inp_files/22087.got.cif
#   From: 2010.05.17/outbox.cif.g08.bks.cpg/sg2_12_cif.got.tgz:22087.got - 2010.06.03 11:33:40.
