data_PCOD9064421
_publ_section_title
;
Structure prediction by ZEFSAII (Michael W. Deem and Ramdas Pophale) SiO2 
 PCOD9064421
Probable space group: P -1
;
_chemical_formula_sum "Si O2"
_cell_formula_units_Z 14
_cell_length_a 14.066138
_cell_length_b 14.569831
_cell_length_c 5.338889
_cell_angle_alpha 113.026886
_cell_angle_beta 77.968111
_cell_angle_gamma 143.773625
_cell_volume 583.450966
_symmetry_space_group_name_H-M "P -1"
_symmetry_group_IT_number 2
_symmetry_cell_setting 'triclinic'
loop_
_space_group_symop_operation_xyz
x,y,z
-x,-y,-z
loop_
_atom_site_type_symbol
_atom_site_label
_atom_site_fract_x
_atom_site_fract_y
_atom_site_fract_z
Si Si1 0.425258 0.671469 0.508872
Si Si2 0.390089 0.986067 0.394553
Si Si3 0.769381 0.542332 0.116567
Si Si4 0.070987 0.160536 0.399711
Si Si5 0.876340 0.158597 0.230022
Si Si6 0.776196 0.901947 0.657175
Si Si7 0.069754 0.652451 0.977808
O O1 0.332304 0.583028 0.726919
O O2 0.588595 0.738874 0.508298
O O3 0.489860 0.837347 0.616029
O O4 0.319969 0.556195 0.199079
O O5 0.267773 0.946478 0.602591
O O6 0.260832 0.820312 0.117766
O O7 0.500000 0.000000 0.500000
O O8 0.805874 0.688257 0.304119
O O9 0.948152 0.638631 0.127019
O O10 0.158691 0.132327 0.233712
O O11 0.026577 0.212142 0.288202
O O12 0.899509 0.997198 0.457641
O O13 0.931626 0.315592 0.280928
O O14 0.799943 0.028839 0.910134
O O15 0.000000 0.500000 0.000000
#
# Coordination Sequence:
#
# PCOD9064421 Si02
#       7
#     2   2   2   2   2   2   2
#     4  12  26  47  72 108 158 197 252 313 374 447
#     4  12  27  46  73 106 142 202 251 313 378 451
#     4  12  26  47  72 108 158 197 252 313 374 447
#     4  11  24  45  75 107 145 200 253 306 375 450
#     4  12  21  48  76 102 152 186 257 306 372 456
#     4  11  24  45  75 107 145 200 253 306 375 450
#     4  12  27  46  73 106 142 202 251 313 378 451
#
# _framework density 23.995163000000002
#
# number of rings (size 3 to 8) (size 9 to 14) (size 15 to 20)
#    0.000    0.286    5.714    3.000    2.000    2.286 
#    0.000    0.000    0.000    0.000    0.000    0.000 
#    0.000    0.000    0.000    0.000    0.000    0.000 
#
# Total GULP energy -78287.973830 kJ/mol
# GULP energy per Si atom -5591.998131 kJ/mol
# Density = 2.394055 g / cm^3
# Si number density = 23.995163 Si / 1000 Ang^3
#
#
#
# Elastic Constant Matrix: (Units=GPa)
#
#
# Indices 1 2 3 4 5 6 
#
# 1 128.8324 21.5555 13.3865 8.8748 32.5136 -2.1564
# 2 21.5555 134.4879 27.2515 -7.9796 14.0600 4.7299
# 3 13.3865 27.2515 81.6456 1.7460 24.2027 4.6326
# 4 8.8748 -7.9796 1.7460 37.0520 6.1452 3.5275
# 5 32.5136 14.0600 24.2027 6.1452 39.3974 3.3719
# 6 -2.1564 4.7299 4.6326 3.5275 3.3719 33.0154
#
#
#
# Elastic Compliance Matrix: (Units=1/GPa)
#
#
# Indices 1 2 3 4 5 6 
#
# 1 0.010126 -0.001111 0.001200 -0.001453 -0.008615 0.001687
# 2 -0.001111 0.008365 -0.002325 0.002436 -0.000925 -0.001111
# 3 0.001200 -0.002325 0.015778 0.000174 -0.009810 -0.000819
# 4 -0.001453 0.002436 0.000174 0.028816 -0.004003 -0.003138
# 5 -0.008615 -0.000925 -0.009810 -0.004003 0.039703 -0.002681
# 6 0.001687 -0.001111 -0.000819 -0.003138 -0.002681 0.031282
#
#
# Mechanical properties :
#
#
# Convention : Reuss Voigt Hill
#
# Bulk Modulus (GPa) = 33.56047 52.15032 42.85539
# Shear Modulus (GPa) = 33.67582 40.74445 37.21014
#
# Velocity S-wave (km/s) = 3.75032 4.12518 3.94221
# Velocity P-wave (km/s) = 5.72450 6.66861 6.21451
#
# Compressibility (1/GPa) = 0.02979696
#
# Stress axis : x y z
#
# Youngs Moduli (GPa) = 98.75861 119.54444 63.37874
#
# Poissons Ratio (x) = 0.13281 -0.07603
# Poissons Ratio (y) = 0.10972 0.14734
# Poissons Ratio (z) = -0.11848 0.27791
#
# Static dielectric constant tensor:
#      x y z
#    x 1.930590 -0.070690 0.050180 
#    y -0.070690 1.926240 -0.019900 
#    z 0.050180 -0.019900 2.046380 
# 
# From -- ./inp_files/36852.got.cif
#   From: 2010.05.17/outbox.cif.g08.bks.cpg/sg2_19_cif.got.tgz:36852.got - 2010.06.03 11:33:40.
