data_PCOD9064426
_publ_section_title
;
Structure prediction by ZEFSAII (Michael W. Deem and Ramdas Pophale) SiO2 
 PCOD9064426
Probable space group: P -1
;
_chemical_formula_sum "Si O2"
_cell_formula_units_Z 13
_cell_length_a 10.930424
_cell_length_b 8.467942
_cell_length_c 8.762725
_cell_angle_alpha 84.380710
_cell_angle_beta 140.230278
_cell_angle_gamma 103.026441
_cell_volume 501.781640
_symmetry_space_group_name_H-M "P -1"
_symmetry_group_IT_number 2
_symmetry_cell_setting 'triclinic'
loop_
_space_group_symop_operation_xyz
x,y,z
-x,-y,-z
loop_
_atom_site_type_symbol
_atom_site_label
_atom_site_fract_x
_atom_site_fract_y
_atom_site_fract_z
Si Si1 0.100064 0.318914 0.705996
Si Si2 0.869856 0.571900 0.594359
Si Si3 0.887526 0.064507 0.746548
Si Si4 0.222502 0.730528 0.120382
Si Si5 0.484147 0.994082 0.802256
Si Si6 0.500000 0.500000 0.500000
Si Si7 0.455788 0.348206 0.217877
O O1 0.106328 0.300748 0.533423
O O2 0.949049 0.425296 0.605186
O O3 0.047549 0.154971 0.768454
O O4 0.318233 0.408623 0.959928
O O5 0.643701 0.497505 0.433555
O O6 0.010089 0.646609 0.857264
O O7 0.797829 0.196531 0.740332
O O8 0.707768 0.972192 0.473533
O O9 0.000000 0.000000 0.000000
O O10 0.348192 0.597347 0.262517
O O11 0.331179 0.876889 0.102170
O O12 0.488279 0.808521 0.781506
O O13 0.500000 0.000000 0.000000
O O14 0.372940 0.321686 0.310396
#
# Coordination Sequence:
#
# PCOD9064426 Si02
#       7
#     2   2   2   2   2   1   2
#     4  11  24  45  75 108 152 198 255 316 381 456
#     4  11  25  46  76 113 152 198 258 321 384 462
#     4  12  27  48  76 110 160 203 257 317 390 465
#     4  12  27  47  79 116 154 202 261 321 392 460
#     4  12  28  51  78 112 160 206 259 317 389 470
#     4  12  26  44  78 112 152 192 260 316 388 438
#     4  12  26  47  79 113 156 202 258 318 391 460
#
# _framework density 25.907682999999999
#
# number of rings (size 3 to 8) (size 9 to 14) (size 15 to 20)
#    0.000    0.308    4.615    2.769    6.462    3.692 
#    0.000    3.077    0.000    0.000    0.000    0.000 
#    0.000    0.000    0.000    0.000    0.000    0.000 
#
# Total GULP energy -72621.196622 kJ/mol
# GULP energy per Si atom -5586.245894 kJ/mol
# Density = 2.584872 g / cm^3
# Si number density = 25.907683 Si / 1000 Ang^3
#
#
#
# Elastic Constant Matrix: (Units=GPa)
#
#
# Indices 1 2 3 4 5 6 
#
# 1 115.1551 62.1125 72.5338 -5.7389 -9.5052 10.0942
# 2 62.1125 75.8250 50.8319 -5.7218 -5.4325 8.6873
# 3 72.5338 50.8319 185.0163 -8.9833 3.1786 -5.1223
# 4 -5.7389 -5.7218 -8.9833 44.6797 7.2107 -9.1229
# 5 -9.5052 -5.4325 3.1786 7.2107 53.6907 5.7310
# 6 10.0942 8.6873 -5.1223 -9.1229 5.7310 57.5840
#
#
#
# Elastic Compliance Matrix: (Units=1/GPa)
#
#
# Indices 1 2 3 4 5 6 
#
# 1 0.017728 -0.011531 -0.003924 -0.000827 0.002539 -0.002101
# 2 -0.011531 0.024430 -0.002218 0.000725 0.000658 -0.001812
# 3 -0.003924 -0.002218 0.007714 0.001488 -0.001802 0.002124
# 4 -0.000827 0.000725 0.001488 0.024189 -0.003878 0.004386
# 5 0.002539 0.000658 -0.001802 -0.003878 0.020123 -0.003322
# 6 -0.002101 -0.001812 0.002124 0.004386 -0.003322 0.019222
#
#
# Mechanical properties :
#
#
# Convention : Reuss Voigt Hill
#
# Bulk Modulus (GPa) = 68.83609 82.99476 75.91542
# Shear Modulus (GPa) = 32.55348 43.89210 38.22279
#
# Velocity S-wave (km/s) = 3.54859 4.12050 3.84519
# Velocity P-wave (km/s) = 6.58919 7.39881 7.00570
#
# Compressibility (1/GPa) = 0.01452726
#
# Stress axis : x y z
#
# Youngs Moduli (GPa) = 56.40921 40.93316 129.62624
#
# Poissons Ratio (x) = 0.47200 0.50863
# Poissons Ratio (y) = 0.65045 0.28746
# Poissons Ratio (z) = 0.22134 0.09077
#
# Static dielectric constant tensor:
#      x y z
#    x -3.866480 -0.367210 1.286430 
#    y -0.367210 2.073430 0.058840 
#    z 1.286430 0.058840 1.822420 
# 
# From -- ./inp_files/238818.got.cif
#   From: 2010.05.17/outbox.cif.g08.bks.cpg/sg2_120_cif.got.tgz:238818.got - 2010.06.03 11:33:40.
