data_PCOD9064816
_publ_section_title
;
Structure prediction by ZEFSAII (Michael W. Deem and Ramdas Pophale) SiO2 
 PCOD9064816
Probable space group: P -1
;
_chemical_formula_sum "Si O2"
_cell_formula_units_Z 16
_cell_length_a 14.036526
_cell_length_b 6.191292
_cell_length_c 23.507728
_cell_angle_alpha 97.489398
_cell_angle_beta 148.588402
_cell_angle_gamma 60.151245
_cell_volume 700.742283
_symmetry_space_group_name_H-M "P -1"
_symmetry_group_IT_number 2
_symmetry_cell_setting 'triclinic'
loop_
_space_group_symop_operation_xyz
x,y,z
-x,-y,-z
loop_
_atom_site_type_symbol
_atom_site_label
_atom_site_fract_x
_atom_site_fract_y
_atom_site_fract_z
Si Si1 0.286871 0.159774 0.809001
Si Si2 0.148410 0.082522 0.099777
Si Si3 0.412089 0.166464 0.163334
Si Si4 0.229030 0.854134 0.349863
Si Si5 0.261840 0.155251 0.279797
Si Si6 0.836209 0.850767 0.563752
Si Si7 0.904906 0.849493 0.472859
Si Si8 0.200752 0.104573 0.892611
O O1 0.253406 0.077635 0.850554
O O2 0.987796 0.492871 0.645547
O O3 0.428401 0.935386 0.817443
O O4 0.505457 0.158829 0.935758
O O5 0.366018 0.964890 0.158614
O O6 0.270047 0.995776 0.222340
O O7 0.893465 0.475590 0.987784
O O8 0.000000 0.000000 0.000000
O O9 0.587172 0.124335 0.300485
O O10 0.500000 0.500000 0.500000
O O11 0.007036 0.908454 0.205317
O O12 0.320113 0.964514 0.358936
O O13 0.089377 0.066312 0.342781
O O14 0.972990 0.533894 0.159248
O O15 0.510379 0.105416 0.400101
O O16 0.947534 0.836687 0.560944
O O17 0.000000 0.500000 0.500000
O O18 0.000000 0.000000 0.500000
#
# Coordination Sequence:
#
# PCOD9064816 Si02
#       8
#     2   2   2   2   2   2   2   2
#     4  11  24  46  74 101 153 182 242 313 381 449
#     4  11  27  45  76 105 142 194 251 316 378 462
#     4  11  25  48  72 106 145 193 250 312 388 451
#     4  12  26  42  73 105 141 192 246 308 373 448
#     4  12  24  48  73 104 142 191 250 298 373 459
#     4  12  25  46  74 108 144 193 251 314 379 454
#     4  12  29  49  75 112 155 204 257 317 392 467
#     4  11  25  47  70 106 144 191 241 305 378 454
#
# _framework density 22.832927000000002
#
# number of rings (size 3 to 8) (size 9 to 14) (size 15 to 20)
#    0.000    0.500    6.250    1.125    5.250    2.500 
#    0.000    0.000    0.000    0.000    0.000    0.000 
#    0.000    0.000    0.000    0.000    0.000    0.000 
#
# Total GULP energy -89176.875339 kJ/mol
# GULP energy per Si atom -5573.554709 kJ/mol
# Density = 2.278096 g / cm^3
# Si number density = 22.832927 Si / 1000 Ang^3
#
#
#
# Elastic Constant Matrix: (Units=GPa)
#
#
# Indices 1 2 3 4 5 6 
#
# 1 101.5402 41.5115 4.2595 0.6225 -13.4435 -4.0358
# 2 41.5115 51.9689 -7.5806 10.8248 -3.8615 -0.7307
# 3 4.2595 -7.5806 73.9417 4.0159 0.3241 2.2193
# 4 0.6225 10.8248 4.0159 33.8527 -0.8783 14.0509
# 5 -13.4435 -3.8615 0.3241 -0.8783 44.6337 8.9865
# 6 -4.0358 -0.7307 2.2193 14.0509 8.9865 29.5127
#
#
#
# Elastic Compliance Matrix: (Units=1/GPa)
#
#
# Indices 1 2 3 4 5 6 
#
# 1 0.016190 -0.014156 -0.002641 0.005378 0.004130 -0.001756
# 2 -0.014156 0.033994 0.004880 -0.013724 -0.002823 0.005932
# 3 -0.002641 0.004880 0.014351 -0.003447 -0.000650 0.000519
# 4 0.005378 -0.013724 -0.003447 0.043412 0.005690 -0.021746
# 5 0.004130 -0.002823 -0.000650 0.005690 0.025522 -0.009936
# 6 -0.001756 0.005932 0.000519 -0.021746 -0.009936 0.047130
#
#
# Mechanical properties :
#
#
# Convention : Reuss Voigt Hill
#
# Bulk Modulus (GPa) = 24.56919 33.75905 29.16412
# Shear Modulus (GPa) = 22.93578 34.21719 28.57648
#
# Velocity S-wave (km/s) = 3.17283 3.87536 3.54156
# Velocity P-wave (km/s) = 4.91998 5.90270 5.43361
#
# Compressibility (1/GPa) = 0.04070138
#
# Stress axis : x y z
#
# Youngs Moduli (GPa) = 61.76515 29.41706 69.68091
#
# Poissons Ratio (x) = 0.41642 0.18406
# Poissons Ratio (y) = 0.87434 -0.34006
# Poissons Ratio (z) = 0.16315 -0.14356
#
# Static dielectric constant tensor:
#      x y z
#    x 1.834650 0.025050 -0.044880 
#    y 0.025050 1.901730 -0.056880 
#    z -0.044880 -0.056880 1.728660 
# 
# From -- ./inp_files/81748.got.cif
#   From: 2010.05.17/outbox.cif.g08.bks.cpg/sg2_41_cif.got.tgz:81748.got - 2010.06.03 11:33:40.
