data_PCOD9064445
_publ_section_title
;
Structure prediction by ZEFSAII (Michael W. Deem and Ramdas Pophale) SiO2 
 PCOD9064445
Probable space group: P -1
;
_chemical_formula_sum "Si O2"
_cell_formula_units_Z 16
_cell_length_a 15.160133
_cell_length_b 9.182445
_cell_length_c 9.452033
_cell_angle_alpha 61.392228
_cell_angle_beta 145.642292
_cell_angle_gamma 116.079012
_cell_volume 649.305651
_symmetry_space_group_name_H-M "P -1"
_symmetry_group_IT_number 2
_symmetry_cell_setting 'triclinic'
loop_
_space_group_symop_operation_xyz
x,y,z
-x,-y,-z
loop_
_atom_site_type_symbol
_atom_site_label
_atom_site_fract_x
_atom_site_fract_y
_atom_site_fract_z
Si Si1 0.170062 0.127596 0.910155
Si Si2 0.341655 0.466486 0.476067
Si Si3 0.946014 0.493396 0.768190
Si Si4 0.865461 0.269195 0.317874
Si Si5 0.308582 0.142185 0.390295
Si Si6 0.326087 0.820466 0.152694
Si Si7 0.536869 0.631099 0.866686
Si Si8 0.233506 0.774613 0.497875
O O1 0.004619 0.162893 0.608260
O O2 0.203283 0.161389 0.103856
O O3 0.303017 0.256975 0.957672
O O4 0.215989 0.941577 0.029248
O O5 0.224566 0.438064 0.467635
O O6 0.320187 0.303621 0.429380
O O7 0.303392 0.630000 0.263080
O O8 0.512739 0.526862 0.737111
O O9 0.905459 0.305618 0.747684
O O10 0.049245 0.593214 0.739385
O O11 0.000000 0.500000 0.000000
O O12 0.788450 0.324462 0.336537
O O13 0.729537 0.175186 0.085964
O O14 0.491526 0.123443 0.605396
O O15 0.239143 0.969363 0.447533
O O16 0.393180 0.747854 0.637982
O O17 0.500000 0.500000 0.000000
#
# Coordination Sequence:
#
# PCOD9064445 Si02
#       8
#     2   2   2   2   2   2   2   2
#     4  12  25  47  77 115 147 203 253 317 374 456
#     4  11  25  45  75 112 143 205 255 315 370 458
#     4  11  24  49  79 105 157 204 247 305 393 452
#     4  12  29  46  79 115 158 194 255 314 389 447
#     4  12  27  47  82 109 152 198 268 305 376 456
#     4  12  25  49  76 109 155 197 250 312 386 446
#     4  11  24  45  76 105 153 199 258 309 381 446
#     4  11  27  50  74 114 152 205 250 320 372 455
#
# _framework density 24.641707
#
# number of rings (size 3 to 8) (size 9 to 14) (size 15 to 20)
#    0.000    0.500    3.750    4.500    3.500    5.000 
#    0.000    0.000    0.000    0.000    0.000    0.000 
#    0.000    0.000    0.000    0.000    0.000    0.000 
#
# Total GULP energy -89502.622238 kJ/mol
# GULP energy per Si atom -5593.913890 kJ/mol
# Density = 2.458562 g / cm^3
# Si number density = 24.641707 Si / 1000 Ang^3
#
#
#
# Elastic Constant Matrix: (Units=GPa)
#
#
# Indices 1 2 3 4 5 6 
#
# 1 106.0386 36.9274 23.2178 4.6135 -11.0569 10.2403
# 2 36.9274 158.9132 40.2787 -2.6059 -19.9502 -12.5406
# 3 23.2178 40.2787 139.0585 4.1895 -18.3663 -3.9135
# 4 4.6135 -2.6059 4.1895 20.4541 -11.0419 -11.7884
# 5 -11.0569 -19.9502 -18.3663 -11.0419 35.7799 0.9312
# 6 10.2403 -12.5406 -3.9135 -11.7884 0.9312 46.0740
#
#
#
# Elastic Compliance Matrix: (Units=1/GPa)
#
#
# Indices 1 2 3 4 5 6 
#
# 1 0.011348 -0.002873 -0.001062 -0.005627 -0.000251 -0.004829
# 2 -0.002873 0.008470 -0.001364 0.007582 0.005354 0.004660
# 3 -0.001062 -0.001364 0.008196 0.000506 0.003258 0.000625
# 4 -0.005627 0.007582 0.000506 0.078449 0.026362 0.022896
# 5 -0.000251 0.005354 0.003258 0.026362 0.040464 0.007717
# 6 -0.004829 0.004660 0.000625 0.022896 0.007717 0.029801
#
#
# Mechanical properties :
#
#
# Convention : Reuss Voigt Hill
#
# Bulk Modulus (GPa) = 57.41451 67.20647 62.31049
# Shear Modulus (GPa) = 25.88909 40.70070 33.29490
#
# Velocity S-wave (km/s) = 3.24484 4.06852 3.67980
# Velocity P-wave (km/s) = 6.11465 7.02874 6.58757
#
# Compressibility (1/GPa) = 0.01741720
#
# Stress axis : x y z
#
# Youngs Moduli (GPa) = 88.11740 118.06159 122.00557
#
# Poissons Ratio (x) = 0.33916 0.12960
# Poissons Ratio (y) = 0.25313 0.16641
# Poissons Ratio (z) = 0.09360 0.16103
#
# Static dielectric constant tensor:
#      x y z
#    x 2.015090 -0.016580 0.050290 
#    y -0.016580 1.956270 0.012310 
#    z 0.050290 0.012310 2.046200 
# 
# From -- ./inp_files/298059.got.cif
#   From: 2010.05.17/outbox.cif.g08.bks.cpg/sg2_150_cif.got.tgz:298059.got - 2010.06.03 11:33:40.
