data_PCOD9064580
_publ_section_title
;
Structure prediction by ZEFSAII (Michael W. Deem and Ramdas Pophale) SiO2 
 PCOD9064580
Probable space group: P -1
;
_chemical_formula_sum "Si O2"
_cell_formula_units_Z 16
_cell_length_a 18.049511
_cell_length_b 5.702697
_cell_length_c 7.964673
_cell_angle_alpha 59.695876
_cell_angle_beta 64.918602
_cell_angle_gamma 75.332200
_cell_volume 640.240364
_symmetry_space_group_name_H-M "P -1"
_symmetry_group_IT_number 2
_symmetry_cell_setting 'triclinic'
loop_
_space_group_symop_operation_xyz
x,y,z
-x,-y,-z
loop_
_atom_site_type_symbol
_atom_site_label
_atom_site_fract_x
_atom_site_fract_y
_atom_site_fract_z
Si Si1 0.330062 0.117100 0.705121
Si Si2 0.813871 0.794675 0.921348
Si Si3 0.741534 0.387737 0.961600
Si Si4 0.852817 0.036213 0.439850
Si Si5 0.781722 0.532536 0.510249
Si Si6 0.429438 0.300954 0.075030
Si Si7 0.015742 0.169331 0.094123
Si Si8 0.506204 0.805205 0.320492
O O1 0.306615 0.361425 0.514733
O O2 0.423879 0.079241 0.673223
O O3 0.271554 0.162137 0.911504
O O4 0.299537 0.824154 0.798541
O O5 0.814162 0.481591 0.976223
O O6 0.818045 0.911905 0.688129
O O7 0.890413 0.877153 0.924190
O O8 0.780442 0.360117 0.746708
O O9 0.661349 0.570832 0.912344
O O10 0.824612 0.816154 0.408336
O O11 0.821508 0.350495 0.388187
O O12 0.950315 0.047672 0.328641
O O13 0.432323 0.029985 0.286653
O O14 0.500000 0.500000 0.000000
O O15 0.456830 0.219819 0.891442
O O16 0.000000 0.500000 0.000000
O O17 0.000000 0.000000 0.000000
O O18 0.500000 0.500000 0.500000
#
# Coordination Sequence:
#
# PCOD9064580 Si02
#       8
#     2   2   2   2   2   2   2   2
#     4  12  24  44  70 103 144 189 243 308 367 438
#     4  11  25  45  73 100 145 189 247 297 365 442
#     4  11  25  46  69 106 137 197 241 310 366 439
#     4  11  24  49  68 110 143 198 242 300 365 439
#     4  11  27  43  76 104 151 187 253 300 369 433
#     4  11  24  46  69  94 148 188 241 303 373 439
#     4  12  27  45  72 109 151 191 243 302 366 439
#     4  11  27  43  70 107 142 191 248 304 375 446
#
# _framework density 24.990615999999999
#
# number of rings (size 3 to 8) (size 9 to 14) (size 15 to 20)
#    0.000    0.750    3.750    2.625    7.000    3.500 
#    0.000    3.125    0.000    0.000    0.000    0.000 
#    0.000    0.000    0.000    0.000    0.000    0.000 
#
# Total GULP energy -89208.371867 kJ/mol
# GULP energy per Si atom -5575.523242 kJ/mol
# Density = 2.493374 g / cm^3
# Si number density = 24.990616 Si / 1000 Ang^3
#
#
#
# Elastic Constant Matrix: (Units=GPa)
#
#
# Indices 1 2 3 4 5 6 
#
# 1 83.1066 36.0751 4.6723 -4.1008 7.9242 14.0737
# 2 36.0751 110.2135 10.3792 -7.0067 -1.6506 10.1303
# 3 4.6723 10.3792 67.0508 -1.8591 14.3023 -6.2524
# 4 -4.1008 -7.0067 -1.8591 44.1964 -0.2687 -1.7374
# 5 7.9242 -1.6506 14.3023 -0.2687 34.5776 -2.1474
# 6 14.0737 10.1303 -6.2524 -1.7374 -2.1474 44.0962
#
#
#
# Elastic Compliance Matrix: (Units=1/GPa)
#
#
# Indices 1 2 3 4 5 6 
#
# 1 0.015098 -0.004626 0.000164 0.000497 -0.003988 -0.003907
# 2 -0.004626 0.010989 -0.001951 0.001199 0.002329 -0.001164
# 3 0.000164 -0.001951 0.016937 0.000473 -0.006979 0.002476
# 4 0.000497 0.001199 0.000473 0.022903 -0.000041 0.000534
# 5 -0.003988 0.002329 -0.006979 -0.000041 0.032916 0.001349
# 6 -0.003907 -0.001164 0.002476 0.000534 0.001349 0.024630
#
#
# Mechanical properties :
#
#
# Convention : Reuss Voigt Hill
#
# Bulk Modulus (GPa) = 33.11405 40.29157 36.70281
# Shear Modulus (GPa) = 34.16093 38.52366 36.34229
#
# Velocity S-wave (km/s) = 3.70124 3.93049 3.81758
# Velocity P-wave (km/s) = 5.61649 6.06267 5.84384
#
# Compressibility (1/GPa) = 0.03019866
#
# Stress axis : x y z
#
# Youngs Moduli (GPa) = 66.23337 90.99654 59.04130
#
# Poissons Ratio (x) = 0.42099 -0.00969
# Poissons Ratio (y) = 0.30642 0.11518
# Poissons Ratio (z) = -0.01087 0.17751
#
# Static dielectric constant tensor:
#      x y z
#    x 1.937580 0.092190 -0.020680 
#    y 0.092190 2.434040 -0.170590 
#    z -0.020680 -0.170590 2.037270 
# 
# From -- ./inp_files/323289.got.cif
#   From: 2010.05.17/outbox.cif.g08.bks.cpg/sg2_162_cif.got.tgz:323289.got - 2010.06.03 11:33:40.
