data_PCOD9064573
_publ_section_title
;
Structure prediction by ZEFSAII (Michael W. Deem and Ramdas Pophale) SiO2 
 PCOD9064573
Probable space group: P -1
;
_chemical_formula_sum "Si O2"
_cell_formula_units_Z 16
_cell_length_a 12.419287
_cell_length_b 21.134667
_cell_length_c 9.939988
_cell_angle_alpha 142.333964
_cell_angle_beta 130.324406
_cell_angle_gamma 26.338971
_cell_volume 688.420294
_symmetry_space_group_name_H-M "P -1"
_symmetry_group_IT_number 2
_symmetry_cell_setting 'triclinic'
loop_
_space_group_symop_operation_xyz
x,y,z
-x,-y,-z
loop_
_atom_site_type_symbol
_atom_site_label
_atom_site_fract_x
_atom_site_fract_y
_atom_site_fract_z
Si Si1 0.169205 0.909554 0.354526
Si Si2 0.868241 0.791304 0.541103
Si Si3 0.809083 0.207149 0.166929
Si Si4 0.587140 0.553873 0.982611
Si Si5 0.171870 0.499310 0.494717
Si Si6 0.941060 0.665692 0.863151
Si Si7 0.302399 0.726487 0.517931
Si Si8 0.668765 0.957460 0.361260
O O1 0.312166 0.931605 0.474495
O O2 0.938196 0.054932 0.310696
O O3 0.365769 0.697774 0.154403
O O4 0.000000 0.000000 0.500000
O O5 0.829503 0.836301 0.425262
O O6 0.014737 0.801384 0.738577
O O7 0.045928 0.592696 0.404268
O O8 0.601469 0.923475 0.613396
O O9 0.672849 0.316740 0.380128
O O10 0.586846 0.314340 0.064570
O O11 0.000000 0.000000 0.000000
O O12 0.805405 0.494669 0.113387
O O13 0.719088 0.365862 0.740190
O O14 0.024199 0.645002 0.743452
O O15 0.451193 0.369547 0.497089
O O16 0.177011 0.375055 0.318327
O O17 0.764550 0.842962 0.110973
#
# Coordination Sequence:
#
# PCOD9064573 Si02
#       8
#     2   2   2   2   2   2   2   2
#     4  12  26  44  73 109 145 194 248 302 363 438
#     4  11  24  46  69 106 146 193 241 311 361 435
#     4  12  24  44  71 108 148 188 248 302 368 434
#     4  12  24  45  76  99 145 193 237 305 360 436
#     4  11  27  45  71 104 148 189 245 304 373 436
#     4  11  26  48  69 106 145 195 244 302 369 446
#     4  12  25  45  71 108 145 187 247 300 364 437
#     4  11  25  46  74 105 150 190 250 298 369 443
#
# _framework density 23.241616
#
# number of rings (size 3 to 8) (size 9 to 14) (size 15 to 20)
#    0.000    0.500    5.000    1.875    5.250    4.000 
#    0.000    0.000    0.000    0.000    0.000    0.000 
#    0.000    0.000    0.000    0.000    0.000    0.000 
#
# Total GULP energy -89260.907527 kJ/mol
# GULP energy per Si atom -5578.806720 kJ/mol
# Density = 2.318872 g / cm^3
# Si number density = 23.241616 Si / 1000 Ang^3
#
#
#
# Elastic Constant Matrix: (Units=GPa)
#
#
# Indices 1 2 3 4 5 6 
#
# 1 129.9140 15.1508 35.8658 -15.1589 -9.8098 -18.2146
# 2 15.1508 51.3295 2.6926 -11.1290 -2.3739 -3.8346
# 3 35.8658 2.6926 82.3889 -6.7801 -25.9140 -8.6260
# 4 -15.1589 -11.1290 -6.7801 31.7354 -2.6305 -3.1360
# 5 -9.8098 -2.3739 -25.9140 -2.6305 23.2170 0.2352
# 6 -18.2146 -3.8346 -8.6260 -3.1360 0.2352 38.2179
#
#
#
# Elastic Compliance Matrix: (Units=1/GPa)
#
#
# Indices 1 2 3 4 5 6 
#
# 1 0.009874 -0.001539 -0.003232 0.003963 0.000814 0.004142
# 2 -0.001539 0.022048 0.002629 0.008279 0.005449 0.002718
# 3 -0.003232 0.002629 0.022026 0.006491 0.024182 0.004079
# 4 0.003963 0.008279 0.006491 0.039595 0.014178 0.007346
# 5 0.000814 0.005449 0.024182 0.014178 0.072498 0.007110
# 6 0.004142 0.002718 0.004079 0.007346 0.007110 0.029892
#
#
# Mechanical properties :
#
#
# Convention : Reuss Voigt Hill
#
# Bulk Modulus (GPa) = 20.13505 41.22789 30.68147
# Shear Modulus (GPa) = 23.06582 32.62895 27.84739
#
# Velocity S-wave (km/s) = 3.15371 3.75093 3.46521
# Velocity P-wave (km/s) = 4.68438 6.04456 5.40740
#
# Compressibility (1/GPa) = 0.04966465
#
# Stress axis : x y z
#
# Youngs Moduli (GPa) = 101.27832 45.35502 45.40135
#
# Poissons Ratio (x) = 0.06978 0.14674
# Poissons Ratio (y) = 0.15582 -0.11936
# Poissons Ratio (z) = 0.32734 -0.11924
#
# Static dielectric constant tensor:
#      x y z
#    x 2.031640 0.127560 0.025550 
#    y 0.127560 1.959330 -0.018390 
#    z 0.025550 -0.018390 2.124740 
# 
# From -- ./inp_files/283439.got.cif
#   From: 2010.05.17/outbox.cif.g08.bks.cpg/sg2_142_cif.got.tgz:283439.got - 2010.06.03 11:33:40.
