data_PCOD9064812
_publ_section_title
;
Structure prediction by ZEFSAII (Michael W. Deem and Ramdas Pophale) SiO2 
 PCOD9064812
Probable space group: P -1
;
_chemical_formula_sum "Si O2"
_cell_formula_units_Z 12
_cell_length_a 9.351668
_cell_length_b 9.380832
_cell_length_c 8.046230
_cell_angle_alpha 75.033052
_cell_angle_beta 89.277682
_cell_angle_gamma 53.196959
_cell_volume 536.720116
_symmetry_space_group_name_H-M "P -1"
_symmetry_group_IT_number 2
_symmetry_cell_setting 'triclinic'
loop_
_space_group_symop_operation_xyz
x,y,z
-x,-y,-z
loop_
_atom_site_type_symbol
_atom_site_label
_atom_site_fract_x
_atom_site_fract_y
_atom_site_fract_z
Si Si1 0.187955 0.816803 0.990409
Si Si2 0.141855 0.534617 0.933623
Si Si3 0.552802 0.636251 0.487711
Si Si4 0.814060 0.051376 0.405609
Si Si5 0.947301 0.372848 0.483994
Si Si6 0.509713 0.819896 0.096849
O O1 0.160523 0.658892 0.022233
O O2 0.222539 0.837968 0.794010
O O3 0.339440 0.815515 0.084992
O O4 0.000000 0.000000 0.000000
O O5 0.093692 0.612362 0.719530
O O6 0.339267 0.337507 0.981690
O O7 0.000000 0.500000 0.000000
O O8 0.500000 0.500000 0.500000
O O9 0.376995 0.812836 0.535516
O O10 0.766582 0.465345 0.570347
O O11 0.572235 0.742452 0.305783
O O12 0.000000 0.000000 0.500000
O O13 0.884150 0.843668 0.422840
O O14 0.000000 0.500000 0.500000
O O15 0.500000 0.000000 0.000000
#
# Coordination Sequence:
#
# PCOD9064812 Si02
#       6
#     2   2   2   2   2   2
#     4  12  26  44  71 102 139 185 228 285 352 415
#     4  11  25  45  69 100 139 183 229 284 348 414
#     4  11  24  46  73  99 139 185 232 290 346 416
#     4  12  23  45  73 100 136 182 236 284 349 417
#     4  11  27  44  69 105 138 177 233 290 346 413
#     4  11  26  45  69 105 142 180 235 288 348 418
#
# _framework density 22.35802
#
# number of rings (size 3 to 8) (size 9 to 14) (size 15 to 20)
#    0.000    0.667    3.333    3.500    9.333    2.000 
#    0.000    0.000    0.000    0.000    0.000    0.000 
#    0.000    0.000    0.000    0.000    0.000    0.000 
#
# Total GULP energy -66842.061936 kJ/mol
# GULP energy per Si atom -5570.171828 kJ/mol
# Density = 2.230713 g / cm^3
# Si number density = 22.358020 Si / 1000 Ang^3
#
#
#
# Elastic Constant Matrix: (Units=GPa)
#
#
# Indices 1 2 3 4 5 6 
#
# 1 146.8080 87.7426 -8.8808 5.8740 -21.8162 -2.5161
# 2 87.7426 222.7524 8.3114 3.1568 -32.9786 -5.9892
# 3 -8.8808 8.3114 66.8832 -0.5929 -13.4387 7.5624
# 4 5.8740 3.1568 -0.5929 30.0781 0.6964 -16.3370
# 5 -21.8162 -32.9786 -13.4387 0.6964 33.6718 4.2575
# 6 -2.5161 -5.9892 7.5624 -16.3370 4.2575 63.8614
#
#
#
# Elastic Compliance Matrix: (Units=1/GPa)
#
#
# Indices 1 2 3 4 5 6 
#
# 1 0.009620 -0.003252 0.002646 -0.002171 0.004285 -0.001080
# 2 -0.003252 0.006374 -0.000467 0.000011 0.003916 0.000267
# 3 0.002646 -0.000467 0.017430 -0.002004 0.008645 -0.003093
# 4 -0.002171 0.000011 -0.002004 0.039453 -0.004344 0.010535
# 5 0.004285 0.003916 0.008645 -0.004344 0.040393 -0.004292
# 6 -0.001080 0.000267 -0.003093 0.010535 -0.004292 0.018989
#
#
# Mechanical properties :
#
#
# Convention : Reuss Voigt Hill
#
# Bulk Modulus (GPa) = 31.97218 67.86555 49.91887
# Shear Modulus (GPa) = 34.52254 48.80697 41.66476
#
# Velocity S-wave (km/s) = 3.93374 4.67730 4.32154
# Velocity P-wave (km/s) = 5.91300 7.71942 6.87579
#
# Compressibility (1/GPa) = 0.03127719
#
# Stress axis : x y z
#
# Youngs Moduli (GPa) = 103.94473 156.87600 57.37309
#
# Poissons Ratio (x) = 0.51017 -0.15178
# Poissons Ratio (y) = 0.33803 0.02681
# Poissons Ratio (z) = -0.27499 0.07330
#
# Static dielectric constant tensor:
#      x y z
#    x 1.381140 0.129630 0.397210 
#    y 0.129630 1.698010 -0.111910 
#    z 0.397210 -0.111910 1.639110 
# 
# From -- ./inp_files/145458.got.cif
#   From: 2010.05.17/outbox.cif.g08.bks.cpg/sg2_73_cif.got.tgz:145458.got - 2010.06.03 11:33:40.
