data_PCOD9064423
_publ_section_title
;
Structure prediction by ZEFSAII (Michael W. Deem and Ramdas Pophale) SiO2 
 PCOD9064423
Probable space group: P -1
;
_chemical_formula_sum "Si O2"
_cell_formula_units_Z 16
_cell_length_a 15.619550
_cell_length_b 8.166474
_cell_length_c 14.604188
_cell_angle_alpha 91.656240
_cell_angle_beta 150.718330
_cell_angle_gamma 70.786514
_cell_volume 713.453496
_symmetry_space_group_name_H-M "P -1"
_symmetry_group_IT_number 2
_symmetry_cell_setting 'triclinic'
loop_
_space_group_symop_operation_xyz
x,y,z
-x,-y,-z
loop_
_atom_site_type_symbol
_atom_site_label
_atom_site_fract_x
_atom_site_fract_y
_atom_site_fract_z
Si Si1 0.117481 0.090714 0.791277
Si Si2 0.572338 0.896383 0.442831
Si Si3 0.305209 0.432930 0.602951
Si Si4 0.457562 0.715809 0.989219
Si Si5 0.906907 0.899705 0.661245
Si Si6 0.740134 0.668816 0.782907
Si Si7 0.526827 0.094820 0.178121
Si Si8 0.647576 0.508486 0.858941
O O1 0.931589 0.337612 0.605968
O O2 0.209275 0.910199 0.796249
O O3 0.343810 0.059734 0.022285
O O4 0.999311 0.031573 0.748774
O O5 0.663368 0.732498 0.442076
O O6 0.734170 0.960317 0.582999
O O7 0.612602 0.770553 0.570038
O O8 0.329027 0.123444 0.223249
O O9 0.484158 0.455844 0.728442
O O10 0.377965 0.349781 0.772929
O O11 0.496434 0.816409 0.943142
O O12 0.500000 0.500000 0.000000
O O13 0.782644 0.927004 0.449563
O O14 0.118747 0.665777 0.877637
O O15 0.677114 0.548194 0.782980
O O16 0.000000 0.500000 0.000000
O O17 0.455258 0.279521 0.181836
#
# Coordination Sequence:
#
# PCOD9064423 Si02
#       8
#     2   2   2   2   2   2   2   2
#     4  12  26  44  75 103 150 201 245 303 366 435
#     4  11  25  45  77 106 148 186 247 306 370 451
#     4  12  26  47  75 111 145 199 245 301 377 443
#     4  12  25  46  71 112 150 196 253 304 361 441
#     4  12  23  45  71 103 147 198 236 305 362 432
#     4  11  24  45  75 108 140 192 241 307 378 439
#     4  12  26  46  71 107 149 196 251 303 366 435
#     4  12  24  46  73 104 151 191 244 306 371 437
#
# _framework density 22.426127000000001
#
# number of rings (size 3 to 8) (size 9 to 14) (size 15 to 20)
#    0.000    0.250    6.250    1.875    0.000    4.000 
#    0.000    0.625    0.000    0.000    0.000    0.000 
#    0.000    0.000    0.000    0.000    0.000    0.000 
#
# Total GULP energy -89242.080419 kJ/mol
# GULP energy per Si atom -5577.630026 kJ/mol
# Density = 2.237508 g / cm^3
# Si number density = 22.426127 Si / 1000 Ang^3
#
#
#
# Elastic Constant Matrix: (Units=GPa)
#
#
# Indices 1 2 3 4 5 6 
#
# 1 141.0351 25.1142 47.0000 4.5560 -20.3325 23.7757
# 2 25.1142 97.7761 46.7685 -8.9574 0.6557 -8.8189
# 3 47.0000 46.7685 131.1323 -28.1386 -1.0439 11.1418
# 4 4.5560 -8.9574 -28.1386 42.6427 6.5350 20.6742
# 5 -20.3325 0.6557 -1.0439 6.5350 47.4887 -3.4339
# 6 23.7757 -8.8189 11.1418 20.6742 -3.4339 38.7133
#
#
#
# Elastic Compliance Matrix: (Units=1/GPa)
#
#
# Indices 1 2 3 4 5 6 
#
# 1 0.009704 -0.001670 -0.002923 -0.001960 0.004088 -0.004090
# 2 -0.001670 0.013988 -0.006323 -0.005465 0.000354 0.008982
# 3 -0.002923 -0.006323 0.015472 0.016143 -0.003991 -0.013073
# 4 -0.001960 -0.005465 0.016143 0.050383 -0.009689 -0.032453
# 5 0.004088 0.000354 -0.003991 -0.009689 0.024487 0.006065
# 6 -0.004090 0.008982 -0.013073 -0.032453 0.006065 0.052020
#
#
# Mechanical properties :
#
#
# Convention : Reuss Voigt Hill
#
# Bulk Modulus (GPa) = 57.69988 67.52323 62.61155
# Shear Modulus (GPa) = 25.81792 42.50633 34.16212
#
# Velocity S-wave (km/s) = 3.39668 4.35833 3.90720
# Velocity P-wave (km/s) = 6.41623 7.44992 6.95231
#
# Compressibility (1/GPa) = 0.01733106
#
# Stress axis : x y z
#
# Youngs Moduli (GPa) = 103.05061 71.48945 64.63410
#
# Poissons Ratio (x) = 0.11940 0.18892
# Poissons Ratio (y) = 0.17212 0.40869
# Poissons Ratio (z) = 0.30121 0.45204
#
# Static dielectric constant tensor:
#      x y z
#    x 1.897660 0.017910 -0.013310 
#    y 0.017910 1.983800 -0.057540 
#    z -0.013310 -0.057540 1.895450 
# 
# From -- ./inp_files/529830.got.cif
#   From: 2010.05.17/outbox.cif.g08.bks.cpg/sg2_265_cif.got.tgz:529830.got - 2010.06.03 11:33:40.
