data_PCOD9064841
_publ_section_title
;
Structure prediction by ZEFSAII (Michael W. Deem and Ramdas Pophale) SiO2 
 PCOD9064841
Probable space group: P -1
;
_chemical_formula_sum "Si O2"
_cell_formula_units_Z 10
_cell_length_a 5.783826
_cell_length_b 7.691897
_cell_length_c 11.239669
_cell_angle_alpha 63.702283
_cell_angle_beta 85.299799
_cell_angle_gamma 121.443069
_cell_volume 348.956375
_symmetry_space_group_name_H-M "P -1"
_symmetry_group_IT_number 2
_symmetry_cell_setting 'triclinic'
loop_
_space_group_symop_operation_xyz
x,y,z
-x,-y,-z
loop_
_atom_site_type_symbol
_atom_site_label
_atom_site_fract_x
_atom_site_fract_y
_atom_site_fract_z
Si Si1 0.510822 0.092557 0.339878
Si Si2 0.952635 0.129476 0.070057
Si Si3 0.950522 0.771454 0.348600
Si Si4 0.414960 0.426315 0.334779
Si Si5 0.190397 0.537805 0.105023
O O1 0.328997 0.197571 0.329586
O O2 0.846737 0.309133 0.223752
O O3 0.500000 0.000000 0.500000
O O4 0.288563 0.877262 0.319312
O O5 0.214244 0.406669 0.029475
O O6 0.893339 0.953555 0.236851
O O7 0.761224 0.212058 0.004788
O O8 0.000000 0.000000 0.000000
O O9 0.742398 0.546038 0.334004
O O10 0.793372 0.665310 0.514838
O O11 0.384841 0.584717 0.196334
#
# Coordination Sequence:
#
# PCOD9064841 Si02
#       5
#     2   2   2   2   2
#     4  12  23  44  76 109 145 193 245 312 372 427
#     4  11  25  51  72 109 150 201 245 300 370 451
#     4  11  24  46  74 106 151 190 244 308 367 435
#     4  11  24  48  73 113 147 187 256 307 361 451
#     4  11  25  49  79 106 150 197 245 307 372 437
#
# _framework density 28.656877999999999
#
# number of rings (size 3 to 8) (size 9 to 14) (size 15 to 20)
#    0.000    0.800    4.000    3.000    0.000    2.400 
#   21.600    0.000    0.000    0.000    0.000    0.000 
#    0.000    0.000    0.000    0.000    0.000    0.000 
#
# Total GULP energy -55901.918236 kJ/mol
# GULP energy per Si atom -5590.191824 kJ/mol
# Density = 2.859165 g / cm^3
# Si number density = 28.656878 Si / 1000 Ang^3
#
#
#
# Elastic Constant Matrix: (Units=GPa)
#
#
# Indices 1 2 3 4 5 6 
#
# 1 105.6534 72.0544 73.6795 10.2003 16.0519 35.6429
# 2 72.0544 140.2940 51.5285 22.9039 1.8470 -3.1064
# 3 73.6795 51.5285 193.4891 9.9936 37.3153 11.1007
# 4 10.2003 22.9039 9.9936 50.3471 5.1049 6.0812
# 5 16.0519 1.8470 37.3153 5.1049 58.9896 -7.7360
# 6 35.6429 -3.1064 11.1007 6.0812 -7.7360 91.5450
#
#
#
# Elastic Compliance Matrix: (Units=1/GPa)
#
#
# Indices 1 2 3 4 5 6 
#
# 1 0.024441 -0.011358 -0.004955 0.002871 -0.004706 -0.009889
# 2 -0.011358 0.013938 -0.000209 -0.005075 0.003959 0.005592
# 3 -0.004955 -0.000209 0.007742 -0.000174 -0.003435 0.000705
# 4 0.002871 -0.005075 -0.000174 0.022272 -0.002831 -0.002987
# 5 -0.004706 0.003959 -0.003435 -0.002831 0.021097 0.004354
# 6 -0.009889 0.005592 0.000705 -0.002987 0.004354 0.015444
#
#
# Mechanical properties :
#
#
# Convention : Reuss Voigt Hill
#
# Bulk Modulus (GPa) = 76.47862 92.66237 84.57049
# Shear Modulus (GPa) = 35.12746 56.32128 45.72437
#
# Velocity S-wave (km/s) = 3.50493 4.43806 3.99881
# Velocity P-wave (km/s) = 6.56697 7.65945 7.13415
#
# Compressibility (1/GPa) = 0.01307555
#
# Stress axis : x y z
#
# Youngs Moduli (GPa) = 40.91537 71.74404 129.16640
#
# Poissons Ratio (x) = 0.81488 0.64008
# Poissons Ratio (y) = 0.46472 0.02701
# Poissons Ratio (z) = 0.20276 0.01500
#
# Static dielectric constant tensor:
#      x y z
#    x 2.229520 -0.009280 -0.030150 
#    y -0.009280 2.227950 -0.013790 
#    z -0.030150 -0.013790 2.191710 
# 
# From -- ./inp_files/135902.got.cif
#   From: 2010.05.17/outbox.cif.g08.bks.cpg/sg2_68_cif.got.tgz:135902.got - 2010.06.03 11:33:40.
