data_PCOD9064866
_publ_section_title
;
Structure prediction by ZEFSAII (Michael W. Deem and Ramdas Pophale) SiO2 
 PCOD9064866
Probable space group: P -1
;
_chemical_formula_sum "Si O2"
_cell_formula_units_Z 14
_cell_length_a 5.295583
_cell_length_b 25.384870
_cell_length_c 12.947328
_cell_angle_alpha 22.629780
_cell_angle_beta 90.046058
_cell_angle_gamma 78.083885
_cell_volume 564.278060
_symmetry_space_group_name_H-M "P -1"
_symmetry_group_IT_number 2
_symmetry_cell_setting 'triclinic'
loop_
_space_group_symop_operation_xyz
x,y,z
-x,-y,-z
loop_
_atom_site_type_symbol
_atom_site_label
_atom_site_fract_x
_atom_site_fract_y
_atom_site_fract_z
Si Si1 0.273648 0.244078 0.630396
Si Si2 0.147303 0.602975 0.807070
Si Si3 0.554434 0.103257 0.227313
Si Si4 0.573369 0.369567 0.866610
Si Si5 0.733785 0.060252 0.806822
Si Si6 0.151853 0.413835 0.531572
Si Si7 0.940352 0.171296 0.420742
O O1 0.477038 0.217979 0.579835
O O2 0.944983 0.319451 0.447147
O O3 0.274356 0.345011 0.542013
O O4 0.374263 0.062813 0.987996
O O5 0.005014 0.729922 0.671426
O O6 0.500000 0.500000 0.000000
O O7 0.000000 0.500000 0.000000
O O8 0.500000 0.000000 0.500000
O O9 0.678320 0.205895 0.096594
O O10 0.780790 0.968771 0.389518
O O11 0.273074 0.253912 0.892890
O O12 0.710547 0.476727 0.638910
O O13 0.209785 0.476940 0.670484
O O14 0.701680 0.299960 0.106398
O O15 0.814554 0.089438 0.641834
O O16 0.000000 0.000000 0.000000
#
# Coordination Sequence:
#
# PCOD9064866 Si02
#       7
#     2   2   2   2   2   2   2
#     4  11  26  44  76 114 159 206 261 315 405 483
#     4  12  26  47  75 115 163 205 254 318 396 490
#     4  12  30  54  85 120 156 211 284 344 398 478
#     4  12  29  54  81 120 163 216 272 340 412 476
#     4  11  24  46  74 116 157 204 262 330 389 477
#     4  12  29  54  85 116 168 214 265 336 423 478
#     4  12  27  50  85 114 160 212 273 330 401 475
#
# _framework density 24.810465000000001
#
# number of rings (size 3 to 8) (size 9 to 14) (size 15 to 20)
#    0.000    0.286    1.429    5.571    8.000    3.429 
#    0.000    0.000    0.000    0.000    0.000    0.000 
#    0.000    0.000    0.000    0.000    0.000    0.000 
#
# Total GULP energy -78369.846613 kJ/mol
# GULP energy per Si atom -5597.846187 kJ/mol
# Density = 2.475400 g / cm^3
# Si number density = 24.810465 Si / 1000 Ang^3
#
#
#
# Elastic Constant Matrix: (Units=GPa)
#
#
# Indices 1 2 3 4 5 6 
#
# 1 126.4614 45.5178 75.1206 -22.0893 -11.3960 -0.9682
# 2 45.5178 186.7630 63.0392 -23.6999 -12.2604 -3.9702
# 3 75.1206 63.0392 173.8641 1.5757 -1.4488 -9.3323
# 4 -22.0893 -23.6999 1.5757 52.6332 9.5882 -6.9588
# 5 -11.3960 -12.2604 -1.4488 9.5882 49.3856 -0.7611
# 6 -0.9682 -3.9702 -9.3323 -6.9588 -0.7611 53.6822
#
#
#
# Elastic Compliance Matrix: (Units=1/GPa)
#
#
# Indices 1 2 3 4 5 6 
#
# 1 0.012059 -0.000540 -0.005047 0.004669 0.001593 -0.000072
# 2 -0.000540 0.006632 -0.002163 0.002716 0.000938 0.000470
# 3 -0.005047 -0.002163 0.008784 -0.003090 -0.000831 0.000864
# 4 0.004669 0.002716 -0.003090 0.023141 -0.002790 0.002708
# 5 0.001593 0.000938 -0.000831 -0.002790 0.021365 -0.000105
# 6 -0.000072 0.000470 0.000864 0.002708 -0.000105 0.019161
#
#
# Mechanical properties :
#
#
# Convention : Reuss Voigt Hill
#
# Bulk Modulus (GPa) = 83.50907 94.93819 89.22363
# Shear Modulus (GPa) = 45.19414 51.36759 48.28086
#
# Velocity S-wave (km/s) = 4.27262 4.55510 4.41612
# Velocity P-wave (km/s) = 7.62052 8.12488 7.87674
#
# Compressibility (1/GPa) = 0.01197475
#
# Stress axis : x y z
#
# Youngs Moduli (GPa) = 82.92859 150.77784 113.84200
#
# Poissons Ratio (x) = 0.08138 0.57459
# Poissons Ratio (y) = 0.04476 0.24625
# Poissons Ratio (z) = 0.41857 0.32614
#
# Static dielectric constant tensor:
#      x y z
#    x 1.968130 0.002080 0.047580 
#    y 0.002080 1.925100 -0.002170 
#    z 0.047580 -0.002170 1.562120 
# 
# From -- ./inp_files/360809.got.cif
#   From: 2010.05.17/outbox.cif.g08.bks.cpg/sg2_181_cif.got.tgz:360809.got - 2010.06.03 11:33:40.
