data_PCOD9064554
_publ_section_title
;
Structure prediction by ZEFSAII (Michael W. Deem and Ramdas Pophale) SiO2 
 PCOD9064554
Probable space group: P -1
;
_chemical_formula_sum "Si O2"
_cell_formula_units_Z 14
_cell_length_a 14.956892
_cell_length_b 7.189006
_cell_length_c 19.925036
_cell_angle_alpha 134.186178
_cell_angle_beta 154.079367
_cell_angle_gamma 55.879976
_cell_volume 656.525749
_symmetry_space_group_name_H-M "P -1"
_symmetry_group_IT_number 2
_symmetry_cell_setting 'triclinic'
loop_
_space_group_symop_operation_xyz
x,y,z
-x,-y,-z
loop_
_atom_site_type_symbol
_atom_site_label
_atom_site_fract_x
_atom_site_fract_y
_atom_site_fract_z
Si Si1 0.666055 0.960776 0.913475
Si Si2 0.712488 0.749542 0.268546
Si Si3 0.814393 0.405003 0.670312
Si Si4 0.338825 0.081808 0.255912
Si Si5 0.934883 0.859307 0.317278
Si Si6 0.854094 0.496070 0.964797
Si Si7 0.295186 0.844735 0.862792
O O1 0.462906 0.083165 0.795574
O O2 0.741182 0.956730 0.885457
O O3 0.679047 0.665843 0.872795
O O4 0.744239 0.114773 0.074378
O O5 0.693123 0.460913 0.213882
O O6 0.743455 0.735610 0.205549
O O7 0.913772 0.926040 0.482647
O O8 0.591171 0.194514 0.461335
O O9 0.758781 0.690400 0.717154
O O10 0.945869 0.365303 0.683279
O O11 0.978171 0.378360 0.833244
O O12 0.260902 0.798554 0.166318
O O13 0.877197 0.031619 0.260717
O O14 0.000000 0.500000 0.000000
O O15 0.500000 0.000000 0.000000
#
# Coordination Sequence:
#
# PCOD9064554 Si02
#       7
#     2   2   2   2   2   2   2
#     4  12  25  43  72 104 140 186 230 295 353 410
#     4  11  26  45  68 101 141 185 233 288 354 410
#     4  11  24  49  73 104 143 190 229 290 362 410
#     4  11  27  48  73 105 148 178 239 298 346 428
#     4  11  24  46  69 101 140 184 237 286 343 434
#     4  12  27  47  73 109 141 185 238 288 356 423
#     4  12  26  42  69 103 140 182 236 288 350 413
#
# _framework density 21.324373999999999
#
# number of rings (size 3 to 8) (size 9 to 14) (size 15 to 20)
#    0.000    0.571    5.714    1.286    4.000    0.571 
#    5.143    0.000    0.000    0.000    0.000    0.000 
#    0.000    0.000    0.000    0.000    0.000    0.000 
#
# Total GULP energy -77997.492036 kJ/mol
# GULP energy per Si atom -5571.249431 kJ/mol
# Density = 2.127584 g / cm^3
# Si number density = 21.324374 Si / 1000 Ang^3
#
#
#
# Elastic Constant Matrix: (Units=GPa)
#
#
# Indices 1 2 3 4 5 6 
#
# 1 103.6788 60.9869 25.7322 24.5941 -17.3278 -16.1804
# 2 60.9869 194.5165 78.1279 24.1026 24.4046 14.1667
# 3 25.7322 78.1279 183.9786 48.2339 43.5693 61.2934
# 4 24.5941 24.1026 48.2339 29.7888 16.8889 20.6168
# 5 -17.3278 24.4046 43.5693 16.8889 49.2872 21.5021
# 6 -16.1804 14.1667 61.2934 20.6168 21.5021 65.7065
#
#
#
# Elastic Compliance Matrix: (Units=1/GPa)
#
#
# Indices 1 2 3 4 5 6 
#
# 1 0.030582 -0.008274 -0.000361 -0.041365 0.022711 0.015198
# 2 -0.008274 0.008660 -0.002632 0.009660 -0.007262 -0.002104
# 3 -0.000361 -0.002632 0.012581 -0.011629 -0.003081 -0.006600
# 4 -0.041365 0.009660 -0.011629 0.118476 -0.038269 -0.026072
# 5 0.022711 -0.007262 -0.003081 -0.038269 0.044435 0.007499
# 6 0.015198 -0.002104 -0.006600 -0.026072 0.007499 0.031299
#
#
# Mechanical properties :
#
#
# Convention : Reuss Voigt Hill
#
# Bulk Modulus (GPa) = 34.14301 90.20755 62.17528
# Shear Modulus (GPa) = 17.96439 50.11162 34.03801
#
# Velocity S-wave (km/s) = 2.90562 4.85291 3.99958
# Velocity P-wave (km/s) = 5.22521 8.59042 7.10979
#
# Compressibility (1/GPa) = 0.02928857
#
# Stress axis : x y z
#
# Youngs Moduli (GPa) = 32.69922 115.47724 79.48735
#
# Poissons Ratio (x) = 0.95548 0.02867
# Poissons Ratio (y) = 0.27056 0.20920
# Poissons Ratio (z) = 0.01180 0.30391
#
# Static dielectric constant tensor:
#      x y z
#    x 1.937310 0.017180 -0.028380 
#    y 0.017180 1.795920 -0.005210 
#    z -0.028380 -0.005210 1.809990 
# 
# From -- ./inp_files/94290.got.cif
#   From: 2010.05.17/outbox.cif.g08.bks.cpg/sg2_48_cif.got.tgz:94290.got - 2010.06.03 11:33:40.
