data_PCOD9064548
_publ_section_title
;
Structure prediction by ZEFSAII (Michael W. Deem and Ramdas Pophale) SiO2 
 PCOD9064548
Probable space group: P -1
;
_chemical_formula_sum "Si O2"
_cell_formula_units_Z 16
_cell_length_a 9.051062
_cell_length_b 8.962508
_cell_length_c 22.869933
_cell_angle_alpha 39.212851
_cell_angle_beta 56.244966
_cell_angle_gamma 85.042702
_cell_volume 737.148823
_symmetry_space_group_name_H-M "P -1"
_symmetry_group_IT_number 2
_symmetry_cell_setting 'triclinic'
loop_
_space_group_symop_operation_xyz
x,y,z
-x,-y,-z
loop_
_atom_site_type_symbol
_atom_site_label
_atom_site_fract_x
_atom_site_fract_y
_atom_site_fract_z
Si Si1 0.692094 0.130750 0.966765
Si Si2 0.359404 0.699207 0.373715
Si Si3 0.933059 0.432611 0.634985
Si Si4 0.758936 0.424599 0.095181
Si Si5 0.475529 0.306749 0.430725
Si Si6 0.258419 0.323464 0.858224
Si Si7 0.596639 0.728649 0.962629
Si Si8 0.870984 0.303852 0.367628
O O1 0.946026 0.380760 0.805890
O O2 0.631063 0.303802 0.965776
O O3 0.500000 0.000000 0.000000
O O4 0.628768 0.823488 0.100450
O O5 0.159483 0.563430 0.507135
O O6 0.465558 0.530917 0.403524
O O7 0.244936 0.614741 0.359474
O O8 0.552450 0.067645 0.229872
O O9 0.012190 0.647817 0.609837
O O10 0.805991 0.089558 0.791783
O O11 0.756298 0.490746 0.144595
O O12 0.698233 0.625705 0.017546
O O13 0.000000 0.500000 0.000000
O O14 0.609605 0.476087 0.289061
O O15 0.632289 0.246100 0.446778
O O16 0.219390 0.989997 0.563383
O O17 0.000000 0.000000 0.000000
O O18 0.500000 0.500000 0.000000
#
# Coordination Sequence:
#
# PCOD9064548 Si02
#       8
#     2   2   2   2   2   2   2   2
#     4  12  24  44  73 101 131 182 229 283 337 400
#     4  11  26  45  68 100 138 181 226 277 348 401
#     4  11  24  46  68  99 136 178 226 283 334 406
#     4  12  27  45  69 103 141 181 224 281 346 406
#     4  11  26  45  68 100 137 182 227 279 338 408
#     4  12  24  45  70 101 138 177 228 280 335 406
#     4  12  26  44  70 103 138 176 230 280 342 405
#     4  11  25  46  68  99 137 178 231 279 339 399
#
# _framework density 21.705249999999999
#
# number of rings (size 3 to 8) (size 9 to 14) (size 15 to 20)
#    0.000    0.500    5.000    2.250    5.250    1.000 
#    2.250    0.000    0.000    0.000    0.000    0.000 
#    0.000    0.000    0.000    0.000    0.000    0.000 
#
# Total GULP energy -89354.895707 kJ/mol
# GULP energy per Si atom -5584.680982 kJ/mol
# Density = 2.165585 g / cm^3
# Si number density = 21.705250 Si / 1000 Ang^3
#
#
#
# Elastic Constant Matrix: (Units=GPa)
#
#
# Indices 1 2 3 4 5 6 
#
# 1 57.8356 5.1353 5.8167 -5.4741 -9.8971 -2.1801
# 2 5.1353 98.3001 -3.3411 -1.7849 -13.2944 -4.3841
# 3 5.8167 -3.3411 88.4438 -7.0039 -14.0937 6.6814
# 4 -5.4741 -1.7849 -7.0039 34.9902 -0.2001 -3.2603
# 5 -9.8971 -13.2944 -14.0937 -0.2001 24.8194 -5.0528
# 6 -2.1801 -4.3841 6.6814 -3.2603 -5.0528 38.0179
#
#
#
# Elastic Compliance Matrix: (Units=1/GPa)
#
#
# Indices 1 2 3 4 5 6 
#
# 1 0.019094 0.000319 0.000171 0.003319 0.008419 0.002505
# 2 0.000319 0.011344 0.001537 0.001180 0.007525 0.002158
# 3 0.000171 0.001537 0.012912 0.002663 0.008087 -0.000779
# 4 0.003319 0.001180 0.002663 0.029997 0.004322 0.003005
# 5 0.008419 0.007525 0.008087 0.004322 0.053823 0.007453
# 6 0.002505 0.002158 -0.000779 0.003005 0.007453 0.028081
#
#
# Mechanical properties :
#
#
# Convention : Reuss Voigt Hill
#
# Bulk Modulus (GPa) = 21.09480 28.86680 24.98080
# Shear Modulus (GPa) = 29.94060 35.36343 32.65201
#
# Velocity S-wave (km/s) = 3.71808 4.04078 3.88279
# Velocity P-wave (km/s) = 5.30773 5.92443 5.62454
#
# Compressibility (1/GPa) = 0.04740504
#
# Stress axis : x y z
#
# Youngs Moduli (GPa) = 52.37214 88.15317 77.44860
#
# Poissons Ratio (x) = -0.02812 -0.01328
# Poissons Ratio (y) = -0.01670 -0.11905
# Poissons Ratio (z) = -0.00898 -0.13551
#
# Static dielectric constant tensor:
#      x y z
#    x 1.763050 0.019450 -0.039540 
#    y 0.019450 1.725430 0.002270 
#    z -0.039540 0.002270 1.755840 
# 
# From -- ./inp_files/190804.got.cif
#   From: 2010.05.17/outbox.cif.g08.bks.cpg/sg2_96_cif.got.tgz:190804.got - 2010.06.03 11:33:40.
