data_PCOD9064695
_publ_section_title
;
Structure prediction by ZEFSAII (Michael W. Deem and Ramdas Pophale) SiO2 
 PCOD9064695
Probable space group: P -1
;
_chemical_formula_sum "Si O2"
_cell_formula_units_Z 16
_cell_length_a 21.258524
_cell_length_b 11.425387
_cell_length_c 9.450476
_cell_angle_alpha 49.713333
_cell_angle_beta 38.566044
_cell_angle_gamma 33.788321
_cell_volume 795.775526
_symmetry_space_group_name_H-M "P -1"
_symmetry_group_IT_number 2
_symmetry_cell_setting 'triclinic'
loop_
_space_group_symop_operation_xyz
x,y,z
-x,-y,-z
loop_
_atom_site_type_symbol
_atom_site_label
_atom_site_fract_x
_atom_site_fract_y
_atom_site_fract_z
Si Si1 0.595409 0.308665 0.873084
Si Si2 0.109666 0.817787 0.560770
Si Si3 0.916570 0.120793 0.910221
Si Si4 0.373822 0.204472 0.977691
Si Si5 0.872962 0.554996 0.259749
Si Si6 0.891820 0.512318 0.595670
Si Si7 0.379766 0.061254 0.764981
Si Si8 0.403768 0.517135 0.768433
O O1 0.745973 0.234761 0.643691
O O2 0.500541 0.396617 0.830532
O O3 0.500000 0.500000 0.000000
O O4 0.612417 0.122955 0.056006
O O5 0.143405 0.607823 0.623697
O O6 0.000000 0.000000 0.500000
O O7 0.013135 0.928133 0.782004
O O8 0.918797 0.301044 0.729054
O O9 0.750744 0.254694 0.103843
O O10 0.000000 0.000000 0.000000
O O11 0.368935 0.161328 0.856209
O O12 0.376713 0.383298 0.846829
O O13 0.245233 0.296184 0.230120
O O14 0.500000 0.000000 0.000000
O O15 0.884688 0.554537 0.408636
O O16 0.748474 0.777218 0.237110
O O17 0.000000 0.500000 0.000000
O O18 0.000000 0.500000 0.500000
O O19 0.500000 0.000000 0.500000
O O20 0.500000 0.500000 0.500000
#
# Coordination Sequence:
#
# PCOD9064695 Si02
#       8
#     2   2   2   2   2   2   2   2
#     4  12  27  47  75 105 148 195 243 307 371 440
#     4  12  25  47  74 103 150 192 246 304 369 437
#     4  11  26  45  74 107 142 192 243 304 366 435
#     4  11  24  46  72 100 146 191 239 299 365 431
#     4  12  27  47  73 109 148 192 247 302 369 441
#     4  11  26  47  73 102 146 190 241 302 365 439
#     4  12  27  46  74 110 146 194 247 299 371 439
#     4  11  26  47  71 107 145 190 248 301 368 437
#
# _framework density 20.106172000000001
#
# number of rings (size 3 to 8) (size 9 to 14) (size 15 to 20)
#    0.000    0.500    2.500    4.500   14.000    1.000 
#    0.000    0.000    0.000    0.000    0.000    0.000 
#    0.000    0.000    0.000    0.000    0.000    0.000 
#
# Total GULP energy -89313.476114 kJ/mol
# GULP energy per Si atom -5582.092257 kJ/mol
# Density = 2.006041 g / cm^3
# Si number density = 20.106172 Si / 1000 Ang^3
#
#
#
# Elastic Constant Matrix: (Units=GPa)
#
#
# Indices 1 2 3 4 5 6 
#
# 1 153.1796 67.5224 95.7179 4.8472 24.8857 -11.6339
# 2 67.5224 119.6559 76.6220 11.7796 3.8912 -26.7903
# 3 95.7179 76.6220 189.6078 22.0158 7.4957 -19.1119
# 4 4.8472 11.7796 22.0158 42.8017 -11.8157 5.0474
# 5 24.8857 3.8912 7.4957 -11.8157 55.5828 2.4150
# 6 -11.6339 -26.7903 -19.1119 5.0474 2.4150 47.3244
#
#
#
# Elastic Compliance Matrix: (Units=1/GPa)
#
#
# Indices 1 2 3 4 5 6 
#
# 1 0.011473 -0.003945 -0.004256 0.000984 -0.004032 -0.001031
# 2 -0.003945 0.013946 -0.002743 -0.002603 0.000343 0.006077
# 3 -0.004256 -0.002743 0.009094 -0.003601 0.000042 0.001456
# 4 0.000984 -0.002603 -0.003601 0.028330 0.006512 -0.006039
# 5 -0.004032 0.000343 0.000042 0.006512 0.021262 -0.002560
# 6 -0.001031 0.006077 0.001456 -0.006039 -0.002560 0.025680
#
#
# Mechanical properties :
#
#
# Convention : Reuss Voigt Hill
#
# Bulk Modulus (GPa) = 79.21261 104.68533 91.94897
# Shear Modulus (GPa) = 36.79688 43.98053 40.38870
#
# Velocity S-wave (km/s) = 4.28264 4.68205 4.48679
# Velocity P-wave (km/s) = 7.99608 9.02265 8.52483
#
# Compressibility (1/GPa) = 0.01262425
#
# Stress axis : x y z
#
# Youngs Moduli (GPa) = 87.16487 71.70715 109.96173
#
# Poissons Ratio (x) = 0.28290 0.46800
# Poissons Ratio (y) = 0.34388 0.30159
# Poissons Ratio (z) = 0.37098 0.19667
#
# Static dielectric constant tensor:
#      x y z
#    x 1.585710 0.000000 -0.095050 
#    y 0.000000 1.670740 -0.071280 
#    z -0.095050 -0.071280 1.459140 
# 
# From -- ./inp_files/262471.got.cif
#   From: 2010.05.17/outbox.cif.g08.bks.cpg/sg2_132_cif.got.tgz:262471.got - 2010.06.03 11:33:40.
