data_PCOD9064738
_publ_section_title
;
Structure prediction by ZEFSAII (Michael W. Deem and Ramdas Pophale) SiO2 
 PCOD9064738
Probable space group: P -1
;
_chemical_formula_sum "Si O2"
_cell_formula_units_Z 14
_cell_length_a 5.561043
_cell_length_b 21.367307
_cell_length_c 7.693634
_cell_angle_alpha 40.225116
_cell_angle_beta 115.170978
_cell_angle_gamma 105.945505
_cell_volume 532.357733
_symmetry_space_group_name_H-M "P -1"
_symmetry_group_IT_number 2
_symmetry_cell_setting 'triclinic'
loop_
_space_group_symop_operation_xyz
x,y,z
-x,-y,-z
loop_
_atom_site_type_symbol
_atom_site_label
_atom_site_fract_x
_atom_site_fract_y
_atom_site_fract_z
Si Si1 0.330304 0.597311 0.690090
Si Si2 0.306899 0.590853 0.069789
Si Si3 0.635787 0.766387 0.283485
Si Si4 0.814967 0.018196 0.571777
Si Si5 0.682760 0.089452 0.900358
Si Si6 0.792883 0.616556 0.355244
Si Si7 0.850180 0.205818 0.396775
O O1 0.523152 0.675748 0.535554
O O2 0.108573 0.600110 0.469226
O O3 0.500000 0.500000 0.000000
O O4 0.184320 0.615536 0.790828
O O5 0.620675 0.606761 0.150342
O O6 0.269730 0.481716 0.347695
O O7 0.193101 0.687430 0.929742
O O8 0.411987 0.854852 0.068473
O O9 0.718790 0.718404 0.221836
O O10 0.877664 0.795897 0.410990
O O11 0.500000 0.000000 0.500000
O O12 0.838589 0.126380 0.415213
O O13 0.000000 0.000000 0.500000
O O14 0.004132 0.950395 0.907022
O O15 0.651848 0.167540 0.566404
O O16 0.500000 0.000000 0.000000
#
# Coordination Sequence:
#
# PCOD9064738 Si02
#       7
#     2   2   2   2   2   2   2
#     4  12  23  44  71 103 146 200 250 308 383 460
#     4  11  24  46  72 107 153 192 249 313 384 459
#     4  12  24  44  76 103 146 201 253 309 382 465
#     4  12  30  50  77 115 157 198 261 340 396 465
#     4  12  26  49  78 108 144 204 264 317 393 472
#     4  11  25  46  70 112 151 194 246 317 377 465
#     4  12  26  48  77 106 151 202 257 313 393 470
#
# _framework density 26.298109
#
# number of rings (size 3 to 8) (size 9 to 14) (size 15 to 20)
#    0.000    0.286    5.714    2.571    4.000    1.714 
#    2.571    0.000    0.000    0.000    0.000    0.000 
#    0.000    0.000    0.000    0.000    0.000    0.000 
#
# Total GULP energy -78222.330490 kJ/mol
# GULP energy per Si atom -5587.309321 kJ/mol
# Density = 2.623825 g / cm^3
# Si number density = 26.298109 Si / 1000 Ang^3
#
#
#
# Elastic Constant Matrix: (Units=GPa)
#
#
# Indices 1 2 3 4 5 6 
#
# 1 111.8941 64.3615 38.0881 -10.3948 16.1497 23.4769
# 2 64.3615 168.7972 42.3195 -21.4830 21.1144 14.3421
# 3 38.0881 42.3195 89.7256 -11.5531 19.7119 8.0144
# 4 -10.3948 -21.4830 -11.5531 51.9492 -9.7294 10.2673
# 5 16.1497 21.1144 19.7119 -9.7294 46.7537 -5.6532
# 6 23.4769 14.3421 8.0144 10.2673 -5.6532 59.6619
#
#
#
# Elastic Compliance Matrix: (Units=1/GPa)
#
#
# Indices 1 2 3 4 5 6 
#
# 1 0.013311 -0.003573 -0.003002 0.000995 -0.002036 -0.004340
# 2 -0.003573 0.008246 -0.001698 0.002223 -0.001416 -0.000865
# 3 -0.003002 -0.001698 0.014376 0.001315 -0.004099 -0.000956
# 4 0.000995 0.002223 0.001315 0.021981 0.002105 -0.004686
# 5 -0.002036 -0.001416 -0.004099 0.002105 0.025349 0.003732
# 6 -0.004340 -0.000865 -0.000956 -0.004686 0.003732 0.019965
#
#
# Mechanical properties :
#
#
# Convention : Reuss Voigt Hill
#
# Bulk Modulus (GPa) = 51.58220 73.32835 62.45527
# Shear Modulus (GPa) = 39.60857 46.71616 43.16236
#
# Velocity S-wave (km/s) = 3.88511 4.21932 4.05566
# Velocity P-wave (km/s) = 6.30733 7.18894 6.76252
#
# Compressibility (1/GPa) = 0.01938653
#
# Stress axis : x y z
#
# Youngs Moduli (GPa) = 75.12708 121.27460 69.56178
#
# Poissons Ratio (x) = 0.43326 0.20884
# Poissons Ratio (y) = 0.26840 0.11812
# Poissons Ratio (z) = 0.22555 0.20593
#
# Static dielectric constant tensor:
#      x y z
#    x 2.284740 -0.211590 0.023780 
#    y -0.211590 2.214870 0.016520 
#    z 0.023780 0.016520 2.162310 
# 
# From -- ./inp_files/141065.got.cif
#   From: 2010.05.17/outbox.cif.g08.bks.cpg/sg2_71_cif.got.tgz:141065.got - 2010.06.03 11:33:40.
