data_PCOD9064139
_publ_section_title
;
Structure prediction by ZEFSAII (Michael W. Deem and Ramdas Pophale) SiO2 
 PCOD9064139
Probable space group: P -1
;
_chemical_formula_sum "Si O2"
_cell_formula_units_Z 16
_cell_length_a 18.825512
_cell_length_b 17.991174
_cell_length_c 9.746885
_cell_angle_alpha 29.689116
_cell_angle_beta 38.153069
_cell_angle_gamma 25.912020
_cell_volume 714.318977
_symmetry_space_group_name_H-M "P -1"
_symmetry_group_IT_number 2
_symmetry_cell_setting 'triclinic'
loop_
_space_group_symop_operation_xyz
x,y,z
-x,-y,-z
loop_
_atom_site_type_symbol
_atom_site_label
_atom_site_fract_x
_atom_site_fract_y
_atom_site_fract_z
Si Si1 0.907849 0.364934 0.370930
Si Si2 0.072397 0.089856 0.287013
Si Si3 0.607334 0.807368 0.752436
Si Si4 0.078758 0.592680 0.230049
Si Si5 0.240740 0.637125 0.149734
Si Si6 0.548929 0.309110 0.645267
Si Si7 0.240924 0.205483 0.196243
Si Si8 0.438384 0.739029 0.596399
O O1 0.846133 0.294030 0.680900
O O2 0.975167 0.246267 0.313164
O O3 0.060555 0.304910 0.306756
O O4 0.776155 0.618261 0.135906
O O5 0.260123 0.889031 0.351106
O O6 0.000000 0.000000 0.500000
O O7 0.043574 0.214037 0.997313
O O8 0.745022 0.587021 0.819101
O O9 0.700056 0.828678 0.683930
O O10 0.500000 0.000000 0.500000
O O11 0.509122 0.782260 0.036574
O O12 0.124971 0.650192 0.200947
O O13 0.000000 0.500000 0.500000
O O14 0.418300 0.395692 0.292129
O O15 0.295166 0.753135 0.832924
O O16 0.500000 0.500000 0.500000
O O17 0.485179 0.383254 0.468131
O O18 0.362391 0.973608 0.317343
#
# Coordination Sequence:
#
# PCOD9064139 Si02
#       8
#     2   2   2   2   2   2   2   2
#     4  11  25  47  73 106 143 190 243 292 363 432
#     4  12  26  49  74 106 141 194 243 299 364 432
#     4  12  25  44  71 107 144 189 238 291 363 428
#     4  12  26  48  72 108 148 188 241 301 359 436
#     4  11  26  46  73 107 149 190 244 302 356 428
#     4  12  27  48  75 103 143 191 245 303 362 435
#     4  11  24  45  71 105 145 186 240 292 362 428
#     4  11  25  47  72 108 149 189 246 297 366 428
#
# _framework density 22.398956999999999
#
# number of rings (size 3 to 8) (size 9 to 14) (size 15 to 20)
#    0.000    0.500    2.500    5.250    3.500    4.500 
#    2.250    0.000    0.000    0.000    0.000    0.000 
#    0.000    0.000    0.000    0.000    0.000    0.000 
#
# Total GULP energy -89487.202639 kJ/mol
# GULP energy per Si atom -5592.950165 kJ/mol
# Density = 2.234798 g / cm^3
# Si number density = 22.398957 Si / 1000 Ang^3
#
#
#
# Elastic Constant Matrix: (Units=GPa)
#
#
# Indices 1 2 3 4 5 6 
#
# 1 157.9230 24.5133 50.1854 -8.4928 15.4020 -3.6680
# 2 24.5133 63.4560 15.5181 -6.1278 -0.1528 11.1656
# 3 50.1854 15.5181 124.6038 8.7722 -2.4467 0.6799
# 4 -8.4928 -6.1278 8.7722 37.7814 -2.9351 -9.0788
# 5 15.4020 -0.1528 -2.4467 -2.9351 32.9852 1.9015
# 6 -3.6680 11.1656 0.6799 -9.0788 1.9015 36.0236
#
#
#
# Elastic Compliance Matrix: (Units=1/GPa)
#
#
# Indices 1 2 3 4 5 6 
#
# 1 0.008397 -0.002653 -0.003325 0.002534 -0.004104 0.002595
# 2 -0.002653 0.018217 -0.001237 0.001425 0.001682 -0.005623
# 3 -0.003325 -0.001237 0.009799 -0.003326 0.002040 -0.001086
# 4 0.002534 0.001425 -0.003326 0.029874 0.000810 0.007365
# 5 -0.004104 0.001682 0.002040 0.000810 0.032608 -0.002495
# 6 0.002595 -0.005623 -0.001086 0.007365 -0.002495 0.031775
#
#
# Mechanical properties :
#
#
# Convention : Reuss Voigt Hill
#
# Bulk Modulus (GPa) = 45.48719 58.49073 51.98896
# Shear Modulus (GPa) = 32.80248 38.40911 35.60579
#
# Velocity S-wave (km/s) = 3.83098 4.14547 3.99133
# Velocity P-wave (km/s) = 6.31826 7.00593 6.67096
#
# Compressibility (1/GPa) = 0.02198421
#
# Stress axis : x y z
#
# Youngs Moduli (GPa) = 119.08445 54.89305 102.05376
#
# Poissons Ratio (x) = 0.14561 0.33932
# Poissons Ratio (y) = 0.31589 0.12624
# Poissons Ratio (z) = 0.39595 0.06790
#
# Static dielectric constant tensor:
#      x y z
#    x 1.867630 0.014100 0.014080 
#    y 0.014100 1.792220 0.025120 
#    z 0.014080 0.025120 1.773120 
# 
# From -- ./inp_files/336639.got.cif
#   From: 2010.05.17/outbox.cif.g08.bks.cpg/sg2_169_cif.got.tgz:336639.got - 2010.06.03 11:33:40.
