data_PCOD9064433
_publ_section_title
;
Structure prediction by ZEFSAII (Michael W. Deem and Ramdas Pophale) SiO2 
 PCOD9064433
Probable space group: P -1
;
_chemical_formula_sum "Si O2"
_cell_formula_units_Z 14
_cell_length_a 10.965620
_cell_length_b 7.234589
_cell_length_c 10.769430
_cell_angle_alpha 103.628811
_cell_angle_beta 104.381234
_cell_angle_gamma 40.143604
_cell_volume 532.114652
_symmetry_space_group_name_H-M "P -1"
_symmetry_group_IT_number 2
_symmetry_cell_setting 'triclinic'
loop_
_space_group_symop_operation_xyz
x,y,z
-x,-y,-z
loop_
_atom_site_type_symbol
_atom_site_label
_atom_site_fract_x
_atom_site_fract_y
_atom_site_fract_z
Si Si1 0.696413 0.240620 0.130883
Si Si2 0.454101 0.468794 0.320554
Si Si3 0.402458 0.912801 0.494196
Si Si4 0.318654 0.141216 0.058927
Si Si5 0.871655 0.687122 0.712592
Si Si6 0.119299 0.675418 0.945125
Si Si7 0.028230 0.857419 0.355721
O O1 0.501163 0.426852 0.182828
O O2 0.694298 0.437825 0.085488
O O3 0.860297 0.083743 0.251206
O O4 0.738801 0.001739 0.027806
O O5 0.510203 0.610520 0.412856
O O6 0.581801 0.162030 0.370158
O O7 0.765415 0.319224 0.674097
O O8 0.500000 0.000000 0.500000
O O9 0.203870 0.145241 0.409375
O O10 0.302489 0.144299 0.204884
O O11 0.168613 0.476331 0.036541
O O12 0.500000 0.000000 0.000000
O O13 0.960200 0.382195 0.661362
O O14 0.014367 0.667619 0.813964
O O15 0.000000 0.000000 0.000000
O O16 0.000000 0.000000 0.500000
#
# Coordination Sequence:
#
# PCOD9064433 Si02
#       7
#     2   2   2   2   2   2   2
#     4  12  27  49  81 114 160 205 258 323 398 466
#     4  11  26  50  74 114 162 196 262 324 381 469
#     4  11  24  45  75 110 152 207 247 319 388 457
#     4  12  28  49  78 119 155 204 266 329 394 470
#     4  12  25  50  81 110 158 201 264 324 390 470
#     4  12  26  51  79 113 156 209 264 319 395 473
#     4  12  25  50  79 113 157 207 254 325 389 463
#
# _framework density 26.310120000000001
#
# number of rings (size 3 to 8) (size 9 to 14) (size 15 to 20)
#    0.000    0.286    4.286    4.714    2.000    1.714 
#    2.571    2.143    0.000    0.000    0.000    0.000 
#    0.000    0.000    0.000    0.000    0.000    0.000 
#
# Total GULP energy -78534.887142 kJ/mol
# GULP energy per Si atom -5609.634796 kJ/mol
# Density = 2.625024 g / cm^3
# Si number density = 26.310120 Si / 1000 Ang^3
#
#
#
# Elastic Constant Matrix: (Units=GPa)
#
#
# Indices 1 2 3 4 5 6 
#
# 1 147.3663 58.8940 57.8864 9.4297 -6.9553 16.9785
# 2 58.8940 108.7451 32.1715 8.8836 6.3907 31.1934
# 3 57.8864 32.1715 127.9704 8.1586 16.9260 7.2819
# 4 9.4297 8.8836 8.1586 58.5705 5.3273 3.8255
# 5 -6.9553 6.3907 16.9260 5.3273 44.9250 10.7370
# 6 16.9785 31.1934 7.2819 3.8255 10.7370 63.3657
#
#
#
# Elastic Compliance Matrix: (Units=1/GPa)
#
#
# Indices 1 2 3 4 5 6 
#
# 1 0.010488 -0.004418 -0.004077 -0.000768 0.004073 -0.000811
# 2 -0.004418 0.013449 -0.000918 -0.000781 -0.000934 -0.005126
# 3 -0.004077 -0.000918 0.010463 -0.000311 -0.004681 0.001154
# 4 -0.000768 -0.000781 -0.000311 0.017543 -0.001946 -0.000103
# 5 0.004073 -0.000934 -0.004681 -0.001946 0.026067 -0.004393
# 6 -0.000811 -0.005126 0.001154 -0.000103 -0.004393 0.019140
#
#
# Mechanical properties :
#
#
# Convention : Reuss Voigt Hill
#
# Bulk Modulus (GPa) = 64.20893 75.77617 69.99255
# Shear Modulus (GPa) = 41.26585 49.04756 45.15671
#
# Velocity S-wave (km/s) = 3.96465 4.32233 4.14735
# Velocity P-wave (km/s) = 6.73911 7.33306 7.04235
#
# Compressibility (1/GPa) = 0.01557416
#
# Stress axis : x y z
#
# Youngs Moduli (GPa) = 95.35078 74.35501 95.57871
#
# Poissons Ratio (x) = 0.32849 0.38967
# Poissons Ratio (y) = 0.42124 0.08771
# Poissons Ratio (z) = 0.38874 0.06824
#
# Static dielectric constant tensor:
#      x y z
#    x 2.156390 -0.077590 -0.015030 
#    y -0.077590 2.032550 -0.006500 
#    z -0.015030 -0.006500 2.083120 
# 
# From -- ./inp_files/372984.got.cif
#   From: 2010.05.17/outbox.cif.g08.bks.cpg/sg2_187_cif.got.tgz:372984.got - 2010.06.03 11:33:40.
