data_PCOD9064443
_publ_section_title
;
Structure prediction by ZEFSAII (Michael W. Deem and Ramdas Pophale) SiO2 
 PCOD9064443
Probable space group: P -1
;
_chemical_formula_sum "Si O2"
_cell_formula_units_Z 11
_cell_length_a 9.151658
_cell_length_b 8.881426
_cell_length_c 11.869262
_cell_angle_alpha 136.095984
_cell_angle_beta 142.126198
_cell_angle_gamma 64.325683
_cell_volume 389.359139
_symmetry_space_group_name_H-M "P -1"
_symmetry_group_IT_number 2
_symmetry_cell_setting 'triclinic'
loop_
_space_group_symop_operation_xyz
x,y,z
-x,-y,-z
loop_
_atom_site_type_symbol
_atom_site_label
_atom_site_fract_x
_atom_site_fract_y
_atom_site_fract_z
Si Si1 0.523057 0.820990 0.111573
Si Si2 0.613159 0.637086 0.462012
Si Si3 0.227615 0.538410 0.986574
Si Si4 0.000000 0.000000 0.500000
Si Si5 0.789146 0.726079 0.847666
Si Si6 0.066133 0.831668 0.697952
O O1 0.354053 0.657959 0.013363
O O2 0.731269 0.029641 0.405785
O O3 0.743864 0.718924 0.139522
O O4 0.340785 0.845190 0.917339
O O5 0.405868 0.666434 0.265974
O O6 0.723294 0.798903 0.723068
O O7 0.463425 0.401890 0.307646
O O8 0.844573 0.637485 0.522634
O O9 0.956671 0.560700 0.845199
O O10 0.964567 0.151777 0.443075
O O11 0.955344 0.936939 0.134092
#
# Coordination Sequence:
#
# PCOD9064443 Si02
#       6
#     2   2   2   1   2   2
#     4  11  26  45  72 105 149 190 241 303 358 435
#     4  11  24  45  76 105 145 193 239 299 371 422
#     4  11  24  47  70 107 146 191 244 293 364 442
#     4  12  26  48  74 108 142 198 242 300 370 430
#     4  11  26  46  74 109 145 191 244 299 360 442
#     4  12  26  49  74 109 146 188 248 304 358 434
#
# _framework density 28.251550000000002
#
# number of rings (size 3 to 8) (size 9 to 14) (size 15 to 20)
#    0.000    0.727    3.636    2.727    0.000    7.273 
#    0.000    0.000    0.000    0.000    0.000    0.000 
#    0.000    0.000    0.000    0.000    0.000    0.000 
#
# Total GULP energy -61503.916042 kJ/mol
# GULP energy per Si atom -5591.265095 kJ/mol
# Density = 2.818725 g / cm^3
# Si number density = 28.251550 Si / 1000 Ang^3
#
#
#
# Elastic Constant Matrix: (Units=GPa)
#
#
# Indices 1 2 3 4 5 6 
#
# 1 135.4949 83.1245 46.0244 -13.6313 29.0509 25.7388
# 2 83.1245 128.3414 64.3811 -48.2520 18.1045 5.4467
# 3 46.0244 64.3811 131.3340 -44.0379 17.8640 2.6948
# 4 -13.6313 -48.2520 -44.0379 76.0443 5.1446 -5.7142
# 5 29.0509 18.1045 17.8640 5.1446 71.5924 -4.9550
# 6 25.7388 5.4467 2.6948 -5.7142 -4.9550 70.4974
#
#
#
# Elastic Compliance Matrix: (Units=1/GPa)
#
#
# Indices 1 2 3 4 5 6 
#
# 1 0.015555 -0.010516 -0.001357 -0.004853 -0.003342 -0.005443
# 2 -0.010516 0.019297 -0.002768 0.009018 -0.000351 0.003161
# 3 -0.001357 -0.002768 0.011260 0.004687 -0.001859 0.000528
# 4 -0.004853 0.009018 0.004687 0.021089 -0.002829 0.002407
# 5 -0.003342 -0.000351 -0.001859 -0.002829 0.016235 0.002230
# 6 -0.005443 0.003161 0.000528 0.002407 0.002230 0.016260
#
#
# Mechanical properties :
#
#
# Convention : Reuss Voigt Hill
#
# Bulk Modulus (GPa) = 59.41573 86.91448 73.16511
# Shear Modulus (GPa) = 37.15047 57.06950 47.10999
#
# Velocity S-wave (km/s) = 3.63021 4.49937 4.08796
# Velocity P-wave (km/s) = 6.21674 7.60419 6.94520
#
# Compressibility (1/GPa) = 0.01683056
#
# Stress axis : x y z
#
# Youngs Moduli (GPa) = 64.28695 51.82099 88.80929
#
# Poissons Ratio (x) = 0.54497 0.12052
# Poissons Ratio (y) = 0.67607 0.24578
# Poissons Ratio (z) = 0.08724 0.14342
#
# Static dielectric constant tensor:
#      x y z
#    x 2.129470 -0.084030 -0.015650 
#    y -0.084030 2.200840 0.182740 
#    z -0.015650 0.182740 2.645820 
# 
# From -- ./inp_files/156330.got.cif
#   From: 2010.05.17/outbox.cif.g08.bks.cpg/sg2_79_cif.got.tgz:156330.got - 2010.06.03 11:33:40.
