data_PCOD9064248
_publ_section_title
;
Structure prediction by ZEFSAII (Michael W. Deem and Ramdas Pophale) SiO2 
 PCOD9064248
Probable space group: P -1
;
_chemical_formula_sum "Si O2"
_cell_formula_units_Z 16
_cell_length_a 9.104555
_cell_length_b 8.039104
_cell_length_c 15.028001
_cell_angle_alpha 131.046648
_cell_angle_beta 125.385620
_cell_angle_gamma 48.480873
_cell_volume 600.635011
_symmetry_space_group_name_H-M "P -1"
_symmetry_group_IT_number 2
_symmetry_cell_setting 'triclinic'
loop_
_space_group_symop_operation_xyz
x,y,z
-x,-y,-z
loop_
_atom_site_type_symbol
_atom_site_label
_atom_site_fract_x
_atom_site_fract_y
_atom_site_fract_z
Si Si1 0.583452 0.119615 0.691776
Si Si2 0.429267 0.809393 0.619024
Si Si3 0.234732 0.916084 0.064544
Si Si4 0.426662 0.228206 0.167122
Si Si5 0.892913 0.624671 0.415576
Si Si6 0.890818 0.634611 0.229693
Si Si7 0.385816 0.324311 0.997242
Si Si8 0.184942 0.848498 0.390416
O O1 0.671708 0.170675 0.833868
O O2 0.348663 0.296382 0.643029
O O3 0.709749 0.116739 0.648886
O O4 0.581648 0.859040 0.625157
O O5 0.488020 0.680253 0.689845
O O6 0.311806 0.721436 0.479611
O O7 0.290754 0.098637 0.705488
O O8 0.396814 0.725512 0.983108
O O9 0.264871 0.158508 0.133109
O O10 0.000000 0.000000 0.000000
O O11 0.596763 0.956655 0.097643
O O12 0.356511 0.394202 0.114040
O O13 0.963367 0.488794 0.296943
O O14 0.000000 0.500000 0.500000
O O15 0.929238 0.868895 0.514238
O O16 0.792289 0.534240 0.085562
O O17 0.051883 0.712678 0.274053
#
# Coordination Sequence:
#
# PCOD9064248 Si02
#       8
#     2   2   2   2   2   2   2   2
#     4   9  17  29  43  69 100 124 151 200 242 274
#     4   8  13  26  37  59  94 119 150 181 237 273
#     4   9  15  23  39  65  98 117 153 194 246 270
#     4   7  13  21  35  53  88 119 138 187 236 272
#     4  10  18  33  49  66  96 134 160 187 237 289
#     4   9  16  28  44  66  96 123 154 195 231 280
#     4   8  13  25  36  58  94 118 147 187 240 264
#     4  10  18  27  49  73  95 123 155 199 241 275
#
# _framework density 26.638472
#
# number of rings (size 3 to 8) (size 9 to 14) (size 15 to 20)
#    0.750    2.750    2.500    3.000    1.750    0.000 
#    0.000    0.625    0.000    0.000    0.000    0.875 
#    0.000    4.500    0.000    0.000    0.000    0.000 
#
# Total GULP energy -89306.273905 kJ/mol
# GULP energy per Si atom -5581.642119 kJ/mol
# Density = 2.657784 g / cm^3
# Si number density = 26.638472 Si / 1000 Ang^3
#
#
#
# Elastic Constant Matrix: (Units=GPa)
#
#
# Indices 1 2 3 4 5 6 
#
# 1 164.7148 23.3449 92.7899 -44.4858 -8.3233 26.6515
# 2 23.3449 77.6051 61.4332 -24.5799 -9.2908 4.1774
# 3 92.7899 61.4332 217.3983 -67.6864 -25.9997 11.4928
# 4 -44.4858 -24.5799 -67.6864 51.0647 6.3578 -10.9943
# 5 -8.3233 -9.2908 -25.9997 6.3578 48.7905 -10.5386
# 6 26.6515 4.1774 11.4928 -10.9943 -10.5386 36.9870
#
#
#
# Elastic Compliance Matrix: (Units=1/GPa)
#
#
# Indices 1 2 3 4 5 6 
#
# 1 0.009416 0.000815 -0.003006 0.003657 -0.001455 -0.005270
# 2 0.000815 0.016986 -0.003943 0.003561 0.000810 0.000009
# 3 -0.003006 -0.003943 0.010096 0.009106 0.003624 0.003214
# 4 0.003657 0.003561 0.009106 0.037530 0.002564 0.006019
# 5 -0.001455 0.000810 0.003624 0.002564 0.023578 0.007311
# 6 -0.005270 0.000009 0.003214 0.006019 0.007311 0.033707
#
#
# Mechanical properties :
#
#
# Convention : Reuss Voigt Hill
#
# Bulk Modulus (GPa) = 41.27052 90.53936 65.90494
# Shear Modulus (GPa) = 32.96921 46.17847 39.57384
#
# Velocity S-wave (km/s) = 3.52185 4.16808 3.85852
# Velocity P-wave (km/s) = 5.66254 7.56478 6.68170
#
# Compressibility (1/GPa) = 0.02423037
#
# Stress axis : x y z
#
# Youngs Moduli (GPa) = 106.20324 58.87161 99.05310
#
# Poissons Ratio (x) = -0.04797 0.29775
# Poissons Ratio (y) = -0.08654 0.39052
# Poissons Ratio (z) = 0.31924 0.23210
#
# Static dielectric constant tensor:
#      x y z
#    x 2.084900 -0.100600 0.006650 
#    y -0.100600 2.360830 -0.019840 
#    z 0.006650 -0.019840 2.110300 
# 
# From -- ./inp_files/493229.got.cif
#   From: 2010.05.17/outbox.cif.g08.bks.cpg/sg2_247_cif.got.tgz:493229.got - 2010.06.03 11:33:40.
