data_PCOD9064808
_publ_section_title
;
Structure prediction by ZEFSAII (Michael W. Deem and Ramdas Pophale) SiO2 
 PCOD9064808
Probable space group: P -1
;
_chemical_formula_sum "Si O2"
_cell_formula_units_Z 16
_cell_length_a 12.195811
_cell_length_b 18.950296
_cell_length_c 9.185369
_cell_angle_alpha 34.413282
_cell_angle_beta 141.807285
_cell_angle_gamma 144.385954
_cell_volume 654.398012
_symmetry_space_group_name_H-M "P -1"
_symmetry_group_IT_number 2
_symmetry_cell_setting 'triclinic'
loop_
_space_group_symop_operation_xyz
x,y,z
-x,-y,-z
loop_
_atom_site_type_symbol
_atom_site_label
_atom_site_fract_x
_atom_site_fract_y
_atom_site_fract_z
Si Si1 0.166651 0.132666 0.859739
Si Si2 0.932327 0.690093 0.013595
Si Si3 0.164308 0.563477 0.865483
Si Si4 0.212654 0.109133 0.608474
Si Si5 0.777267 0.562443 0.588781
Si Si6 0.333261 0.500407 0.721589
Si Si7 0.475055 0.866889 0.606068
Si Si8 0.393130 0.814396 0.281323
O O1 0.196346 0.093118 0.793158
O O2 0.135556 0.270925 0.576393
O O3 0.359945 0.172971 0.092201
O O4 0.000000 0.000000 0.000000
O O5 0.876036 0.542628 0.127394
O O6 0.867835 0.641175 0.195832
O O7 0.169514 0.798902 0.054885
O O8 0.793360 0.749404 0.694270
O O9 0.269375 0.726834 0.658321
O O10 0.948125 0.528352 0.761383
O O11 0.285744 0.527602 0.177099
O O12 0.420666 0.115547 0.757455
O O13 0.000000 0.000000 0.500000
O O14 0.625502 0.514086 0.378829
O O15 0.335240 0.648333 0.501223
O O16 0.500000 0.500000 0.000000
O O17 0.484387 0.886002 0.409980
O O18 0.500000 0.000000 0.500000
#
# Coordination Sequence:
#
# PCOD9064808 Si02
#       8
#     2   2   2   2   2   2   2   2
#     4  12  28  50  73 104 154 203 254 320 391 464
#     4  12  25  48  79 112 155 199 256 325 385 457
#     4  11  24  46  73 112 148 192 255 316 378 461
#     4  12  30  50  76 111 152 206 264 316 390 467
#     4  11  25  43  74 107 147 191 250 317 382 446
#     4  12  23  41  75 112 149 192 247 312 382 451
#     4  12  28  48  75 109 155 203 251 310 394 468
#     4  12  26  50  76 112 152 200 259 317 385 463
#
# _framework density 24.449953000000001
#
# number of rings (size 3 to 8) (size 9 to 14) (size 15 to 20)
#    0.000    0.250    5.000    3.375    5.250    1.000 
#    2.250    0.000    0.000    0.000    0.000    0.000 
#    0.000    0.000    0.000    0.000    0.000    0.000 
#
# Total GULP energy -89546.020503 kJ/mol
# GULP energy per Si atom -5596.626281 kJ/mol
# Density = 2.439430 g / cm^3
# Si number density = 24.449953 Si / 1000 Ang^3
#
#
#
# Elastic Constant Matrix: (Units=GPa)
#
#
# Indices 1 2 3 4 5 6 
#
# 1 144.3699 43.7887 43.5868 12.6813 -21.3854 -2.4515
# 2 43.7887 114.9286 21.2239 3.2719 -14.7861 -0.6105
# 3 43.5868 21.2239 95.2246 11.5034 -15.0676 0.8114
# 4 12.6813 3.2719 11.5034 55.1216 -3.0013 -0.5486
# 5 -21.3854 -14.7861 -15.0676 -3.0013 43.0458 6.6717
# 6 -2.4515 -0.6105 0.8114 -0.5486 6.6717 45.8350
#
#
#
# Elastic Compliance Matrix: (Units=1/GPa)
#
#
# Indices 1 2 3 4 5 6 
#
# 1 0.009095 -0.002548 -0.003065 -0.001166 0.002469 0.000133
# 2 -0.002548 0.010063 -0.000793 0.000259 0.001974 -0.000272
# 3 -0.003065 -0.000793 0.012722 -0.001766 0.002660 -0.000808
# 4 -0.001166 0.000259 -0.001766 0.018774 0.000174 0.000172
# 5 0.002469 0.001974 0.002660 0.000174 0.026663 -0.003768
# 6 0.000133 -0.000272 -0.000808 0.000172 -0.003768 0.022386
#
#
# Mechanical properties :
#
#
# Convention : Reuss Voigt Hill
#
# Bulk Modulus (GPa) = 52.44252 63.52465 57.98359
# Shear Modulus (GPa) = 42.06207 45.19539 43.62873
#
# Velocity S-wave (km/s) = 4.15219 4.30407 4.22881
# Velocity P-wave (km/s) = 6.66956 7.12305 6.90003
#
# Compressibility (1/GPa) = 0.01906850
#
# Stress axis : x y z
#
# Youngs Moduli (GPa) = 109.94950 99.37002 78.60167
#
# Poissons Ratio (x) = 0.25318 0.24091
# Poissons Ratio (y) = 0.28013 0.06237
# Poissons Ratio (z) = 0.33698 0.07885
#
# Static dielectric constant tensor:
#      x y z
#    x 1.984170 0.049090 0.003920 
#    y 0.049090 1.999390 -0.007920 
#    z 0.003920 -0.007920 2.000540 
# 
# From -- ./inp_files/278898.got.cif
#   From: 2010.05.17/outbox.cif.g08.bks.cpg/sg2_140_cif.got.tgz:278898.got - 2010.06.03 11:33:40.
