data_PCOD9064912
_publ_section_title
;
Structure prediction by ZEFSAII (Michael W. Deem and Ramdas Pophale) SiO2 
 PCOD9064912
Probable space group: P -1
;
_chemical_formula_sum "Si O2"
_cell_formula_units_Z 13
_cell_length_a 8.284007
_cell_length_b 9.699637
_cell_length_c 9.457343
_cell_angle_alpha 64.800304
_cell_angle_beta 48.815353
_cell_angle_gamma 69.160048
_cell_volume 514.295725
_symmetry_space_group_name_H-M "P -1"
_symmetry_group_IT_number 2
_symmetry_cell_setting 'triclinic'
loop_
_space_group_symop_operation_xyz
x,y,z
-x,-y,-z
loop_
_atom_site_type_symbol
_atom_site_label
_atom_site_fract_x
_atom_site_fract_y
_atom_site_fract_z
Si Si1 0.186409 0.037747 0.074362
Si Si2 0.000000 0.000000 0.500000
Si Si3 0.591652 0.687604 0.226087
Si Si4 0.824567 0.553184 0.897145
Si Si5 0.751735 0.523843 0.479674
Si Si6 0.706257 0.766640 0.633165
Si Si7 0.235856 0.800616 0.913438
O O1 0.970453 0.125676 0.088137
O O2 0.148078 0.036127 0.262793
O O3 0.386232 0.134616 0.879676
O O4 0.222476 0.878163 0.041120
O O5 0.858638 0.895127 0.522886
O O6 0.615694 0.634930 0.397243
O O7 0.386369 0.607742 0.326976
O O8 0.790254 0.610418 0.051137
O O9 0.672450 0.668469 0.837138
O O10 0.055740 0.559118 0.688428
O O11 0.776169 0.379676 0.993598
O O12 0.809246 0.639189 0.517518
O O13 0.463959 0.828600 0.699656
#
# Coordination Sequence:
#
# PCOD9064912 Si02
#       7
#     2   1   2   2   2   2   2
#     4  11  26  51  73 111 154 199 250 317 375 451
#     4  12  28  48  72 112 150 196 258 304 384 446
#     4  11  24  46  75 116 146 200 252 307 377 447
#     4  12  23  48  75 111 155 195 253 314 367 450
#     4  11  25  43  78 111 152 194 252 307 381 440
#     4  12  27  48  72 115 150 200 255 314 373 451
#     4  11  26  48  80 103 157 204 248 310 387 443
#
# _framework density 25.277284000000002
#
# number of rings (size 3 to 8) (size 9 to 14) (size 15 to 20)
#    0.000    0.615    4.615    2.308    2.154    2.462 
#    0.000    0.000    0.000    0.000    0.000    0.000 
#    0.000    0.000    0.000    0.000    0.000    0.000 
#
# Total GULP energy -72594.228140 kJ/mol
# GULP energy per Si atom -5584.171395 kJ/mol
# Density = 2.521975 g / cm^3
# Si number density = 25.277284 Si / 1000 Ang^3
#
#
#
# Elastic Constant Matrix: (Units=GPa)
#
#
# Indices 1 2 3 4 5 6 
#
# 1 73.0356 53.3774 42.7263 -1.7760 -17.9423 25.1171
# 2 53.3774 97.5493 26.9383 -6.3679 -6.9203 31.0538
# 3 42.7263 26.9383 99.3637 -1.3560 0.4523 14.8212
# 4 -1.7760 -6.3679 -1.3560 40.5389 8.2726 1.2993
# 5 -17.9423 -6.9203 0.4523 8.2726 48.3145 5.1975
# 6 25.1171 31.0538 14.8212 1.2993 5.1975 41.0860
#
#
#
# Elastic Compliance Matrix: (Units=1/GPa)
#
#
# Indices 1 2 3 4 5 6 
#
# 1 0.035775 -0.012756 -0.010537 -0.003157 0.013173 -0.009995
# 2 -0.012756 0.019173 0.001392 0.003088 -0.001772 -0.007069
# 3 -0.010537 0.001392 0.014135 0.001043 -0.004109 0.000778
# 4 -0.003157 0.003088 0.001043 0.026123 -0.005109 -0.000960
# 5 0.013173 -0.001772 -0.004109 -0.005109 0.027164 -0.008506
# 6 -0.009995 -0.007069 0.000778 -0.000960 -0.008506 0.036618
#
#
# Mechanical properties :
#
#
# Convention : Reuss Voigt Hill
#
# Bulk Modulus (GPa) = 39.55687 57.33695 48.44691
# Shear Modulus (GPa) = 23.67231 35.78168 29.72700
#
# Velocity S-wave (km/s) = 3.06356 3.76648 3.43306
# Velocity P-wave (km/s) = 5.31008 6.45350 5.90951
#
# Compressibility (1/GPa) = 0.02528006
#
# Stress axis : x y z
#
# Youngs Moduli (GPa) = 27.95215 52.15755 70.74761
#
# Poissons Ratio (x) = 0.66530 0.74550
# Poissons Ratio (y) = 0.35655 -0.09845
# Poissons Ratio (z) = 0.29454 -0.07258
#
# Static dielectric constant tensor:
#      x y z
#    x 2.051830 -0.107230 -0.037250 
#    y -0.107230 1.954110 0.004200 
#    z -0.037250 0.004200 1.967090 
# 
# From -- ./inp_files/157034.got.cif
#   From: 2010.05.17/outbox.cif.g08.bks.cpg/sg2_79_cif.got.tgz:157034.got - 2010.06.03 11:33:40.
