data_PCOD9064044
_publ_section_title
;
Structure prediction by ZEFSAII (Michael W. Deem and Ramdas Pophale) SiO2 
 PCOD9064044
Probable space group: P -1
;
_chemical_formula_sum "Si O2"
_cell_formula_units_Z 12
_cell_length_a 22.399073
_cell_length_b 22.602881
_cell_length_c 5.894286
_cell_angle_alpha 128.550087
_cell_angle_beta 52.425740
_cell_angle_gamma 167.603270
_cell_volume 501.012117
_symmetry_space_group_name_H-M "P -1"
_symmetry_group_IT_number 2
_symmetry_cell_setting 'triclinic'
loop_
_space_group_symop_operation_xyz
x,y,z
-x,-y,-z
loop_
_atom_site_type_symbol
_atom_site_label
_atom_site_fract_x
_atom_site_fract_y
_atom_site_fract_z
Si Si1 0.867893 0.088116 0.911588
Si Si2 0.421111 0.545559 0.780487
Si Si3 0.115585 0.432113 0.783103
Si Si4 0.280158 0.726050 0.429792
Si Si5 0.572384 0.910620 0.536212
Si Si6 0.724956 0.736248 0.858987
O O1 0.145615 0.325497 0.957837
O O2 0.993294 0.244449 0.764322
O O3 0.629205 0.794203 0.730784
O O4 0.715846 0.002962 0.218901
O O5 0.625288 0.715661 0.914082
O O6 0.290488 0.345163 0.485937
O O7 0.363985 0.659076 0.571235
O O8 0.247908 0.620449 0.097922
O O9 0.837638 0.195943 0.744092
O O10 0.378273 0.788827 0.594550
O O11 0.000000 0.500000 0.500000
O O12 0.500000 0.000000 0.500000
O O13 0.500000 0.500000 0.000000
O O14 0.000000 0.000000 0.000000
#
# Coordination Sequence:
#
# PCOD9064044 Si02
#       6
#     2   2   2   2   2   2
#     4  12  25  47  72 103 145 183 230 289 347 413
#     4  11  25  44  71 103 140 183 228 287 346 405
#     4  12  26  46  72 103 141 184 231 287 349 414
#     4  12  26  46  71 102 139 181 234 289 343 412
#     4  12  26  46  72 103 141 184 231 287 349 414
#     4  11  24  45  70 102 139 179 233 285 338 410
#
# _framework density 23.951516000000002
#
# number of rings (size 3 to 8) (size 9 to 14) (size 15 to 20)
#    0.000    0.333    0.000   10.000    0.000   12.000 
#    0.000    3.333    0.000    0.000    0.000    0.000 
#    0.000    0.000    0.000    0.000    0.000    0.000 
#
# Total GULP energy -67144.594162 kJ/mol
# GULP energy per Si atom -5595.382847 kJ/mol
# Density = 2.389700 g / cm^3
# Si number density = 23.951516 Si / 1000 Ang^3
#
#
#
# Elastic Constant Matrix: (Units=GPa)
#
#
# Indices 1 2 3 4 5 6 
#
# 1 135.2538 81.7067 21.3757 0.3646 17.1687 14.9984
# 2 81.7067 231.8528 26.2608 0.0037 15.2816 17.3303
# 3 21.3757 26.2608 21.2722 7.7648 14.2134 12.7704
# 4 0.3646 0.0037 7.7648 53.4015 2.3227 14.0077
# 5 17.1687 15.2816 14.2134 2.3227 28.5787 2.3533
# 6 14.9984 17.3303 12.7704 14.0077 2.3533 56.3234
#
#
#
# Elastic Compliance Matrix: (Units=1/GPa)
#
#
# Indices 1 2 3 4 5 6 
#
# 1 0.010295 -0.002823 -0.005401 0.001017 -0.002004 -0.000817
# 2 -0.002823 0.005849 -0.005446 0.000772 0.001219 -0.000056
# 3 -0.005401 -0.005446 0.099074 -0.008509 -0.041147 -0.015514
# 4 0.001017 0.000772 -0.008509 0.020887 0.001828 -0.003850
# 5 -0.002004 0.001219 -0.041147 0.001828 0.055305 0.006723
# 6 -0.000817 -0.000056 -0.015514 -0.003850 0.006723 0.022184
#
#
# Mechanical properties :
#
#
# Convention : Reuss Voigt Hill
#
# Bulk Modulus (GPa) = 11.37966 71.89615 41.63791
# Shear Modulus (GPa) = 18.50300 44.92977 31.71639
#
# Velocity S-wave (km/s) = 2.78244 4.33582 3.64289
# Velocity P-wave (km/s) = 3.88382 7.42619 5.92589
#
# Compressibility (1/GPa) = 0.08787607
#
# Stress axis : x y z
#
# Youngs Moduli (GPa) = 97.13638 170.97967 10.09348
#
# Poissons Ratio (x) = 0.48268 0.05452
# Poissons Ratio (y) = 0.27422 0.05497
# Poissons Ratio (z) = 0.52465 0.93122
#
# Static dielectric constant tensor:
#      x y z
#    x 2.035650 0.005390 -0.084860 
#    y 0.005390 1.833310 -0.016680 
#    z -0.084860 -0.016680 2.030800 
# 
# From -- ./inp_files/125205.got.cif
#   From: 2010.05.17/outbox.cif.g08.bks.cpg/sg2_63_cif.got.tgz:125205.got - 2010.06.03 11:33:40.
