data_PCOD9064847
_publ_section_title
;
Structure prediction by ZEFSAII (Michael W. Deem and Ramdas Pophale) SiO2 
 PCOD9064847
Probable space group: P -1
;
_chemical_formula_sum "Si O2"
_cell_formula_units_Z 14
_cell_length_a 9.563853
_cell_length_b 11.099621
_cell_length_c 5.512909
_cell_angle_alpha 89.853421
_cell_angle_beta 72.093836
_cell_angle_gamma 87.118172
_cell_volume 556.120705
_symmetry_space_group_name_H-M "P -1"
_symmetry_group_IT_number 2
_symmetry_cell_setting 'triclinic'
loop_
_space_group_symop_operation_xyz
x,y,z
-x,-y,-z
loop_
_atom_site_type_symbol
_atom_site_label
_atom_site_fract_x
_atom_site_fract_y
_atom_site_fract_z
Si Si1 0.368906 0.130687 0.557544
Si Si2 0.932130 0.381694 0.648606
Si Si3 0.168277 0.327713 0.872890
Si Si4 0.269139 0.006043 0.116008
Si Si5 0.656017 0.455267 0.015330
Si Si6 0.680357 0.199523 0.225981
Si Si7 0.002287 0.843048 0.701937
O O1 0.264885 0.253143 0.622385
O O2 0.332029 0.060495 0.329570
O O3 0.539102 0.160169 0.450326
O O4 0.329962 0.064222 0.831394
O O5 0.000000 0.500000 0.500000
O O6 0.009655 0.377278 0.866891
O O7 0.966436 0.246367 0.537982
O O8 0.759589 0.408155 0.740784
O O9 0.264125 0.432443 0.916962
O O10 0.120800 0.233921 0.098519
O O11 0.091636 0.029328 0.245246
O O12 0.316899 0.867250 0.037879
O O13 0.659758 0.342263 0.195308
O O14 0.500000 0.500000 0.000000
O O15 0.839306 0.157008 0.252858
#
# Coordination Sequence:
#
# PCOD9064847 Si02
#       7
#     2   2   2   2   2   2   2
#     4  11  27  48  82 107 157 202 251 316 386 449
#     4  12  23  43  75 101 147 199 249 303 382 454
#     4  11  24  50  67 105 151 195 249 305 386 449
#     4  11  26  53  78 112 152 206 253 315 386 455
#     4  12  29  45  74 112 155 196 254 320 378 458
#     4  12  27  47  73 113 153 196 257 319 377 454
#     4  11  24  46  74 108 144 198 252 315 375 455
#
# _framework density 25.174389999999999
#
# number of rings (size 3 to 8) (size 9 to 14) (size 15 to 20)
#    0.000    0.571    4.286    2.571    8.000    1.714 
#    0.000    2.857    0.000    0.000    0.000    0.000 
#    0.000    0.000    0.000    0.000    0.000    0.000 
#
# Total GULP energy -78298.103972 kJ/mol
# GULP energy per Si atom -5592.721712 kJ/mol
# Density = 2.511709 g / cm^3
# Si number density = 25.174390 Si / 1000 Ang^3
#
#
#
# Elastic Constant Matrix: (Units=GPa)
#
#
# Indices 1 2 3 4 5 6 
#
# 1 198.0496 42.1338 54.1708 12.5566 -32.3968 -2.9615
# 2 42.1338 76.6428 31.5918 15.8432 -19.2043 8.4082
# 3 54.1708 31.5918 109.2180 12.1487 -16.7921 18.6977
# 4 12.5566 15.8432 12.1487 45.9298 3.7955 -4.8930
# 5 -32.3968 -19.2043 -16.7921 3.7955 41.7026 11.0312
# 6 -2.9615 8.4082 18.6977 -4.8930 11.0312 40.3360
#
#
#
# Elastic Compliance Matrix: (Units=1/GPa)
#
#
# Indices 1 2 3 4 5 6 
#
# 1 0.006674 -0.001864 -0.002385 -0.000701 0.003156 0.001036
# 2 -0.001864 0.019222 -0.001141 -0.007361 0.009494 -0.007104
# 3 -0.002385 -0.001141 0.013308 -0.003784 0.005456 -0.008057
# 4 -0.000701 -0.007361 -0.003784 0.027369 -0.010438 0.009411
# 5 0.003156 0.009494 0.005456 -0.010438 0.038178 -0.015983
# 6 0.001036 -0.007104 -0.008057 0.009411 -0.015983 0.035597
#
#
# Mechanical properties :
#
#
# Convention : Reuss Voigt Hill
#
# Bulk Modulus (GPa) = 35.18146 71.07811 53.12979
# Shear Modulus (GPa) = 31.13248 42.66128 36.89688
#
# Velocity S-wave (km/s) = 3.52045 4.12105 3.83254
# Velocity P-wave (km/s) = 5.52541 7.13721 6.38239
#
# Compressibility (1/GPa) = 0.02842406
#
# Stress axis : x y z
#
# Youngs Moduli (GPa) = 149.82512 52.02300 75.14096
#
# Poissons Ratio (x) = 0.09697 0.17925
# Poissons Ratio (y) = 0.27926 0.08574
# Poissons Ratio (z) = 0.35741 0.05936
#
# Static dielectric constant tensor:
#      x y z
#    x 2.009850 -0.052080 -0.020090 
#    y -0.052080 3.229380 -0.456740 
#    z -0.020090 -0.456740 2.236060 
# 
# From -- ./inp_files/28160.got.cif
#   From: 2010.05.17/outbox.cif.g08.bks.cpg/sg2_15_cif.got.tgz:28160.got - 2010.06.03 11:33:40.
