data_PCOD9064510
_publ_section_title
;
Structure prediction by ZEFSAII (Michael W. Deem and Ramdas Pophale) SiO2 
 PCOD9064510
Probable space group: P -1
;
_chemical_formula_sum "Si O2"
_cell_formula_units_Z 16
_cell_length_a 9.388501
_cell_length_b 12.645225
_cell_length_c 12.448124
_cell_angle_alpha 131.650124
_cell_angle_beta 133.365523
_cell_angle_gamma 68.346781
_cell_volume 792.341805
_symmetry_space_group_name_H-M "P -1"
_symmetry_group_IT_number 2
_symmetry_cell_setting 'triclinic'
loop_
_space_group_symop_operation_xyz
x,y,z
-x,-y,-z
loop_
_atom_site_type_symbol
_atom_site_label
_atom_site_fract_x
_atom_site_fract_y
_atom_site_fract_z
Si Si1 0.504359 0.408779 0.275853
Si Si2 0.118958 0.865459 0.976871
Si Si3 0.212004 0.397165 0.296146
Si Si4 0.439127 0.870333 0.961089
Si Si5 0.570974 0.443907 0.886125
Si Si6 0.500272 0.128946 0.668392
Si Si7 0.179438 0.132491 0.690561
Si Si8 0.982366 0.567589 0.155851
O O1 0.319385 0.342034 0.210329
O O2 0.627393 0.543984 0.491187
O O3 0.622515 0.278772 0.233392
O O4 0.456002 0.459869 0.166070
O O5 0.253289 0.877102 0.946808
O O6 0.957473 0.722396 0.821358
O O7 0.294313 0.868301 0.157850
O O8 0.000000 0.000000 0.000000
O O9 0.154288 0.541186 0.307754
O O10 0.645486 0.866387 0.130108
O O11 0.500000 0.000000 0.000000
O O12 0.495369 0.280105 0.710060
O O13 0.500000 0.500000 0.000000
O O14 0.802219 0.456931 0.034676
O O15 0.310816 0.122546 0.644489
O O16 0.500000 0.000000 0.500000
O O17 0.079542 0.275428 0.758266
O O18 0.000000 0.000000 0.500000
O O19 0.000000 0.500000 0.000000
#
# Coordination Sequence:
#
# PCOD9064510 Si02
#       8
#     2   2   2   2   2   2   2   2
#     4  11  25  44  68  99 136 177 222 278 339 399
#     4  11  25  45  66  95 136 177 223 276 332 403
#     4  11  25  43  68 102 134 173 227 277 335 406
#     4  11  24  46  66  93 137 181 217 274 339 398
#     4  12  22  46  71  94 134 176 227 281 333 402
#     4  11  26  43  68  99 134 177 223 280 338 399
#     4  11  26  44  67 100 135 174 227 277 335 407
#     4  12  23  43  72  99 128 179 227 280 338 398
#
# _framework density 20.193304999999999
#
# number of rings (size 3 to 8) (size 9 to 14) (size 15 to 20)
#    0.000    0.750    5.000    1.500    5.250    2.500 
#    0.000    0.000    0.000    0.000    0.000    0.000 
#    0.000    0.000    0.000    0.000    0.000    0.000 
#
# Total GULP energy -89089.259596 kJ/mol
# GULP energy per Si atom -5568.078725 kJ/mol
# Density = 2.014734 g / cm^3
# Si number density = 20.193305 Si / 1000 Ang^3
#
#
#
# Elastic Constant Matrix: (Units=GPa)
#
#
# Indices 1 2 3 4 5 6 
#
# 1 152.1051 65.1765 54.9242 16.2071 -6.0297 -3.4811
# 2 65.1765 129.9481 36.6585 22.6176 -10.8183 -2.0748
# 3 54.9242 36.6585 80.7229 22.0555 -1.4548 9.3193
# 4 16.2071 22.6176 22.0555 37.6675 -1.6414 -0.3067
# 5 -6.0297 -10.8183 -1.4548 -1.6414 40.9021 3.2545
# 6 -3.4811 -2.0748 9.3193 -0.3067 3.2545 35.7921
#
#
#
# Elastic Compliance Matrix: (Units=1/GPa)
#
#
# Indices 1 2 3 4 5 6 
#
# 1 0.010174 -0.003607 -0.005893 0.001267 0.000203 0.002307
# 2 -0.003607 0.010764 -0.001341 -0.004032 0.002074 0.000399
# 3 -0.005893 -0.001341 0.019981 -0.008424 -0.000382 -0.005891
# 4 0.001267 -0.004032 -0.008424 0.033375 -0.000029 0.002371
# 5 0.000203 0.002074 -0.000382 -0.000029 0.025176 -0.002050
# 6 0.002307 0.000399 -0.005891 0.002371 -0.002050 0.029927
#
#
# Mechanical properties :
#
#
# Convention : Reuss Voigt Hill
#
# Bulk Modulus (GPa) = 51.98276 75.14384 63.56330
# Shear Modulus (GPa) = 31.74799 36.60680 34.17739
#
# Velocity S-wave (km/s) = 3.96940 4.26234 4.11848
# Velocity P-wave (km/s) = 6.84154 7.84324 7.35945
#
# Compressibility (1/GPa) = 0.01923715
#
# Stress axis : x y z
#
# Youngs Moduli (GPa) = 98.29129 92.90567 50.04666
#
# Poissons Ratio (x) = 0.33511 0.29493
# Poissons Ratio (y) = 0.35454 0.06710
# Poissons Ratio (z) = 0.57923 0.12457
#
# Static dielectric constant tensor:
#      x y z
#    x 1.740510 0.007730 -0.055630 
#    y 0.007730 1.734090 -0.028120 
#    z -0.055630 -0.028120 1.738240 
# 
# From -- ./inp_files/226495.got.cif
#   From: 2010.05.17/outbox.cif.g08.bks.cpg/sg2_114_cif.got.tgz:226495.got - 2010.06.03 11:33:40.
