data_PCOD9064639
_publ_section_title
;
Structure prediction by ZEFSAII (Michael W. Deem and Ramdas Pophale) SiO2 
 PCOD9064639
Probable space group: P -1
;
_chemical_formula_sum "Si O2"
_cell_formula_units_Z 16
_cell_length_a 8.182449
_cell_length_b 6.681363
_cell_length_c 19.294664
_cell_angle_alpha 44.153191
_cell_angle_beta 89.037289
_cell_angle_gamma 75.840170
_cell_volume 692.503463
_symmetry_space_group_name_H-M "P -1"
_symmetry_group_IT_number 2
_symmetry_cell_setting 'triclinic'
loop_
_space_group_symop_operation_xyz
x,y,z
-x,-y,-z
loop_
_atom_site_type_symbol
_atom_site_label
_atom_site_fract_x
_atom_site_fract_y
_atom_site_fract_z
Si Si1 0.086710 0.727511 0.474090
Si Si2 0.884408 0.386652 0.352297
Si Si3 0.669559 0.280550 0.015078
Si Si4 0.716023 0.611942 0.153231
Si Si5 0.962262 0.279945 0.111758
Si Si6 0.399614 0.361398 0.203367
Si Si7 0.213687 0.610789 0.286286
Si Si8 0.606807 0.294879 0.612542
O O1 0.194084 0.573406 0.580137
O O2 0.201027 0.824523 0.393283
O O3 0.000000 0.500000 0.500000
O O4 0.937908 0.030392 0.423500
O O5 0.771115 0.550605 0.248132
O O6 0.059833 0.473688 0.334977
O O7 0.817014 0.178785 0.097489
O O8 0.651093 0.977366 0.056926
O O9 0.500000 0.500000 0.000000
O O10 0.707578 0.481844 0.902822
O O11 0.875241 0.456652 0.138155
O O12 0.569764 0.461922 0.175971
O O13 0.124192 0.976798 0.198238
O O14 0.000000 0.500000 0.000000
O O15 0.293383 0.500480 0.238427
O O16 0.444551 0.998727 0.295033
O O17 0.364330 0.526797 0.364011
O O18 0.500000 0.500000 0.500000
#
# Coordination Sequence:
#
# PCOD9064639 Si02
#       8
#     2   2   2   2   2   2   2   2
#     4  11  24  46  71 100 145 190 248 306 361 434
#     4  11  25  44  73 104 140 189 250 303 361 437
#     4  12  27  49  75 110 149 196 244 298 374 443
#     4  12  28  47  75 111 149 197 243 300 376 441
#     4  12  27  45  78 107 148 197 246 300 362 437
#     4  12  29  47  74 108 157 189 248 305 369 446
#     4  12  26  48  73 109 148 191 245 307 364 433
#     4  12  29  46  74 106 148 196 247 302 376 433
#
# _framework density 23.104576999999999
#
# number of rings (size 3 to 8) (size 9 to 14) (size 15 to 20)
#    0.000    0.250    5.000    2.625    8.750    1.500 
#    0.000    0.000    0.000    0.000    0.000    0.000 
#    0.000    0.000    0.000    0.000    0.000    0.000 
#
# Total GULP energy -89579.459307 kJ/mol
# GULP energy per Si atom -5598.716207 kJ/mol
# Density = 2.305199 g / cm^3
# Si number density = 23.104577 Si / 1000 Ang^3
#
#
#
# Elastic Constant Matrix: (Units=GPa)
#
#
# Indices 1 2 3 4 5 6 
#
# 1 39.8268 6.7659 8.0738 -9.3749 -2.3245 14.7344
# 2 6.7659 102.2502 37.4410 -2.5946 -3.3897 9.3494
# 3 8.0738 37.4410 134.3005 3.5509 6.4660 15.9361
# 4 -9.3749 -2.5946 3.5509 57.8230 8.2452 -9.5191
# 5 -2.3245 -3.3897 6.4660 8.2452 46.4694 8.4235
# 6 14.7344 9.3494 15.9361 -9.5191 8.4235 41.3710
#
#
#
# Elastic Compliance Matrix: (Units=1/GPa)
#
#
# Indices 1 2 3 4 5 6 
#
# 1 0.029952 -0.000654 -0.000617 0.002766 0.002901 -0.010237
# 2 -0.000654 0.011084 -0.002958 0.000143 0.001413 -0.001387
# 3 -0.000617 -0.002958 0.008676 -0.001068 -0.000805 -0.002536
# 4 0.002766 0.000143 -0.001068 0.019132 -0.003930 0.004596
# 5 0.002901 0.001413 -0.000805 -0.003930 0.023809 -0.006795
# 6 -0.010237 -0.001387 -0.002536 0.004596 -0.006795 0.031549
#
#
# Mechanical properties :
#
#
# Convention : Reuss Voigt Hill
#
# Bulk Modulus (GPa) = 24.23942 42.32657 33.28299
# Shear Modulus (GPa) = 34.15095 44.07247 39.11171
#
# Velocity S-wave (km/s) = 3.84878 4.37226 4.11884
# Velocity P-wave (km/s) = 5.50134 6.62179 6.08740
#
# Compressibility (1/GPa) = 0.04125511
#
# Stress axis : x y z
#
# Youngs Moduli (GPa) = 33.38637 90.22320 115.26682
#
# Poissons Ratio (x) = 0.05899 0.07106
# Poissons Ratio (y) = 0.02183 0.34094
# Poissons Ratio (z) = 0.02058 0.26687
#
# Static dielectric constant tensor:
#      x y z
#    x 1.901840 0.016690 0.026930 
#    y 0.016690 1.827120 0.013480 
#    z 0.026930 0.013480 1.885770 
# 
# From -- ./inp_files/111621.got.cif
#   From: 2010.05.17/outbox.cif.g08.bks.cpg/sg2_56_cif.got.tgz:111621.got - 2010.06.03 11:33:40.
