data_PCOD9064986
_publ_section_title
;
Structure prediction by ZEFSAII (Michael W. Deem and Ramdas Pophale) SiO2 
 PCOD9064986
Probable space group: P -1
;
_chemical_formula_sum "Si O2"
_cell_formula_units_Z 14
_cell_length_a 9.129891
_cell_length_b 16.927661
_cell_length_c 20.523707
_cell_angle_alpha 18.583720
_cell_angle_beta 142.434892
_cell_angle_gamma 132.525972
_cell_volume 567.970215
_symmetry_space_group_name_H-M "P -1"
_symmetry_group_IT_number 2
_symmetry_cell_setting 'triclinic'
loop_
_space_group_symop_operation_xyz
x,y,z
-x,-y,-z
loop_
_atom_site_type_symbol
_atom_site_label
_atom_site_fract_x
_atom_site_fract_y
_atom_site_fract_z
Si Si1 0.470524 0.752798 0.649560
Si Si2 0.507996 0.649191 0.608960
Si Si3 0.771250 0.573912 0.105967
Si Si4 0.913744 0.555690 0.352680
Si Si5 0.929091 0.327143 0.215076
Si Si6 0.601039 0.006629 0.810528
Si Si7 0.730533 0.603787 0.513300
O O1 0.405598 0.851447 0.475491
O O2 0.252977 0.674180 0.668811
O O3 0.500000 0.000000 0.500000
O O4 0.740323 0.489406 0.962358
O O5 0.377781 0.449503 0.745560
O O6 0.809048 0.609087 0.743183
O O7 0.388287 0.745836 0.420549
O O8 0.775696 0.484282 0.103148
O O9 0.041361 0.597489 0.202818
O O10 0.571689 0.825680 0.880868
O O11 0.000000 0.500000 0.500000
O O12 0.135425 0.362770 0.532968
O O13 0.846296 0.838076 0.072478
O O14 0.000000 0.000000 0.500000
O O15 0.373324 0.135158 0.681531
O O16 0.500000 0.500000 0.500000
#
# Coordination Sequence:
#
# PCOD9064986 Si02
#       7
#     2   2   2   2   2   2   2
#     4  12  25  45  69 113 154 198 260 318 378 446
#     4  12  24  45  73 109 148 197 249 312 376 448
#     4  11  24  47  72 109 151 200 252 316 379 450
#     4  11  27  48  75 113 145 187 253 310 385 459
#     4  12  26  45  77 110 153 209 261 312 388 453
#     4  11  24  49  75 103 157 194 247 315 383 449
#     4  11  24  46  79 108 144 197 247 306 393 454
#
# _framework density 24.649180000000001
#
# number of rings (size 3 to 8) (size 9 to 14) (size 15 to 20)
#    0.000    0.571    4.286    4.286    0.000    6.857 
#    2.571    0.000    0.000    0.000    0.000    0.000 
#    0.000    0.000    0.000    0.000    0.000    0.000 
#
# Total GULP energy -77945.127037 kJ/mol
# GULP energy per Si atom -5567.509074 kJ/mol
# Density = 2.459308 g / cm^3
# Si number density = 24.649180 Si / 1000 Ang^3
#
#
#
# Elastic Constant Matrix: (Units=GPa)
#
#
# Indices 1 2 3 4 5 6 
#
# 1 192.8095 59.7377 38.5822 -6.2422 -3.1084 -19.6714
# 2 59.7377 92.7399 33.9428 8.9174 2.5780 19.7996
# 3 38.5822 33.9428 86.4710 3.5321 3.3640 -7.8201
# 4 -6.2422 8.9174 3.5321 40.0591 -11.7221 -2.8685
# 5 -3.1084 2.5780 3.3640 -11.7221 38.4105 4.6703
# 6 -19.6714 19.7996 -7.8201 -2.8685 4.6703 67.2725
#
#
#
# Elastic Compliance Matrix: (Units=1/GPa)
#
#
# Indices 1 2 3 4 5 6 
#
# 1 0.007713 -0.005788 -0.001020 0.003341 0.001651 0.003868
# 2 -0.005788 0.018697 -0.005154 -0.005783 -0.002076 -0.007897
# 3 -0.001020 -0.005154 0.014392 -0.000511 -0.001515 0.002975
# 4 0.003341 -0.005783 -0.000511 0.029799 0.009404 0.003237
# 5 0.001651 -0.002076 -0.001515 0.009404 0.029398 -0.000722
# 6 0.003868 -0.007897 0.002975 0.003237 -0.000722 0.018854
#
#
# Mechanical properties :
#
#
# Convention : Reuss Voigt Hill
#
# Bulk Modulus (GPa) = 59.25021 70.72732 64.98876
# Shear Modulus (GPa) = 33.69171 45.13229 39.41200
#
# Velocity S-wave (km/s) = 3.70110 4.28364 4.00298
# Velocity P-wave (km/s) = 6.50798 7.29534 6.91288
#
# Compressibility (1/GPa) = 0.01687758
#
# Stress axis : x y z
#
# Youngs Moduli (GPa) = 129.64527 53.48401 69.48379
#
# Poissons Ratio (x) = 0.30956 0.07091
# Poissons Ratio (y) = 0.75038 0.35812
# Poissons Ratio (z) = 0.13230 0.27565
#
# Static dielectric constant tensor:
#      x y z
#    x 1.990820 0.039310 0.057130 
#    y 0.039310 2.103080 0.003560 
#    z 0.057130 0.003560 2.080140 
# 
# From -- ./inp_files/590931.got.cif
#   From: 2010.05.17/outbox.cif.g08.bks.cpg/sg2_296_cif.got.tgz:590931.got - 2010.06.03 11:33:40.
