data_PCOD9064197
_publ_section_title
;
Structure prediction by ZEFSAII (Michael W. Deem and Ramdas Pophale) SiO2 
 PCOD9064197
Probable space group: P -1
;
_chemical_formula_sum "Si O2"
_cell_formula_units_Z 15
_cell_length_a 11.165139
_cell_length_b 9.751824
_cell_length_c 9.201274
_cell_angle_alpha 135.591149
_cell_angle_beta 77.485516
_cell_angle_gamma 109.565518
_cell_volume 660.194602
_symmetry_space_group_name_H-M "P -1"
_symmetry_group_IT_number 2
_symmetry_cell_setting 'triclinic'
loop_
_space_group_symop_operation_xyz
x,y,z
-x,-y,-z
loop_
_atom_site_type_symbol
_atom_site_label
_atom_site_fract_x
_atom_site_fract_y
_atom_site_fract_z
Si Si1 0.596914 0.692149 0.543313
Si Si2 0.319833 0.122924 0.910099
Si Si3 0.500000 0.000000 0.000000
Si Si4 0.010977 0.637724 0.959410
Si Si5 0.238256 0.504228 0.277703
Si Si6 0.497596 0.766630 0.314141
Si Si7 0.965545 0.042744 0.208924
Si Si8 0.840081 0.547032 0.435031
O O1 0.500000 0.500000 0.500000
O O2 0.579136 0.887166 0.781448
O O3 0.557565 0.700837 0.393193
O O4 0.734276 0.650059 0.480986
O O5 0.419670 0.245922 0.857944
O O6 0.187532 0.002360 0.778492
O O7 0.395102 0.004537 0.901066
O O8 0.278498 0.296963 0.142852
O O9 0.886461 0.552147 0.828984
O O10 0.125152 0.601764 0.804598
O O11 0.012500 0.872558 0.159566
O O12 0.000000 0.500000 0.000000
O O13 0.350592 0.647371 0.266311
O O14 0.212050 0.575451 0.497799
O O15 0.500000 0.000000 0.500000
O O16 0.039341 0.268154 0.409749
O O17 0.000000 0.000000 0.000000
#
# Coordination Sequence:
#
# PCOD9064197 Si02
#       8
#     2   2   1   2   2   2   2   2
#     4  12  26  46  71 105 142 186 238 289 353 429
#     4  11  24  45  72 103 144 184 237 299 358 423
#     4  12  22  46  70 104 140 182 244 286 346 436
#     4  11  28  47  71 111 145 184 239 307 355 423
#     4  11  24  49  69 103 139 192 238 286 367 419
#     4  12  26  43  69 104 145 184 232 300 362 422
#     4  11  24  47  76 103 139 191 241 288 360 430
#     4  12  25  47  79 102 142 195 241 292 355 436
#
# _framework density 22.720573000000002
#
# number of rings (size 3 to 8) (size 9 to 14) (size 15 to 20)
#    0.000    0.533    6.667    0.800    5.600    3.733 
#    2.400    0.000    0.000    0.000    0.000    0.000 
#    0.000    0.000    0.000    0.000    0.000    0.000 
#
# Total GULP energy -83710.736941 kJ/mol
# GULP energy per Si atom -5580.715796 kJ/mol
# Density = 2.266886 g / cm^3
# Si number density = 22.720573 Si / 1000 Ang^3
#
#
#
# Elastic Constant Matrix: (Units=GPa)
#
#
# Indices 1 2 3 4 5 6 
#
# 1 128.8986 35.5456 19.9164 1.3285 -26.8206 -11.5318
# 2 35.5456 89.4956 16.2032 -8.2281 -7.8047 -9.9688
# 3 19.9164 16.2032 66.4505 -5.2164 -21.9702 -3.7538
# 4 1.3285 -8.2281 -5.2164 45.1043 -2.8082 -2.2621
# 5 -26.8206 -7.8047 -21.9702 -2.8082 31.6376 2.5797
# 6 -11.5318 -9.9688 -3.7538 -2.2621 2.5797 49.5011
#
#
#
# Elastic Compliance Matrix: (Units=1/GPa)
#
#
# Indices 1 2 3 4 5 6 
#
# 1 0.010455 -0.003398 0.000462 -0.000296 0.008210 0.001345
# 2 -0.003398 0.013258 -0.002317 0.002271 -0.001170 0.001867
# 3 0.000462 -0.002317 0.020430 0.002840 0.014212 0.000579
# 4 -0.000296 0.002271 0.002840 0.023258 0.004229 0.001446
# 5 0.008210 -0.001170 0.014212 0.004229 0.048490 0.000421
# 6 0.001345 0.001867 0.000579 0.001446 0.000421 0.020979
#
#
# Mechanical properties :
#
#
# Convention : Reuss Voigt Hill
#
# Bulk Modulus (GPa) = 29.72897 47.57500 38.65199
# Shear Modulus (GPa) = 31.52816 39.46055 35.49436
#
# Velocity S-wave (km/s) = 3.72916 4.17199 3.95677
# Velocity P-wave (km/s) = 5.62629 6.64770 6.15821
#
# Compressibility (1/GPa) = 0.03363722
#
# Stress axis : x y z
#
# Youngs Moduli (GPa) = 95.64502 75.42858 48.94772
#
# Poissons Ratio (x) = 0.25628 -0.02262
# Poissons Ratio (y) = 0.32497 0.11343
# Poissons Ratio (z) = -0.04420 0.17479
#
# Static dielectric constant tensor:
#      x y z
#    x 1.871530 0.034330 -0.044710 
#    y 0.034330 1.854560 0.016650 
#    z -0.044710 0.016650 1.919460 
# 
# From -- ./inp_files/245891.got.cif
#   From: 2010.05.17/outbox.cif.g08.bks.cpg/sg2_123_cif.got.tgz:245891.got - 2010.06.03 11:33:40.
