data_PCOD9064772
_publ_section_title
;
Structure prediction by ZEFSAII (Michael W. Deem and Ramdas Pophale) SiO2 
 PCOD9064772
Probable space group: P -1
;
_chemical_formula_sum "Si O2"
_cell_formula_units_Z 16
_cell_length_a 18.847014
_cell_length_b 6.609764
_cell_length_c 8.783760
_cell_angle_alpha 78.588012
_cell_angle_beta 103.527913
_cell_angle_gamma 137.801185
_cell_volume 714.102887
_symmetry_space_group_name_H-M "P -1"
_symmetry_group_IT_number 2
_symmetry_cell_setting 'triclinic'
loop_
_space_group_symop_operation_xyz
x,y,z
-x,-y,-z
loop_
_atom_site_type_symbol
_atom_site_label
_atom_site_fract_x
_atom_site_fract_y
_atom_site_fract_z
Si Si1 0.958365 0.628498 0.891010
Si Si2 0.633245 0.854598 0.864526
Si Si3 0.100707 0.679422 0.411356
Si Si4 0.754027 0.775971 0.779676
Si Si5 0.616646 0.216193 0.592918
Si Si6 0.455070 0.130464 0.896379
Si Si7 0.272072 0.740239 0.630554
Si Si8 0.846361 0.660427 0.073659
O O1 0.929382 0.530541 0.714616
O O2 0.873510 0.537393 0.985025
O O3 0.050088 0.989791 0.890820
O O4 0.000000 0.500000 0.000000
O O5 0.733752 0.951142 0.825590
O O6 0.548912 0.492100 0.881344
O O7 0.607621 0.991918 0.722488
O O8 0.629265 0.947655 0.014077
O O9 0.205199 0.800618 0.530158
O O10 0.000000 0.500000 0.500000
O O11 0.141160 0.975136 0.308214
O O12 0.657947 0.493769 0.670909
O O13 0.768654 0.647122 0.941811
O O14 0.705616 0.358498 0.487912
O O15 0.500000 0.000000 0.500000
O O16 0.389984 0.000523 0.725676
O O17 0.500000 0.000000 0.000000
O O18 0.202314 0.505208 0.766595
#
# Coordination Sequence:
#
# PCOD9064772 Si02
#       8
#     2   2   2   2   2   2   2   2
#     4  11  24  49  72 102 143 195 250 309 369 433
#     4  11  24  46  73 102 147 194 237 308 367 450
#     4  12  28  46  73 109 152 193 246 314 371 439
#     4  12  26  47  72 104 147 199 245 299 381 451
#     4  12  27  45  71 107 151 190 244 311 381 449
#     4  11  25  47  76 110 146 191 253 305 371 454
#     4  12  26  45  71 110 146 190 244 309 373 440
#     4  11  26  44  77 101 139 196 253 302 364 449
#
# _framework density 22.405736999999998
#
# number of rings (size 3 to 8) (size 9 to 14) (size 15 to 20)
#    0.000    0.500    2.500    5.250    7.000    3.500 
#    0.000    0.000    0.000    0.000    0.000    0.000 
#    0.000    0.000    0.000    0.000    0.000    0.000 
#
# Total GULP energy -89439.457011 kJ/mol
# GULP energy per Si atom -5589.966063 kJ/mol
# Density = 2.235474 g / cm^3
# Si number density = 22.405737 Si / 1000 Ang^3
#
#
#
# Elastic Constant Matrix: (Units=GPa)
#
#
# Indices 1 2 3 4 5 6 
#
# 1 90.3928 11.5692 30.9338 10.5787 -17.9233 -8.9305
# 2 11.5692 108.1747 33.7226 6.3145 -13.8638 -4.3321
# 3 30.9338 33.7226 123.6008 1.9920 -15.4883 -6.9709
# 4 10.5787 6.3145 1.9920 43.0421 8.6437 -4.6149
# 5 -17.9233 -13.8638 -15.4883 8.6437 46.1839 -3.6811
# 6 -8.9305 -4.3321 -6.9709 -4.6149 -3.6811 33.6025
#
#
#
# Elastic Compliance Matrix: (Units=1/GPa)
#
#
# Indices 1 2 3 4 5 6 
#
# 1 0.013827 0.000433 -0.002622 -0.004128 0.005648 0.003239
# 2 0.000433 0.010518 -0.002522 -0.002016 0.002936 0.000993
# 3 -0.002622 -0.002522 0.009684 0.000395 0.001495 0.001205
# 4 -0.004128 -0.002016 0.000395 0.026063 -0.006828 0.001557
# 5 0.005648 0.002936 0.001495 -0.006828 0.026839 0.004192
# 6 0.003239 0.000993 0.001205 0.001557 0.004192 0.031671
#
#
# Mechanical properties :
#
#
# Convention : Reuss Voigt Hill
#
# Bulk Modulus (GPa) = 40.63734 52.73552 46.68643
# Shear Modulus (GPa) = 36.70360 40.96187 38.83274
#
# Velocity S-wave (km/s) = 4.05178 4.28037 4.16764
# Velocity P-wave (km/s) = 6.32974 6.92939 6.63634
#
# Compressibility (1/GPa) = 0.02460791
#
# Stress axis : x y z
#
# Youngs Moduli (GPa) = 72.31979 95.07675 103.26655
#
# Poissons Ratio (x) = -0.04116 0.27075
# Poissons Ratio (y) = -0.03131 0.26040
# Poissons Ratio (z) = 0.18961 0.23974
#
# Static dielectric constant tensor:
#      x y z
#    x 1.835460 0.064580 -0.043020 
#    y 0.064580 1.829290 0.018610 
#    z -0.043020 0.018610 1.788260 
# 
# From -- ./inp_files/288662.got.cif
#   From: 2010.05.17/outbox.cif.g08.bks.cpg/sg2_145_cif.got.tgz:288662.got - 2010.06.03 11:33:40.
