data_PCOD9064012
_publ_section_title
;
Structure prediction by ZEFSAII (Michael W. Deem and Ramdas Pophale) SiO2 
 PCOD9064012
Probable space group: P -1
;
_chemical_formula_sum "Si O2"
_cell_formula_units_Z 12
_cell_length_a 5.146058
_cell_length_b 5.432424
_cell_length_c 15.612002
_cell_angle_alpha 97.585382
_cell_angle_beta 91.302558
_cell_angle_gamma 85.779586
_cell_volume 431.412658
_symmetry_space_group_name_H-M "P -1"
_symmetry_group_IT_number 2
_symmetry_cell_setting 'triclinic'
loop_
_space_group_symop_operation_xyz
x,y,z
-x,-y,-z
loop_
_atom_site_type_symbol
_atom_site_label
_atom_site_fract_x
_atom_site_fract_y
_atom_site_fract_z
Si Si1 0.098119 0.076418 0.622260
Si Si2 0.737959 0.560282 0.882877
Si Si3 0.166610 0.162818 0.948566
Si Si4 0.381579 0.178374 0.784754
Si Si5 0.216510 0.247186 0.289075
Si Si6 0.578329 0.335264 0.574940
O O1 0.143088 0.223466 0.719504
O O2 0.359454 0.141250 0.579285
O O3 0.596628 0.006098 0.727393
O O4 0.015195 0.814430 0.649482
O O5 0.505137 0.414755 0.835873
O O6 0.966655 0.366287 0.910672
O O7 0.848086 0.701662 0.808347
O O8 0.653698 0.715307 0.974141
O O9 0.308177 0.032192 0.862973
O O10 0.000000 0.000000 0.000000
O O11 0.379687 0.463980 0.339860
O O12 0.139041 0.810222 0.431167
O O13 0.500000 0.500000 0.500000
#
# Coordination Sequence:
#
# PCOD9064012 Si02
#       6
#     2   2   2   2   2   2
#     4  12  26  52  76 118 153 199 256 309 386 459
#     4  11  24  45  69 105 151 207 254 318 379 445
#     4  11  25  44  68 106 153 203 262 315 375 446
#     4  12  24  45  72 108 151 201 260 306 385 448
#     4  12  26  47  79 107 155 205 250 323 378 457
#     4  12  29  53  81 115 155 199 252 315 385 464
#
# _framework density 27.815598000000001
#
# number of rings (size 3 to 8) (size 9 to 14) (size 15 to 20)
#    0.000    0.333    3.333    5.000    2.333    8.000 
#    3.000    0.000    0.000    0.000    0.000    0.000 
#    0.000    0.000    0.000    0.000    0.000    0.000 
#
# Total GULP energy -67281.082058 kJ/mol
# GULP energy per Si atom -5606.756838 kJ/mol
# Density = 2.775229 g / cm^3
# Si number density = 27.815598 Si / 1000 Ang^3
#
#
#
# Elastic Constant Matrix: (Units=GPa)
#
#
# Indices 1 2 3 4 5 6 
#
# 1 165.3328 55.5513 60.5417 -14.6785 10.2299 26.0813
# 2 55.5513 85.0354 48.1286 -15.7757 11.0135 25.9457
# 3 60.5417 48.1286 196.6813 -31.4111 22.2894 10.9304
# 4 -14.6785 -15.7757 -31.4111 83.7455 2.1742 4.8716
# 5 10.2299 11.0135 22.2894 2.1742 61.5839 -1.5484
# 6 26.0813 25.9457 10.9304 4.8716 -1.5484 51.0249
#
#
#
# Elastic Compliance Matrix: (Units=1/GPa)
#
#
# Indices 1 2 3 4 5 6 
#
# 1 0.008217 -0.003898 -0.001393 0.000303 -0.000224 -0.001956
# 2 -0.003898 0.018543 -0.002311 0.002418 -0.002099 -0.007236
# 3 -0.001393 -0.002311 0.006556 0.001811 -0.001786 0.000256
# 4 0.000303 0.002418 0.001811 0.013353 -0.001688 -0.003099
# 5 -0.000224 -0.002099 -0.001786 -0.001688 0.017413 0.002254
# 6 -0.001956 -0.007236 0.000256 -0.003099 0.002254 0.024587
#
#
# Mechanical properties :
#
#
# Convention : Reuss Voigt Hill
#
# Bulk Modulus (GPa) = 55.21382 86.16586 70.68984
# Shear Modulus (GPa) = 45.49131 58.12606 51.80868
#
# Velocity S-wave (km/s) = 4.04847 4.57628 4.32044
# Velocity P-wave (km/s) = 6.46115 7.67905 7.09628
#
# Compressibility (1/GPa) = 0.01811141
#
# Stress axis : x y z
#
# Youngs Moduli (GPa) = 121.69176 53.92962 152.52772
#
# Poissons Ratio (x) = 0.21021 0.21251
# Poissons Ratio (y) = 0.47434 0.35255
# Poissons Ratio (z) = 0.16955 0.12465
#
# Static dielectric constant tensor:
#      x y z
#    x 2.229410 -0.017490 -0.088310 
#    y -0.017490 2.223480 0.038040 
#    z -0.088310 0.038040 2.173230 
# 
# From -- ./inp_files/545978.got.cif
#   From: 2010.05.17/outbox.cif.g08.bks.cpg/sg2_273_cif.got.tgz:545978.got - 2010.06.03 11:33:40.
