data_PCOD9064333
_publ_section_title
;
Structure prediction by ZEFSAII (Michael W. Deem and Ramdas Pophale) SiO2 
 PCOD9064333
Probable space group: P -1
;
_chemical_formula_sum "Si O2"
_cell_formula_units_Z 16
_cell_length_a 8.158759
_cell_length_b 23.667055
_cell_length_c 19.508572
_cell_angle_alpha 22.689708
_cell_angle_beta 32.061020
_cell_angle_gamma 45.949223
_cell_volume 698.946799
_symmetry_space_group_name_H-M "P -1"
_symmetry_group_IT_number 2
_symmetry_cell_setting 'triclinic'
loop_
_space_group_symop_operation_xyz
x,y,z
-x,-y,-z
loop_
_atom_site_type_symbol
_atom_site_label
_atom_site_fract_x
_atom_site_fract_y
_atom_site_fract_z
Si Si1 0.534918 0.065265 0.197875
Si Si2 0.225751 0.673491 0.295148
Si Si3 0.609631 0.767885 0.549586
Si Si4 0.640380 0.183060 0.768316
Si Si5 0.595943 0.356684 0.098670
Si Si6 0.356872 0.541050 0.625290
Si Si7 0.421592 0.520310 0.777855
Si Si8 0.780504 0.817868 0.707172
O O1 0.468864 0.120239 0.234558
O O2 0.697949 0.938543 0.291219
O O3 0.729088 0.216510 0.910751
O O4 0.159146 0.959430 0.417481
O O5 0.397542 0.789991 0.168299
O O6 0.407397 0.553972 0.356375
O O7 0.827642 0.574194 0.564141
O O8 0.427555 0.750849 0.705749
O O9 0.395359 0.626219 0.731682
O O10 0.955509 0.750376 0.461817
O O11 0.500825 0.290613 0.653467
O O12 0.500000 0.000000 0.000000
O O13 0.347071 0.253306 0.242787
O O14 0.500000 0.500000 0.000000
O O15 0.982365 0.432243 0.850128
O O16 0.301878 0.563013 0.700651
O O17 0.243452 0.332536 0.069174
#
# Coordination Sequence:
#
# PCOD9064333 Si02
#       8
#     2   2   2   2   2   2   2   2
#     4  11  27  45  69 105 140 183 230 290 349 400
#     4  11  26  47  71 102 138 182 236 279 343 419
#     4  11  26  43  68 103 140 181 229 285 347 411
#     4  11  27  43  66 105 140 178 225 283 355 407
#     4  12  24  44  72 103 138 182 234 282 347 414
#     4  12  25  45  73 100 136 186 230 283 344 407
#     4  11  24  45  74 101 134 188 238 278 336 422
#     4  11  25  47  69 102 144 180 237 284 344 414
#
# _framework density 22.891583000000001
#
# number of rings (size 3 to 8) (size 9 to 14) (size 15 to 20)
#    0.000    0.750    3.750    2.250    8.750    3.500 
#    0.000    0.000    0.000    0.000    0.000    0.000 
#    0.000    0.000    0.000    0.000    0.000    0.000 
#
# Total GULP energy -89613.753830 kJ/mol
# GULP energy per Si atom -5600.859614 kJ/mol
# Density = 2.283948 g / cm^3
# Si number density = 22.891583 Si / 1000 Ang^3
#
#
#
# Elastic Constant Matrix: (Units=GPa)
#
#
# Indices 1 2 3 4 5 6 
#
# 1 89.4594 28.0518 10.1207 -13.6357 0.3490 21.0430
# 2 28.0518 68.9134 22.3697 -15.2131 7.1606 6.1884
# 3 10.1207 22.3697 76.0469 -7.5399 12.0166 -1.4520
# 4 -13.6357 -15.2131 -7.5399 36.9664 -1.7919 -1.7117
# 5 0.3490 7.1606 12.0166 -1.7919 41.9728 -14.3925
# 6 21.0430 6.1884 -1.4520 -1.7117 -14.3925 47.4886
#
#
#
# Elastic Compliance Matrix: (Units=1/GPa)
#
#
# Indices 1 2 3 4 5 6 
#
# 1 0.014529 -0.004468 -0.000227 0.003129 -0.001263 -0.006133
# 2 -0.004468 0.019177 -0.004203 0.005228 -0.002193 -0.001124
# 3 -0.000227 -0.004203 0.015083 0.001096 -0.003525 0.000080
# 4 0.003129 0.005228 0.001096 0.030521 -0.000278 -0.001019
# 5 -0.001263 -0.002193 -0.003525 -0.000278 0.028409 0.009338
# 6 -0.006133 -0.001124 0.000080 -0.001019 0.009338 0.026718
#
#
# Mechanical properties :
#
#
# Convention : Reuss Voigt Hill
#
# Bulk Modulus (GPa) = 32.26337 39.50045 35.88191
# Shear Modulus (GPa) = 30.75721 36.87738 33.81730
#
# Velocity S-wave (km/s) = 3.66950 4.01803 3.84771
# Velocity P-wave (km/s) = 5.66376 6.23049 5.95387
#
# Compressibility (1/GPa) = 0.03099490
#
# Stress axis : x y z
#
# Youngs Moduli (GPa) = 68.82585 52.14568 66.29769
#
# Poissons Ratio (x) = 0.23299 0.01502
# Poissons Ratio (y) = 0.30751 0.27864
# Poissons Ratio (z) = 0.01560 0.21916
#
# Static dielectric constant tensor:
#      x y z
#    x 1.862700 0.001980 -0.005620 
#    y 0.001980 1.849980 0.030810 
#    z -0.005620 0.030810 1.872380 
# 
# From -- ./inp_files/591936.got.cif
#   From: 2010.05.17/outbox.cif.g08.bks.cpg/sg2_296_cif.got.tgz:591936.got - 2010.06.03 11:33:40.
