data_PCOD9064621
_publ_section_title
;
Structure prediction by ZEFSAII (Michael W. Deem and Ramdas Pophale) SiO2 
 PCOD9064621
Probable space group: P -1
;
_chemical_formula_sum "Si O2"
_cell_formula_units_Z 15
_cell_length_a 19.971159
_cell_length_b 5.435697
_cell_length_c 6.400327
_cell_angle_alpha 100.077182
_cell_angle_beta 78.737407
_cell_angle_gamma 60.477990
_cell_volume 562.210066
_symmetry_space_group_name_H-M "P -1"
_symmetry_group_IT_number 2
_symmetry_cell_setting 'triclinic'
loop_
_space_group_symop_operation_xyz
x,y,z
-x,-y,-z
loop_
_atom_site_type_symbol
_atom_site_label
_atom_site_fract_x
_atom_site_fract_y
_atom_site_fract_z
Si Si1 0.194675 0.502728 0.029203
Si Si2 0.462919 0.332139 0.390583
Si Si3 0.104674 0.397794 0.377831
Si Si4 0.780899 0.931032 0.400896
Si Si5 0.376678 0.800581 0.168277
Si Si6 0.500000 0.000000 0.000000
Si Si7 0.315656 0.605605 0.808145
Si Si8 0.025873 0.114496 0.198504
O O1 0.183931 0.338263 0.202939
O O2 0.113692 0.825774 0.152926
O O3 0.194044 0.362758 0.788409
O O4 0.277081 0.491731 0.977450
O O5 0.500000 0.500000 0.500000
O O6 0.435498 0.459729 0.183384
O O7 0.384971 0.401468 0.571510
O O8 0.527919 0.002492 0.229681
O O9 0.143911 0.157733 0.506611
O O10 0.050604 0.361357 0.231604
O O11 0.048423 0.720482 0.567521
O O12 0.697923 0.046923 0.598962
O O13 0.758884 0.168593 0.266824
O O14 0.425534 0.957956 0.137773
O O15 0.349335 0.761706 0.952803
O O16 0.000000 0.000000 0.000000
#
# Coordination Sequence:
#
# PCOD9064621 Si02
#       8
#     2   2   2   2   2   1   2   2
#     4  12  24  45  73 109 144 189 245 303 362 426
#     4  11  25  48  71 107 146 187 241 298 360 437
#     4  11  26  48  76 110 144 190 249 299 357 441
#     4  11  24  46  70 106 145 194 244 298 363 435
#     4  11  25  46  70 107 144 191 243 301 359 440
#     4  12  24  44  76 102 140 186 240 298 366 420
#     4  11  26  48  73 103 151 193 242 303 365 434
#     4  11  24  49  75 109 149 194 237 299 368 432
#
# _framework density 26.680419000000001
#
# number of rings (size 3 to 8) (size 9 to 14) (size 15 to 20)
#    0.000    0.800    2.667    4.000    0.000    6.400 
#    9.600    0.000    0.000    0.000    0.000    0.000 
#    0.000    0.000    0.000    0.000    0.000    0.000 
#
# Total GULP energy -83708.726725 kJ/mol
# GULP energy per Si atom -5580.581782 kJ/mol
# Density = 2.661969 g / cm^3
# Si number density = 26.680419 Si / 1000 Ang^3
#
#
#
# Elastic Constant Matrix: (Units=GPa)
#
#
# Indices 1 2 3 4 5 6 
#
# 1 125.0720 30.5483 67.7814 -6.8049 -2.0014 18.2560
# 2 30.5483 71.6694 47.1342 -5.3394 3.4095 -17.7358
# 3 67.7814 47.1342 184.8870 41.4325 -7.9057 4.4441
# 4 -6.8049 -5.3394 41.4325 44.8167 0.8669 0.0059
# 5 -2.0014 3.4095 -7.9057 0.8669 66.4565 5.3522
# 6 18.2560 -17.7358 4.4441 0.0059 5.3522 42.4531
#
#
#
# Elastic Compliance Matrix: (Units=1/GPa)
#
#
# Indices 1 2 3 4 5 6 
#
# 1 0.012844 -0.003231 -0.005127 0.006298 0.000375 -0.006384
# 2 -0.003231 0.024379 -0.007617 0.009520 -0.003409 0.012800
# 3 -0.005127 -0.007617 0.012319 -0.013114 0.002076 -0.002527
# 4 0.006298 0.009520 -0.013114 0.036577 -0.002574 0.002961
# 5 0.000375 -0.003409 0.002076 -0.002574 0.015820 -0.003797
# 6 -0.006384 0.012800 -0.002527 0.002961 -0.003797 0.032391
#
#
# Mechanical properties :
#
#
# Convention : Reuss Voigt Hill
#
# Bulk Modulus (GPa) = 56.84962 74.72848 65.78905
# Shear Modulus (GPa) = 29.04547 46.48957 37.76752
#
# Velocity S-wave (km/s) = 3.30304 4.17881 3.76646
# Velocity P-wave (km/s) = 5.99171 7.16609 6.60505
#
# Compressibility (1/GPa) = 0.01759027
#
# Stress axis : x y z
#
# Youngs Moduli (GPa) = 77.85973 41.01888 81.17835
#
# Poissons Ratio (x) = 0.13254 0.41619
# Poissons Ratio (y) = 0.25159 0.61837
# Poissons Ratio (z) = 0.39917 0.31246
#
# Static dielectric constant tensor:
#      x y z
#    x 2.092030 -0.049130 -0.018150 
#    y -0.049130 1.574670 -0.440710 
#    z -0.018150 -0.440710 1.766740 
# 
# From -- ./inp_files/114737.got.cif
#   From: 2010.05.17/outbox.cif.g08.bks.cpg/sg2_58_cif.got.tgz:114737.got - 2010.06.03 11:33:40.
