data_PCOD9064693
_publ_section_title
;
Structure prediction by ZEFSAII (Michael W. Deem and Ramdas Pophale) SiO2 
 PCOD9064693
Probable space group: P -1
;
_chemical_formula_sum "Si O2"
_cell_formula_units_Z 14
_cell_length_a 8.906356
_cell_length_b 14.875445
_cell_length_c 8.108812
_cell_angle_alpha 118.835964
_cell_angle_beta 56.734973
_cell_angle_gamma 130.633390
_cell_volume 668.310712
_symmetry_space_group_name_H-M "P -1"
_symmetry_group_IT_number 2
_symmetry_cell_setting 'triclinic'
loop_
_space_group_symop_operation_xyz
x,y,z
-x,-y,-z
loop_
_atom_site_type_symbol
_atom_site_label
_atom_site_fract_x
_atom_site_fract_y
_atom_site_fract_z
Si Si1 0.751524 0.083892 0.909757
Si Si2 0.156870 0.094226 0.119612
Si Si3 0.936000 0.204564 0.557891
Si Si4 0.279500 0.475938 0.536375
Si Si5 0.291846 0.500534 0.164692
Si Si6 0.146090 0.660104 0.889955
Si Si7 0.617962 0.261003 0.830838
O O1 0.867654 0.133335 0.708320
O O2 0.819476 0.993430 0.849345
O O3 0.799120 0.206930 0.081828
O O4 0.500000 0.000000 0.000000
O O5 0.051248 0.159762 0.329104
O O6 0.381172 0.184705 0.976435
O O7 0.000000 0.000000 0.000000
O O8 0.713961 0.188972 0.622170
O O9 0.102024 0.347986 0.605704
O O10 0.500000 0.500000 0.500000
O O11 0.244013 0.458704 0.345457
O O12 0.249352 0.587856 0.689311
O O13 0.349537 0.636351 0.222329
O O14 0.100519 0.422638 0.083714
O O15 0.500000 0.500000 0.000000
O O16 0.236688 0.681812 0.041511
#
# Coordination Sequence:
#
# PCOD9064693 Si02
#       7
#     2   2   2   2   2   2   2
#     4  11  25  48  73 102 140 193 242 291 356 436
#     4  12  27  47  71 108 145 190 246 296 351 441
#     4  11  25  47  76  97 146 190 241 295 364 417
#     4  12  27  44  72 109 144 186 241 300 367 436
#     4  12  26  42  70 107 143 183 242 300 362 431
#     4  11  24  46  72 100 145 184 235 299 365 421
#     4  11  25  48  73 105 145 192 242 300 363 428
#
# _framework density 20.948340000000002
#
# number of rings (size 3 to 8) (size 9 to 14) (size 15 to 20)
#    0.000    0.571    4.286    3.857   10.000    0.571 
#    2.571    0.000    0.000    0.000    0.000    0.000 
#    0.000    0.000    0.000    0.000    0.000    0.000 
#
# Total GULP energy -78076.404135 kJ/mol
# GULP energy per Si atom -5576.886010 kJ/mol
# Density = 2.090066 g / cm^3
# Si number density = 20.948340 Si / 1000 Ang^3
#
#
#
# Elastic Constant Matrix: (Units=GPa)
#
#
# Indices 1 2 3 4 5 6 
#
# 1 102.5891 31.9791 48.3828 -12.8182 -19.0715 14.7341
# 2 31.9791 139.4281 62.5425 -18.4856 -12.7817 4.3114
# 3 48.3828 62.5425 118.9887 -0.0787 -42.5287 22.2085
# 4 -12.8182 -18.4856 -0.0787 46.6195 -12.2298 -5.0303
# 5 -19.0715 -12.7817 -42.5287 -12.2298 39.8932 0.5255
# 6 14.7341 4.3114 22.2085 -5.0303 0.5255 33.8694
#
#
#
# Elastic Compliance Matrix: (Units=1/GPa)
#
#
# Indices 1 2 3 4 5 6 
#
# 1 0.013065 -0.000708 -0.002776 0.004102 0.004359 -0.003231
# 2 -0.000708 0.010702 -0.007618 0.003467 -0.004027 0.004518
# 3 -0.002776 -0.007618 0.024092 0.000605 0.022284 -0.013876
# 4 0.004102 0.003467 0.000605 0.027250 0.012055 0.001238
# 5 0.004359 -0.004027 0.022284 0.012055 0.053510 -0.015035
# 6 -0.003231 0.004518 -0.013876 0.001238 -0.015035 0.039871
#
#
# Mechanical properties :
#
#
# Convention : Reuss Voigt Hill
#
# Bulk Modulus (GPa) = 38.97894 71.86828 55.42361
# Shear Modulus (GPa) = 25.09458 38.61654 31.85556
#
# Velocity S-wave (km/s) = 3.46486 4.29816 3.90381
# Velocity P-wave (km/s) = 5.88682 7.68207 6.84356
#
# Compressibility (1/GPa) = 0.02565488
#
# Stress axis : x y z
#
# Youngs Moduli (GPa) = 76.54269 93.43662 41.50731
#
# Poissons Ratio (x) = 0.06613 0.11524
# Poissons Ratio (y) = 0.05417 0.31620
# Poissons Ratio (z) = 0.21252 0.71179
#
# Static dielectric constant tensor:
#      x y z
#    x 1.750440 -0.010090 0.060090 
#    y -0.010090 1.780630 0.042470 
#    z 0.060090 0.042470 1.872800 
# 
# From -- ./inp_files/203524.got.cif
#   From: 2010.05.17/outbox.cif.g08.bks.cpg/sg2_102_cif.got.tgz:203524.got - 2010.06.03 11:33:40.
