data_PCOD9064963
_publ_section_title
;
Structure prediction by ZEFSAII (Michael W. Deem and Ramdas Pophale) SiO2 
 PCOD9064963
Probable space group: P -1
;
_chemical_formula_sum "Si O2"
_cell_formula_units_Z 14
_cell_length_a 8.220962
_cell_length_b 11.414031
_cell_length_c 14.523865
_cell_angle_alpha 31.603762
_cell_angle_beta 128.384048
_cell_angle_gamma 125.800452
_cell_volume 554.574835
_symmetry_space_group_name_H-M "P -1"
_symmetry_group_IT_number 2
_symmetry_cell_setting 'triclinic'
loop_
_space_group_symop_operation_xyz
x,y,z
-x,-y,-z
loop_
_atom_site_type_symbol
_atom_site_label
_atom_site_fract_x
_atom_site_fract_y
_atom_site_fract_z
Si Si1 0.111324 0.226439 0.439216
Si Si2 0.763694 0.548775 0.361080
Si Si3 0.625730 0.896182 0.225667
Si Si4 0.675585 0.820228 0.798600
Si Si5 0.282972 0.769176 0.585565
Si Si6 0.913076 0.372079 0.963291
Si Si7 0.245503 0.072251 0.040148
O O1 0.299954 0.161231 0.608812
O O2 0.945556 0.301838 0.404802
O O3 0.177456 0.438166 0.255068
O O4 0.000000 0.000000 0.500000
O O5 0.679960 0.697496 0.311215
O O6 0.656227 0.314861 0.438180
O O7 0.000000 0.500000 0.500000
O O8 0.738657 0.691059 0.164441
O O9 0.756722 0.140871 0.081565
O O10 0.381817 0.920461 0.129364
O O11 0.444494 0.714247 0.757152
O O12 0.668981 0.919714 0.831954
O O13 0.873958 0.688390 0.966416
O O14 0.726556 0.972642 0.621857
O O15 0.000000 0.500000 0.000000
O O16 0.000000 0.000000 0.000000
#
# Coordination Sequence:
#
# PCOD9064963 Si02
#       7
#     2   2   2   2   2   2   2
#     4  12  23  45  78 117 161 202 265 326 393 472
#     4  12  25  49  77 111 163 207 262 323 398 474
#     4  12  27  52  77 117 161 209 266 328 399 479
#     4  11  25  47  77 114 158 206 269 322 404 464
#     4  11  24  46  77 116 160 210 258 334 387 478
#     4  12  25  45  78 118 156 205 260 331 404 469
#     4  12  28  51  78 109 160 209 265 328 401 474
#
# _framework density 25.244564
#
# number of rings (size 3 to 8) (size 9 to 14) (size 15 to 20)
#    0.000    0.286    4.286    3.857    2.000    2.286 
#    5.143    2.857    0.000    0.000    0.000    0.000 
#    0.000    0.000    0.000    0.000    0.000    0.000 
#
# Total GULP energy -78279.424763 kJ/mol
# GULP energy per Si atom -5591.387483 kJ/mol
# Density = 2.518711 g / cm^3
# Si number density = 25.244564 Si / 1000 Ang^3
#
#
#
# Elastic Constant Matrix: (Units=GPa)
#
#
# Indices 1 2 3 4 5 6 
#
# 1 120.8322 43.0759 44.8727 1.1789 38.1180 -16.0640
# 2 43.0759 134.4354 37.9733 25.1352 19.9721 -29.1860
# 3 44.8727 37.9733 167.8452 26.5708 1.9077 -0.8371
# 4 1.1789 25.1352 26.5708 43.3441 -6.4615 7.0255
# 5 38.1180 19.9721 1.9077 -6.4615 48.6829 2.3761
# 6 -16.0640 -29.1860 -0.8371 7.0255 2.3761 38.6100
#
#
#
# Elastic Compliance Matrix: (Units=1/GPa)
#
#
# Indices 1 2 3 4 5 6 
#
# 1 0.014008 -0.000378 -0.003382 -0.000761 -0.011089 0.006290
# 2 -0.000378 0.013552 -0.001211 -0.010177 -0.007170 0.012353
# 3 -0.003382 -0.001211 0.007608 -0.003217 0.002503 -0.001726
# 4 -0.000761 -0.010177 -0.003217 0.034939 0.010270 -0.015069
# 5 -0.011089 -0.007170 0.002503 0.010270 0.034110 -0.013947
# 6 0.006290 0.012353 -0.001726 -0.015069 -0.013947 0.041418
#
#
# Mechanical properties :
#
#
# Convention : Reuss Voigt Hill
#
# Bulk Modulus (GPa) = 39.63962 74.99519 57.31741
# Shear Modulus (GPa) = 30.49054 45.94013 38.21533
#
# Velocity S-wave (km/s) = 3.47912 4.27054 3.89499
# Velocity P-wave (km/s) = 5.64583 7.35450 6.55607
#
# Compressibility (1/GPa) = 0.02522729
#
# Stress axis : x y z
#
# Youngs Moduli (GPa) = 71.38664 73.79242 131.44059
#
# Poissons Ratio (x) = 0.02790 0.44448
# Poissons Ratio (y) = 0.02699 0.15912
# Poissons Ratio (z) = 0.24140 0.08933
#
# Static dielectric constant tensor:
#      x y z
#    x 2.052760 0.013810 -0.063610 
#    y 0.013810 2.127840 0.073630 
#    z -0.063610 0.073630 1.806760 
# 
# From -- ./inp_files/499803.got.cif
#   From: 2010.05.17/outbox.cif.g08.bks.cpg/sg2_250_cif.got.tgz:499803.got - 2010.06.03 11:33:40.
