data_PCOD9064483
_publ_section_title
;
Structure prediction by ZEFSAII (Michael W. Deem and Ramdas Pophale) SiO2 
 PCOD9064483
Probable space group: P -1
;
_chemical_formula_sum "Si O2"
_cell_formula_units_Z 12
_cell_length_a 8.647442
_cell_length_b 9.571975
_cell_length_c 8.650644
_cell_angle_alpha 114.220709
_cell_angle_beta 88.281378
_cell_angle_gamma 49.123200
_cell_volume 445.101028
_symmetry_space_group_name_H-M "P -1"
_symmetry_group_IT_number 2
_symmetry_cell_setting 'triclinic'
loop_
_space_group_symop_operation_xyz
x,y,z
-x,-y,-z
loop_
_atom_site_type_symbol
_atom_site_label
_atom_site_fract_x
_atom_site_fract_y
_atom_site_fract_z
Si Si1 0.459659 0.340990 0.034882
Si Si2 0.168401 0.480072 0.843035
Si Si3 0.044723 0.640767 0.392923
Si Si4 0.583800 0.607920 0.488987
Si Si5 0.212494 0.994817 0.847913
Si Si6 0.122961 0.945536 0.305097
O O1 0.643911 0.278275 0.881894
O O2 0.316893 0.333660 0.922002
O O3 0.623590 0.152895 0.077955
O O4 0.241820 0.569224 0.239007
O O5 0.077754 0.401092 0.717343
O O6 0.331592 0.459915 0.717276
O O7 0.957933 0.742656 0.008026
O O8 0.208287 0.479680 0.456134
O O9 0.864100 0.882222 0.589067
O O10 0.500000 0.500000 0.500000
O O11 0.382472 0.874182 0.642278
O O12 0.055054 0.966378 0.786237
O O13 0.000000 0.000000 0.500000
#
# Coordination Sequence:
#
# PCOD9064483 Si02
#       6
#     2   2   2   2   2   2
#     4  11  27  44  74 106 149 191 247 299 370 440
#     4  12  27  48  75 110 149 195 242 309 374 437
#     4  11  26  47  72 109 153 188 249 309 367 438
#     4  11  24  45  78 109 146 194 251 303 368 444
#     4  11  26  46  75 107 148 190 248 303 369 436
#     4  12  25  44  75 111 147 199 249 305 368 438
#
# _framework density 26.960173000000001
#
# number of rings (size 3 to 8) (size 9 to 14) (size 15 to 20)
#    0.000    0.667    1.667    4.500    4.667    6.000 
#    0.000    0.000    0.000    0.000    0.000    0.000 
#    0.000    0.000    0.000    0.000    0.000    0.000 
#
# Total GULP energy -67027.131479 kJ/mol
# GULP energy per Si atom -5585.594290 kJ/mol
# Density = 2.689881 g / cm^3
# Si number density = 26.960173 Si / 1000 Ang^3
#
#
#
# Elastic Constant Matrix: (Units=GPa)
#
#
# Indices 1 2 3 4 5 6 
#
# 1 77.9661 58.5645 61.5858 -13.5556 4.6179 -13.1768
# 2 58.5645 125.5944 109.7552 -12.5142 22.3712 -44.8550
# 3 61.5858 109.7552 195.6888 39.2745 -4.8883 -15.4836
# 4 -13.5556 -12.5142 39.2745 73.2326 -10.8541 9.4779
# 5 4.6179 22.3712 -4.8883 -10.8541 75.0547 -19.6696
# 6 -13.1768 -44.8550 -15.4836 9.4779 -19.6696 31.2626
#
#
#
# Elastic Compliance Matrix: (Units=1/GPa)
#
#
# Indices 1 2 3 4 5 6 
#
# 1 0.022384 -0.010677 -0.002729 0.004916 0.000062 -0.008688
# 2 -0.010677 0.075416 -0.036787 0.020335 -0.000586 0.078952
# 3 -0.002729 -0.036787 0.027275 -0.016747 0.001466 -0.034423
# 4 0.004916 0.020335 -0.016747 0.025049 0.000232 0.015505
# 5 0.000062 -0.000586 0.001466 0.000232 0.016263 0.010073
# 6 -0.008688 0.078952 -0.034423 0.015505 0.010073 0.126192
#
#
# Mechanical properties :
#
#
# Convention : Reuss Voigt Hill
#
# Bulk Modulus (GPa) = 40.50156 95.45116 67.97636
# Shear Modulus (GPa) = 12.46276 47.19956 29.83116
#
# Velocity S-wave (km/s) = 2.15237 4.18869 3.33000
# Velocity P-wave (km/s) = 4.60785 7.67300 6.32879
#
# Compressibility (1/GPa) = 0.02469040
#
# Stress axis : x y z
#
# Youngs Moduli (GPa) = 44.67391 13.25982 36.66309
#
# Poissons Ratio (x) = 0.14158 0.10004
# Poissons Ratio (y) = 0.47699 1.34872
# Poissons Ratio (z) = 0.12190 0.48779
#
# Static dielectric constant tensor:
#      x y z
#    x 2.190310 0.121210 -0.085570 
#    y 0.121210 2.162190 -0.034360 
#    z -0.085570 -0.034360 2.080290 
# 
# From -- ./inp_files/190105.got.cif
#   From: 2010.05.17/outbox.cif.g08.bks.cpg/sg2_96_cif.got.tgz:190105.got - 2010.06.03 11:33:40.
