data_PCOD9064196
_publ_section_title
;
Structure prediction by ZEFSAII (Michael W. Deem and Ramdas Pophale) SiO2 
 PCOD9064196
Probable space group: P -1
;
_chemical_formula_sum "Si O2"
_cell_formula_units_Z 15
_cell_length_a 12.083733
_cell_length_b 8.898471
_cell_length_c 8.407587
_cell_angle_alpha 48.800892
_cell_angle_beta 118.169022
_cell_angle_gamma 100.286688
_cell_volume 587.594397
_symmetry_space_group_name_H-M "P -1"
_symmetry_group_IT_number 2
_symmetry_cell_setting 'triclinic'
loop_
_space_group_symop_operation_xyz
x,y,z
-x,-y,-z
loop_
_atom_site_type_symbol
_atom_site_label
_atom_site_fract_x
_atom_site_fract_y
_atom_site_fract_z
Si Si1 0.033283 0.585566 0.132650
Si Si2 0.830924 0.993858 0.761794
Si Si3 0.142510 0.621047 0.663022
Si Si4 0.377358 0.389878 0.796265
Si Si5 0.500000 0.000000 0.000000
Si Si6 0.405013 0.114644 0.491470
Si Si7 0.644267 0.400051 0.938913
Si Si8 0.708292 0.264848 0.750644
O O1 0.989002 0.438962 0.335165
O O2 0.176164 0.620929 0.208163
O O3 0.000000 0.500000 0.000000
O O4 0.942398 0.800178 0.961989
O O5 0.880560 0.194064 0.602489
O O6 0.764441 0.056641 0.842701
O O7 0.725928 0.958230 0.587500
O O8 0.255005 0.446249 0.787093
O O9 0.219818 0.674538 0.833179
O O10 0.521500 0.368471 0.978406
O O11 0.370513 0.582978 0.537541
O O12 0.381814 0.186965 0.843796
O O13 0.537206 0.945052 0.255916
O O14 0.371937 0.361067 0.277634
O O15 0.500000 0.000000 0.500000
O O16 0.635347 0.261164 0.871536
#
# Coordination Sequence:
#
# PCOD9064196 Si02
#       8
#     2   2   2   2   1   2   2   2
#     4  12  25  49  75 101 143 190 251 302 367 439
#     4  11  26  46  71 108 140 189 248 298 375 435
#     4  11  24  46  74 103 141 188 239 305 362 439
#     4  11  25  41  68 108 144 183 240 303 365 444
#     4  12  26  40  68 114 148 192 252 292 368 458
#     4  12  24  43  72 107 153 197 243 306 371 445
#     4  12  22  46  72 101 146 190 234 296 377 433
#     4  11  24  45  72 103 141 193 240 300 363 438
#
# _framework density 25.527812999999998
#
# number of rings (size 3 to 8) (size 9 to 14) (size 15 to 20)
#    0.000    0.533    4.000    4.400    1.867    2.667 
#    0.000    0.000    0.000    0.000    0.000    0.000 
#    0.000    0.000    0.000    0.000    0.000    0.000 
#
# Total GULP energy -83854.663784 kJ/mol
# GULP energy per Si atom -5590.310919 kJ/mol
# Density = 2.546971 g / cm^3
# Si number density = 25.527813 Si / 1000 Ang^3
#
#
#
# Elastic Constant Matrix: (Units=GPa)
#
#
# Indices 1 2 3 4 5 6 
#
# 1 96.5932 33.8110 1.1220 10.6701 -8.4369 -11.5468
# 2 33.8110 135.3327 17.0984 0.9030 -6.1173 -26.8684
# 3 1.1220 17.0984 62.9544 3.7431 -9.2539 -4.1017
# 4 10.6701 0.9030 3.7431 55.5550 -0.2528 6.6945
# 5 -8.4369 -6.1173 -9.2539 -0.2528 36.7596 15.4723
# 6 -11.5468 -26.8684 -4.1017 6.6945 15.4723 43.8179
#
#
#
# Elastic Compliance Matrix: (Units=1/GPa)
#
#
# Indices 1 2 3 4 5 6 
#
# 1 0.011896 -0.002759 0.001057 -0.002447 0.002013 0.001205
# 2 -0.002759 0.009395 -0.002430 -0.000136 -0.002013 0.005538
# 3 0.001057 -0.002430 0.017204 -0.001176 0.004601 -0.001046
# 4 -0.002447 -0.000136 -0.001176 0.019049 0.000973 -0.004092
# 5 0.002013 -0.002013 0.004601 0.000973 0.033679 -0.012314
# 6 0.001205 0.005538 -0.001046 -0.004092 -0.012314 0.031410
#
#
# Mechanical properties :
#
#
# Convention : Reuss Voigt Hill
#
# Bulk Modulus (GPa) = 33.07723 44.32700 38.70212
# Shear Modulus (GPa) = 35.46758 43.41643 39.44201
#
# Velocity S-wave (km/s) = 3.73147 4.12849 3.93499
# Velocity P-wave (km/s) = 5.61699 6.33465 5.98659
#
# Compressibility (1/GPa) = 0.03023228
#
# Stress axis : x y z
#
# Youngs Moduli (GPa) = 84.05852 106.44114 58.12713
#
# Poissons Ratio (x) = 0.29369 -0.06146
# Poissons Ratio (y) = 0.23193 0.14122
# Poissons Ratio (z) = -0.08888 0.25860
#
# Static dielectric constant tensor:
#      x y z
#    x 2.007070 -0.000710 -0.020350 
#    y -0.000710 1.993360 0.051440 
#    z -0.020350 0.051440 1.993340 
# 
# From -- ./inp_files/241280.got.cif
#   From: 2010.05.17/outbox.cif.g08.bks.cpg/sg2_121_cif.got.tgz:241280.got - 2010.06.03 11:33:40.
