data_PCOD9064552
_publ_section_title
;
Structure prediction by ZEFSAII (Michael W. Deem and Ramdas Pophale) SiO2 
 PCOD9064552
Probable space group: P -1
;
_chemical_formula_sum "Si O2"
_cell_formula_units_Z 14
_cell_length_a 13.109310
_cell_length_b 8.203199
_cell_length_c 14.749033
_cell_angle_alpha 135.411773
_cell_angle_beta 30.036978
_cell_angle_gamma 131.877667
_cell_volume 551.438897
_symmetry_space_group_name_H-M "P -1"
_symmetry_group_IT_number 2
_symmetry_cell_setting 'triclinic'
loop_
_space_group_symop_operation_xyz
x,y,z
-x,-y,-z
loop_
_atom_site_type_symbol
_atom_site_label
_atom_site_fract_x
_atom_site_fract_y
_atom_site_fract_z
Si Si1 0.057659 0.584787 0.890060
Si Si2 0.980323 0.100334 0.180155
Si Si3 0.250301 0.811884 0.106315
Si Si4 0.581924 0.585227 0.068768
Si Si5 0.706801 0.050095 0.524029
Si Si6 0.383524 0.670141 0.545200
Si Si7 0.608084 0.852316 0.721529
O O1 0.295792 0.627157 0.698024
O O2 0.957647 0.363932 0.819741
O O3 0.000000 0.500000 0.000000
O O4 0.978385 0.834889 0.041740
O O5 0.930846 0.102711 0.327196
O O6 0.795611 0.213682 0.320636
O O7 0.199929 0.248746 0.047235
O O8 0.245700 0.026756 0.262895
O O9 0.384208 0.638306 0.986948
O O10 0.377529 0.887289 0.946556
O O11 0.421168 0.733103 0.297287
O O12 0.500000 0.500000 0.000000
O O13 0.590858 0.846429 0.467590
O O14 0.682672 0.970075 0.615262
O O15 0.399781 0.424701 0.390387
#
# Coordination Sequence:
#
# PCOD9064552 Si02
#       7
#     2   2   2   2   2   2   2
#     4  12  24  43  73 106 141 186 240 301 357 425
#     4  12  26  46  73 108 143 189 243 302 361 428
#     4  11  24  46  69 100 149 189 240 294 362 426
#     4  12  25  48  73 104 145 191 240 296 363 426
#     4  12  24  45  75 107 144 190 246 296 361 431
#     4  12  23  44  72 104 150 187 244 299 355 434
#     4  11  25  44  69 106 144 195 239 299 359 426
#
# _framework density 25.388127000000001
#
# number of rings (size 3 to 8) (size 9 to 14) (size 15 to 20)
#    0.000    0.286    4.286    5.571    0.000    1.143 
#    0.000    0.000    0.000    0.000    0.000    0.000 
#    0.000    0.000    0.000    0.000    0.000    0.000 
#
# Total GULP energy -78534.111508 kJ/mol
# GULP energy per Si atom -5609.579393 kJ/mol
# Density = 2.533034 g / cm^3
# Si number density = 25.388127 Si / 1000 Ang^3
#
#
#
# Elastic Constant Matrix: (Units=GPa)
#
#
# Indices 1 2 3 4 5 6 
#
# 1 66.7592 22.7619 21.7714 7.7900 15.1370 0.8348
# 2 22.7619 113.2489 43.4757 16.5008 11.4979 11.9201
# 3 21.7714 43.4757 146.7564 1.5495 19.7081 4.0676
# 4 7.7900 16.5008 1.5495 61.1291 -2.5678 4.5790
# 5 15.1370 11.4979 19.7081 -2.5678 37.8765 -1.0769
# 6 0.8348 11.9201 4.0676 4.5790 -1.0769 38.7019
#
#
#
# Elastic Compliance Matrix: (Units=1/GPa)
#
#
# Indices 1 2 3 4 5 6 
#
# 1 0.017685 -0.002294 -0.001147 -0.001891 -0.005888 0.000505
# 2 -0.002294 0.011109 -0.002669 -0.002482 -0.001316 -0.002835
# 3 -0.001147 -0.002669 0.008170 0.000548 -0.002949 -0.000159
# 4 -0.001891 -0.002482 0.000548 0.017449 0.002371 -0.001251
# 5 -0.005888 -0.001316 -0.002949 0.002371 0.030890 0.001421
# 6 0.000505 -0.002835 -0.000159 -0.001251 0.001421 0.026905
#
#
# Mechanical properties :
#
#
# Convention : Reuss Voigt Hill
#
# Bulk Modulus (GPa) = 40.41598 55.86473 48.14036
# Shear Modulus (GPa) = 37.68558 43.45853 40.57205
#
# Velocity S-wave (km/s) = 3.85694 4.14184 4.00193
# Velocity P-wave (km/s) = 5.98235 6.70262 6.35270
#
# Compressibility (1/GPa) = 0.02474269
#
# Stress axis : x y z
#
# Youngs Moduli (GPa) = 56.54553 90.01334 122.40351
#
# Poissons Ratio (x) = 0.20649 0.14044
# Poissons Ratio (y) = 0.12971 0.32674
# Poissons Ratio (z) = 0.06488 0.24028
#
# Static dielectric constant tensor:
#      x y z
#    x 2.097180 -0.050100 0.028280 
#    y -0.050100 1.985680 -0.020790 
#    z 0.028280 -0.020790 1.973800 
# 
# From -- ./inp_files/159383.got.cif
#   From: 2010.05.17/outbox.cif.g08.bks.cpg/sg2_80_cif.got.tgz:159383.got - 2010.06.03 11:33:40.
