data_PCOD9064832
_publ_section_title
;
Structure prediction by ZEFSAII (Michael W. Deem and Ramdas Pophale) SiO2 
 PCOD9064832
Probable space group: P -1
;
_chemical_formula_sum "Si O2"
_cell_formula_units_Z 16
_cell_length_a 18.582907
_cell_length_b 18.762075
_cell_length_c 5.800530
_cell_angle_alpha 123.229367
_cell_angle_beta 45.653834
_cell_angle_gamma 151.013576
_cell_volume 689.018726
_symmetry_space_group_name_H-M "P -1"
_symmetry_group_IT_number 2
_symmetry_cell_setting 'triclinic'
loop_
_space_group_symop_operation_xyz
x,y,z
-x,-y,-z
loop_
_atom_site_type_symbol
_atom_site_label
_atom_site_fract_x
_atom_site_fract_y
_atom_site_fract_z
Si Si1 0.775977 0.563598 0.921029
Si Si2 0.917552 0.413469 0.280319
Si Si3 0.399389 0.714411 0.051530
Si Si4 0.406705 0.026026 0.238830
Si Si5 0.321115 0.118612 0.905863
Si Si6 0.561083 0.625412 0.945238
Si Si7 0.949181 0.255153 0.747246
Si Si8 0.936167 0.815203 0.310376
O O1 0.716376 0.449767 0.032389
O O2 0.897095 0.608341 0.530172
O O3 0.593943 0.472457 0.066466
O O4 0.891054 0.719013 0.037313
O O5 0.719776 0.313264 0.555604
O O6 0.000000 0.500000 0.500000
O O7 0.916905 0.310336 0.092222
O O8 0.000000 0.500000 0.000000
O O9 0.577518 0.809885 0.951198
O O10 0.450764 0.811458 0.904657
O O11 0.233370 0.890987 0.232500
O O12 0.343792 0.038304 0.618727
O O13 0.500000 0.000000 0.000000
O O14 0.412053 0.259690 0.809270
O O15 0.112969 0.988839 0.165080
O O16 0.755910 0.739768 0.620846
O O17 0.500000 0.500000 0.000000
O O18 0.018073 0.215953 0.636152
#
# Coordination Sequence:
#
# PCOD9064832 Si02
#       8
#     2   2   2   2   2   2   2   2
#     4  11  24  46  74 105 145 191 250 309 383 454
#     4  12  28  45  72 111 152 202 260 321 389 460
#     4  11  26  45  72 105 146 199 252 315 378 459
#     4  12  28  46  74 108 150 196 255 317 386 459
#     4  11  26  47  72 105 152 195 250 311 386 463
#     4  11  25  45  73 110 143 191 251 312 381 457
#     4  12  25  45  70 106 147 195 253 313 382 456
#     4  12  24  47  72 100 149 196 245 312 383 458
#
# _framework density 23.221430000000002
#
# number of rings (size 3 to 8) (size 9 to 14) (size 15 to 20)
#    0.000    0.500    5.000    2.250    7.000    1.000 
#    0.000    1.250    0.000    0.000    0.000    0.000 
#    0.000    0.000    0.000    0.000    0.000    0.000 
#
# Total GULP energy -89398.499647 kJ/mol
# GULP energy per Si atom -5587.406228 kJ/mol
# Density = 2.316858 g / cm^3
# Si number density = 23.221430 Si / 1000 Ang^3
#
#
#
# Elastic Constant Matrix: (Units=GPa)
#
#
# Indices 1 2 3 4 5 6 
#
# 1 70.1496 44.6653 7.6756 -6.2250 -14.3393 0.5172
# 2 44.6653 130.0773 18.0554 -5.9582 -4.1221 -4.7448
# 3 7.6756 18.0554 63.8790 -8.4356 -15.1434 3.8016
# 4 -6.2250 -5.9582 -8.4356 49.9230 2.2773 -3.9319
# 5 -14.3393 -4.1221 -15.1434 2.2773 35.5463 -5.1111
# 6 0.5172 -4.7448 3.8016 -3.9319 -5.1111 53.3447
#
#
#
# Elastic Compliance Matrix: (Units=1/GPa)
#
#
# Indices 1 2 3 4 5 6 
#
# 1 0.020194 -0.006833 0.001598 0.001608 0.007926 -0.000039
# 2 -0.006833 0.010375 -0.002771 0.000111 -0.002605 0.000945
# 3 0.001598 -0.002771 0.018510 0.002584 0.007953 -0.000629
# 4 0.001608 0.000111 0.002584 0.020763 0.000634 0.001401
# 5 0.007926 -0.002605 0.007953 0.000634 0.034735 0.002499
# 6 -0.000039 0.000945 -0.000629 0.001401 0.002499 0.019218
#
#
# Mechanical properties :
#
#
# Convention : Reuss Voigt Hill
#
# Bulk Modulus (GPa) = 30.23932 44.98872 37.61402
# Shear Modulus (GPa) = 33.15053 40.67676 36.91365
#
# Velocity S-wave (km/s) = 3.78244 4.18986 3.99135
# Velocity P-wave (km/s) = 5.66800 6.54389 6.12163
#
# Compressibility (1/GPa) = 0.03306953
#
# Stress axis : x y z
#
# Youngs Moduli (GPa) = 49.51990 96.38098 54.02583
#
# Poissons Ratio (x) = 0.65853 -0.08636
# Poissons Ratio (y) = 0.33835 0.14969
# Poissons Ratio (z) = -0.07915 0.26704
#
# Static dielectric constant tensor:
#      x y z
#    x 1.903050 -0.032740 0.021210 
#    y -0.032740 1.874230 0.001270 
#    z 0.021210 0.001270 1.912510 
# 
# From -- ./inp_files/39205.got.cif
#   From: 2010.05.17/outbox.cif.g08.bks.cpg/sg2_20_cif.got.tgz:39205.got - 2010.06.03 11:33:40.
