data_PCOD9064736
_publ_section_title
;
Structure prediction by ZEFSAII (Michael W. Deem and Ramdas Pophale) SiO2 
 PCOD9064736
Probable space group: P -1
;
_chemical_formula_sum "Si O2"
_cell_formula_units_Z 15
_cell_length_a 11.731149
_cell_length_b 18.234923
_cell_length_c 9.416236
_cell_angle_alpha 71.550375
_cell_angle_beta 139.324723
_cell_angle_gamma 141.902615
_cell_volume 580.692068
_symmetry_space_group_name_H-M "P -1"
_symmetry_group_IT_number 2
_symmetry_cell_setting 'triclinic'
loop_
_space_group_symop_operation_xyz
x,y,z
-x,-y,-z
loop_
_atom_site_type_symbol
_atom_site_label
_atom_site_fract_x
_atom_site_fract_y
_atom_site_fract_z
Si Si1 0.542900 0.425669 0.092642
Si Si2 0.608121 0.204314 0.298755
Si Si3 0.500000 0.000000 0.500000
Si Si4 0.796522 0.468964 0.031656
Si Si5 0.874923 0.246030 0.949840
Si Si6 0.346824 0.078660 0.811176
Si Si7 0.787466 0.766460 0.603801
Si Si8 0.598414 0.746884 0.720968
O O1 0.297204 0.287732 0.065748
O O2 0.986362 0.595087 0.434156
O O3 0.500000 0.500000 0.000000
O O4 0.498164 0.362234 0.942488
O O5 0.371747 0.169696 0.197342
O O6 0.595422 0.115117 0.414309
O O7 0.523494 0.170157 0.072807
O O8 0.389989 0.905437 0.313173
O O9 0.580146 0.357036 0.756877
O O10 0.940569 0.611620 0.047481
O O11 0.169056 0.570137 0.369026
O O12 0.637995 0.187283 0.892743
O O13 0.191667 0.311552 0.268497
O O14 0.000000 0.000000 0.500000
O O15 0.142538 0.917271 0.746553
O O16 0.822086 0.835215 0.731929
#
# Coordination Sequence:
#
# PCOD9064736 Si02
#       8
#     2   2   1   2   2   2   2   2
#     4  11  25  43  74 111 142 192 244 310 373 436
#     4  11  26  48  74 105 151 195 249 308 368 448
#     4  12  24  48  76  98 146 192 248 302 368 438
#     4  11  24  46  72 107 144 191 248 305 369 439
#     4  12  26  50  71 107 148 195 247 309 370 448
#     4  12  30  46  71 107 153 197 245 303 380 438
#     4  12  27  45  72 108 144 198 241 307 373 442
#     4  11  25  46  75 110 146 188 256 305 370 436
#
# _framework density 25.831250000000001
#
# number of rings (size 3 to 8) (size 9 to 14) (size 15 to 20)
#    0.000    0.533    4.000    4.400    7.467    1.600 
#    0.000    0.000    0.000    0.000    0.000    0.000 
#    0.000    0.000    0.000    0.000    0.000    0.000 
#
# Total GULP energy -83825.414297 kJ/mol
# GULP energy per Si atom -5588.360953 kJ/mol
# Density = 2.577246 g / cm^3
# Si number density = 25.831250 Si / 1000 Ang^3
#
#
#
# Elastic Constant Matrix: (Units=GPa)
#
#
# Indices 1 2 3 4 5 6 
#
# 1 141.5166 13.4197 56.5703 -5.1324 -32.7000 14.8469
# 2 13.4197 98.4121 -4.5716 -17.6613 -19.1144 -5.4093
# 3 56.5703 -4.5716 102.9852 -18.5619 -35.3397 -2.0812
# 4 -5.1324 -17.6613 -18.5619 41.4474 -4.3502 -3.8661
# 5 -32.7000 -19.1144 -35.3397 -4.3502 47.7172 -3.2941
# 6 14.8469 -5.4093 -2.0812 -3.8661 -3.2941 43.7296
#
#
#
# Elastic Compliance Matrix: (Units=1/GPa)
#
#
# Indices 1 2 3 4 5 6 
#
# 1 0.010226 -0.002032 -0.005722 -0.002391 0.001455 -0.004097
# 2 -0.002032 0.015683 0.008368 0.011963 0.012525 0.005029
# 3 -0.005722 0.008368 0.022200 0.015287 0.017730 0.006721
# 4 -0.002391 0.011963 0.015287 0.038447 0.018519 0.007813
# 5 0.001455 0.012525 0.017730 0.018519 0.042255 0.006719
# 6 -0.004097 0.005029 0.006721 0.007813 0.006719 0.026398
#
#
# Mechanical properties :
#
#
# Convention : Reuss Voigt Hill
#
# Bulk Modulus (GPa) = 20.26845 52.63895 36.45370
# Shear Modulus (GPa) = 29.33844 45.07856 37.20850
#
# Velocity S-wave (km/s) = 3.37378 4.18199 3.79944
# Velocity P-wave (km/s) = 4.80000 6.61370 5.77845
#
# Compressibility (1/GPa) = 0.04933776
#
# Stress axis : x y z
#
# Youngs Moduli (GPa) = 97.79443 63.76262 45.04525
#
# Poissons Ratio (x) = 0.12956 0.25773
# Poissons Ratio (y) = 0.19871 -0.37694
# Poissons Ratio (z) = 0.55954 -0.53357
#
# Static dielectric constant tensor:
#      x y z
#    x 2.010160 0.043990 0.086980 
#    y 0.043990 2.340200 -0.049030 
#    z 0.086980 -0.049030 2.160600 
# 
# From -- ./inp_files/279343.got.cif
#   From: 2010.05.17/outbox.cif.g08.bks.cpg/sg2_140_cif.got.tgz:279343.got - 2010.06.03 11:33:40.
