data_PCOD9064871
_publ_section_title
;
Structure prediction by ZEFSAII (Michael W. Deem and Ramdas Pophale) SiO2 
 PCOD9064871
Probable space group: P -1
;
_chemical_formula_sum "Si O2"
_cell_formula_units_Z 12
_cell_length_a 6.503776
_cell_length_b 9.629969
_cell_length_c 18.021466
_cell_angle_alpha 38.242670
_cell_angle_beta 75.015903
_cell_angle_gamma 53.720972
_cell_volume 512.894873
_symmetry_space_group_name_H-M "P -1"
_symmetry_group_IT_number 2
_symmetry_cell_setting 'triclinic'
loop_
_space_group_symop_operation_xyz
x,y,z
-x,-y,-z
loop_
_atom_site_type_symbol
_atom_site_label
_atom_site_fract_x
_atom_site_fract_y
_atom_site_fract_z
Si Si1 0.414486 0.816387 0.880941
Si Si2 0.837766 0.775106 0.755373
Si Si3 0.011313 0.561637 0.387156
Si Si4 0.489265 0.246413 0.934842
Si Si5 0.605091 0.640069 0.698788
Si Si6 0.958437 0.134447 0.528508
O O1 0.654906 0.799470 0.827775
O O2 0.138046 0.096049 0.749454
O O3 0.500000 0.500000 0.000000
O O4 0.380542 0.877394 0.945054
O O5 0.770227 0.675243 0.729439
O O6 0.161510 0.533643 0.848346
O O7 0.783489 0.072688 0.616816
O O8 0.000000 0.500000 0.500000
O O9 0.289211 0.391017 0.381905
O O10 0.851242 0.462144 0.403406
O O11 0.633174 0.357926 0.833991
O O12 0.500000 0.000000 0.000000
O O13 0.277399 0.925264 0.617379
O O14 0.000000 0.000000 0.500000
#
# Coordination Sequence:
#
# PCOD9064871 Si02
#       6
#     2   2   2   2   2   2
#     4  12  27  47  72 108 149 191 238 296 364 424
#     4  11  24  46  75 101 146 189 237 299 357 427
#     4  12  28  45  74 109 146 194 238 297 366 424
#     4  11  26  44  75 107 138 191 245 293 359 430
#     4  11  24  47  75 104 146 187 241 302 360 423
#     4  11  25  45  74 105 139 192 245 290 357 430
#
# _framework density 23.396605000000001
#
# number of rings (size 3 to 8) (size 9 to 14) (size 15 to 20)
#    0.000    0.667    3.333    3.000    9.333    3.333 
#    0.000    0.000    0.000    0.000    0.000    0.000 
#    0.000    0.000    0.000    0.000    0.000    0.000 
#
# Total GULP energy -67133.600306 kJ/mol
# GULP energy per Si atom -5594.466692 kJ/mol
# Density = 2.334335 g / cm^3
# Si number density = 23.396605 Si / 1000 Ang^3
#
#
#
# Elastic Constant Matrix: (Units=GPa)
#
#
# Indices 1 2 3 4 5 6 
#
# 1 66.6567 15.4819 32.0111 11.9512 -31.0627 -12.2059
# 2 15.4819 86.7319 42.3889 21.9924 -27.2488 3.5127
# 3 32.0111 42.3889 122.7224 15.9115 -31.4849 2.4597
# 4 11.9512 21.9924 15.9115 49.2036 1.0794 -7.0789
# 5 -31.0627 -27.2488 -31.4849 1.0794 58.7030 5.8303
# 6 -12.2059 3.5127 2.4597 -7.0789 5.8303 40.2290
#
#
#
# Elastic Compliance Matrix: (Units=1/GPa)
#
#
# Indices 1 2 3 4 5 6 
#
# 1 0.022956 0.002060 -0.003328 -0.005011 0.010962 0.004518
# 2 0.002060 0.017404 -0.003487 -0.007779 0.007757 -0.003174
# 3 -0.003328 -0.003487 0.011209 -0.001622 0.002870 -0.002092
# 4 -0.005011 -0.007779 -0.001622 0.026453 -0.008124 0.005090
# 5 0.010962 0.007757 0.002870 -0.008124 0.028431 -0.003077
# 6 0.004518 -0.003174 -0.002092 0.005090 -0.003077 0.027975
#
#
# Mechanical properties :
#
#
# Convention : Reuss Voigt Hill
#
# Bulk Modulus (GPa) = 23.77476 50.65274 37.21375
# Shear Modulus (GPa) = 31.65405 42.04242 36.84823
#
# Velocity S-wave (km/s) = 3.68221 4.24364 3.97286
# Velocity P-wave (km/s) = 5.31620 6.76076 6.08152
#
# Compressibility (1/GPa) = 0.04206141
#
# Stress axis : x y z
#
# Youngs Moduli (GPa) = 43.56119 57.45752 89.21023
#
# Poissons Ratio (x) = -0.11839 0.29690
# Poissons Ratio (y) = -0.08975 0.31104
# Poissons Ratio (z) = 0.14498 0.20033
#
# Static dielectric constant tensor:
#      x y z
#    x 1.879970 -0.008180 0.023650 
#    y -0.008180 1.882240 -0.042900 
#    z 0.023650 -0.042900 1.932740 
# 
# From -- ./inp_files/21863.got.cif
#   From: 2010.05.17/outbox.cif.g08.bks.cpg/sg2_11_cif.got.tgz:21863.got - 2010.06.03 11:33:40.
