data_PCOD9064125
_publ_section_title
;
Structure prediction by ZEFSAII (Michael W. Deem and Ramdas Pophale) SiO2 
 PCOD9064125
Probable space group: P -1
;
_chemical_formula_sum "Si O2"
_cell_formula_units_Z 14
_cell_length_a 5.301923
_cell_length_b 21.284364
_cell_length_c 7.021518
_cell_angle_alpha 70.639548
_cell_angle_beta 87.144311
_cell_angle_gamma 55.939527
_cell_volume 609.885865
_symmetry_space_group_name_H-M "P -1"
_symmetry_group_IT_number 2
_symmetry_cell_setting 'triclinic'
loop_
_space_group_symop_operation_xyz
x,y,z
-x,-y,-z
loop_
_atom_site_type_symbol
_atom_site_label
_atom_site_fract_x
_atom_site_fract_y
_atom_site_fract_z
Si Si1 0.861204 0.739216 0.687913
Si Si2 0.619377 0.167451 0.096903
Si Si3 0.499116 0.258635 0.625187
Si Si4 0.710640 0.013058 0.114321
Si Si5 0.167970 0.418855 0.699703
Si Si6 0.350276 0.582801 0.042731
Si Si7 0.038697 0.131065 0.455317
O O1 0.763891 0.831980 0.598148
O O2 0.627664 0.752895 0.851735
O O3 0.800658 0.724178 0.491546
O O4 0.183834 0.662391 0.831363
O O5 0.922303 0.123809 0.262195
O O6 0.539863 0.103839 0.109932
O O7 0.635529 0.199820 0.860443
O O8 0.396359 0.344519 0.623875
O O9 0.752764 0.207232 0.506132
O O10 0.822554 0.949593 0.346965
O O11 0.500000 0.000000 0.000000
O O12 0.000000 0.000000 0.000000
O O13 0.380466 0.421290 0.847911
O O14 0.000000 0.500000 0.500000
O O15 0.908633 0.410416 0.814113
O O16 0.500000 0.500000 0.000000
#
# Coordination Sequence:
#
# PCOD9064125 Si02
#       7
#     2   2   2   2   2   2   2
#     4  11  26  43  73 105 139 188 233 293 352 419
#     4  11  24  47  70 101 144 183 237 289 355 418
#     4  11  24  45  71 103 143 182 239 287 352 421
#     4  12  27  46  73 103 142 188 237 292 352 418
#     4  12  27  46  74 105 143 191 232 291 353 415
#     4  12  27  47  72 105 148 183 236 293 349 419
#     4  11  26  43  73 103 139 190 233 293 352 420
#
# _framework density 22.955113999999998
#
# number of rings (size 3 to 8) (size 9 to 14) (size 15 to 20)
#    0.000    0.571    2.857    3.857   10.000    2.857 
#    0.000    0.000    0.000    0.000    0.000    0.000 
#    0.000    0.000    0.000    0.000    0.000    0.000 
#
# Total GULP energy -78217.907102 kJ/mol
# GULP energy per Si atom -5586.993364 kJ/mol
# Density = 2.290287 g / cm^3
# Si number density = 22.955114 Si / 1000 Ang^3
#
#
#
# Elastic Constant Matrix: (Units=GPa)
#
#
# Indices 1 2 3 4 5 6 
#
# 1 70.1269 -6.0034 26.6765 10.7497 13.0897 11.0726
# 2 -6.0034 101.4156 27.5851 9.4021 5.8306 15.5724
# 3 26.6765 27.5851 141.2860 1.2500 18.6069 10.7725
# 4 10.7497 9.4021 1.2500 53.0969 10.1397 2.7881
# 5 13.0897 5.8306 18.6069 10.1397 44.9295 8.6732
# 6 11.0726 15.5724 10.7725 2.7881 8.6732 35.0904
#
#
#
# Elastic Compliance Matrix: (Units=1/GPa)
#
#
# Indices 1 2 3 4 5 6 
#
# 1 0.017498 0.003122 -0.003173 -0.003283 -0.002471 -0.005061
# 2 0.003122 0.011745 -0.002479 -0.002406 0.000156 -0.005284
# 3 -0.003173 -0.002479 0.008487 0.001374 -0.002584 0.000025
# 4 -0.003283 -0.002406 0.001374 0.020631 -0.004163 0.001072
# 5 -0.002471 0.000156 -0.002584 -0.004163 0.025845 -0.004554
# 6 -0.005061 -0.005284 0.000025 0.001072 -0.004554 0.033472
#
#
# Mechanical properties :
#
#
# Convention : Reuss Voigt Hill
#
# Bulk Modulus (GPa) = 30.60845 45.48277 38.04561
# Shear Modulus (GPa) = 37.41739 44.26135 40.83937
#
# Velocity S-wave (km/s) = 4.04174 4.39586 4.22251
# Velocity P-wave (km/s) = 5.92822 6.75437 6.35474
#
# Compressibility (1/GPa) = 0.03267072
#
# Stress axis : x y z
#
# Youngs Moduli (GPa) = 57.14977 85.14283 117.82537
#
# Poissons Ratio (x) = -0.26586 0.37387
# Poissons Ratio (y) = -0.17845 0.29209
# Poissons Ratio (z) = 0.18134 0.21107
#
# Static dielectric constant tensor:
#      x y z
#    x 2.131450 -0.015080 -0.080770 
#    y -0.015080 1.839420 0.015130 
#    z -0.080770 0.015130 1.840940 
# 
# From -- ./inp_files/7447.got.cif
#   From: 2010.05.17/outbox.cif.g08.bks.cpg/sg2_4_cif.got.tgz:7447.got - 2010.06.03 11:33:40.
