data_PCOD9064472
_publ_section_title
;
Structure prediction by ZEFSAII (Michael W. Deem and Ramdas Pophale) SiO2 
 PCOD9064472
Probable space group: P -1
;
_chemical_formula_sum "Si O2"
_cell_formula_units_Z 16
_cell_length_a 8.125373
_cell_length_b 12.192217
_cell_length_c 15.974596
_cell_angle_alpha 143.372803
_cell_angle_beta 40.363058
_cell_angle_gamma 120.158929
_cell_volume 586.581901
_symmetry_space_group_name_H-M "P -1"
_symmetry_group_IT_number 2
_symmetry_cell_setting 'triclinic'
loop_
_space_group_symop_operation_xyz
x,y,z
-x,-y,-z
loop_
_atom_site_type_symbol
_atom_site_label
_atom_site_fract_x
_atom_site_fract_y
_atom_site_fract_z
Si Si1 0.397440 0.275469 0.596377
Si Si2 0.518836 0.249117 0.877887
Si Si3 0.608198 0.720278 0.793698
Si Si4 0.275003 0.555454 0.939915
Si Si5 0.848479 0.308285 0.355985
Si Si6 0.253924 0.118602 0.321871
Si Si7 0.291440 0.932661 0.481109
Si Si8 0.905856 0.472992 0.271927
O O1 0.469192 0.354134 0.706479
O O2 0.671822 0.181752 0.384811
O O3 0.244132 0.461398 0.715875
O O4 0.207493 0.140966 0.592166
O O5 0.608604 0.205864 0.721110
O O6 0.791865 0.643159 0.930087
O O7 0.596983 0.048019 0.775085
O O8 0.661644 0.384012 0.956251
O O9 0.361329 0.708060 0.939305
O O10 0.735986 0.510636 0.572866
O O11 0.578450 0.860077 0.811688
O O12 0.842082 0.750892 0.780867
O O13 0.000000 0.500000 0.000000
O O14 0.794862 0.343266 0.299872
O O15 0.151906 0.324379 0.533466
O O16 0.973911 0.084340 0.383958
O O17 0.500000 0.000000 0.500000
#
# Coordination Sequence:
#
# PCOD9064472 Si02
#       8
#     2   2   2   2   2   2   2   2
#     4  11  24  46  76 109 156 209 260 317 397 463
#     4  12  27  49  78 115 156 208 266 326 394 465
#     4   9  19  41  76 109 153 210 254 318 396 462
#     4  11  25  45  78 117 157 199 267 327 387 470
#     4   9  18  40  74 110 148 206 263 309 389 468
#     4  11  25  48  77 110 159 211 262 320 394 464
#     4  12  28  50  77 112 159 211 263 329 393 470
#     4  11  24  45  77 111 153 207 260 327 386 461
#
# _framework density 27.276668999999998
#
# number of rings (size 3 to 8) (size 9 to 14) (size 15 to 20)
#    0.000    1.250    2.500    2.250    5.250    3.000 
#    0.000    0.625    0.000    0.000    0.000    0.000 
#    0.000    0.000    0.000    0.000    0.000    0.000 
#
# Total GULP energy -89549.689959 kJ/mol
# GULP energy per Si atom -5596.855622 kJ/mol
# Density = 2.721459 g / cm^3
# Si number density = 27.276669 Si / 1000 Ang^3
#
#
#
# Elastic Constant Matrix: (Units=GPa)
#
#
# Indices 1 2 3 4 5 6 
#
# 1 152.0091 33.3588 64.6326 -15.0096 7.7273 14.7963
# 2 33.3588 113.3447 32.5835 -23.5764 8.9995 13.2326
# 3 64.6326 32.5835 152.9661 -8.9777 11.4816 2.6511
# 4 -15.0096 -23.5764 -8.9777 51.1390 -4.3959 -1.4535
# 5 7.7273 8.9995 11.4816 -4.3959 57.7424 -7.2007
# 6 14.7963 13.2326 2.6511 -1.4535 -7.2007 42.3681
#
#
#
# Elastic Compliance Matrix: (Units=1/GPa)
#
#
# Indices 1 2 3 4 5 6 
#
# 1 0.008587 -0.000962 -0.003256 0.001385 -0.000564 -0.002543
# 2 -0.000962 0.010890 -0.001510 0.004273 -0.001323 -0.003049
# 3 -0.003256 -0.001510 0.008270 -0.000249 -0.000876 0.000934
# 4 0.001385 0.004273 -0.000249 0.021926 0.000752 -0.000922
# 5 -0.000564 -0.001323 -0.000876 0.000752 0.018305 0.003802
# 6 -0.002543 -0.003049 0.000934 -0.000922 0.003802 0.025999
#
#
# Mechanical properties :
#
#
# Convention : Reuss Voigt Hill
#
# Bulk Modulus (GPa) = 61.38466 75.49664 68.44065
# Shear Modulus (GPa) = 45.10121 49.43289 47.26705
#
# Velocity S-wave (km/s) = 4.07070 4.26170 4.16730
# Velocity P-wave (km/s) = 6.68188 7.20794 6.94989
#
# Compressibility (1/GPa) = 0.01629072
#
# Stress axis : x y z
#
# Youngs Moduli (GPa) = 116.45827 91.83063 120.92351
#
# Poissons Ratio (x) = 0.08831 0.39369
# Poissons Ratio (y) = 0.11199 0.18264
# Poissons Ratio (z) = 0.37915 0.13870
#
# Static dielectric constant tensor:
#      x y z
#    x 2.215410 -0.228350 -0.025000 
#    y -0.228350 2.530410 0.060470 
#    z -0.025000 0.060470 2.210970 
# 
# From -- ./inp_files/499376.got.cif
#   From: 2010.05.17/outbox.cif.g08.bks.cpg/sg2_250_cif.got.tgz:499376.got - 2010.06.03 11:33:40.
