data_PCOD9064458
_publ_section_title
;
Structure prediction by ZEFSAII (Michael W. Deem and Ramdas Pophale) SiO2 
 PCOD9064458
Probable space group: P -1
;
_chemical_formula_sum "Si O2"
_cell_formula_units_Z 16
_cell_length_a 9.591441
_cell_length_b 16.961426
_cell_length_c 17.104499
_cell_angle_alpha 31.861274
_cell_angle_beta 142.138757
_cell_angle_gamma 152.196725
_cell_volume 676.822874
_symmetry_space_group_name_H-M "P -1"
_symmetry_group_IT_number 2
_symmetry_cell_setting 'triclinic'
loop_
_space_group_symop_operation_xyz
x,y,z
-x,-y,-z
loop_
_atom_site_type_symbol
_atom_site_label
_atom_site_fract_x
_atom_site_fract_y
_atom_site_fract_z
Si Si1 0.736257 0.588898 0.334778
Si Si2 0.342374 0.139879 0.501542
Si Si3 0.263584 0.225081 0.074418
Si Si4 0.848197 0.633519 0.524665
Si Si5 0.709364 0.950075 0.610902
Si Si6 0.287274 0.967756 0.186896
Si Si7 0.288306 0.668032 0.042268
Si Si8 0.946711 0.575642 0.123664
O O1 0.569976 0.357613 0.457033
O O2 0.896095 0.672383 0.420077
O O3 0.475633 0.598782 0.200234
O O4 0.986488 0.734278 0.256563
O O5 0.466055 0.026186 0.663654
O O6 0.381511 0.188266 0.385813
O O7 0.000000 0.000000 0.500000
O O8 0.617622 0.421743 0.066262
O O9 0.226529 0.121783 0.226068
O O10 0.200623 0.081342 0.099373
O O11 0.064640 0.286237 0.941732
O O12 0.500000 0.500000 0.500000
O O13 0.992315 0.834507 0.464678
O O14 0.986393 0.541824 0.696752
O O15 0.500000 0.000000 0.500000
O O16 0.479132 0.112033 0.077442
O O17 0.175450 0.680881 0.064437
O O18 0.000000 0.500000 0.000000
#
# Coordination Sequence:
#
# PCOD9064458 Si02
#       8
#     2   2   2   2   2   2   2   2
#     4  12  27  48  75 113 153 201 246 320 391 443
#     4  12  27  46  76 113 148 201 260 306 375 457
#     4  11  24  45  76 110 147 199 256 307 374 446
#     4  12  23  47  76 109 152 188 248 320 376 435
#     4  12  23  45  78 101 147 199 253 306 361 455
#     4  12  25  50  69 110 156 199 246 316 387 442
#     4  12  26  48  75 106 155 200 252 306 378 462
#     4  11  25  45  76 113 144 202 257 306 369 453
#
# _framework density 23.639862999999998
#
# number of rings (size 3 to 8) (size 9 to 14) (size 15 to 20)
#    0.000    0.250    6.250    2.250    3.500    0.000 
#    4.500    1.250    0.000    0.000    0.000    0.000 
#    0.000    0.000    0.000    0.000    0.000    0.000 
#
# Total GULP energy -89545.886917 kJ/mol
# GULP energy per Si atom -5596.617932 kJ/mol
# Density = 2.358606 g / cm^3
# Si number density = 23.639863 Si / 1000 Ang^3
#
#
#
# Elastic Constant Matrix: (Units=GPa)
#
#
# Indices 1 2 3 4 5 6 
#
# 1 105.4356 33.4556 43.9511 -3.7029 -12.1673 17.7059
# 2 33.4556 85.7493 2.8160 -9.4895 1.4145 15.1756
# 3 43.9511 2.8160 95.7498 -6.4789 -18.9355 11.2129
# 4 -3.7029 -9.4895 -6.4789 37.3437 0.1707 -3.0018
# 5 -12.1673 1.4145 -18.9355 0.1707 32.9922 1.0691
# 6 17.7059 15.1756 11.2129 -3.0018 1.0691 39.3409
#
#
#
# Elastic Compliance Matrix: (Units=1/GPa)
#
#
# Indices 1 2 3 4 5 6 
#
# 1 0.014123 -0.004954 -0.005603 -0.001082 0.002308 -0.002993
# 2 -0.004954 0.014569 0.002309 0.003313 -0.001022 -0.003768
# 3 -0.005603 0.002309 0.014652 0.002340 0.006314 -0.002538
# 4 -0.001082 0.003313 0.002340 0.027969 0.000636 0.000658
# 5 0.002308 -0.001022 0.006314 0.000636 0.034934 -0.003345
# 6 -0.002993 -0.003768 -0.002538 0.000658 -0.003345 0.029084
#
#
# Mechanical properties :
#
#
# Convention : Reuss Voigt Hill
#
# Bulk Modulus (GPa) = 37.24727 49.70889 43.47808
# Shear Modulus (GPa) = 31.09861 35.71616 33.40739
#
# Velocity S-wave (km/s) = 3.63094 3.89118 3.76331
# Velocity P-wave (km/s) = 5.77656 6.42352 6.10861
#
# Compressibility (1/GPa) = 0.02684760
#
# Stress axis : x y z
#
# Youngs Moduli (GPa) = 70.80488 68.63710 68.24838
#
# Poissons Ratio (x) = 0.34005 0.38243
# Poissons Ratio (y) = 0.35079 -0.15759
# Poissons Ratio (z) = 0.39675 -0.15849
#
# Static dielectric constant tensor:
#      x y z
#    x 1.902530 -0.013410 -0.046950 
#    y -0.013410 1.898100 0.007190 
#    z -0.046950 0.007190 1.873230 
# 
# From -- ./inp_files/562064.got.cif
#   From: 2010.05.17/outbox.cif.g08.bks.cpg/sg2_282_cif.got.tgz:562064.got - 2010.06.03 11:33:40.
