data_PCOD9064311
_publ_section_title
;
Structure prediction by ZEFSAII (Michael W. Deem and Ramdas Pophale) SiO2 
 PCOD9064311
Probable space group: P -1
;
_chemical_formula_sum "Si O2"
_cell_formula_units_Z 12
_cell_length_a 5.420120
_cell_length_b 14.107685
_cell_length_c 13.963289
_cell_angle_alpha 31.289713
_cell_angle_beta 103.135831
_cell_angle_gamma 116.349040
_cell_volume 469.661497
_symmetry_space_group_name_H-M "P -1"
_symmetry_group_IT_number 2
_symmetry_cell_setting 'triclinic'
loop_
_space_group_symop_operation_xyz
x,y,z
-x,-y,-z
loop_
_atom_site_type_symbol
_atom_site_label
_atom_site_fract_x
_atom_site_fract_y
_atom_site_fract_z
Si Si1 0.253657 0.817888 0.572509
Si Si2 0.714947 0.726089 0.098841
Si Si3 0.206558 0.405370 0.991816
Si Si4 0.223849 0.056326 0.627576
Si Si5 0.503091 0.631369 0.477893
Si Si6 0.747671 0.118949 0.840174
O O1 0.139104 0.591536 0.804787
O O2 0.448816 0.832240 0.483474
O O3 0.996442 0.872250 0.495537
O O4 0.500000 0.000000 0.500000
O O5 0.746873 0.670447 0.042441
O O6 0.479644 0.507369 0.314417
O O7 0.967106 0.786678 0.149481
O O8 0.680948 0.930151 0.924908
O O9 0.500000 0.500000 0.000000
O O10 0.933230 0.192244 0.189670
O O11 0.248363 0.132788 0.674770
O O12 0.500000 0.500000 0.500000
O O13 0.257767 0.693908 0.378349
O O14 0.500000 0.000000 0.000000
#
# Coordination Sequence:
#
# PCOD9064311 Si02
#       6
#     2   2   2   2   2   2
#     4  12  28  53  81 116 159 207 275 329 395 475
#     4  11  26  46  72 110 155 202 265 325 395 475
#     4  12  28  50  81 115 159 217 267 332 400 473
#     4  12  30  51  79 118 162 209 263 335 399 476
#     4  12  26  45  76 114 155 207 257 330 403 474
#     4  11  24  45  73 109 148 199 261 322 398 473
#
# _framework density 25.550318999999998
#
# number of rings (size 3 to 8) (size 9 to 14) (size 15 to 20)
#    0.000    0.333    5.000    2.000    7.000    3.333 
#    0.000    0.000    0.000    0.000    0.000    0.000 
#    0.000    0.000    0.000    0.000    0.000    0.000 
#
# Total GULP energy -67071.145529 kJ/mol
# GULP energy per Si atom -5589.262127 kJ/mol
# Density = 2.549217 g / cm^3
# Si number density = 25.550319 Si / 1000 Ang^3
#
#
#
# Elastic Constant Matrix: (Units=GPa)
#
#
# Indices 1 2 3 4 5 6 
#
# 1 54.9759 0.8458 47.9005 -3.9884 9.5296 -17.7854
# 2 0.8458 146.6034 38.3975 -27.6986 16.3428 -22.8054
# 3 47.9005 38.3975 175.0277 -26.3640 29.6913 3.9632
# 4 -3.9884 -27.6986 -26.3640 48.0213 -3.4340 -0.6209
# 5 9.5296 16.3428 29.6913 -3.4340 45.7244 -10.9475
# 6 -17.7854 -22.8054 3.9632 -0.6209 -10.9475 47.9652
#
#
#
# Elastic Compliance Matrix: (Units=1/GPa)
#
#
# Indices 1 2 3 4 5 6 
#
# 1 0.031845 0.004707 -0.010469 -0.000034 0.002164 0.015404
# 2 0.004707 0.009391 -0.002712 0.004348 -0.000736 0.006323
# 3 -0.010469 -0.002712 0.010680 0.002958 -0.005291 -0.007223
# 4 -0.000034 0.004348 0.002958 0.024895 -0.001150 0.001870
# 5 0.002164 -0.000736 -0.005291 -0.001150 0.026700 0.006969
# 6 0.015404 0.006323 -0.007223 0.001870 0.006969 0.031778
#
#
# Mechanical properties :
#
#
# Convention : Reuss Voigt Hill
#
# Bulk Modulus (GPa) = 28.59689 61.21052 44.90370
# Shear Modulus (GPa) = 30.50775 47.63972 39.07374
#
# Velocity S-wave (km/s) = 3.45922 4.32272 3.91485
# Velocity P-wave (km/s) = 5.21264 6.99453 6.16827
#
# Compressibility (1/GPa) = 0.03496884
#
# Stress axis : x y z
#
# Youngs Moduli (GPa) = 31.40255 106.48065 93.63322
#
# Poissons Ratio (x) = -0.50118 0.98021
# Poissons Ratio (y) = -0.14781 0.25390
# Poissons Ratio (z) = 0.32874 0.28874
#
# Static dielectric constant tensor:
#      x y z
#    x 2.137860 0.035660 -0.069770 
#    y 0.035660 2.101980 -0.016490 
#    z -0.069770 -0.016490 2.114570 
# 
# From -- ./inp_files/321471.got.cif
#   From: 2010.05.17/outbox.cif.g08.bks.cpg/sg2_161_cif.got.tgz:321471.got - 2010.06.03 11:33:40.
