data_PCOD9064337
_publ_section_title
;
Structure prediction by ZEFSAII (Michael W. Deem and Ramdas Pophale) SiO2 
 PCOD9064337
Probable space group: P -1
;
_chemical_formula_sum "Si O2"
_cell_formula_units_Z 16
_cell_length_a 17.953052
_cell_length_b 8.069251
_cell_length_c 21.797194
_cell_angle_alpha 146.489391
_cell_angle_beta 156.240450
_cell_angle_gamma 34.472835
_cell_volume 675.212429
_symmetry_space_group_name_H-M "P -1"
_symmetry_group_IT_number 2
_symmetry_cell_setting 'triclinic'
loop_
_space_group_symop_operation_xyz
x,y,z
-x,-y,-z
loop_
_atom_site_type_symbol
_atom_site_label
_atom_site_fract_x
_atom_site_fract_y
_atom_site_fract_z
Si Si1 0.970315 0.780213 0.239579
Si Si2 0.093641 0.687059 0.437333
Si Si3 0.398962 0.277812 0.621949
Si Si4 0.318399 0.640411 0.364014
Si Si5 0.656376 0.441704 0.196982
Si Si6 0.807396 0.205387 0.946085
Si Si7 0.191820 0.210643 0.061065
Si Si8 0.743467 0.435791 0.129851
O O1 0.098525 0.741785 0.385797
O O2 0.121079 0.677590 0.265508
O O3 0.826878 0.126191 0.236916
O O4 0.834114 0.549935 0.072809
O O5 0.293125 0.540231 0.576133
O O6 0.943190 0.478360 0.269351
O O7 0.000000 0.000000 0.500000
O O8 0.354964 0.375771 0.690873
O O9 0.626975 0.197284 0.766528
O O10 0.323943 0.984068 0.457771
O O11 0.500000 0.500000 0.500000
O O12 0.338412 0.406148 0.249691
O O13 0.707733 0.590034 0.218189
O O14 0.441361 0.418615 0.008582
O O15 0.799296 0.023179 0.946888
O O16 0.000000 0.000000 0.000000
O O17 0.000000 0.500000 0.000000
O O18 0.237614 0.937229 0.960824
#
# Coordination Sequence:
#
# PCOD9064337 Si02
#       8
#     2   2   2   2   2   2   2   2
#     4  12  25  44  73 103 141 186 233 285 354 421
#     4  12  26  42  66 107 145 177 223 288 361 413
#     4  12  25  47  71 102 147 181 227 296 353 416
#     4  12  25  47  71 100 138 186 233 289 347 408
#     4  11  24  45  74 102 138 188 231 283 353 428
#     4  12  25  48  71 100 136 189 238 285 346 418
#     4  12  23  45  70  98 134 185 233 285 336 417
#     4  11  25  45  69 105 140 185 237 281 345 436
#
# _framework density 23.696247
#
# number of rings (size 3 to 8) (size 9 to 14) (size 15 to 20)
#    0.000    0.250    6.250    2.250    3.500    2.000 
#    2.250    1.250    0.000    0.000    0.000    0.000 
#    0.000    0.000    0.000    0.000    0.000    0.000 
#
# Total GULP energy -89416.557995 kJ/mol
# GULP energy per Si atom -5588.534875 kJ/mol
# Density = 2.364231 g / cm^3
# Si number density = 23.696247 Si / 1000 Ang^3
#
#
#
# Elastic Constant Matrix: (Units=GPa)
#
#
# Indices 1 2 3 4 5 6 
#
# 1 56.7549 11.0962 27.4537 -11.5717 -4.8992 -11.6766
# 2 11.0962 119.3208 37.7359 -17.4568 5.3854 -1.5314
# 3 27.4537 37.7359 108.8073 -5.2613 -9.8459 2.4355
# 4 -11.5717 -17.4568 -5.2613 57.9480 -5.6811 -5.3137
# 5 -4.8992 5.3854 -9.8459 -5.6811 33.8831 -3.0604
# 6 -11.6766 -1.5314 2.4355 -5.3137 -3.0604 25.3546
#
#
#
# Elastic Compliance Matrix: (Units=1/GPa)
#
#
# Indices 1 2 3 4 5 6 
#
# 1 0.024971 0.000527 -0.006125 0.006263 0.004055 0.013922
# 2 0.000527 0.010006 -0.003686 0.002731 -0.001989 0.001533
# 3 -0.006125 -0.003686 0.012284 -0.001340 0.002667 -0.004182
# 4 0.006263 0.002731 -0.001340 0.020351 0.004213 0.007951
# 5 0.004055 -0.001989 0.002667 0.004213 0.032465 0.006292
# 6 0.013922 0.001533 -0.004182 0.007951 0.006292 0.048772
#
#
# Mechanical properties :
#
#
# Convention : Reuss Voigt Hill
#
# Bulk Modulus (GPa) = 34.85044 48.60607 41.72826
# Shear Modulus (GPa) = 28.25148 37.34364 32.79756
#
# Velocity S-wave (km/s) = 3.45662 3.97411 3.72436
# Velocity P-wave (km/s) = 5.53806 6.45094 6.01185
#
# Compressibility (1/GPa) = 0.02869404
#
# Stress axis : x y z
#
# Youngs Moduli (GPa) = 40.04680 99.93734 81.40404
#
# Poissons Ratio (x) = -0.05266 0.49861
# Poissons Ratio (y) = -0.02110 0.30002
# Poissons Ratio (z) = 0.24529 0.36832
#
# Static dielectric constant tensor:
#      x y z
#    x 2.080130 0.000540 -0.141910 
#    y 0.000540 1.939640 0.005630 
#    z -0.141910 0.005630 2.069630 
# 
# From -- ./inp_files/613640.got.cif
#   From: 2010.05.17/outbox.cif.g08.bks.cpg/sg2_307_cif.got.tgz:613640.got - 2010.06.03 11:33:40.
