data_PCOD9064618
_publ_section_title
;
Structure prediction by ZEFSAII (Michael W. Deem and Ramdas Pophale) SiO2 
 PCOD9064618
Probable space group: P -1
;
_chemical_formula_sum "Si O2"
_cell_formula_units_Z 16
_cell_length_a 21.149656
_cell_length_b 5.577007
_cell_length_c 6.592533
_cell_angle_alpha 108.726093
_cell_angle_beta 68.038113
_cell_angle_gamma 102.902047
_cell_volume 678.264439
_symmetry_space_group_name_H-M "P -1"
_symmetry_group_IT_number 2
_symmetry_cell_setting 'triclinic'
loop_
_space_group_symop_operation_xyz
x,y,z
-x,-y,-z
loop_
_atom_site_type_symbol
_atom_site_label
_atom_site_fract_x
_atom_site_fract_y
_atom_site_fract_z
Si Si1 0.456293 0.313208 0.659008
Si Si2 0.157959 0.033172 0.156552
Si Si3 0.121366 0.578176 0.810491
Si Si4 0.963476 0.709917 0.476663
Si Si5 0.242110 0.297810 0.771972
Si Si6 0.667798 0.426928 0.970041
Si Si7 0.553251 0.095948 0.787218
Si Si8 0.776834 0.173356 0.577129
O O1 0.500000 0.500000 0.500000
O O2 0.512075 0.287320 0.759769
O O3 0.432594 0.085310 0.468150
O O4 0.388473 0.377852 0.876080
O O5 0.191774 0.921115 0.280284
O O6 0.109615 0.248508 0.322593
O O7 0.111753 0.794747 0.043402
O O8 0.217722 0.145542 0.963794
O O9 0.056374 0.407686 0.751571
O O10 0.175310 0.400941 0.787035
O O11 0.161162 0.733753 0.621185
O O12 0.000000 0.500000 0.500000
O O13 0.000000 0.000000 0.500000
O O14 0.264650 0.081157 0.539437
O O15 0.295579 0.537492 0.842931
O O16 0.618768 0.192186 0.870434
O O17 0.732102 0.405176 0.736552
O O18 0.500000 0.000000 0.000000
#
# Coordination Sequence:
#
# PCOD9064618 Si02
#       8
#     2   2   2   2   2   2   2   2
#     4  11  25  47  67  98 136 185 230 289 358 430
#     4  11  25  48  75 101 152 189 234 306 372 414
#     4  11  25  48  74 103 149 189 241 303 367 427
#     4  12  28  47  76 113 150 203 253 297 365 455
#     4  11  25  44  72 105 136 187 237 298 364 432
#     4  12  24  43  72 102 136 185 239 290 367 443
#     4  11  25  47  67  95 139 183 229 294 361 427
#     4  11  24  46  70 105 141 187 235 303 365 431
#
# _framework density 23.58962
#
# number of rings (size 3 to 8) (size 9 to 14) (size 15 to 20)
#    0.000    0.750    3.750    2.625    3.500    3.000 
#    0.000    0.000    0.000    0.000    0.000    0.000 
#    0.000    0.000    0.000    0.000    0.000    0.000 
#
# Total GULP energy -89230.054626 kJ/mol
# GULP energy per Si atom -5576.878414 kJ/mol
# Density = 2.353593 g / cm^3
# Si number density = 23.589620 Si / 1000 Ang^3
#
#
#
# Elastic Constant Matrix: (Units=GPa)
#
#
# Indices 1 2 3 4 5 6 
#
# 1 84.1080 37.0224 34.6018 5.8985 2.4287 30.3181
# 2 37.0224 84.9860 50.8642 11.5358 18.8245 -1.4416
# 3 34.6018 50.8642 129.2717 25.4406 5.1897 4.0250
# 4 5.8985 11.5358 25.4406 71.2502 -8.3207 18.8638
# 5 2.4287 18.8245 5.1897 -8.3207 42.3949 35.3565
# 6 30.3181 -1.4416 4.0250 18.8638 35.3565 23.0235
#
#
#
# Elastic Compliance Matrix: (Units=1/GPa)
#
#
# Indices 1 2 3 4 5 6 
#
# 1 0.008177 0.000968 -0.001458 -0.005141 -0.012382 0.012774
# 2 0.000968 0.012684 -0.005921 0.004106 0.006462 -0.012733
# 3 -0.001458 -0.005921 0.010892 -0.002410 0.001584 -0.000812
# 4 -0.005141 0.004106 -0.002410 0.010964 -0.007832 0.010492
# 5 -0.012382 0.006462 0.001584 -0.007832 -0.002284 0.026357
# 6 0.012774 -0.012733 -0.000812 0.010492 0.026357 -0.023114
#
#
# Mechanical properties :
#
#
# Convention : Reuss Voigt Hill
#
# Bulk Modulus (GPa) = 52.82743 60.37139 56.59941
# Shear Modulus (GPa) = 137.16920 39.05886 88.11403
#
# Velocity S-wave (km/s) = 7.63376 4.07352 6.11833
# Velocity P-wave (km/s) = 10.00710 6.91178 8.59985
#
# Compressibility (1/GPa) = 0.01892956
#
# Stress axis : x y z
#
# Youngs Moduli (GPa) = 122.29354 78.83925 91.81407
#
# Poissons Ratio (x) = -0.07630 0.13391
# Poissons Ratio (y) = -0.11835 0.54361
# Poissons Ratio (z) = 0.17836 0.46679
#
# Static dielectric constant tensor:
#      x y z
#    x 1.896420 0.016510 0.038160 
#    y 0.016510 1.950250 0.116860 
#    z 0.038160 0.116860 1.783790 
# 
# From -- ./inp_files/114749.got.cif
#   From: 2010.05.17/outbox.cif.g08.bks.cpg/sg2_58_cif.got.tgz:114749.got - 2010.06.03 11:33:40.
