data_PCOD9064326
_publ_section_title
;
Structure prediction by ZEFSAII (Michael W. Deem and Ramdas Pophale) SiO2 
 PCOD9064326
Probable space group: P -1
;
_chemical_formula_sum "Si O2"
_cell_formula_units_Z 14
_cell_length_a 10.000163
_cell_length_b 8.609935
_cell_length_c 8.475371
_cell_angle_alpha 84.187411
_cell_angle_beta 101.029330
_cell_angle_gamma 122.191341
_cell_volume 606.149401
_symmetry_space_group_name_H-M "P -1"
_symmetry_group_IT_number 2
_symmetry_cell_setting 'triclinic'
loop_
_space_group_symop_operation_xyz
x,y,z
-x,-y,-z
loop_
_atom_site_type_symbol
_atom_site_label
_atom_site_fract_x
_atom_site_fract_y
_atom_site_fract_z
Si Si1 0.472584 0.838313 0.891454
Si Si2 0.630343 0.463227 0.839260
Si Si3 0.996254 0.233628 0.667177
Si Si4 0.248435 0.144807 0.239183
Si Si5 0.693156 0.743165 0.389581
Si Si6 0.943163 0.510860 0.814154
Si Si7 0.805874 0.144888 0.317155
O O1 0.624223 0.893780 0.810430
O O2 0.324407 0.802879 0.754562
O O3 0.425941 0.659236 0.003557
O O4 0.500000 0.000000 0.000000
O O5 0.731506 0.681352 0.869254
O O6 0.477901 0.409468 0.701296
O O7 0.753614 0.423825 0.780104
O O8 0.999815 0.401053 0.733880
O O9 0.867819 0.178995 0.504821
O O10 0.165211 0.287011 0.625981
O O11 0.920720 0.046933 0.772030
O O12 0.294934 0.218027 0.423826
O O13 0.731148 0.930931 0.293502
O O14 0.037435 0.722072 0.762254
O O15 0.000000 0.500000 0.000000
#
# Coordination Sequence:
#
# PCOD9064326 Si02
#       7
#     2   2   2   2   2   2   2
#     4  12  25  45  69 109 144 184 231 294 351 414
#     4  12  25  46  72 104 145 181 233 290 351 419
#     4  11  26  47  74 103 140 185 237 292 347 418
#     4  11  26  44  74 102 142 185 236 283 357 415
#     4  11  25  47  75 103 140 183 237 293 347 417
#     4  12  26  45  71 108 141 184 232 289 355 419
#     4  11  24  45  73  98 148 179 238 282 355 410
#
# _framework density 23.096613000000001
#
# number of rings (size 3 to 8) (size 9 to 14) (size 15 to 20)
#    0.000    0.571    2.857    5.571    4.000    2.286 
#    0.000    2.143    0.000    0.000    0.000    0.000 
#    0.000    0.000    0.000    0.000    0.000    0.000 
#
# Total GULP energy -78385.380229 kJ/mol
# GULP energy per Si atom -5598.955731 kJ/mol
# Density = 2.304404 g / cm^3
# Si number density = 23.096613 Si / 1000 Ang^3
#
#
#
# Elastic Constant Matrix: (Units=GPa)
#
#
# Indices 1 2 3 4 5 6 
#
# 1 163.2571 28.3491 41.2657 15.5320 -28.1026 -2.3017
# 2 28.3491 95.2279 18.8425 -17.2830 -0.9925 16.1505
# 3 41.2657 18.8425 41.2827 -13.2302 -2.9477 -0.5498
# 4 15.5320 -17.2830 -13.2302 33.1625 0.6627 -5.1494
# 5 -28.1026 -0.9925 -2.9477 0.6627 35.8895 -8.9142
# 6 -2.3017 16.1505 -0.5498 -5.1494 -8.9142 22.6815
#
#
#
# Elastic Compliance Matrix: (Units=1/GPa)
#
#
# Indices 1 2 3 4 5 6 
#
# 1 0.014627 -0.004677 -0.016464 -0.015231 0.011626 0.005527
# 2 -0.004677 0.015464 -0.000321 0.008368 -0.006426 -0.012120
# 3 -0.016464 -0.000321 0.049122 0.027721 -0.008729 0.002611
# 4 -0.015231 0.008368 0.027721 0.053106 -0.010085 0.001260
# 5 0.011626 -0.006426 -0.008729 -0.010085 0.041077 0.019398
# 6 0.005527 -0.012120 0.002611 0.001260 0.019398 0.061253
#
#
# Mechanical properties :
#
#
# Convention : Reuss Voigt Hill
#
# Bulk Modulus (GPa) = 27.55647 52.96469 40.26058
# Shear Modulus (GPa) = 17.26107 32.43407 24.84757
#
# Velocity S-wave (km/s) = 2.73672 3.75144 3.28351
# Velocity P-wave (km/s) = 4.68434 6.46111 5.64309
#
# Compressibility (1/GPa) = 0.03628912
#
# Stress axis : x y z
#
# Youngs Moduli (GPa) = 68.36601 64.66463 20.35744
#
# Poissons Ratio (x) = 0.30246 0.33516
# Poissons Ratio (y) = 0.31977 0.00654
# Poissons Ratio (z) = 1.12555 0.02078
#
# Static dielectric constant tensor:
#      x y z
#    x 1.845120 0.005040 -0.016520 
#    y 0.005040 1.917450 -0.039580 
#    z -0.016520 -0.039580 1.792300 
# 
# From -- ./inp_files/158102.got.cif
#   From: 2010.05.17/outbox.cif.g08.bks.cpg/sg2_80_cif.got.tgz:158102.got - 2010.06.03 11:33:40.
