data_PCOD9064316
_publ_section_title
;
Structure prediction by ZEFSAII (Michael W. Deem and Ramdas Pophale) SiO2 
 PCOD9064316
Probable space group: P -1
;
_chemical_formula_sum "Si O2"
_cell_formula_units_Z 14
_cell_length_a 18.374364
_cell_length_b 11.915101
_cell_length_c 8.528825
_cell_angle_alpha 40.271595
_cell_angle_beta 72.952354
_cell_angle_gamma 41.988253
_cell_volume 624.763351
_symmetry_space_group_name_H-M "P -1"
_symmetry_group_IT_number 2
_symmetry_cell_setting 'triclinic'
loop_
_space_group_symop_operation_xyz
x,y,z
-x,-y,-z
loop_
_atom_site_type_symbol
_atom_site_label
_atom_site_fract_x
_atom_site_fract_y
_atom_site_fract_z
Si Si1 0.413850 0.806802 0.119175
Si Si2 0.851048 0.239078 0.912066
Si Si3 0.843936 0.835333 0.673438
Si Si4 0.655646 0.882700 0.861327
Si Si5 0.155975 0.140141 0.730782
Si Si6 0.149197 0.786721 0.686267
Si Si7 0.447861 0.058149 0.647376
O O1 0.500000 0.500000 0.500000
O O2 0.354620 0.058100 0.014000
O O3 0.283849 0.976839 0.922682
O O4 0.496374 0.775133 0.979073
O O5 0.720165 0.618132 0.573223
O O6 0.858250 0.211879 0.123474
O O7 0.822501 0.105967 0.000533
O O8 0.000000 0.000000 0.000000
O O9 0.731301 0.906928 0.718129
O O10 0.840841 0.836992 0.484105
O O11 0.816307 0.077994 0.505269
O O12 0.000000 0.500000 0.000000
O O13 0.503694 0.117214 0.645696
O O14 0.743708 0.547771 0.107980
O O15 0.000000 0.500000 0.500000
O O16 0.000000 0.000000 0.500000
O O17 0.500000 0.000000 0.500000
#
# Coordination Sequence:
#
# PCOD9064316 Si02
#       7
#     2   2   2   2   2   2   2
#     4  12  29  49  74 113 158 210 259 328 400 477
#     4  11  26  46  76 106 147 202 260 328 389 465
#     4  11  24  45  73 111 154 204 262 329 394 470
#     4  12  26  46  75 108 154 200 258 319 399 466
#     4  11  25  45  72 111 152 201 267 325 391 470
#     4  11  25  43  72 113 149 201 258 321 393 470
#     4  12  26  51  78 111 153 204 266 326 396 473
#
# _framework density 22.408484999999999
#
# number of rings (size 3 to 8) (size 9 to 14) (size 15 to 20)
#    0.000    0.571    2.857    3.857    8.000    1.143 
#    0.000    3.571    0.000    0.000    0.000    0.000 
#    0.000    0.000    0.000    0.000    0.000    0.000 
#
# Total GULP energy -78198.871444 kJ/mol
# GULP energy per Si atom -5585.633675 kJ/mol
# Density = 2.235748 g / cm^3
# Si number density = 22.408485 Si / 1000 Ang^3
#
#
#
# Elastic Constant Matrix: (Units=GPa)
#
#
# Indices 1 2 3 4 5 6 
#
# 1 201.0720 43.6205 73.7179 10.8921 5.9532 10.1455
# 2 43.6205 92.3817 49.9677 -6.7384 -11.0501 8.4513
# 3 73.7179 49.9677 121.6284 -3.4636 -11.5483 -15.0437
# 4 10.8921 -6.7384 -3.4636 41.2930 -0.4521 -2.3332
# 5 5.9532 -11.0501 -11.5483 -0.4521 43.9822 -4.7448
# 6 10.1455 8.4513 -15.0437 -2.3332 -4.7448 45.4496
#
#
#
# Elastic Compliance Matrix: (Units=1/GPa)
#
#
# Indices 1 2 3 4 5 6 
#
# 1 0.007393 -0.001127 -0.004808 -0.002766 -0.002950 -0.003482
# 2 -0.001127 0.015319 -0.005882 0.002087 0.002022 -0.004225
# 3 -0.004808 -0.005882 0.014926 0.002034 0.003935 0.007623
# 4 -0.002766 0.002087 0.002034 0.025616 0.001958 0.002422
# 5 -0.002950 0.002022 0.003935 0.001958 0.025163 0.004313
# 6 -0.003482 -0.004225 0.007623 0.002422 0.004313 0.026663
#
#
# Mechanical properties :
#
#
# Convention : Reuss Voigt Hill
#
# Bulk Modulus (GPa) = 71.39604 83.29935 77.34769
# Shear Modulus (GPa) = 34.87214 42.66338 38.76776
#
# Velocity S-wave (km/s) = 3.94915 4.36810 4.16390
# Velocity P-wave (km/s) = 7.26118 7.91797 7.59667
#
# Compressibility (1/GPa) = 0.01400638
#
# Stress axis : x y z
#
# Youngs Moduli (GPa) = 135.25761 65.28042 66.99537
#
# Poissons Ratio (x) = 0.07354 0.32210
# Poissons Ratio (y) = 0.15238 0.39404
# Poissons Ratio (z) = 0.65029 0.38395
#
# Static dielectric constant tensor:
#      x y z
#    x 1.945430 -0.044520 0.107430 
#    y -0.044520 1.912880 0.058580 
#    z 0.107430 0.058580 2.069690 
# 
# From -- ./inp_files/332718.got.cif
#   From: 2010.05.17/outbox.cif.g08.bks.cpg/sg2_167_cif.got.tgz:332718.got - 2010.06.03 11:33:40.
