data_PCOD9064383
_publ_section_title
;
Structure prediction by ZEFSAII (Michael W. Deem and Ramdas Pophale) SiO2 
 PCOD9064383
Probable space group: P -1
;
_chemical_formula_sum "Si O2"
_cell_formula_units_Z 16
_cell_length_a 9.387302
_cell_length_b 8.464250
_cell_length_c 9.418291
_cell_angle_alpha 60.893730
_cell_angle_beta 92.726810
_cell_angle_gamma 108.322073
_cell_volume 615.669396
_symmetry_space_group_name_H-M "P -1"
_symmetry_group_IT_number 2
_symmetry_cell_setting 'triclinic'
loop_
_space_group_symop_operation_xyz
x,y,z
-x,-y,-z
loop_
_atom_site_type_symbol
_atom_site_label
_atom_site_fract_x
_atom_site_fract_y
_atom_site_fract_z
Si Si1 0.299049 0.836066 0.802740
Si Si2 0.248753 0.135365 0.237422
Si Si3 0.476110 0.192890 0.971252
Si Si4 0.935333 0.480963 0.263247
Si Si5 0.033320 0.875499 0.929122
Si Si6 0.201683 0.474988 0.463085
Si Si7 0.450443 0.419921 0.335128
Si Si8 0.609888 0.154617 0.581904
O O1 0.184872 0.690655 0.752774
O O2 0.201196 0.933323 0.849702
O O3 0.448143 0.997859 0.677417
O O4 0.376661 0.720347 0.958712
O O5 0.078537 0.115966 0.207357
O O6 0.345602 0.324730 0.239744
O O7 0.280458 0.964432 0.400671
O O8 0.329608 0.138206 0.088319
O O9 0.471585 0.356822 0.791562
O O10 0.500000 0.000000 0.000000
O O11 0.869102 0.551306 0.371662
O O12 0.070851 0.419756 0.363764
O O13 0.993989 0.660201 0.081838
O O14 0.000000 0.000000 0.000000
O O15 0.332883 0.388326 0.473550
O O16 0.291434 0.704478 0.353805
O O17 0.564854 0.304490 0.416083
#
# Coordination Sequence:
#
# PCOD9064383 Si02
#       8
#     2   2   2   2   2   2   2   2
#     4  11  25  48  76 107 148 195 248 308 368 448
#     4  11  25  43  71 107 145 190 248 308 362 436
#     4  11  24  45  74 108 147 192 250 307 369 436
#     4  11  26  47  74 106 150 198 245 308 380 439
#     4  12  25  44  75 104 146 191 255 303 377 438
#     4  11  26  46  72 107 152 193 247 303 377 447
#     4  12  24  43  74 106 147 191 251 301 373 439
#     4  11  27  47  72 110 150 199 242 304 372 440
#
# _framework density 25.987977000000001
#
# number of rings (size 3 to 8) (size 9 to 14) (size 15 to 20)
#    0.000    0.750    0.000    6.750    8.750    0.000 
#    0.000    1.250    0.000    0.000    0.000    0.000 
#    0.000    0.000    0.000    0.000    0.000    0.000 
#
# Total GULP energy -89639.314219 kJ/mol
# GULP energy per Si atom -5602.457139 kJ/mol
# Density = 2.592883 g / cm^3
# Si number density = 25.987977 Si / 1000 Ang^3
#
#
#
# Elastic Constant Matrix: (Units=GPa)
#
#
# Indices 1 2 3 4 5 6 
#
# 1 136.2174 2.7498 43.2352 -0.5194 19.2546 10.8786
# 2 2.7498 104.0396 30.8992 2.3638 6.3882 17.7541
# 3 43.2352 30.8992 129.3397 -19.6306 24.4966 3.2154
# 4 -0.5194 2.3638 -19.6306 40.9868 1.3274 6.7644
# 5 19.2546 6.3882 24.4966 1.3274 42.2756 15.8288
# 6 10.8786 17.7541 3.2154 6.7644 15.8288 50.7332
#
#
#
# Elastic Compliance Matrix: (Units=1/GPa)
#
#
# Indices 1 2 3 4 5 6 
#
# 1 0.008601 0.000986 -0.002882 -0.001056 -0.001884 -0.001278
# 2 0.000986 0.011268 -0.003444 -0.001645 0.001457 -0.004172
# 3 -0.002882 -0.003444 0.011377 0.005439 -0.005742 0.002168
# 4 -0.001056 -0.001645 0.005439 0.027571 -0.002358 -0.002483
# 5 -0.001884 0.001457 -0.005742 -0.002358 0.031114 -0.009135
# 6 -0.001278 -0.004172 0.002168 -0.002483 -0.009135 0.024489
#
#
# Mechanical properties :
#
#
# Convention : Reuss Voigt Hill
#
# Bulk Modulus (GPa) = 48.62256 58.15169 53.38712
# Shear Modulus (GPa) = 37.89207 46.31329 42.10268
#
# Velocity S-wave (km/s) = 3.82260 4.22608 4.02939
# Velocity P-wave (km/s) = 6.18331 6.79985 6.49889
#
# Compressibility (1/GPa) = 0.02056658
#
# Stress axis : x y z
#
# Youngs Moduli (GPa) = 116.27205 88.74490 87.89748
#
# Poissons Ratio (x) = -0.08755 0.25335
# Poissons Ratio (y) = -0.11470 0.30270
# Poissons Ratio (z) = 0.33513 0.30562
#
# Static dielectric constant tensor:
#      x y z
#    x 2.003270 -0.006580 -0.052660 
#    y -0.006580 2.088700 0.101200 
#    z -0.052660 0.101200 2.132460 
# 
# From -- ./inp_files/375682.got.cif
#   From: 2010.05.17/outbox.cif.g08.bks.cpg/sg2_188_cif.got.tgz:375682.got - 2010.06.03 11:33:40.
