data_PCOD9064095
_publ_section_title
;
Structure prediction by ZEFSAII (Michael W. Deem and Ramdas Pophale) SiO2 
 PCOD9064095
Probable space group: P -1
;
_chemical_formula_sum "Si O2"
_cell_formula_units_Z 14
_cell_length_a 17.008186
_cell_length_b 20.298150
_cell_length_c 9.274217
_cell_angle_alpha 144.183156
_cell_angle_beta 46.095894
_cell_angle_gamma 160.423478
_cell_volume 585.738983
_symmetry_space_group_name_H-M "P -1"
_symmetry_group_IT_number 2
_symmetry_cell_setting 'triclinic'
loop_
_space_group_symop_operation_xyz
x,y,z
-x,-y,-z
loop_
_atom_site_type_symbol
_atom_site_label
_atom_site_fract_x
_atom_site_fract_y
_atom_site_fract_z
Si Si1 0.970710 0.868111 0.697686
Si Si2 0.241209 0.223632 0.484040
Si Si3 0.164997 0.497823 0.353841
Si Si4 0.419944 0.023562 0.534161
Si Si5 0.368713 0.084986 0.996630
Si Si6 0.858684 0.519993 0.316485
Si Si7 0.513312 0.414422 0.947185
O O1 0.828650 0.775337 0.570484
O O2 0.863142 0.660103 0.544744
O O3 0.257891 0.106911 0.712522
O O4 0.000000 0.000000 0.000000
O O5 0.319857 0.168199 0.254805
O O6 0.446157 0.486352 0.776459
O O7 0.000000 0.000000 0.500000
O O8 0.351730 0.739184 0.442017
O O9 0.187603 0.556261 0.594520
O O10 0.260202 0.457840 0.148715
O O11 0.870981 0.214515 0.186461
O O12 0.500000 0.000000 0.500000
O O13 0.385237 0.094638 0.818769
O O14 0.145516 0.749107 0.324798
O O15 0.623819 0.273349 0.075924
O O16 0.500000 0.500000 0.000000
#
# Coordination Sequence:
#
# PCOD9064095 Si02
#       7
#     2   2   2   2   2   2   2
#     4  12  24  39  61  98 149 190 236 283 335 420
#     4  12  24  37  66 104 146 196 230 274 344 418
#     4  11  24  45  70  98 143 183 229 288 352 417
#     4  11  27  52  76  99 134 182 239 305 363 410
#     4  11  25  45  68 107 143 180 239 285 343 427
#     4  11  26  43  71 104 140 182 234 291 353 419
#     4  12  22  39  65  99 142 192 231 271 339 415
#
# _framework density 23.901433000000001
#
# number of rings (size 3 to 8) (size 9 to 14) (size 15 to 20)
#    0.000    0.571    4.286    4.286    2.000    5.143 
#    0.000    1.429    0.000    0.000    0.000    0.000 
#    0.000    0.000    0.000    0.000    0.000    0.000 
#
# Total GULP energy -78429.352738 kJ/mol
# GULP energy per Si atom -5602.096624 kJ/mol
# Density = 2.384703 g / cm^3
# Si number density = 23.901433 Si / 1000 Ang^3
#
#
#
# Elastic Constant Matrix: (Units=GPa)
#
#
# Indices 1 2 3 4 5 6 
#
# 1 138.7783 59.2969 39.8918 19.5662 16.6672 1.6134
# 2 59.2969 156.2208 39.8595 38.0011 11.9600 -10.8218
# 3 39.8918 39.8595 73.1040 12.5227 31.1599 14.8052
# 4 19.5662 38.0011 12.5227 42.8985 20.6632 5.8235
# 5 16.6672 11.9600 31.1599 20.6632 45.7286 0.5909
# 6 1.6134 -10.8218 14.8052 5.8235 0.5909 55.0399
#
#
#
# Elastic Compliance Matrix: (Units=1/GPa)
#
#
# Indices 1 2 3 4 5 6 
#
# 1 0.009446 -0.002180 -0.004062 -0.001549 0.000588 0.000545
# 2 -0.002180 0.012020 -0.008131 -0.012233 0.008644 0.005816
# 3 -0.004062 -0.008131 0.029795 0.012488 -0.022202 -0.010577
# 4 -0.001549 -0.012233 0.012488 0.044495 -0.024720 -0.010161
# 5 0.000588 0.008644 -0.022202 -0.024720 0.045566 0.009781
# 6 0.000545 0.005816 -0.010577 -0.010161 0.009781 0.023111
#
#
# Mechanical properties :
#
#
# Convention : Reuss Voigt Hill
#
# Bulk Modulus (GPa) = 44.41169 71.79994 58.10581
# Shear Modulus (GPa) = 24.91481 44.00371 34.45926
#
# Velocity S-wave (km/s) = 3.23212 4.29540 3.80112
# Velocity P-wave (km/s) = 5.70529 7.39634 6.60516
#
# Compressibility (1/GPa) = 0.02251660
#
# Stress axis : x y z
#
# Youngs Moduli (GPa) = 105.86473 83.19428 33.56223
#
# Poissons Ratio (x) = 0.18133 0.13632
# Poissons Ratio (y) = 0.23074 0.27290
# Poissons Ratio (z) = 0.42998 0.67647
#
# Static dielectric constant tensor:
#      x y z
#    x 1.934500 0.076140 -0.050330 
#    y 0.076140 1.993640 0.009710 
#    z -0.050330 0.009710 1.921110 
# 
# From -- ./inp_files/337421.got.cif
#   From: 2010.05.17/outbox.cif.g08.bks.cpg/sg2_169_cif.got.tgz:337421.got - 2010.06.03 11:33:40.
