data_PCOD9064302
_publ_section_title
;
Structure prediction by ZEFSAII (Michael W. Deem and Ramdas Pophale) SiO2 
 PCOD9064302
Probable space group: P -1
;
_chemical_formula_sum "Si O2"
_cell_formula_units_Z 12
_cell_length_a 5.781824
_cell_length_b 11.289288
_cell_length_c 11.831331
_cell_angle_alpha 41.469672
_cell_angle_beta 66.578324
_cell_angle_gamma 74.717446
_cell_volume 468.525748
_symmetry_space_group_name_H-M "P -1"
_symmetry_group_IT_number 2
_symmetry_cell_setting 'triclinic'
loop_
_space_group_symop_operation_xyz
x,y,z
-x,-y,-z
loop_
_atom_site_type_symbol
_atom_site_label
_atom_site_fract_x
_atom_site_fract_y
_atom_site_fract_z
Si Si1 0.736890 0.891599 0.146607
Si Si2 0.748353 0.017759 0.698799
Si Si3 0.293989 0.644490 0.692438
Si Si4 0.953743 0.734098 0.011177
Si Si5 0.712062 0.563261 0.512391
Si Si6 0.549231 0.289836 0.141276
O O1 0.754550 0.762214 0.128133
O O2 0.771365 0.773361 0.334024
O O3 0.464627 0.960594 0.176650
O O4 0.000000 0.000000 0.000000
O O5 0.658987 0.866606 0.732434
O O6 0.790008 0.209698 0.489621
O O7 0.946405 0.905753 0.808367
O O8 0.109488 0.468493 0.873611
O O9 0.553196 0.560273 0.659979
O O10 0.343351 0.739001 0.734161
O O11 0.248212 0.734413 0.981343
O O12 0.500000 0.500000 0.500000
O O13 0.000000 0.500000 0.500000
O O14 0.500000 0.500000 0.000000
#
# Coordination Sequence:
#
# PCOD9064302 Si02
#       6
#     2   2   2   2   2   2
#     4  11  24  45  73 107 143 189 248 315 370 447
#     4  11  26  47  71 106 140 190 247 300 375 442
#     4  11  26  47  72 108 144 191 248 306 365 461
#     4  12  25  48  75 103 146 192 242 308 380 435
#     4  11  26  46  74 109 148 198 247 309 385 441
#     4  12  26  47  72 104 147 193 241 300 377 448
#
# _framework density 25.612252999999999
#
# number of rings (size 3 to 8) (size 9 to 14) (size 15 to 20)
#    0.000    0.667    5.000    1.500    4.667    3.333 
#    3.000    0.000    0.000    0.000    0.000    0.000 
#    0.000    0.000    0.000    0.000    0.000    0.000 
#
# Total GULP energy -66833.829702 kJ/mol
# GULP energy per Si atom -5569.485809 kJ/mol
# Density = 2.555396 g / cm^3
# Si number density = 25.612253 Si / 1000 Ang^3
#
#
#
# Elastic Constant Matrix: (Units=GPa)
#
#
# Indices 1 2 3 4 5 6 
#
# 1 63.4027 29.5754 29.9114 -9.8990 -4.9442 -19.2587
# 2 29.5754 122.2801 13.5459 5.1475 2.1362 -14.5346
# 3 29.9114 13.5459 114.0648 -17.1586 4.1020 -8.5689
# 4 -9.8990 5.1475 -17.1586 48.8406 -0.7517 -4.1315
# 5 -4.9442 2.1362 4.1020 -0.7517 21.1429 -5.8709
# 6 -19.2587 -14.5346 -8.5689 -4.1315 -5.8709 56.8915
#
#
#
# Elastic Compliance Matrix: (Units=1/GPa)
#
#
# Indices 1 2 3 4 5 6 
#
# 1 0.023913 -0.004713 -0.004819 0.004422 0.009226 0.007438
# 2 -0.004713 0.009501 -0.000083 -0.001976 -0.001986 0.000471
# 3 -0.004819 -0.000083 0.010540 0.002670 -0.003122 -0.000193
# 4 0.004422 -0.001976 0.002670 0.022835 0.002445 0.003305
# 5 0.009226 -0.001986 -0.003122 0.002445 0.052497 0.007741
# 6 0.007438 0.000471 -0.000193 0.003305 0.007741 0.021225
#
#
# Mechanical properties :
#
#
# Convention : Reuss Voigt Hill
#
# Bulk Modulus (GPa) = 40.44613 49.53478 44.99046
# Shear Modulus (GPa) = 29.76489 40.48932 35.12710
#
# Velocity S-wave (km/s) = 3.41271 3.98031 3.70739
# Velocity P-wave (km/s) = 5.59953 6.36444 5.99420
#
# Compressibility (1/GPa) = 0.02472424
#
# Stress axis : x y z
#
# Youngs Moduli (GPa) = 41.81750 105.25268 94.87702
#
# Poissons Ratio (x) = 0.49608 0.45721
# Poissons Ratio (y) = 0.19709 0.00786
# Poissons Ratio (z) = 0.20152 0.00872
#
# Static dielectric constant tensor:
#      x y z
#    x 2.198950 0.014080 0.020530 
#    y 0.014080 2.178940 0.014210 
#    z 0.020530 0.014210 2.048820 
# 
# From -- ./inp_files/19536.got.cif
#   From: 2010.05.17/outbox.cif.g08.bks.cpg/sg2_10_cif.got.tgz:19536.got - 2010.06.03 11:33:40.
