data_PCOD9064241
_publ_section_title
;
Structure prediction by ZEFSAII (Michael W. Deem and Ramdas Pophale) SiO2 
 PCOD9064241
Probable space group: P -1
;
_chemical_formula_sum "Si O2"
_cell_formula_units_Z 16
_cell_length_a 20.267422
_cell_length_b 11.218211
_cell_length_c 8.939580
_cell_angle_alpha 41.523911
_cell_angle_beta 34.666340
_cell_angle_gamma 38.364418
_cell_volume 685.835374
_symmetry_space_group_name_H-M "P -1"
_symmetry_group_IT_number 2
_symmetry_cell_setting 'triclinic'
loop_
_space_group_symop_operation_xyz
x,y,z
-x,-y,-z
loop_
_atom_site_type_symbol
_atom_site_label
_atom_site_fract_x
_atom_site_fract_y
_atom_site_fract_z
Si Si1 0.361054 0.502654 0.250329
Si Si2 0.594998 0.876020 0.303779
Si Si3 0.140699 0.172642 0.620523
Si Si4 0.633464 0.532829 0.069851
Si Si5 0.959495 0.020241 0.770149
Si Si6 0.426919 0.836221 0.388813
Si Si7 0.801783 0.046817 0.764677
Si Si8 0.097840 0.580316 0.375784
O O1 0.344255 0.353529 0.538321
O O2 0.355793 0.430800 0.159327
O O3 0.274912 0.730051 0.242252
O O4 0.500000 0.500000 0.000000
O O5 0.500000 0.000000 0.500000
O O6 0.508435 0.891729 0.305910
O O7 0.704811 0.950678 0.006226
O O8 0.041323 0.295586 0.559464
O O9 0.289358 0.029033 0.435093
O O10 0.123629 0.358959 0.584417
O O11 0.086703 0.040372 0.935570
O O12 0.521693 0.723305 0.180206
O O13 0.779287 0.468141 0.918048
O O14 0.604392 0.340803 0.319897
O O15 0.904140 0.943565 0.806446
O O16 0.902546 0.261876 0.650397
O O17 0.112379 0.944160 0.541833
#
# Coordination Sequence:
#
# PCOD9064241 Si02
#       8
#     2   2   2   2   2   2   2   2
#     4  12  23  44  70 104 149 188 231 301 367 428
#     4  12  25  44  72 107 146 190 239 300 366 440
#     4  11  25  46  74 103 145 197 235 302 365 434
#     4  11  24  45  72 110 148 192 245 299 366 444
#     4  11  24  46  70 101 142 190 241 301 356 433
#     4  11  25  45  75 110 149 189 245 304 368 431
#     4  11  26  43  73 105 139 190 246 291 366 437
#     4  11  25  44  72 103 146 192 246 290 367 438
#
# _framework density 23.329212999999999
#
# number of rings (size 3 to 8) (size 9 to 14) (size 15 to 20)
#    0.000    0.750    5.000    1.125    3.500    5.500 
#    0.000    2.500    0.000    0.000    0.000    0.000 
#    0.000    0.000    0.000    0.000    0.000    0.000 
#
# Total GULP energy -89445.077415 kJ/mol
# GULP energy per Si atom -5590.317338 kJ/mol
# Density = 2.327611 g / cm^3
# Si number density = 23.329213 Si / 1000 Ang^3
#
#
#
# Elastic Constant Matrix: (Units=GPa)
#
#
# Indices 1 2 3 4 5 6 
#
# 1 88.7412 69.8482 47.1721 5.0492 -31.8814 -1.1630
# 2 69.8482 151.1031 72.5810 23.4209 -9.8441 1.6313
# 3 47.1721 72.5810 124.6391 11.4768 -33.0730 -6.8700
# 4 5.0492 23.4209 11.4768 45.5397 0.7574 -4.5688
# 5 -31.8814 -9.8441 -33.0730 0.7574 35.2359 3.8007
# 6 -1.1630 1.6313 -6.8700 -4.5688 3.8007 30.4651
#
#
#
# Elastic Compliance Matrix: (Units=1/GPa)
#
#
# Indices 1 2 3 4 5 6 
#
# 1 0.029961 -0.014372 0.003856 0.002639 0.026672 -0.000149
# 2 -0.014372 0.017024 -0.008294 -0.005024 -0.015695 -0.002126
# 3 0.003856 -0.008294 0.015683 -0.000159 0.015664 0.002150
# 4 0.002639 -0.005024 -0.000159 0.024699 -0.000134 0.004055
# 5 0.026672 -0.015695 0.015664 -0.000134 0.063103 -0.002502
# 6 -0.000149 -0.002126 0.002150 0.004055 -0.002502 0.034338
#
#
# Mechanical properties :
#
#
# Convention : Reuss Voigt Hill
#
# Bulk Modulus (GPa) = 39.92042 82.63175 61.27609
# Shear Modulus (GPa) = 21.66586 33.90695 27.78641
#
# Velocity S-wave (km/s) = 3.05077 3.81650 3.45491
# Velocity P-wave (km/s) = 5.43677 7.41064 6.49908
#
# Compressibility (1/GPa) = 0.02504983
#
# Stress axis : x y z
#
# Youngs Moduli (GPa) = 33.37643 58.73918 63.76345
#
# Poissons Ratio (x) = 0.84418 -0.24587
# Poissons Ratio (y) = 0.47968 0.52883
# Poissons Ratio (z) = -0.12870 0.48716
#
# Static dielectric constant tensor:
#      x y z
#    x 1.986670 -0.033680 -0.036680 
#    y -0.033680 1.882280 -0.023060 
#    z -0.036680 -0.023060 1.840410 
# 
# From -- ./inp_files/475113.got.cif
#   From: 2010.05.17/outbox.cif.g08.bks.cpg/sg2_238_cif.got.tgz:475113.got - 2010.06.03 11:33:40.
