data_PCOD9064648
_publ_section_title
;
Structure prediction by ZEFSAII (Michael W. Deem and Ramdas Pophale) SiO2 
 PCOD9064648
Probable space group: P -1
;
_chemical_formula_sum "Si O2"
_cell_formula_units_Z 16
_cell_length_a 9.628967
_cell_length_b 17.963646
_cell_length_c 13.348913
_cell_angle_alpha 137.339414
_cell_angle_beta 153.039022
_cell_angle_gamma 42.679895
_cell_volume 685.122176
_symmetry_space_group_name_H-M "P -1"
_symmetry_group_IT_number 2
_symmetry_cell_setting 'triclinic'
loop_
_space_group_symop_operation_xyz
x,y,z
-x,-y,-z
loop_
_atom_site_type_symbol
_atom_site_label
_atom_site_fract_x
_atom_site_fract_y
_atom_site_fract_z
Si Si1 0.173452 0.030780 0.375697
Si Si2 0.873208 0.686106 0.075070
Si Si3 0.180561 0.595668 0.747698
Si Si4 0.741828 0.940766 0.316639
Si Si5 0.688886 0.909573 0.949230
Si Si6 0.146713 0.728759 0.659713
Si Si7 0.926507 0.579261 0.214120
Si Si8 0.902545 0.656625 0.849268
O O1 0.223095 0.075910 0.560934
O O2 0.932919 0.135895 0.270241
O O3 0.500000 0.000000 0.500000
O O4 0.045574 0.919103 0.197281
O O5 0.810715 0.818253 0.190489
O O6 0.005332 0.612630 0.185411
O O7 0.516260 0.673829 0.817886
O O8 0.058843 0.663968 0.067534
O O9 0.091941 0.692701 0.701596
O O10 0.000000 0.500000 0.500000
O O11 0.073688 0.639696 0.834777
O O12 0.567398 0.562256 0.966146
O O13 0.424644 0.032909 0.172525
O O14 0.000000 0.000000 0.500000
O O15 0.657217 0.781926 0.811197
O O16 0.500000 0.000000 0.000000
O O17 0.940929 0.678140 0.398884
O O18 0.167165 0.465381 0.299189
#
# Coordination Sequence:
#
# PCOD9064648 Si02
#       8
#     2   2   2   2   2   2   2   2
#     4  12  27  42  71 106 140 189 242 291 357 426
#     4  11  24  46  71 103 139 181 236 289 350 424
#     4  11  26  47  69 102 142 183 232 294 351 419
#     4  12  24  46  72 100 142 193 230 292 359 414
#     4  12  25  48  69 104 147 183 238 294 350 424
#     4  11  24  47  70  98 146 187 224 296 359 412
#     4  11  25  47  72 101 142 183 232 288 363 416
#     4  12  25  45  74 102 141 184 237 289 347 427
#
# _framework density 23.353497999999998
#
# number of rings (size 3 to 8) (size 9 to 14) (size 15 to 20)
#    0.000    0.500    6.250    0.750    3.500    1.000 
#    4.500    0.000    0.000    0.000    0.000    0.000 
#    0.000    0.000    0.000    0.000    0.000    0.000 
#
# Total GULP energy -89333.622655 kJ/mol
# GULP energy per Si atom -5583.351416 kJ/mol
# Density = 2.330034 g / cm^3
# Si number density = 23.353498 Si / 1000 Ang^3
#
#
#
# Elastic Constant Matrix: (Units=GPa)
#
#
# Indices 1 2 3 4 5 6 
#
# 1 169.5087 50.9000 37.7095 -0.8279 -36.2252 15.2165
# 2 50.9000 141.1604 19.3498 2.1613 -10.0867 26.5095
# 3 37.7095 19.3498 90.5992 10.7350 -1.0391 1.6724
# 4 -0.8279 2.1613 10.7350 27.9483 7.3766 -5.9737
# 5 -36.2252 -10.0867 -1.0391 7.3766 32.8992 -7.3022
# 6 15.2165 26.5095 1.6724 -5.9737 -7.3022 39.3991
#
#
#
# Elastic Compliance Matrix: (Units=1/GPa)
#
#
# Indices 1 2 3 4 5 6 
#
# 1 0.009355 -0.002158 -0.003201 -0.000959 0.009669 -0.000379
# 2 -0.002158 0.008984 -0.000746 -0.001509 -0.000529 -0.005507
# 3 -0.003201 -0.000746 0.013023 -0.004405 -0.002336 0.000085
# 4 -0.000959 -0.001509 -0.004405 0.041389 -0.009591 0.006071
# 5 0.009669 -0.000529 -0.002336 -0.009591 0.043705 0.003366
# 6 -0.000379 -0.005507 0.000085 0.006071 0.003366 0.030774
#
#
# Mechanical properties :
#
#
# Convention : Reuss Voigt Hill
#
# Bulk Modulus (GPa) = 52.21548 68.57632 60.39590
# Shear Modulus (GPa) = 30.15237 39.60327 34.87782
#
# Velocity S-wave (km/s) = 3.59713 4.12250 3.86874
# Velocity P-wave (km/s) = 6.29759 7.21722 6.77303
#
# Compressibility (1/GPa) = 0.01915141
#
# Stress axis : x y z
#
# Youngs Moduli (GPa) = 106.89159 111.30991 76.78693
#
# Poissons Ratio (x) = 0.24018 0.24583
# Poissons Ratio (y) = 0.23064 0.05730
# Poissons Ratio (z) = 0.34221 0.08306
#
# Static dielectric constant tensor:
#      x y z
#    x 1.862520 -0.015410 0.011230 
#    y -0.015410 1.896030 -0.066990 
#    z 0.011230 -0.066990 1.985510 
# 
# From -- ./inp_files/403299.got.cif
#   From: 2010.05.17/outbox.cif.g08.bks.cpg/sg2_202_cif.got.tgz:403299.got - 2010.06.03 11:33:40.
