data_PCOD9064917
_publ_section_title
;
Structure prediction by ZEFSAII (Michael W. Deem and Ramdas Pophale) SiO2 
 PCOD9064917
Probable space group: P -1
;
_chemical_formula_sum "Si O2"
_cell_formula_units_Z 13
_cell_length_a 5.145769
_cell_length_b 19.170340
_cell_length_c 21.842133
_cell_angle_alpha 160.781779
_cell_angle_beta 49.335270
_cell_angle_gamma 129.840996
_cell_volume 535.203365
_symmetry_space_group_name_H-M "P -1"
_symmetry_group_IT_number 2
_symmetry_cell_setting 'triclinic'
loop_
_space_group_symop_operation_xyz
x,y,z
-x,-y,-z
loop_
_atom_site_type_symbol
_atom_site_label
_atom_site_fract_x
_atom_site_fract_y
_atom_site_fract_z
Si Si1 0.656438 0.001038 0.895990
Si Si2 0.606354 0.396041 0.542739
Si Si3 0.403462 0.558327 0.994829
Si Si4 0.500000 0.500000 0.500000
Si Si5 0.726215 0.022315 0.299532
Si Si6 0.826090 0.411509 0.699040
Si Si7 0.111701 0.262913 0.139196
O O1 0.607747 0.752307 0.709503
O O2 0.909124 0.041488 0.832250
O O3 0.322476 0.106507 0.014489
O O4 0.825166 0.122128 0.029050
O O5 0.576332 0.425127 0.500047
O O6 0.941983 0.543673 0.643351
O O7 0.241610 0.460582 0.678787
O O8 0.618679 0.159906 0.371603
O O9 0.493319 0.808910 0.174556
O O10 0.500000 0.500000 0.000000
O O11 0.629051 0.429135 0.806747
O O12 0.000000 0.500000 0.000000
O O13 0.756314 0.188286 0.488781
O O14 0.701838 0.593479 0.824331
#
# Coordination Sequence:
#
# PCOD9064917 Si02
#       7
#     2   2   2   1   2   2   2
#     4  12  25  46  76 108 154 206 251 324 369 455
#     4  11  25  49  76 114 153 211 254 319 374 466
#     4  12  31  49  79 117 150 192 259 322 375 472
#     4  12  28  44  74 120 154 198 278 308 368 444
#     4  11  26  47  82 106 160 207 245 312 406 442
#     4  11  25  49  81 109 154 201 255 302 407 450
#     4  11  24  46  76 102 147 214 252 302 392 454
#
# _framework density 24.289832000000001
#
# number of rings (size 3 to 8) (size 9 to 14) (size 15 to 20)
#    0.000    0.615    4.615    0.923    8.615    4.923 
#    0.000    0.000    0.000    0.000    0.000    0.000 
#    0.000    0.000    0.000    0.000    0.000    0.000 
#
# Total GULP energy -72706.540879 kJ/mol
# GULP energy per Si atom -5592.810837 kJ/mol
# Density = 2.423455 g / cm^3
# Si number density = 24.289832 Si / 1000 Ang^3
#
#
#
# Elastic Constant Matrix: (Units=GPa)
#
#
# Indices 1 2 3 4 5 6 
#
# 1 179.5731 75.0887 79.1020 10.3247 31.9749 -21.0465
# 2 75.0887 188.2646 88.2310 0.5157 32.5005 -7.1729
# 3 79.1020 88.2310 190.3375 14.3229 24.7908 -4.2557
# 4 10.3247 0.5157 14.3229 69.3981 -8.5870 10.5167
# 5 31.9749 32.5005 24.7908 -8.5870 45.3265 4.9805
# 6 -21.0465 -7.1729 -4.2557 10.5167 4.9805 46.8935
#
#
#
# Elastic Compliance Matrix: (Units=1/GPa)
#
#
# Indices 1 2 3 4 5 6 
#
# 1 0.008551 -0.001482 -0.001989 -0.002109 -0.004766 0.004410
# 2 -0.001482 0.007638 -0.002530 0.000223 -0.003065 0.000549
# 3 -0.001989 -0.002530 0.007496 -0.001343 -0.001118 -0.000179
# 4 -0.002109 0.000223 -0.001343 0.016526 0.005781 -0.005354
# 5 -0.004766 -0.003065 -0.001118 0.005781 0.030120 -0.007205
# 6 0.004410 0.000549 -0.000179 -0.005354 -0.007205 0.025338
#
#
# Mechanical properties :
#
#
# Convention : Reuss Voigt Hill
#
# Bulk Modulus (GPa) = 85.59096 115.89095 100.74096
# Shear Modulus (GPa) = 44.81695 53.37384 49.09540
#
# Velocity S-wave (km/s) = 4.30011 4.69270 4.50069
# Velocity P-wave (km/s) = 7.74393 8.78506 8.28087
#
# Compressibility (1/GPa) = 0.01168348
#
# Stress axis : x y z
#
# Youngs Moduli (GPa) = 116.94170 130.92538 133.40950
#
# Poissons Ratio (x) = 0.19404 0.26532
# Poissons Ratio (y) = 0.17331 0.33752
# Poissons Ratio (z) = 0.23257 0.33123
#
# Static dielectric constant tensor:
#      x y z
#    x 1.866470 -0.006560 0.112200 
#    y -0.006560 1.840420 0.037550 
#    z 0.112200 0.037550 1.867940 
# 
# From -- ./inp_files/583987.got.cif
#   From: 2010.05.17/outbox.cif.g08.bks.cpg/sg2_292_cif.got.tgz:583987.got - 2010.06.03 11:33:40.
