data_PCOD9064991
_publ_section_title
;
Structure prediction by ZEFSAII (Michael W. Deem and Ramdas Pophale) SiO2 
 PCOD9064991
Probable space group: P -1
;
_chemical_formula_sum "Si O2"
_cell_formula_units_Z 14
_cell_length_a 19.476582
_cell_length_b 14.162734
_cell_length_c 11.007174
_cell_angle_alpha 137.296564
_cell_angle_beta 29.393523
_cell_angle_gamma 156.045037
_cell_volume 575.663492
_symmetry_space_group_name_H-M "P -1"
_symmetry_group_IT_number 2
_symmetry_cell_setting 'triclinic'
loop_
_space_group_symop_operation_xyz
x,y,z
-x,-y,-z
loop_
_atom_site_type_symbol
_atom_site_label
_atom_site_fract_x
_atom_site_fract_y
_atom_site_fract_z
Si Si1 0.853263 0.256604 0.929237
Si Si2 0.328427 0.911590 0.317950
Si Si3 0.706081 0.050221 0.209193
Si Si4 0.083195 0.422668 0.164642
Si Si5 0.095475 0.922446 0.505227
Si Si6 0.493614 0.445753 0.318082
Si Si7 0.374775 0.315879 0.907302
O O1 0.609278 0.118327 0.112582
O O2 0.745374 0.067755 0.021871
O O3 0.995910 0.277510 0.631000
O O4 0.000000 0.500000 0.000000
O O5 0.207171 0.673773 0.223428
O O6 0.283942 0.002935 0.383185
O O7 0.162964 0.792815 0.579865
O O8 0.627530 0.845810 0.203550
O O9 0.500000 0.000000 0.500000
O O10 0.974963 0.309711 0.091858
O O11 0.276463 0.470952 0.962968
O O12 0.242528 0.154067 0.418081
O O13 0.897810 0.841598 0.813532
O O14 0.500000 0.500000 0.500000
O O15 0.519024 0.571147 0.284246
O O16 0.500000 0.500000 0.000000
#
# Coordination Sequence:
#
# PCOD9064991 Si02
#       7
#     2   2   2   2   2   2   2
#     4  12  27  46  80 122 160 207 269 334 410 484
#     4  11  24  46  81 111 155 207 263 327 394 476
#     4  12  28  49  76 113 158 206 268 329 404 481
#     4  11  24  46  80 109 154 203 268 316 400 475
#     4  12  27  51  78 113 163 208 273 332 402 483
#     4  12  28  49  82 114 157 214 276 328 402 487
#     4  12  31  52  80 114 167 217 264 339 420 475
#
# _framework density 24.319763999999999
#
# number of rings (size 3 to 8) (size 9 to 14) (size 15 to 20)
#    0.000    0.286    4.286    3.000    8.000    4.571 
#    0.000    0.000    0.000    0.000    0.000    0.000 
#    0.000    0.000    0.000    0.000    0.000    0.000 
#
# Total GULP energy -78437.141182 kJ/mol
# GULP energy per Si atom -5602.652942 kJ/mol
# Density = 2.426441 g / cm^3
# Si number density = 24.319764 Si / 1000 Ang^3
#
#
#
# Elastic Constant Matrix: (Units=GPa)
#
#
# Indices 1 2 3 4 5 6 
#
# 1 151.8718 41.8783 27.1778 7.8264 22.2361 -37.7437
# 2 41.8783 129.7752 25.1653 12.5589 5.6175 -12.1025
# 3 27.1778 25.1653 76.3709 0.7243 19.1956 -23.6889
# 4 7.8264 12.5589 0.7243 34.7576 -1.0936 0.4357
# 5 22.2361 5.6175 19.1956 -1.0936 39.7456 0.8880
# 6 -37.7437 -12.1025 -23.6889 0.4357 0.8880 43.5469
#
#
#
# Elastic Compliance Matrix: (Units=1/GPa)
#
#
# Indices 1 2 3 4 5 6 
#
# 1 0.010286 -0.002310 0.001635 -0.001836 -0.006476 0.009313
# 2 -0.002310 0.009100 -0.002784 -0.002657 0.001300 -0.000988
# 3 0.001635 -0.002784 0.019573 -0.000236 -0.010237 0.011501
# 4 -0.001836 -0.002657 -0.000236 0.030260 0.002412 -0.002810
# 5 -0.006476 0.001300 -0.010237 0.002412 0.033868 -0.011536
# 6 0.009313 -0.000988 0.011501 -0.002810 -0.011536 0.037281
#
#
# Mechanical properties :
#
#
# Convention : Reuss Voigt Hill
#
# Bulk Modulus (GPa) = 31.21146 60.71784 45.96465
# Shear Modulus (GPa) = 31.65225 41.19646 36.42436
#
# Velocity S-wave (km/s) = 3.61155 4.12023 3.87425
# Velocity P-wave (km/s) = 5.50025 6.90331 6.24133
#
# Compressibility (1/GPa) = 0.03203951
#
# Stress axis : x y z
#
# Youngs Moduli (GPa) = 97.21657 109.89448 51.09185
#
# Poissons Ratio (x) = 0.25383 -0.08351
# Poissons Ratio (y) = 0.22455 0.14226
# Poissons Ratio (z) = -0.15891 0.30598
#
# Static dielectric constant tensor:
#      x y z
#    x 1.941740 0.021320 0.042990 
#    y 0.021320 1.990120 0.025060 
#    z 0.042990 0.025060 1.970760 
# 
# From -- ./inp_files/471954.got.cif
#   From: 2010.05.17/outbox.cif.g08.bks.cpg/sg2_236_cif.got.tgz:471954.got - 2010.06.03 11:33:40.
