data_PCOD9064006
_publ_section_title
;
Structure prediction by ZEFSAII (Michael W. Deem and Ramdas Pophale) SiO2 
 PCOD9064006
Probable space group: P -1
;
_chemical_formula_sum "Si O2"
_cell_formula_units_Z 14
_cell_length_a 7.253714
_cell_length_b 11.888101
_cell_length_c 11.112857
_cell_angle_alpha 48.574989
_cell_angle_beta 113.465514
_cell_angle_gamma 99.047313
_cell_volume 651.219721
_symmetry_space_group_name_H-M "P -1"
_symmetry_group_IT_number 2
_symmetry_cell_setting 'triclinic'
loop_
_space_group_symop_operation_xyz
x,y,z
-x,-y,-z
loop_
_atom_site_type_symbol
_atom_site_label
_atom_site_fract_x
_atom_site_fract_y
_atom_site_fract_z
Si Si1 0.682657 0.799753 0.217291
Si Si2 0.893805 0.160232 0.408742
Si Si3 0.351594 0.961504 0.166434
Si Si4 0.842853 0.613053 0.800498
Si Si5 0.447971 0.140548 0.294098
Si Si6 0.131891 0.741207 0.404527
Si Si7 0.500767 0.481833 0.658065
O O1 0.534734 0.689513 0.204157
O O2 0.905981 0.705210 0.354596
O O3 0.576370 0.867010 0.265343
O O4 0.703082 0.940279 0.036450
O O5 0.662086 0.193330 0.279653
O O6 0.880886 0.157153 0.551349
O O7 0.025851 0.287095 0.315191
O O8 0.000000 0.000000 0.500000
O O9 0.356849 0.074907 0.198333
O O10 0.205017 0.840567 0.245419
O O11 0.699156 0.727332 0.770341
O O12 0.699388 0.527258 0.739733
O O13 0.000000 0.500000 0.000000
O O14 0.500000 0.000000 0.500000
O O15 0.305909 0.598499 0.569561
O O16 0.500000 0.500000 0.500000
#
# Coordination Sequence:
#
# PCOD9064006 Si02
#       7
#     2   2   2   2   2   2   2
#     4  11  26  43  71 103 140 184 233 295 362 414
#     4  12  24  42  77 101 136 188 242 287 355 422
#     4  11  24  45  69 104 144 174 239 301 352 414
#     4  12  29  48  69 110 149 188 237 303 363 423
#     4  12  23  46  74 103 141 186 241 295 349 435
#     4  12  23  44  72 101 135 185 238 287 354 424
#     4  12  25  48  70  98 147 188 237 287 349 438
#
# _framework density 21.49812
#
# number of rings (size 3 to 8) (size 9 to 14) (size 15 to 20)
#    0.000    0.286    5.714    2.571    2.000    2.857 
#    2.571    0.000    0.000    0.000    0.000    0.000 
#    0.000    0.000    0.000    0.000    0.000    0.000 
#
# Total GULP energy -78345.455323 kJ/mol
# GULP energy per Si atom -5596.103952 kJ/mol
# Density = 2.144919 g / cm^3
# Si number density = 21.498120 Si / 1000 Ang^3
#
#
#
# Elastic Constant Matrix: (Units=GPa)
#
#
# Indices 1 2 3 4 5 6 
#
# 1 127.2454 39.2718 28.4214 -4.1966 11.3177 0.8446
# 2 39.2718 103.6505 21.8058 0.2808 3.7283 1.4532
# 3 28.4214 21.8058 68.3151 -12.3353 9.1410 -5.2358
# 4 -4.1966 0.2808 -12.3353 30.4116 4.2101 -1.2647
# 5 11.3177 3.7283 9.1410 4.2101 38.2678 0.8034
# 6 0.8446 1.4532 -5.2358 -1.2647 0.8034 49.1221
#
#
#
# Elastic Compliance Matrix: (Units=1/GPa)
#
#
# Indices 1 2 3 4 5 6 
#
# 1 0.009576 -0.002987 -0.002703 0.000509 -0.001945 -0.000320
# 2 -0.002987 0.011369 -0.002848 -0.001792 0.000667 -0.000646
# 3 -0.002703 -0.002848 0.018890 0.008021 -0.004369 0.002422
# 4 0.000509 -0.001792 0.008021 0.037137 -0.006018 0.001954
# 5 -0.001945 0.000667 -0.004369 -0.006018 0.028370 -0.001071
# 6 -0.000320 -0.000646 0.002422 0.001954 -0.001071 0.020708
#
#
# Mechanical properties :
#
#
# Convention : Reuss Voigt Hill
#
# Bulk Modulus (GPa) = 43.93920 53.13433 48.53677
# Shear Modulus (GPa) = 33.17574 37.54111 35.35843
#
# Velocity S-wave (km/s) = 3.93261 4.18335 4.05992
# Velocity P-wave (km/s) = 6.41121 6.93566 6.67858
#
# Compressibility (1/GPa) = 0.02275872
#
# Stress axis : x y z
#
# Youngs Moduli (GPa) = 104.42533 87.96193 52.93697
#
# Poissons Ratio (x) = 0.26270 0.14310
# Poissons Ratio (y) = 0.31187 0.15079
# Poissons Ratio (z) = 0.28228 0.25056
#
# Static dielectric constant tensor:
#      x y z
#    x 1.832790 0.022930 0.048810 
#    y 0.022930 1.768440 0.013780 
#    z 0.048810 0.013780 1.843120 
# 
# From -- ./inp_files/363741.got.cif
#   From: 2010.05.17/outbox.cif.g08.bks.cpg/sg2_182_cif.got.tgz:363741.got - 2010.06.03 11:33:40.
