data_PCOD9064164
_publ_section_title
;
Structure prediction by ZEFSAII (Michael W. Deem and Ramdas Pophale) SiO2 
 PCOD9064164
Probable space group: P -1
;
_chemical_formula_sum "Si O2"
_cell_formula_units_Z 16
_cell_length_a 9.808173
_cell_length_b 8.883492
_cell_length_c 21.377697
_cell_angle_alpha 152.030391
_cell_angle_beta 59.527817
_cell_angle_gamma 121.609200
_cell_volume 739.415343
_symmetry_space_group_name_H-M "P -1"
_symmetry_group_IT_number 2
_symmetry_cell_setting 'triclinic'
loop_
_space_group_symop_operation_xyz
x,y,z
-x,-y,-z
loop_
_atom_site_type_symbol
_atom_site_label
_atom_site_fract_x
_atom_site_fract_y
_atom_site_fract_z
Si Si1 0.472319 0.974832 0.838999
Si Si2 0.761196 0.898536 0.265993
Si Si3 0.220718 0.645987 0.037671
Si Si4 0.178944 0.947107 0.450490
Si Si5 0.890963 0.923907 0.058241
Si Si6 0.379892 0.255827 0.625963
Si Si7 0.455294 0.114424 0.354366
Si Si8 0.945985 0.754448 0.737975
O O1 0.470986 0.627756 0.744999
O O2 0.537234 0.951007 0.744851
O O3 0.592503 0.254524 0.950182
O O4 0.289836 0.029031 0.897070
O O5 0.735086 0.826098 0.317922
O O6 0.593871 0.964848 0.301626
O O7 0.799713 0.594432 0.105318
O O8 0.904189 0.201924 0.328796
O O9 0.154803 0.970849 0.156560
O O10 0.128183 0.438144 0.040198
O O11 0.162015 0.600641 0.362206
O O12 0.275977 0.219648 0.573649
O O13 0.284081 0.964653 0.369828
O O14 0.000000 0.000000 0.500000
O O15 0.971230 0.159520 0.181973
O O16 0.000000 0.000000 0.000000
O O17 0.500000 0.000000 0.500000
O O18 0.500000 0.500000 0.500000
#
# Coordination Sequence:
#
# PCOD9064164 Si02
#       8
#     2   2   2   2   2   2   2   2
#     4  12  25  44  72 102 136 182 234 278 344 411
#     4  11  24  45  71  94 145 182 223 283 345 411
#     4  11  26  45  68 105 140 179 232 280 351 409
#     4  12  26  44  72 106 136 176 241 287 340 405
#     4  11  25  44  69 100 138 182 229 279 342 410
#     4  12  25  45  69 100 134 183 231 277 342 411
#     4  12  23  45  71  96 140 184 225 286 341 404
#     4  11  25  46  68 103 141 179 224 289 348 405
#
# _framework density 21.638718000000001
#
# number of rings (size 3 to 8) (size 9 to 14) (size 15 to 20)
#    0.000    0.500    5.000    4.125    5.250    2.000 
#    0.000    0.000    0.000    0.000    0.000    0.000 
#    0.000    0.000    0.000    0.000    0.000    0.000 
#
# Total GULP energy -89589.339651 kJ/mol
# GULP energy per Si atom -5599.333728 kJ/mol
# Density = 2.158947 g / cm^3
# Si number density = 21.638718 Si / 1000 Ang^3
#
#
#
# Elastic Constant Matrix: (Units=GPa)
#
#
# Indices 1 2 3 4 5 6 
#
# 1 82.3790 14.0264 9.3067 -7.6951 -17.1385 11.6035
# 2 14.0264 173.8767 48.8931 -26.7960 -12.9040 14.5259
# 3 9.3067 48.8931 53.3474 3.7400 -12.9381 3.0457
# 4 -7.6951 -26.7960 3.7400 49.3073 -1.3654 0.4131
# 5 -17.1385 -12.9040 -12.9381 -1.3654 42.9145 3.7039
# 6 11.6035 14.5259 3.0457 0.4131 3.7039 34.3923
#
#
#
# Elastic Compliance Matrix: (Units=1/GPa)
#
#
# Indices 1 2 3 4 5 6 
#
# 1 0.014565 0.000645 -0.001521 0.002957 0.006142 -0.005749
# 2 0.000645 0.009452 -0.008753 0.005958 0.000962 -0.003609
# 3 -0.001521 -0.008753 0.028690 -0.007040 0.005082 0.001207
# 4 0.002957 0.005958 -0.007040 0.024596 0.001925 -0.003393
# 5 0.006142 0.000962 0.005082 0.001925 0.028154 -0.005984
# 6 -0.005749 -0.003609 0.001207 -0.003393 -0.005984 0.033118
#
#
# Mechanical properties :
#
#
# Convention : Reuss Voigt Hill
#
# Bulk Modulus (GPa) = 29.89831 50.45062 40.17447
# Shear Modulus (GPa) = 29.58863 41.14795 35.36829
#
# Velocity S-wave (km/s) = 3.70184 4.36545 4.04727
# Velocity P-wave (km/s) = 5.66732 6.98392 6.35978
#
# Compressibility (1/GPa) = 0.03344670
#
# Stress axis : x y z
#
# Youngs Moduli (GPa) = 68.65836 105.80162 34.85530
#
# Poissons Ratio (x) = -0.06820 0.05302
# Poissons Ratio (y) = -0.04426 0.30510
# Poissons Ratio (z) = 0.10444 0.92612
#
# Static dielectric constant tensor:
#      x y z
#    x 1.775310 -0.005650 -0.022660 
#    y -0.005650 1.774780 0.012790 
#    z -0.022660 0.012790 1.772180 
# 
# From -- ./inp_files/245147.got.cif
#   From: 2010.05.17/outbox.cif.g08.bks.cpg/sg2_123_cif.got.tgz:245147.got - 2010.06.03 11:33:40.
