data_PCOD9064845
_publ_section_title
;
Structure prediction by ZEFSAII (Michael W. Deem and Ramdas Pophale) SiO2 
 PCOD9064845
Probable space group: P -1
;
_chemical_formula_sum "Si O2"
_cell_formula_units_Z 14
_cell_length_a 8.852395
_cell_length_b 12.999341
_cell_length_c 14.360720
_cell_angle_alpha 148.928332
_cell_angle_beta 46.111925
_cell_angle_gamma 114.495211
_cell_volume 538.673537
_symmetry_space_group_name_H-M "P -1"
_symmetry_group_IT_number 2
_symmetry_cell_setting 'triclinic'
loop_
_space_group_symop_operation_xyz
x,y,z
-x,-y,-z
loop_
_atom_site_type_symbol
_atom_site_label
_atom_site_fract_x
_atom_site_fract_y
_atom_site_fract_z
Si Si1 0.173881 0.898497 0.204485
Si Si2 0.315738 0.139960 0.057265
Si Si3 0.633449 0.211189 0.375918
Si Si4 0.863863 0.436960 0.178827
Si Si5 0.632674 0.881336 0.258024
Si Si6 0.860720 0.507826 0.449473
Si Si7 0.291909 0.726501 0.218322
O O1 0.210806 0.738625 0.155739
O O2 0.413216 0.915661 0.106891
O O3 0.144840 0.774472 0.030399
O O4 0.942641 0.138384 0.512800
O O5 0.221322 0.245078 0.280924
O O6 0.141281 0.349148 0.226476
O O7 0.295486 0.928667 0.860086
O O8 0.346652 0.347301 0.614167
O O9 0.730768 0.390257 0.471709
O O10 0.730057 0.028373 0.274995
O O11 0.799600 0.491055 0.356667
O O12 0.143757 0.362220 0.999902
O O13 0.432083 0.873868 0.274087
O O14 0.500000 0.000000 0.500000
O O15 0.500000 0.500000 0.000000
#
# Coordination Sequence:
#
# PCOD9064845 Si02
#       7
#     2   2   2   2   2   2   2
#     4  11  24  47  69 111 149 184 248 308 356 449
#     4  11  24  46  74 107 147 192 249 297 365 444
#     4  12  26  47  77 105 152 194 243 304 367 435
#     4  12  26  45  76 108 149 188 250 300 371 438
#     4  12  27  48  70 109 142 193 248 300 371 442
#     4  11  25  50  74 109 150 198 244 304 367 443
#     4  11  26  46  74 104 149 195 245 302 375 431
#
# _framework density 25.989765999999999
#
# number of rings (size 3 to 8) (size 9 to 14) (size 15 to 20)
#    0.000    0.571    5.714    0.857    4.000    1.143 
#    0.000    0.000    0.000    0.000    0.000    0.000 
#    0.000    0.000    0.000    0.000    0.000    0.000 
#
# Total GULP energy -78417.250121 kJ/mol
# GULP energy per Si atom -5601.232152 kJ/mol
# Density = 2.593061 g / cm^3
# Si number density = 25.989766 Si / 1000 Ang^3
#
#
#
# Elastic Constant Matrix: (Units=GPa)
#
#
# Indices 1 2 3 4 5 6 
#
# 1 147.5144 25.2280 57.5429 -0.2922 1.2113 -12.0284
# 2 25.2280 56.1026 27.4438 6.4561 -2.9282 -14.0158
# 3 57.5429 27.4438 168.3086 4.6278 -17.9246 -18.4261
# 4 -0.2922 6.4561 4.6278 29.1722 -2.9986 -4.7317
# 5 1.2113 -2.9282 -17.9246 -2.9986 72.3511 -8.5661
# 6 -12.0284 -14.0158 -18.4261 -4.7317 -8.5661 39.7683
#
#
#
# Elastic Compliance Matrix: (Units=1/GPa)
#
#
# Indices 1 2 3 4 5 6 
#
# 1 0.008215 -0.002548 -0.002458 0.001024 -0.000759 0.000406
# 2 -0.002548 0.021788 -0.001835 -0.003501 0.001019 0.005861
# 3 -0.002458 -0.001835 0.007596 -0.000186 0.002145 0.002569
# 4 0.001024 -0.003501 -0.000186 0.035857 0.001710 0.003624
# 5 -0.000759 0.001019 0.002145 0.001710 0.015018 0.004562
# 6 0.000406 0.005861 0.002569 0.003624 0.004562 0.029938
#
#
# Mechanical properties :
#
#
# Convention : Reuss Voigt Hill
#
# Bulk Modulus (GPa) = 41.81040 65.81720 53.81380
# Shear Modulus (GPa) = 35.69745 45.70572 40.70158
#
# Velocity S-wave (km/s) = 3.71012 4.19812 3.96164
# Velocity P-wave (km/s) = 5.87159 6.99130 6.45576
#
# Compressibility (1/GPa) = 0.02391749
#
# Stress axis : x y z
#
# Youngs Moduli (GPa) = 121.73178 45.89657 131.65177
#
# Poissons Ratio (x) = 0.11693 0.32355
# Poissons Ratio (y) = 0.31014 0.24162
# Poissons Ratio (z) = 0.29917 0.08423
#
# Static dielectric constant tensor:
#      x y z
#    x 2.032200 0.000660 0.014830 
#    y 0.000660 2.052890 -0.001010 
#    z 0.014830 -0.001010 2.018420 
# 
# From -- ./inp_files/505682.got.cif
#   From: 2010.05.17/outbox.cif.g08.bks.cpg/sg2_253_cif.got.tgz:505682.got - 2010.06.03 11:33:40.
