data_PCOD9064408
_publ_section_title
;
Structure prediction by ZEFSAII (Michael W. Deem and Ramdas Pophale) SiO2 
 PCOD9064408
Probable space group: P -1
;
_chemical_formula_sum "Si O2"
_cell_formula_units_Z 15
_cell_length_a 15.287863
_cell_length_b 15.145776
_cell_length_c 23.908274
_cell_angle_alpha 19.737056
_cell_angle_beta 19.685235
_cell_angle_gamma 28.449961
_cell_volume 628.545517
_symmetry_space_group_name_H-M "P -1"
_symmetry_group_IT_number 2
_symmetry_cell_setting 'triclinic'
loop_
_space_group_symop_operation_xyz
x,y,z
-x,-y,-z
loop_
_atom_site_type_symbol
_atom_site_label
_atom_site_fract_x
_atom_site_fract_y
_atom_site_fract_z
Si Si1 0.405563 0.400903 0.523950
Si Si2 0.706575 0.466842 0.675179
Si Si3 0.474096 0.215222 0.303521
Si Si4 0.482632 0.953160 0.819467
Si Si5 0.500000 0.500000 0.000000
Si Si6 0.674689 0.987054 0.799634
Si Si7 0.888321 0.831167 0.254745
Si Si8 0.879514 0.242164 0.257163
O O1 0.456144 0.255354 0.638222
O O2 0.157055 0.243211 0.738367
O O3 0.654071 0.342160 0.372472
O O4 0.352167 0.703543 0.371773
O O5 0.544759 0.636676 0.714717
O O6 0.732729 0.596748 0.521433
O O7 0.000000 0.500000 0.500000
O O8 0.578747 0.174728 0.926133
O O9 0.443027 0.404714 0.156398
O O10 0.748190 0.088415 0.203819
O O11 0.252242 0.978544 0.573238
O O12 0.678992 0.910183 0.777236
O O13 0.550645 0.800408 0.813583
O O14 0.189881 0.860320 0.069738
O O15 0.910386 0.894694 0.749481
O O16 0.000000 0.500000 0.000000
#
# Coordination Sequence:
#
# PCOD9064408 Si02
#       8
#     2   2   2   2   1   2   2   2
#     4  11  27  47  70 108 146 194 241 294 365 434
#     4  12  25  45  69 107 137 181 244 293 357 427
#     4  11  25  45  73 104 140 188 239 299 354 430
#     4  12  25  48  71 111 141 193 247 297 359 428
#     4  12  22  46  74 100 144 184 248 290 356 420
#     4  12  27  44  74 103 147 191 234 302 367 424
#     4  11  24  45  75 100 145 185 241 301 354 427
#     4  11  27  48  71 104 147 191 240 293 368 436
#
# _framework density 23.864619999999999
#
# number of rings (size 3 to 8) (size 9 to 14) (size 15 to 20)
#    0.000    0.533    5.333    2.800    5.600    2.667 
#    0.000    0.000    0.000    0.000    0.000    0.000 
#    0.000    0.000    0.000    0.000    0.000    0.000 
#
# Total GULP energy -83738.716592 kJ/mol
# GULP energy per Si atom -5582.581106 kJ/mol
# Density = 2.381030 g / cm^3
# Si number density = 23.864620 Si / 1000 Ang^3
#
#
#
# Elastic Constant Matrix: (Units=GPa)
#
#
# Indices 1 2 3 4 5 6 
#
# 1 76.4487 17.4015 22.9359 -12.4335 18.4472 -15.0055
# 2 17.4015 91.4528 30.2048 -31.0897 -7.3580 -8.4385
# 3 22.9359 30.2048 102.3323 -19.0212 21.3532 -5.8179
# 4 -12.4335 -31.0897 -19.0212 32.9563 -7.0949 0.4448
# 5 18.4472 -7.3580 21.3532 -7.0949 36.7775 -5.2531
# 6 -15.0055 -8.4385 -5.8179 0.4448 -5.2531 41.1867
#
#
#
# Elastic Compliance Matrix: (Units=1/GPa)
#
#
# Indices 1 2 3 4 5 6 
#
# 1 0.016905 -0.002458 -0.000905 0.001876 -0.007433 0.004559
# 2 -0.002458 0.020387 -0.004322 0.018325 0.011927 0.003994
# 3 -0.000905 -0.004322 0.013134 0.001487 -0.007803 -0.000371
# 4 0.001876 0.018325 0.001487 0.051849 0.012679 0.005705
# 5 -0.007433 0.011927 -0.007803 0.012679 0.040810 0.003702
# 6 0.004559 0.003994 -0.000371 0.005705 0.003702 0.027117
#
#
# Mechanical properties :
#
#
# Convention : Reuss Voigt Hill
#
# Bulk Modulus (GPa) = 28.52470 45.70204 37.11337
# Shear Modulus (GPa) = 25.34759 35.49686 30.42222
#
# Velocity S-wave (km/s) = 3.26259 3.86090 3.57428
# Velocity P-wave (km/s) = 5.11579 6.25040 5.71134
#
# Compressibility (1/GPa) = 0.03505733
#
# Stress axis : x y z
#
# Youngs Moduli (GPa) = 59.15411 49.04967 76.13757
#
# Poissons Ratio (x) = 0.12054 0.06889
# Poissons Ratio (y) = 0.14537 0.32909
# Poissons Ratio (z) = 0.05352 0.21201
#
# Static dielectric constant tensor:
#      x y z
#    x 1.962880 -0.035720 0.004260 
#    y -0.035720 1.912890 -0.027350 
#    z 0.004260 -0.027350 1.954070 
# 
# From -- ./inp_files/257272.got.cif
#   From: 2010.05.17/outbox.cif.g08.bks.cpg/sg2_129_cif.got.tgz:257272.got - 2010.06.03 11:33:40.
