data_PCOD9064851
_publ_section_title
;
Structure prediction by ZEFSAII (Michael W. Deem and Ramdas Pophale) SiO2 
 PCOD9064851
Probable space group: P -1
;
_chemical_formula_sum "Si O2"
_cell_formula_units_Z 16
_cell_length_a 15.120898
_cell_length_b 11.454016
_cell_length_c 9.455522
_cell_angle_alpha 50.545957
_cell_angle_beta 125.882673
_cell_angle_gamma 149.527899
_cell_volume 638.146805
_symmetry_space_group_name_H-M "P -1"
_symmetry_group_IT_number 2
_symmetry_cell_setting 'triclinic'
loop_
_space_group_symop_operation_xyz
x,y,z
-x,-y,-z
loop_
_atom_site_type_symbol
_atom_site_label
_atom_site_fract_x
_atom_site_fract_y
_atom_site_fract_z
Si Si1 0.654890 0.167567 0.200412
Si Si2 0.065983 0.101396 0.781763
Si Si3 0.476397 0.500872 0.643775
Si Si4 0.057105 0.357462 0.073080
Si Si5 0.802656 0.265235 0.561141
Si Si6 0.780989 0.507984 0.577317
Si Si7 0.330653 0.016064 0.911358
Si Si8 0.764336 0.880396 0.850483
O O1 0.678283 0.156908 0.393398
O O2 0.386462 0.565947 0.525682
O O3 0.652923 0.019999 0.208940
O O4 0.829213 0.441256 0.096390
O O5 0.079552 0.224433 0.565782
O O6 0.238422 0.232345 0.929130
O O7 0.973466 0.847766 0.843547
O O8 0.957651 0.075805 0.815300
O O9 0.500000 0.500000 0.500000
O O10 0.367112 0.233507 0.789803
O O11 0.640785 0.688286 0.757872
O O12 0.170316 0.480804 0.227145
O O13 0.867331 0.221624 0.036127
O O14 0.775335 0.360690 0.581660
O O15 0.000000 0.500000 0.500000
O O16 0.753160 0.045929 0.743815
O O17 0.516520 0.915822 0.923437
#
# Coordination Sequence:
#
# PCOD9064851 Si02
#       8
#     2   2   2   2   2   2   2   2
#     4  11  26  46  74 109 153 196 247 308 379 448
#     4  11  24  46  74 109 142 194 250 302 368 449
#     4  12  26  46  73 106 148 198 250 309 375 437
#     4  12  25  47  76 108 149 196 254 311 370 446
#     4  12  25  47  75 109 153 195 241 309 378 447
#     4  12  27  45  75 111 147 192 251 306 372 447
#     4  11  25  45  72 107 148 196 249 307 373 440
#     4  11  26  45  76 107 151 195 243 303 380 441
#
# _framework density 25.072600999999999
#
# number of rings (size 3 to 8) (size 9 to 14) (size 15 to 20)
#    0.000    0.500    2.500    5.250    5.250    4.000 
#    0.000    0.000    0.000    0.000    0.000    0.000 
#    0.000    0.000    0.000    0.000    0.000    0.000 
#
# Total GULP energy -89711.653184 kJ/mol
# GULP energy per Si atom -5606.978324 kJ/mol
# Density = 2.501553 g / cm^3
# Si number density = 25.072601 Si / 1000 Ang^3
#
#
#
# Elastic Constant Matrix: (Units=GPa)
#
#
# Indices 1 2 3 4 5 6 
#
# 1 141.7706 42.8724 28.5399 6.4414 13.0413 -17.9796
# 2 42.8724 127.0524 37.0379 8.4832 19.5602 -22.9737
# 3 28.5399 37.0379 86.2569 3.7872 11.9604 -9.1571
# 4 6.4414 8.4832 3.7872 52.0836 -1.8786 -5.2953
# 5 13.0413 19.5602 11.9604 -1.8786 32.1901 -2.3545
# 6 -17.9796 -22.9737 -9.1571 -5.2953 -2.3545 53.9787
#
#
#
# Elastic Compliance Matrix: (Units=1/GPa)
#
#
# Indices 1 2 3 4 5 6 
#
# 1 0.008279 -0.001761 -0.001564 -0.000517 -0.001614 0.001621
# 2 -0.001761 0.010674 -0.002993 -0.001146 -0.004498 0.003140
# 3 -0.001564 -0.002993 0.013826 -0.000381 -0.002678 0.000396
# 4 -0.000517 -0.001146 -0.000381 0.019694 0.002292 0.001307
# 5 -0.001614 -0.004498 -0.002678 0.002292 0.035498 -0.001133
# 6 0.001621 0.003140 0.000396 0.001307 -0.001133 0.020548
#
#
# Mechanical properties :
#
#
# Convention : Reuss Voigt Hill
#
# Bulk Modulus (GPa) = 49.64895 63.55337 56.60116
# Shear Modulus (GPa) = 39.10162 44.09246 41.59704
#
# Velocity S-wave (km/s) = 3.95338 4.19811 4.07758
# Velocity P-wave (km/s) = 6.37840 6.99296 6.69274
#
# Compressibility (1/GPa) = 0.02014141
#
# Stress axis : x y z
#
# Youngs Moduli (GPa) = 120.79059 93.68120 72.32611
#
# Poissons Ratio (x) = 0.16501 0.11314
# Poissons Ratio (y) = 0.21276 0.21650
# Poissons Ratio (z) = 0.18895 0.28043
#
# Static dielectric constant tensor:
#      x y z
#    x 1.989060 0.059780 0.005850 
#    y 0.059780 1.960070 -0.023620 
#    z 0.005850 -0.023620 1.989540 
# 
# From -- ./inp_files/345079.got.cif
#   From: 2010.05.17/outbox.cif.g08.bks.cpg/sg2_173_cif.got.tgz:345079.got - 2010.06.03 11:33:40.
