data_PCOD9064412
_publ_section_title
;
Structure prediction by ZEFSAII (Michael W. Deem and Ramdas Pophale) SiO2 
 PCOD9064412
Probable space group: P -1
;
_chemical_formula_sum "Si O2"
_cell_formula_units_Z 14
_cell_length_a 11.474124
_cell_length_b 12.110167
_cell_length_c 5.076691
_cell_angle_alpha 82.289174
_cell_angle_beta 97.105435
_cell_angle_gamma 126.117462
_cell_volume 563.818883
_symmetry_space_group_name_H-M "P -1"
_symmetry_group_IT_number 2
_symmetry_cell_setting 'triclinic'
loop_
_space_group_symop_operation_xyz
x,y,z
-x,-y,-z
loop_
_atom_site_type_symbol
_atom_site_label
_atom_site_fract_x
_atom_site_fract_y
_atom_site_fract_z
Si Si1 0.933803 0.685244 0.087923
Si Si2 0.782454 0.384135 0.948287
Si Si3 0.882011 0.011219 0.112302
Si Si4 0.633237 0.573025 0.214531
Si Si5 0.834147 0.259117 0.499372
Si Si6 0.471173 0.673821 0.394211
Si Si7 0.292701 0.050694 0.411644
O O1 0.786217 0.671391 0.089624
O O2 0.048307 0.826513 0.928260
O O3 0.006970 0.698155 0.386278
O O4 0.887222 0.546388 0.976172
O O5 0.806836 0.331677 0.702554
O O6 0.620185 0.341143 0.880257
O O7 0.807335 0.311783 0.211624
O O8 0.746341 0.935629 0.899581
O O9 0.824091 0.962007 0.407338
O O10 0.000000 0.000000 0.000000
O O11 0.596131 0.653174 0.372727
O O12 0.634769 0.457068 0.408557
O O13 0.500000 0.500000 0.000000
O O14 0.730438 0.094507 0.532035
O O15 0.550221 0.820427 0.503688
#
# Coordination Sequence:
#
# PCOD9064412 Si02
#       7
#     2   2   2   2   2   2   2
#     4  11  24  45  75 102 142 182 238 296 356 414
#     4  12  25  45  72 103 140 187 239 293 346 410
#     4  11  25  43  71 105 141 187 233 289 353 420
#     4  11  24  47  69 107 141 180 232 290 359 423
#     4  11  26  46  69 104 140 187 240 292 346 409
#     4  11  27  43  74 103 144 188 234 288 356 427
#     4  11  26  46  68 102 145 186 237 285 349 423
#
# _framework density 24.830669
#
# number of rings (size 3 to 8) (size 9 to 14) (size 15 to 20)
#    0.000    0.857    1.429    4.714    4.000    8.000 
#    0.000    0.000    0.000    0.000    0.000    0.000 
#    0.000    0.000    0.000    0.000    0.000    0.000 
#
# Total GULP energy -78467.537177 kJ/mol
# GULP energy per Si atom -5604.824084 kJ/mol
# Density = 2.477415 g / cm^3
# Si number density = 24.830669 Si / 1000 Ang^3
#
#
#
# Elastic Constant Matrix: (Units=GPa)
#
#
# Indices 1 2 3 4 5 6 
#
# 1 61.3857 14.5330 25.1669 4.1955 11.6555 -2.0760
# 2 14.5330 163.5718 37.1314 34.2233 22.0843 -6.2665
# 3 25.1669 37.1314 102.6834 16.7990 12.4878 3.8288
# 4 4.1955 34.2233 16.7990 31.5289 2.4528 -2.2846
# 5 11.6555 22.0843 12.4878 2.4528 41.1724 6.0694
# 6 -2.0760 -6.2665 3.8288 -2.2846 6.0694 36.7013
#
#
#
# Elastic Compliance Matrix: (Units=1/GPa)
#
#
# Indices 1 2 3 4 5 6 
#
# 1 0.018923 -0.000128 -0.004203 0.000362 -0.004364 0.002231
# 2 -0.000128 0.008796 -0.001357 -0.008365 -0.004035 0.001783
# 3 -0.004203 -0.001357 0.012218 -0.004512 -0.001251 -0.001818
# 4 0.000362 -0.008365 -0.004512 0.043009 0.003008 0.001243
# 5 -0.004364 -0.004035 -0.001251 0.003008 0.028678 -0.005361
# 6 0.002231 0.001783 -0.001818 0.001243 -0.005361 0.028831
#
#
# Mechanical properties :
#
#
# Convention : Reuss Voigt Hill
#
# Bulk Modulus (GPa) = 35.01302 53.47817 44.24559
# Shear Modulus (GPa) = 30.98829 38.60119 34.79474
#
# Velocity S-wave (km/s) = 3.53652 3.94709 3.74743
# Velocity P-wave (km/s) = 5.55043 6.50819 6.04830
#
# Compressibility (1/GPa) = 0.02856080
#
# Stress axis : x y z
#
# Youngs Moduli (GPa) = 52.84475 113.68761 81.84927
#
# Poissons Ratio (x) = 0.01457 0.34404
# Poissons Ratio (y) = 0.00677 0.11104
# Poissons Ratio (z) = 0.22212 0.15423
#
# Static dielectric constant tensor:
#      x y z
#    x 2.065140 -0.024830 -0.036510 
#    y -0.024830 1.920760 -0.015110 
#    z -0.036510 -0.015110 1.928920 
# 
# From -- ./inp_files/70071.got.cif
#   From: 2010.05.17/outbox.cif.g08.bks.cpg/sg2_36_cif.got.tgz:70071.got - 2010.06.03 11:33:40.
