data_PCOD9064454
_publ_section_title
;
Structure prediction by ZEFSAII (Michael W. Deem and Ramdas Pophale) SiO2 
 PCOD9064454
Probable space group: P -1
;
_chemical_formula_sum "Si O2"
_cell_formula_units_Z 12
_cell_length_a 11.319718
_cell_length_b 11.554974
_cell_length_c 8.182223
_cell_angle_alpha 97.601740
_cell_angle_beta 61.512693
_cell_angle_gamma 141.360546
_cell_volume 528.078834
_symmetry_space_group_name_H-M "P -1"
_symmetry_group_IT_number 2
_symmetry_cell_setting 'triclinic'
loop_
_space_group_symop_operation_xyz
x,y,z
-x,-y,-z
loop_
_atom_site_type_symbol
_atom_site_label
_atom_site_fract_x
_atom_site_fract_y
_atom_site_fract_z
Si Si1 0.068829 0.588706 0.701568
Si Si2 0.236565 0.430341 0.263534
Si Si3 0.871094 0.243113 0.958514
Si Si4 0.221452 0.308857 0.604404
Si Si5 0.032734 0.948066 0.806910
Si Si6 0.462997 0.160606 0.746573
O O1 0.305720 0.716966 0.478829
O O2 0.939471 0.591993 0.678245
O O3 0.905948 0.360642 0.812519
O O4 0.120737 0.682855 0.861289
O O5 0.187541 0.337767 0.453279
O O6 0.480319 0.675461 0.173194
O O7 0.184917 0.290196 0.143839
O O8 0.085535 0.302956 0.811379
O O9 0.634131 0.997215 0.082674
O O10 0.500000 0.500000 0.500000
O O11 0.106521 0.098540 0.654917
O O12 0.260073 0.031870 0.719263
O O13 0.000000 0.000000 0.000000
#
# Coordination Sequence:
#
# PCOD9064454 Si02
#       6
#     2   2   2   2   2   2
#     4  11  24  48  72 109 150 187 247 296 365 431
#     4  12  26  45  75 105 144 196 240 304 362 430
#     4  11  24  45  76 108 144 195 240 299 361 434
#     4  12  24  48  72 106 151 190 243 302 363 426
#     4  12  25  48  71 105 147 187 251 296 358 439
#     4  12  24  46  77 104 149 191 234 308 360 423
#
# _framework density 22.723880999999999
#
# number of rings (size 3 to 8) (size 9 to 14) (size 15 to 20)
#    0.000    0.333    6.667    1.500    0.000    1.333 
#    3.000    0.000    0.000    0.000    0.000    0.000 
#    0.000    0.000    0.000    0.000    0.000    0.000 
#
# Total GULP energy -67104.568963 kJ/mol
# GULP energy per Si atom -5592.047414 kJ/mol
# Density = 2.267216 g / cm^3
# Si number density = 22.723881 Si / 1000 Ang^3
#
#
#
# Elastic Constant Matrix: (Units=GPa)
#
#
# Indices 1 2 3 4 5 6 
#
# 1 133.9937 35.4575 55.3789 -14.1873 17.9102 -24.4489
# 2 35.4575 165.5488 54.0937 -5.1324 10.4611 -23.4218
# 3 55.3789 54.0937 127.8137 -6.7890 -2.4911 -8.1019
# 4 -14.1873 -5.1324 -6.7890 39.6404 -16.6051 15.3086
# 5 17.9102 10.4611 -2.4911 -16.6051 39.7075 -7.3756
# 6 -24.4489 -23.4218 -8.1019 15.3086 -7.3756 40.0829
#
#
#
# Elastic Compliance Matrix: (Units=1/GPa)
#
#
# Indices 1 2 3 4 5 6 
#
# 1 0.010771 0.000182 -0.004545 -0.000836 -0.004568 0.005236
# 2 0.000182 0.007771 -0.003254 -0.002202 -0.002440 0.004386
# 3 -0.004545 -0.003254 0.011227 0.002671 0.004238 -0.002645
# 4 -0.000836 -0.002202 0.002671 0.035612 0.013727 -0.012332
# 5 -0.004568 -0.002440 0.004238 0.013727 0.033439 -0.002445
# 6 0.005236 0.004386 -0.002645 -0.012332 -0.002445 0.034430
#
#
# Mechanical properties :
#
#
# Convention : Reuss Voigt Hill
#
# Bulk Modulus (GPa) = 68.80339 79.69072 74.24705
# Shear Modulus (GPa) = 32.60898 42.71458 37.66178
#
# Velocity S-wave (km/s) = 3.79226 4.34028 4.07549
# Velocity P-wave (km/s) = 7.03695 7.76290 7.40883
#
# Compressibility (1/GPa) = 0.01453417
#
# Stress axis : x y z
#
# Youngs Moduli (GPa) = 92.84229 128.67729 89.06830
#
# Poissons Ratio (x) = -0.02339 0.40484
# Poissons Ratio (y) = -0.01688 0.28985
# Poissons Ratio (z) = 0.42199 0.41875
#
# Static dielectric constant tensor:
#      x y z
#    x 1.862950 -0.018600 0.001720 
#    y -0.018600 1.884040 -0.003680 
#    z 0.001720 -0.003680 1.836250 
# 
# From -- ./inp_files/254043.got.cif
#   From: 2010.05.17/outbox.cif.g08.bks.cpg/sg2_128_cif.got.tgz:254043.got - 2010.06.03 11:33:40.
