data_PCOD9064411
_publ_section_title
;
Structure prediction by ZEFSAII (Michael W. Deem and Ramdas Pophale) SiO2 
 PCOD9064411
Probable space group: P -1
;
_chemical_formula_sum "Si O2"
_cell_formula_units_Z 16
_cell_length_a 9.410454
_cell_length_b 5.035478
_cell_length_c 20.219820
_cell_angle_alpha 63.276738
_cell_angle_beta 117.918150
_cell_angle_gamma 86.185076
_cell_volume 708.065781
_symmetry_space_group_name_H-M "P -1"
_symmetry_group_IT_number 2
_symmetry_cell_setting 'triclinic'
loop_
_space_group_symop_operation_xyz
x,y,z
-x,-y,-z
loop_
_atom_site_type_symbol
_atom_site_label
_atom_site_fract_x
_atom_site_fract_y
_atom_site_fract_z
Si Si1 0.939151 0.321537 0.090751
Si Si2 0.361251 0.430610 0.525085
Si Si3 0.659959 0.632500 0.896525
Si Si4 0.115133 0.076612 0.458560
Si Si5 0.178788 0.662320 0.159410
Si Si6 0.220712 0.566006 0.725566
Si Si7 0.483828 0.688171 0.285108
Si Si8 0.300313 0.850813 0.839426
O O1 0.810363 0.260413 0.121321
O O2 0.074234 0.433474 0.147052
O O3 0.823244 0.576023 0.984792
O O4 0.041584 0.997418 0.111610
O O5 0.500000 0.500000 0.500000
O O6 0.262335 0.206784 0.500672
O O7 0.456519 0.294266 0.629917
O O8 0.211444 0.760106 0.474075
O O9 0.716658 0.358410 0.884094
O O10 0.499934 0.635956 0.904940
O O11 0.590996 0.964431 0.804461
O O12 0.972184 0.330623 0.354331
O O13 0.000000 0.000000 0.500000
O O14 0.325951 0.560894 0.258498
O O15 0.354316 0.526216 0.698931
O O16 0.237309 0.814549 0.755253
O O17 0.276135 0.214830 0.807764
#
# Coordination Sequence:
#
# PCOD9064411 Si02
#       8
#     2   2   2   2   2   2   2   2
#     4  12  27  43  69 104 144 177 237 292 348 403
#     4  12  29  49  74 111 149 182 232 302 367 419
#     4  11  25  46  72  98 139 190 235 283 341 423
#     4  12  26  48  80 105 140 192 240 291 349 434
#     4  12  25  45  69 101 136 189 230 284 347 419
#     4  11  24  45  75 102 139 181 243 281 339 424
#     4  11  26  45  75 103 137 186 237 283 351 421
#     4  11  25  45  69 105 139 185 230 292 348 404
#
# _framework density 22.596771
#
# number of rings (size 3 to 8) (size 9 to 14) (size 15 to 20)
#    0.000    0.500    3.750    3.375    7.000    3.000 
#    2.250    3.125    0.000    0.000    0.000    0.000 
#    0.000    0.000    0.000    0.000    0.000    0.000 
#
# Total GULP energy -89576.414060 kJ/mol
# GULP energy per Si atom -5598.525879 kJ/mol
# Density = 2.254534 g / cm^3
# Si number density = 22.596771 Si / 1000 Ang^3
#
#
#
# Elastic Constant Matrix: (Units=GPa)
#
#
# Indices 1 2 3 4 5 6 
#
# 1 126.0961 24.3707 19.6974 -14.2217 11.0623 -13.4582
# 2 24.3707 94.6022 -4.8170 -6.9669 6.8122 -2.9167
# 3 19.6974 -4.8170 80.1061 5.1832 25.9682 -0.7473
# 4 -14.2217 -6.9669 5.1832 25.3873 3.8195 16.6772
# 5 11.0623 6.8122 25.9682 3.8195 36.1236 5.4796
# 6 -13.4582 -2.9167 -0.7473 16.6772 5.4796 38.8977
#
#
#
# Elastic Compliance Matrix: (Units=1/GPa)
#
#
# Indices 1 2 3 4 5 6 
#
# 1 0.009473 -0.002061 -0.002213 0.004542 -0.001608 0.001360
# 2 -0.002061 0.011604 0.002112 0.002308 -0.003269 -0.000332
# 3 -0.002213 0.002112 0.017481 -0.004646 -0.012320 0.003456
# 4 0.004542 0.002308 -0.004646 0.059158 -0.001170 -0.023544
# 5 -0.001608 -0.003269 -0.012320 -0.001170 0.038680 -0.005986
# 6 0.001360 -0.000332 0.003456 -0.023544 -0.005986 0.037158
#
#
# Mechanical properties :
#
#
# Convention : Reuss Voigt Hill
#
# Bulk Modulus (GPa) = 29.21067 42.14519 35.67793
# Shear Modulus (GPa) = 26.41444 37.51860 31.96652
#
# Velocity S-wave (km/s) = 3.42270 4.07916 3.76526
# Velocity P-wave (km/s) = 5.34554 6.39356 5.89289
#
# Compressibility (1/GPa) = 0.03423407
#
# Stress axis : x y z
#
# Youngs Moduli (GPa) = 105.56446 86.17562 57.20347
#
# Poissons Ratio (x) = 0.17760 0.12660
# Poissons Ratio (y) = 0.21756 -0.12081
# Poissons Ratio (z) = 0.23364 -0.18199
#
# Static dielectric constant tensor:
#      x y z
#    x 1.857690 0.026690 -0.006140 
#    y 0.026690 1.819570 0.001050 
#    z -0.006140 0.001050 1.839730 
# 
# From -- ./inp_files/585613.got.cif
#   From: 2010.05.17/outbox.cif.g08.bks.cpg/sg2_293_cif.got.tgz:585613.got - 2010.06.03 11:33:40.
