data_PCOD9064327
_publ_section_title
;
Structure prediction by ZEFSAII (Michael W. Deem and Ramdas Pophale) SiO2 
 PCOD9064327
Probable space group: P -1
;
_chemical_formula_sum "Si O2"
_cell_formula_units_Z 14
_cell_length_a 29.959798
_cell_length_b 14.874134
_cell_length_c 23.946983
_cell_angle_alpha 19.969178
_cell_angle_beta 10.994140
_cell_angle_gamma 18.961530
_cell_volume 649.799692
_symmetry_space_group_name_H-M "P -1"
_symmetry_group_IT_number 2
_symmetry_cell_setting 'triclinic'
loop_
_space_group_symop_operation_xyz
x,y,z
-x,-y,-z
loop_
_atom_site_type_symbol
_atom_site_label
_atom_site_fract_x
_atom_site_fract_y
_atom_site_fract_z
Si Si1 0.987263 0.905278 0.311886
Si Si2 0.670922 0.323165 0.657911
Si Si3 0.170391 0.156487 0.674620
Si Si4 0.094690 0.592490 0.246989
Si Si5 0.069144 0.314518 0.268551
Si Si6 0.511495 0.400238 0.607736
Si Si7 0.307912 0.289652 0.697676
O O1 0.010736 0.660972 0.469460
O O2 0.102290 0.737871 0.211954
O O3 0.690850 0.074593 0.574351
O O4 0.100931 0.146960 0.042636
O O5 0.733857 0.487702 0.431818
O O6 0.840763 0.327364 0.500687
O O7 0.763929 0.984691 0.734444
O O8 0.373891 0.473034 0.947469
O O9 0.114243 0.171620 0.669490
O O10 0.057973 0.470287 0.652219
O O11 0.446398 0.983561 0.456036
O O12 0.000000 0.000000 0.000000
O O13 0.253663 0.415163 0.944658
O O14 0.500000 0.500000 0.500000
O O15 0.628051 0.571220 0.406575
#
# Coordination Sequence:
#
# PCOD9064327 Si02
#       7
#     2   2   2   2   2   2   2
#     4  11  26  43  67 100 136 181 220 270 342 401
#     4  11  24  45  73  99 132 176 231 281 328 392
#     4  12  24  42  70  99 130 176 227 279 328 389
#     4  11  24  46  69  96 141 177 220 279 336 397
#     4  11  25  43  69 103 133 175 229 280 333 392
#     4  12  24  43  67  97 141 176 221 275 336 404
#     4  12  26  44  73 101 131 180 228 278 331 399
#
# _framework density 21.545100999999999
#
# number of rings (size 3 to 8) (size 9 to 14) (size 15 to 20)
#    0.000    0.571    4.286    3.000    4.000    2.857 
#    2.571    0.000    0.000    0.000    0.000    0.000 
#    0.000    0.000    0.000    0.000    0.000    0.000 
#
# Total GULP energy -78189.048803 kJ/mol
# GULP energy per Si atom -5584.932057 kJ/mol
# Density = 2.149606 g / cm^3
# Si number density = 21.545101 Si / 1000 Ang^3
#
#
#
# Elastic Constant Matrix: (Units=GPa)
#
#
# Indices 1 2 3 4 5 6 
#
# 1 76.9830 23.6376 16.0462 -16.7530 5.6410 -15.5576
# 2 23.6376 99.2300 16.9734 -0.1219 2.2254 -1.9829
# 3 16.0462 16.9734 62.3663 -8.5208 10.1032 1.2058
# 4 -16.7530 -0.1219 -8.5208 42.2075 -5.4178 5.7777
# 5 5.6410 2.2254 10.1032 -5.4178 18.3743 -4.7602
# 6 -15.5576 -1.9829 1.2058 5.7777 -4.7602 43.5499
#
#
#
# Elastic Compliance Matrix: (Units=1/GPa)
#
#
# Indices 1 2 3 4 5 6 
#
# 1 0.016853 -0.003433 -0.002713 0.005378 -0.000336 0.005189
# 2 -0.003433 0.011303 -0.002495 -0.001725 0.000454 -0.000364
# 3 -0.002713 -0.002495 0.019302 0.001975 -0.009656 -0.002935
# 4 0.005378 -0.001725 0.001975 0.027049 0.005126 -0.001240
# 5 -0.000336 0.000454 -0.009656 0.005126 0.062943 0.006368
# 6 0.005189 -0.000364 -0.002935 -0.001240 0.006368 0.025741
#
#
# Mechanical properties :
#
#
# Convention : Reuss Voigt Hill
#
# Bulk Modulus (GPa) = 33.13842 39.09928 36.11885
# Shear Modulus (GPa) = 26.24251 32.95450 29.59851
#
# Velocity S-wave (km/s) = 3.49381 3.91520 3.71049
# Velocity P-wave (km/s) = 5.62938 6.21494 5.92939
#
# Compressibility (1/GPa) = 0.03017645
#
# Stress axis : x y z
#
# Youngs Moduli (GPa) = 59.33635 88.47592 51.80754
#
# Poissons Ratio (x) = 0.30371 0.14055
# Poissons Ratio (y) = 0.20368 0.12926
# Poissons Ratio (z) = 0.16097 0.22075
#
# Static dielectric constant tensor:
#      x y z
#    x 1.754250 0.006330 -0.028880 
#    y 0.006330 1.534770 -0.310350 
#    z -0.028880 -0.310350 1.452830 
# 
# From -- ./inp_files/218372.got.cif
#   From: 2010.05.17/outbox.cif.g08.bks.cpg/sg2_110_cif.got.tgz:218372.got - 2010.06.03 11:33:40.
