data_PCOD9064945
_publ_section_title
;
Structure prediction by ZEFSAII (Michael W. Deem and Ramdas Pophale) SiO2 
 PCOD9064945
Probable space group: P -1
;
_chemical_formula_sum "Si O2"
_cell_formula_units_Z 16
_cell_length_a 5.460354
_cell_length_b 10.329684
_cell_length_c 24.077795
_cell_angle_alpha 142.613427
_cell_angle_beta 128.097134
_cell_angle_gamma 65.242771
_cell_volume 641.641724
_symmetry_space_group_name_H-M "P -1"
_symmetry_group_IT_number 2
_symmetry_cell_setting 'triclinic'
loop_
_space_group_symop_operation_xyz
x,y,z
-x,-y,-z
loop_
_atom_site_type_symbol
_atom_site_label
_atom_site_fract_x
_atom_site_fract_y
_atom_site_fract_z
Si Si1 0.804033 0.342584 0.321527
Si Si2 0.227503 0.862361 0.450773
Si Si3 0.323687 0.979336 0.712752
Si Si4 0.999011 0.976731 0.838146
Si Si5 0.666862 0.573825 0.989209
Si Si6 0.323165 0.687168 0.514476
Si Si7 0.100512 0.372050 0.778167
Si Si8 0.880203 0.795970 0.875435
O O1 0.800077 0.236011 0.344739
O O2 0.473481 0.270584 0.220175
O O3 0.951606 0.589070 0.428654
O O4 0.035980 0.220486 0.276191
O O5 0.397286 0.736048 0.477687
O O6 0.015199 0.701980 0.324291
O O7 0.500000 0.000000 0.500000
O O8 0.000000 0.000000 0.500000
O O9 0.373665 0.904336 0.631616
O O10 0.087047 0.155111 0.739121
O O11 0.659914 0.060304 0.816577
O O12 0.264462 0.166592 0.919035
O O13 0.065914 0.872226 0.870474
O O14 0.500000 0.500000 0.000000
O O15 0.458806 0.474486 0.874264
O O16 0.000000 0.500000 0.000000
O O17 0.500000 0.500000 0.500000
O O18 0.935471 0.577239 0.839484
O O19 0.000000 0.000000 0.000000
#
# Coordination Sequence:
#
# PCOD9064945 Si02
#       8
#     2   2   2   2   2   2   2   2
#     4  11  25  46  77 108 157 201 273 329 405 485
#     4  12  31  53  79 124 170 213 274 341 416 491
#     4  11  24  46  76 115 149 206 264 333 404 483
#     4  11  24  49  73 110 155 198 271 329 401 493
#     4  12  28  48  80 119 155 208 271 334 407 485
#     4  12  26  47  78 115 156 213 271 332 405 494
#     4  12  27  49  81 114 165 211 267 343 415 475
#     4  11  28  49  75 113 157 210 266 334 416 497
#
# _framework density 24.936036000000001
#
# number of rings (size 3 to 8) (size 9 to 14) (size 15 to 20)
#    0.000    0.500    3.750    2.625    8.750    5.000 
#    0.000    0.000    0.000    0.000    0.000    0.000 
#    0.000    0.000    0.000    0.000    0.000    0.000 
#
# Total GULP energy -89465.268183 kJ/mol
# GULP energy per Si atom -5591.579261 kJ/mol
# Density = 2.487928 g / cm^3
# Si number density = 24.936036 Si / 1000 Ang^3
#
#
#
# Elastic Constant Matrix: (Units=GPa)
#
#
# Indices 1 2 3 4 5 6 
#
# 1 89.0499 39.4922 24.0135 -0.2746 4.0392 9.6996
# 2 39.4922 139.5239 18.0898 2.3208 22.7363 0.0255
# 3 24.0135 18.0898 141.3036 -5.4701 20.5594 2.6941
# 4 -0.2746 2.3208 -5.4701 42.9225 0.7391 -0.3154
# 5 4.0392 22.7363 20.5594 0.7391 20.3154 5.1763
# 6 9.6996 0.0255 2.6941 -0.3154 5.1763 49.9813
#
#
#
# Elastic Compliance Matrix: (Units=1/GPa)
#
#
# Indices 1 2 3 4 5 6 
#
# 1 0.014039 -0.004575 -0.002581 -0.000114 0.005755 -0.003180
# 2 -0.004575 0.010329 0.001212 -0.000204 -0.012405 0.002101
# 3 -0.002581 0.001212 0.008862 0.001230 -0.010131 0.001080
# 4 -0.000114 -0.000204 0.001230 0.023500 -0.001925 0.000304
# 5 0.005755 -0.012405 -0.010131 -0.001925 0.074396 -0.008281
# 6 -0.003180 0.002101 0.001080 0.000304 -0.008281 0.021425
#
#
# Mechanical properties :
#
#
# Convention : Reuss Voigt Hill
#
# Bulk Modulus (GPa) = 46.85471 59.22982 53.04227
# Shear Modulus (GPa) = 29.14545 41.86262 35.50403
#
# Velocity S-wave (km/s) = 3.42249 4.10176 3.77743
# Velocity P-wave (km/s) = 5.86930 6.79977 6.35160
#
# Compressibility (1/GPa) = 0.02134257
#
# Stress axis : x y z
#
# Youngs Moduli (GPa) = 71.22780 96.81080 112.84715
#
# Poissons Ratio (x) = 0.44286 0.29130
# Poissons Ratio (y) = 0.32583 -0.13677
# Poissons Ratio (z) = 0.18387 -0.11733
#
# Static dielectric constant tensor:
#      x y z
#    x 2.068580 -0.070220 0.007780 
#    y -0.070220 2.112800 -0.014350 
#    z 0.007780 -0.014350 2.003550 
# 
# From -- ./inp_files/582635.got.cif
#   From: 2010.05.17/outbox.cif.g08.bks.cpg/sg2_292_cif.got.tgz:582635.got - 2010.06.03 11:33:40.
