data_PCOD9064983
_publ_section_title
;
Structure prediction by ZEFSAII (Michael W. Deem and Ramdas Pophale) SiO2 
 PCOD9064983
Probable space group: P -1
;
_chemical_formula_sum "Si O2"
_cell_formula_units_Z 12
_cell_length_a 5.241072
_cell_length_b 4.962803
_cell_length_c 20.819648
_cell_angle_alpha 110.513948
_cell_angle_beta 59.623286
_cell_angle_gamma 99.854887
_cell_volume 437.548221
_symmetry_space_group_name_H-M "P -1"
_symmetry_group_IT_number 2
_symmetry_cell_setting 'triclinic'
loop_
_space_group_symop_operation_xyz
x,y,z
-x,-y,-z
loop_
_atom_site_type_symbol
_atom_site_label
_atom_site_fract_x
_atom_site_fract_y
_atom_site_fract_z
Si Si1 0.954297 0.267846 0.077190
Si Si2 0.712783 0.783382 0.684539
Si Si3 0.705004 0.136167 0.928908
Si Si4 0.146202 0.007311 0.551936
Si Si5 0.577859 0.292880 0.820356
Si Si6 0.113802 0.497697 0.705068
O O1 0.451653 0.850740 0.118596
O O2 0.644106 0.437555 0.131774
O O3 0.028077 0.095712 0.119308
O O4 0.000000 0.000000 0.000000
O O5 0.952220 0.774644 0.596272
O O6 0.908598 0.743028 0.720010
O O7 0.104727 0.273485 0.628182
O O8 0.545035 0.084702 0.745907
O O9 0.827988 0.463601 0.947678
O O10 0.500000 0.000000 0.000000
O O11 0.552255 0.431095 0.314372
O O12 0.500000 0.000000 0.500000
O O13 0.000000 0.000000 0.500000
O O14 0.921029 0.380965 0.778176
#
# Coordination Sequence:
#
# PCOD9064983 Si02
#       6
#     2   2   2   2   2   2
#     4  12  32  55  84 122 169 222 300 380 465 537
#     4  11  27  50  79 120 170 225 288 351 438 530
#     4  12  32  55  84 122 169 222 300 380 465 537
#     4  11  24  46  78 122 169 218 282 352 425 516
#     4  11  32  52  82 116 169 228 296 368 453 534
#     4  11  27  50  79 120 170 225 288 351 438 530
#
# _framework density 27.425549
#
# number of rings (size 3 to 8) (size 9 to 14) (size 15 to 20)
#    0.000    0.667    0.000    3.000   16.333    6.667 
#    6.000    0.000    0.000    0.000    0.000    0.000 
#    0.000    0.000    0.000    0.000    0.000    0.000 
#
# Total GULP energy -67171.916109 kJ/mol
# GULP energy per Si atom -5597.659676 kJ/mol
# Density = 2.736313 g / cm^3
# Si number density = 27.425549 Si / 1000 Ang^3
#
#
#
# Elastic Constant Matrix: (Units=GPa)
#
#
# Indices 1 2 3 4 5 6 
#
# 1 166.6827 54.3493 53.7628 -26.1545 -33.7086 -5.8753
# 2 54.3493 184.4165 64.0477 -13.4397 -16.1397 -11.2557
# 3 53.7628 64.0477 167.8565 -18.9579 -27.4561 4.0511
# 4 -26.1545 -13.4397 -18.9579 65.1801 15.6767 -0.9940
# 5 -33.7086 -16.1397 -27.4561 15.6767 63.2851 -0.4927
# 6 -5.8753 -11.2557 4.0511 -0.9940 -0.4927 61.9598
#
#
#
# Elastic Compliance Matrix: (Units=1/GPa)
#
#
# Indices 1 2 3 4 5 6 
#
# 1 0.007741 -0.001422 -0.001299 0.001781 0.002761 0.000611
# 2 -0.001422 0.006657 -0.002091 0.000215 -0.000011 0.001215
# 3 -0.001299 -0.002091 0.007589 0.000792 0.001864 -0.000972
# 4 0.001781 0.000215 0.000792 0.017027 -0.002868 0.000406
# 5 0.002761 -0.000011 0.001864 -0.002868 0.018790 0.000241
# 6 0.000611 0.001215 -0.000972 0.000406 0.000241 0.016490
#
#
# Mechanical properties :
#
#
# Convention : Reuss Voigt Hill
#
# Bulk Modulus (GPa) = 80.88602 95.91946 88.40274
# Shear Modulus (GPa) = 56.79255 61.20471 58.99863
#
# Velocity S-wave (km/s) = 4.55553 4.72918 4.64317
# Velocity P-wave (km/s) = 7.56488 8.05423 7.81339
#
# Compressibility (1/GPa) = 0.01236308
#
# Stress axis : x y z
#
# Youngs Moduli (GPa) = 129.17832 150.22563 131.76526
#
# Poissons Ratio (x) = 0.21355 0.17118
# Poissons Ratio (y) = 0.18363 0.27557
# Poissons Ratio (z) = 0.16781 0.31418
#
# Static dielectric constant tensor:
#      x y z
#    x 2.355520 -0.001890 -0.033930 
#    y -0.001890 2.231800 0.043010 
#    z -0.033930 0.043010 2.177180 
# 
# From -- ./inp_files/102445.got.cif
#   From: 2010.05.17/outbox.cif.g08.bks.cpg/sg2_52_cif.got.tgz:102445.got - 2010.06.03 11:33:40.
