data_PCOD9064498
_publ_section_title
;
Structure prediction by ZEFSAII (Michael W. Deem and Ramdas Pophale) SiO2 
 PCOD9064498
Probable space group: P -1
;
_chemical_formula_sum "Si O2"
_cell_formula_units_Z 15
_cell_length_a 15.386938
_cell_length_b 10.544122
_cell_length_c 5.703497
_cell_angle_alpha 115.647464
_cell_angle_beta 132.126775
_cell_angle_gamma 56.017307
_cell_volume 566.550829
_symmetry_space_group_name_H-M "P -1"
_symmetry_group_IT_number 2
_symmetry_cell_setting 'triclinic'
loop_
_space_group_symop_operation_xyz
x,y,z
-x,-y,-z
loop_
_atom_site_type_symbol
_atom_site_label
_atom_site_fract_x
_atom_site_fract_y
_atom_site_fract_z
Si Si1 0.137095 0.477989 0.824341
Si Si2 0.049706 0.759438 0.638122
Si Si3 0.405497 0.672719 0.519464
Si Si4 0.382229 0.273101 0.809134
Si Si5 0.500000 0.000000 0.000000
Si Si6 0.210142 0.925578 0.104238
Si Si7 0.735473 0.456730 0.492035
Si Si8 0.232306 0.071094 0.767528
O O1 0.110005 0.660245 0.898829
O O2 0.246092 0.368254 0.759961
O O3 0.000000 0.500000 0.500000
O O4 0.202642 0.445151 0.167136
O O5 0.145414 0.654252 0.531797
O O6 0.904262 0.783544 0.350603
O O7 0.073825 0.913182 0.818523
O O8 0.500000 0.500000 0.500000
O O9 0.321148 0.755689 0.211791
O O10 0.321243 0.648619 0.555585
O O11 0.492314 0.766042 0.822765
O O12 0.381550 0.403377 0.733813
O O13 0.412016 0.097326 0.680782
O O14 0.367541 0.079566 0.981167
O O15 0.212772 0.997407 0.423616
O O16 0.234716 0.989075 0.953585
#
# Coordination Sequence:
#
# PCOD9064498 Si02
#       8
#     2   2   2   2   1   2   2   2
#     4  11  24  46  71 107 150 192 266 313 390 463
#     4  11  25  46  76 111 146 203 259 326 393 450
#     4  12  22  44  77 114 152 194 261 328 392 454
#     4  11  25  46  71 110 148 206 254 320 387 466
#     4  12  28  52  70 110 164 210 256 316 394 484
#     4  12  26  48  77 116 155 201 265 324 390 464
#     4  11  24  45  80 110 151 199 263 332 386 464
#     4  12  29  49  77 110 162 208 260 317 392 475
#
# _framework density 26.475998000000001
#
# number of rings (size 3 to 8) (size 9 to 14) (size 15 to 20)
#    0.000    0.533    4.000    3.600    3.733    2.667 
#    4.800    0.000    0.000    0.000    0.000    0.000 
#    0.000    0.000    0.000    0.000    0.000    0.000 
#
# Total GULP energy -83506.599126 kJ/mol
# GULP energy per Si atom -5567.106608 kJ/mol
# Density = 2.641574 g / cm^3
# Si number density = 26.475998 Si / 1000 Ang^3
#
#
#
# Elastic Constant Matrix: (Units=GPa)
#
#
# Indices 1 2 3 4 5 6 
#
# 1 109.4028 35.3637 49.6202 -19.3979 18.8959 -19.2561
# 2 35.3637 86.4662 27.2456 -50.0090 -8.2888 -13.8844
# 3 49.6202 27.2456 114.3494 -13.6444 16.8275 -11.2660
# 4 -19.3979 -50.0090 -13.6444 63.4086 0.4646 3.9598
# 5 18.8959 -8.2888 16.8275 0.4646 51.1993 -6.3384
# 6 -19.2561 -13.8844 -11.2660 3.9598 -6.3384 25.9256
#
#
#
# Elastic Compliance Matrix: (Units=1/GPa)
#
#
# Indices 1 2 3 4 5 6 
#
# 1 0.013815 -0.003857 -0.003979 0.000009 -0.003728 0.005554
# 2 -0.003857 0.027380 -0.002765 0.019165 0.007776 0.009571
# 3 -0.003979 -0.002765 0.011422 -0.000920 -0.002724 0.000002
# 4 0.000009 0.019165 -0.000920 0.030275 0.003894 0.006198
# 5 -0.003728 0.007776 -0.002724 0.003894 0.023696 0.005410
# 6 0.005554 0.009571 0.000002 0.006198 0.005410 0.048199
#
#
# Mechanical properties :
#
#
# Convention : Reuss Voigt Hill
#
# Bulk Modulus (GPa) = 31.83106 59.40860 45.61983
# Shear Modulus (GPa) = 26.81539 41.30596 34.06068
#
# Velocity S-wave (km/s) = 3.18593 3.95413 3.59064
# Velocity P-wave (km/s) = 5.05789 6.58288 5.87012
#
# Compressibility (1/GPa) = 0.03141586
#
# Stress axis : x y z
#
# Youngs Moduli (GPa) = 72.38596 36.52254 87.55178
#
# Poissons Ratio (x) = 0.14086 0.34837
# Poissons Ratio (y) = 0.27918 0.24205
# Poissons Ratio (z) = 0.28803 0.10097
#
# Static dielectric constant tensor:
#      x y z
#    x 2.062310 -0.085550 -0.137000 
#    y -0.085550 1.847430 -0.143660 
#    z -0.137000 -0.143660 1.968930 
# 
# From -- ./inp_files/82738.got.cif
#   From: 2010.05.17/outbox.cif.g08.bks.cpg/sg2_42_cif.got.tgz:82738.got - 2010.06.03 11:33:40.
