data_PCOD9064357
_publ_section_title
;
Structure prediction by ZEFSAII (Michael W. Deem and Ramdas Pophale) SiO2 
 PCOD9064357
Probable space group: P -1
;
_chemical_formula_sum "Si O2"
_cell_formula_units_Z 14
_cell_length_a 26.881676
_cell_length_b 24.457601
_cell_length_c 6.745220
_cell_angle_alpha 59.545777
_cell_angle_beta 120.309264
_cell_angle_gamma 170.229462
_cell_volume 648.348562
_symmetry_space_group_name_H-M "P -1"
_symmetry_group_IT_number 2
_symmetry_cell_setting 'triclinic'
loop_
_space_group_symop_operation_xyz
x,y,z
-x,-y,-z
loop_
_atom_site_type_symbol
_atom_site_label
_atom_site_fract_x
_atom_site_fract_y
_atom_site_fract_z
Si Si1 0.314333 0.521832 0.694169
Si Si2 0.300398 0.733830 0.203733
Si Si3 0.697887 0.696881 0.349626
Si Si4 0.246407 0.552493 0.169683
Si Si5 0.319446 0.018226 0.079282
Si Si6 0.871787 0.303773 0.476401
Si Si7 0.335267 0.224684 0.173436
O O1 0.346413 0.607702 0.426397
O O2 0.434955 0.685016 0.834663
O O3 0.498283 0.656817 0.789362
O O4 0.979037 0.139021 0.722676
O O5 0.213421 0.584887 0.151023
O O6 0.035908 0.475722 0.278322
O O7 0.528860 0.947820 0.418562
O O8 0.500000 0.000000 0.000000
O O9 0.500000 0.500000 0.500000
O O10 0.533210 0.467873 0.300283
O O11 0.721872 0.783679 0.093842
O O12 0.000000 0.000000 0.500000
O O13 0.499448 0.823748 0.014812
O O14 0.916479 0.185330 0.100764
O O15 0.119315 0.753575 0.289499
O O16 0.000000 0.500000 0.500000
#
# Coordination Sequence:
#
# PCOD9064357 Si02
#       7
#     2   2   2   2   2   2   2
#     4  12  26  45  68 100 148 178 238 282 348 414
#     4  12  24  43  68  97 135 174 232 297 355 419
#     4  11  24  45  74 104 144 179 234 279 337 405
#     4  12  26  44  68  98 136 183 233 289 353 420
#     4  12  26  44  68  98 136 183 233 289 353 420
#     4  12  24  43  68  97 135 174 232 297 355 419
#     4  11  26  44  70 106 138 188 226 286 338 408
#
# _framework density 21.593322000000001
#
# number of rings (size 3 to 8) (size 9 to 14) (size 15 to 20)
#    0.000    0.286    1.429    7.714    2.000    9.143 
#    0.000    0.000    0.000    0.000    0.000    0.000 
#    0.000    0.000    0.000    0.000    0.000    0.000 
#
# Total GULP energy -78334.953322 kJ/mol
# GULP energy per Si atom -5595.353809 kJ/mol
# Density = 2.154418 g / cm^3
# Si number density = 21.593322 Si / 1000 Ang^3
#
#
#
# Elastic Constant Matrix: (Units=GPa)
#
#
# Indices 1 2 3 4 5 6 
#
# 1 125.4803 43.8648 45.3741 -11.3915 -9.6332 -2.7372
# 2 43.8648 117.8754 40.5456 7.5870 -6.1518 6.4526
# 3 45.3741 40.5456 96.9664 7.0905 -9.6714 -11.6754
# 4 -11.3915 7.5870 7.0905 50.0636 12.1515 1.9515
# 5 -9.6332 -6.1518 -9.6714 12.1515 31.3349 -0.7020
# 6 -2.7372 6.4526 -11.6754 1.9515 -0.7020 47.5501
#
#
#
# Elastic Compliance Matrix: (Units=1/GPa)
#
#
# Indices 1 2 3 4 5 6 
#
# 1 0.010753 -0.002788 -0.004118 0.003420 0.000157 -0.000152
# 2 -0.002788 0.010974 -0.003327 -0.001972 0.000982 -0.002371
# 3 -0.004118 -0.003327 0.014808 -0.003703 0.004178 0.004064
# 4 0.003420 -0.001972 -0.003703 0.024023 -0.009830 -0.001576
# 5 0.000157 0.000982 0.004178 -0.009830 0.037298 0.001856
# 6 -0.000152 -0.002371 0.004064 -0.001576 0.001856 0.022433
#
#
# Mechanical properties :
#
#
# Convention : Reuss Voigt Hill
#
# Bulk Modulus (GPa) = 62.24082 66.65458 64.44770
# Shear Modulus (GPa) = 34.22042 39.82556 37.02299
#
# Velocity S-wave (km/s) = 3.98523 4.29924 4.14521
# Velocity P-wave (km/s) = 7.07551 7.45519 7.26783
#
# Compressibility (1/GPa) = 0.01606663
#
# Stress axis : x y z
#
# Youngs Moduli (GPa) = 93.00092 91.12808 67.53143
#
# Poissons Ratio (x) = 0.25410 0.27811
# Poissons Ratio (y) = 0.25932 0.22468
# Poissons Ratio (z) = 0.38300 0.30319
#
# Static dielectric constant tensor:
#      x y z
#    x 1.790770 -0.050050 0.038090 
#    y -0.050050 1.742000 0.010070 
#    z 0.038090 0.010070 1.829830 
# 
# From -- ./inp_files/127655.got.cif
#   From: 2010.05.17/outbox.cif.g08.bks.cpg/sg2_64_cif.got.tgz:127655.got - 2010.06.03 11:33:40.
