data_PCOD9064678
_publ_section_title
;
Structure prediction by ZEFSAII (Michael W. Deem and Ramdas Pophale) SiO2 
 PCOD9064678
Probable space group: P -1
;
_chemical_formula_sum "Si O2"
_cell_formula_units_Z 10
_cell_length_a 7.881777
_cell_length_b 5.391581
_cell_length_c 11.890610
_cell_angle_alpha 111.695357
_cell_angle_beta 128.390417
_cell_angle_gamma 72.210948
_cell_volume 365.987145
_symmetry_space_group_name_H-M "P -1"
_symmetry_group_IT_number 2
_symmetry_cell_setting 'triclinic'
loop_
_space_group_symop_operation_xyz
x,y,z
-x,-y,-z
loop_
_atom_site_type_symbol
_atom_site_label
_atom_site_fract_x
_atom_site_fract_y
_atom_site_fract_z
Si Si1 0.957393 0.853046 0.098876
Si Si2 0.332140 0.426539 0.225771
Si Si3 0.120745 0.345663 0.351013
Si Si4 0.732749 0.692327 0.365669
Si Si5 0.397041 0.220501 0.905522
O O1 0.844567 0.718355 0.134194
O O2 0.193323 0.692313 0.161199
O O3 0.801729 0.803984 0.922450
O O4 0.971150 0.153692 0.192266
O O5 0.292002 0.421981 0.341755
O O6 0.575912 0.460142 0.291872
O O7 0.232047 0.183028 0.477025
O O8 0.036632 0.423794 0.613021
O O9 0.618592 0.862488 0.244923
O O10 0.500000 0.500000 0.000000
O O11 0.500000 0.000000 0.000000
#
# Coordination Sequence:
#
# PCOD9064678 Si02
#       5
#     2   2   2   2   2
#     4  11  25  43  72 106 150 194 253 311 378 444
#     4  11  24  46  71 108 150 192 255 311 374 453
#     4  11  25  48  72 109 153 195 254 308 385 455
#     4  11  25  48  74 108 149 202 246 316 382 456
#     4  12  25  47  77 112 147 201 259 311 381 457
#
# _framework density 27.323361999999999
#
# number of rings (size 3 to 8) (size 9 to 14) (size 15 to 20)
#    0.000    0.800    4.000    2.400    0.000    3.200 
#    3.600    0.000    0.000    0.000    0.000    0.000 
#    0.000    0.000    0.000    0.000    0.000    0.000 
#
# Total GULP energy -55973.993113 kJ/mol
# GULP energy per Si atom -5597.399311 kJ/mol
# Density = 2.726117 g / cm^3
# Si number density = 27.323362 Si / 1000 Ang^3
#
#
#
# Elastic Constant Matrix: (Units=GPa)
#
#
# Indices 1 2 3 4 5 6 
#
# 1 91.1556 13.8894 55.2835 -24.2326 -19.0298 40.7399
# 2 13.8894 116.9196 49.0089 -25.3067 -8.4748 15.4022
# 3 55.2835 49.0089 153.9427 -39.4850 -23.8805 19.7500
# 4 -24.2326 -25.3067 -39.4850 51.3617 19.2829 -7.1540
# 5 -19.0298 -8.4748 -23.8805 19.2829 43.5036 -9.5747
# 6 40.7399 15.4022 19.7500 -7.1540 -9.5747 47.9056
#
#
#
# Elastic Compliance Matrix: (Units=1/GPa)
#
#
# Indices 1 2 3 4 5 6 
#
# 1 0.023442 0.003113 -0.005557 0.005274 0.001613 -0.017535
# 2 0.003113 0.010910 -0.003097 0.004246 -0.001077 -0.004459
# 3 -0.005557 -0.003097 0.010330 0.003521 0.001583 0.002305
# 4 0.005274 0.004246 0.003521 0.029496 -0.009043 -0.004704
# 5 0.001613 -0.001077 0.001583 -0.009043 0.028968 0.002761
# 6 -0.017535 -0.004459 0.002305 -0.004704 0.002761 0.036120
#
#
# Mechanical properties :
#
#
# Convention : Reuss Voigt Hill
#
# Bulk Modulus (GPa) = 29.76170 66.48686 48.12428
# Shear Modulus (GPa) = 30.95081 44.80992 37.88036
#
# Velocity S-wave (km/s) = 3.36930 4.05407 3.72744
# Velocity P-wave (km/s) = 5.10415 6.80442 6.01467
#
# Compressibility (1/GPa) = 0.03360023
#
# Stress axis : x y z
#
# Youngs Moduli (GPa) = 42.65908 91.66179 96.80261
#
# Poissons Ratio (x) = -0.28533 0.53790
# Poissons Ratio (y) = -0.13279 0.29978
# Poissons Ratio (z) = 0.23704 0.28386
#
# Static dielectric constant tensor:
#      x y z
#    x 2.194350 -0.050480 0.021060 
#    y -0.050480 2.117220 -0.041240 
#    z 0.021060 -0.041240 2.168360 
# 
# From -- ./inp_files/372164.got.cif
#   From: 2010.05.17/outbox.cif.g08.bks.cpg/sg2_187_cif.got.tgz:372164.got - 2010.06.03 11:33:40.
