data_PCOD9064227
_publ_section_title
;
Structure prediction by ZEFSAII (Michael W. Deem and Ramdas Pophale) SiO2 
 PCOD9064227
Probable space group: P -1
;
_chemical_formula_sum "Si O2"
_cell_formula_units_Z 15
_cell_length_a 23.288575
_cell_length_b 5.880713
_cell_length_c 14.905923
_cell_angle_alpha 124.849346
_cell_angle_beta 158.676615
_cell_angle_gamma 54.763442
_cell_volume 602.335426
_symmetry_space_group_name_H-M "P -1"
_symmetry_group_IT_number 2
_symmetry_cell_setting 'triclinic'
loop_
_space_group_symop_operation_xyz
x,y,z
-x,-y,-z
loop_
_atom_site_type_symbol
_atom_site_label
_atom_site_fract_x
_atom_site_fract_y
_atom_site_fract_z
Si Si1 0.527216 0.696175 0.377894
Si Si2 0.873280 0.749261 0.836888
Si Si3 0.500000 0.500000 0.500000
Si Si4 0.787432 0.788072 0.189707
Si Si5 0.879664 0.844407 0.671250
Si Si6 0.759117 0.811928 0.952182
Si Si7 0.028398 0.804265 0.699449
Si Si8 0.535405 0.143767 0.177337
O O1 0.705054 0.770325 0.646565
O O2 0.497080 0.549234 0.395531
O O3 0.511668 0.481233 0.225664
O O4 0.410914 0.988170 0.264236
O O5 0.842958 0.693173 0.674715
O O6 0.000000 0.500000 0.000000
O O7 0.968757 0.008479 0.047597
O O8 0.695873 0.517040 0.788049
O O9 0.833196 0.447475 0.184021
O O10 0.900240 0.876311 0.450801
O O11 0.817496 0.863576 0.148786
O O12 0.606292 0.916258 0.976795
O O13 0.938453 0.699414 0.630706
O O14 0.714161 0.041273 0.449307
O O15 0.889182 0.920074 0.103131
O O16 0.500000 0.000000 0.000000
#
# Coordination Sequence:
#
# PCOD9064227 Si02
#       8
#     2   2   1   2   2   2   2   2
#     4  12  26  47  73 107 142 195 248 303 365 438
#     4  11  25  44  69 102 147 188 241 292 370 435
#     4  12  26  42  76 100 146 180 240 306 358 432
#     4  11  24  46  72 103 148 185 244 309 356 436
#     4  11  25  45  72 104 145 189 238 301 360 441
#     4  12  24  45  72 109 141 192 239 307 367 435
#     4  11  24  45  72 106 144 189 242 302 368 429
#     4  12  23  49  75 101 146 195 239 298 361 435
#
# _framework density 24.903065000000002
#
# number of rings (size 3 to 8) (size 9 to 14) (size 15 to 20)
#    0.000    0.533    5.333    2.400    0.000    4.267 
#    0.000    5.333    0.000    0.000    0.000    0.000 
#    0.000    0.000    0.000    0.000    0.000    0.000 
#
# Total GULP energy -83633.694947 kJ/mol
# GULP energy per Si atom -5575.579663 kJ/mol
# Density = 2.484638 g / cm^3
# Si number density = 24.903065 Si / 1000 Ang^3
#
#
#
# Elastic Constant Matrix: (Units=GPa)
#
#
# Indices 1 2 3 4 5 6 
#
# 1 120.4468 20.5638 48.4979 -12.9487 -2.7839 11.7510
# 2 20.5638 42.8281 26.8131 -16.7662 7.8432 -17.1044
# 3 48.4979 26.8131 126.6598 -9.5807 1.4598 -5.5729
# 4 -12.9487 -16.7662 -9.5807 42.6102 -4.5340 3.3716
# 5 -2.7839 7.8432 1.4598 -4.5340 58.3813 -0.0107
# 6 11.7510 -17.1044 -5.5729 3.3716 -0.0107 34.3405
#
#
#
# Elastic Compliance Matrix: (Units=1/GPa)
#
#
# Indices 1 2 3 4 5 6 
#
# 1 0.011703 -0.006563 -0.003382 0.001011 0.001601 -0.007921
# 2 -0.006563 0.044042 -0.004871 0.011931 -0.005177 0.022219
# 3 -0.003382 -0.004871 0.010188 -0.000669 0.000186 0.000451
# 4 0.001011 0.011931 -0.000669 0.028174 0.000651 0.002722
# 5 0.001601 -0.005177 0.000186 0.000651 0.017946 -0.003155
# 6 -0.007921 0.022219 0.000451 0.002722 -0.003155 0.042702
#
#
# Mechanical properties :
#
#
# Convention : Reuss Voigt Hill
#
# Bulk Modulus (GPa) = 27.54672 53.52048 40.53360
# Shear Modulus (GPa) = 25.44676 40.00372 32.72524
#
# Velocity S-wave (km/s) = 3.20008 4.01231 3.62899
# Velocity P-wave (km/s) = 4.97389 6.55767 5.81991
#
# Compressibility (1/GPa) = 0.03630196
#
# Stress axis : x y z
#
# Youngs Moduli (GPa) = 85.44607 22.70547 98.15033
#
# Poissons Ratio (x) = 0.14901 0.33198
# Poissons Ratio (y) = 0.56076 0.47808
# Poissons Ratio (z) = 0.28901 0.11060
#
# Static dielectric constant tensor:
#      x y z
#    x 1.987200 0.015740 -0.029100 
#    y 0.015740 2.254710 0.221730 
#    z -0.029100 0.221730 2.105970 
# 
# From -- ./inp_files/542254.got.cif
#   From: 2010.05.17/outbox.cif.g08.bks.cpg/sg2_272_cif.got.tgz:542254.got - 2010.06.03 11:33:40.
