data_PCOD9064516
_publ_section_title
;
Structure prediction by ZEFSAII (Michael W. Deem and Ramdas Pophale) SiO2 
 PCOD9064516
Probable space group: P -1
;
_chemical_formula_sum "Si O2"
_cell_formula_units_Z 16
_cell_length_a 28.186571
_cell_length_b 12.087694
_cell_length_c 8.039966
_cell_angle_alpha 127.263377
_cell_angle_beta 144.918798
_cell_angle_gamma 28.918163
_cell_volume 698.162338
_symmetry_space_group_name_H-M "P -1"
_symmetry_group_IT_number 2
_symmetry_cell_setting 'triclinic'
loop_
_space_group_symop_operation_xyz
x,y,z
-x,-y,-z
loop_
_atom_site_type_symbol
_atom_site_label
_atom_site_fract_x
_atom_site_fract_y
_atom_site_fract_z
Si Si1 0.576863 0.530849 0.818074
Si Si2 0.649527 0.864676 0.859613
Si Si3 0.849054 0.131892 0.733446
Si Si4 0.022227 0.630324 0.643523
Si Si5 0.955899 0.409127 0.731118
Si Si6 0.641293 0.742305 0.083423
Si Si7 0.477338 0.372898 0.875127
Si Si8 0.873710 0.077760 0.138363
O O1 0.500000 0.500000 0.500000
O O2 0.599550 0.636573 0.865198
O O3 0.506887 0.664469 0.915043
O O4 0.747404 0.251576 0.072663
O O5 0.601477 0.093424 0.905230
O O6 0.500000 0.000000 0.500000
O O7 0.808614 0.588240 0.998439
O O8 0.659107 0.801172 0.018790
O O9 0.697067 0.404648 0.467125
O O10 0.827206 0.181398 0.913429
O O11 0.897578 0.906966 0.613822
O O12 0.000000 0.000000 0.000000
O O13 0.022338 0.643572 0.453806
O O14 0.000000 0.500000 0.500000
O O15 0.794142 0.570618 0.456536
O O16 0.068238 0.157237 0.923557
O O17 0.000000 0.500000 0.000000
O O18 0.500000 0.000000 0.000000
O O19 0.500000 0.500000 0.000000
O O20 0.000000 0.000000 0.500000
#
# Coordination Sequence:
#
# PCOD9064516 Si02
#       8
#     2   2   2   2   2   2   2   2
#     4  12  27  45  75 103 142 191 240 296 363 425
#     4  11  26  43  73 100 142 187 232 288 362 423
#     4  12  26  43  72 100 141 184 237 291 360 419
#     4  11  24  46  67 105 142 182 234 292 353 433
#     4  11  25  43  74 103 140 186 239 293 358 426
#     4  11  25  47  69 102 143 182 241 293 353 432
#     4  12  26  47  69 108 145 185 238 296 358 439
#     4  12  25  46  71 102 141 186 241 296 351 430
#
# _framework density 22.917304999999999
#
# number of rings (size 3 to 8) (size 9 to 14) (size 15 to 20)
#    0.000    0.500    2.500    5.250    7.000    3.000 
#    0.000    0.000    0.000    0.000    0.000    0.000 
#    0.000    0.000    0.000    0.000    0.000    0.000 
#
# Total GULP energy -89245.717623 kJ/mol
# GULP energy per Si atom -5577.857351 kJ/mol
# Density = 2.286514 g / cm^3
# Si number density = 22.917305 Si / 1000 Ang^3
#
#
#
# Elastic Constant Matrix: (Units=GPa)
#
#
# Indices 1 2 3 4 5 6 
#
# 1 54.8441 9.3489 -2.8404 6.0298 3.1797 7.4662
# 2 9.3489 112.2717 15.7063 9.4160 5.1105 16.3965
# 3 -2.8404 15.7063 74.7088 8.2950 8.6984 5.5334
# 4 6.0298 9.4160 8.2950 38.7629 5.4838 8.0478
# 5 3.1797 5.1105 8.6984 5.4838 43.3433 6.7494
# 6 7.4662 16.3965 5.5334 8.0478 6.7494 44.6159
#
#
#
# Elastic Compliance Matrix: (Units=1/GPa)
#
#
# Indices 1 2 3 4 5 6 
#
# 1 0.019160 -0.001221 0.001531 -0.002391 -0.000896 -0.002381
# 2 -0.001221 0.009787 -0.001742 -0.001188 -0.000106 -0.002946
# 3 0.001531 -0.001742 0.014403 -0.002434 -0.002396 -0.000601
# 4 -0.002391 -0.001188 -0.002434 0.028033 -0.002184 -0.003588
# 5 -0.000896 -0.000106 -0.002396 -0.002184 0.024343 -0.002803
# 6 -0.002381 -0.002946 -0.000601 -0.003588 -0.002803 0.025040
#
#
# Mechanical properties :
#
#
# Convention : Reuss Voigt Hill
#
# Bulk Modulus (GPa) = 24.69869 31.80601 28.25235
# Shear Modulus (GPa) = 36.46311 39.98507 38.22409
#
# Velocity S-wave (km/s) = 3.99315 4.18156 4.08844
# Velocity P-wave (km/s) = 5.66225 6.10103 5.88573
#
# Compressibility (1/GPa) = 0.04048797
#
# Stress axis : x y z
#
# Youngs Moduli (GPa) = 52.19276 102.17667 69.42834
#
# Poissons Ratio (x) = 0.12472 -0.10630
# Poissons Ratio (y) = 0.06371 0.12091
# Poissons Ratio (z) = -0.07991 0.17794
#
# Static dielectric constant tensor:
#      x y z
#    x 1.810480 0.004260 -0.012230 
#    y 0.004260 1.996520 0.033290 
#    z -0.012230 0.033290 2.098590 
# 
# From -- ./inp_files/206933.got.cif
#   From: 2010.05.17/outbox.cif.g08.bks.cpg/sg2_104_cif.got.tgz:206933.got - 2010.06.03 11:33:40.
