data_PCOD9064632
_publ_section_title
;
Structure prediction by ZEFSAII (Michael W. Deem and Ramdas Pophale) SiO2 
 PCOD9064632
Probable space group: P -1
;
_chemical_formula_sum "Si O2"
_cell_formula_units_Z 12
_cell_length_a 16.076634
_cell_length_b 6.957850
_cell_length_c 13.653912
_cell_angle_alpha 138.399799
_cell_angle_beta 145.992129
_cell_angle_gamma 61.037600
_cell_volume 527.950974
_symmetry_space_group_name_H-M "P -1"
_symmetry_group_IT_number 2
_symmetry_cell_setting 'triclinic'
loop_
_space_group_symop_operation_xyz
x,y,z
-x,-y,-z
loop_
_atom_site_type_symbol
_atom_site_label
_atom_site_fract_x
_atom_site_fract_y
_atom_site_fract_z
Si Si1 0.230420 0.118797 0.716822
Si Si2 0.253374 0.818530 0.985274
Si Si3 0.571737 0.193299 0.320430
Si Si4 0.099798 0.047642 0.771139
Si Si5 0.645451 0.874166 0.595803
Si Si6 0.817720 0.356529 0.801370
O O1 0.180810 0.993049 0.729852
O O2 0.372377 0.028889 0.778503
O O3 0.259863 0.483162 0.884510
O O4 0.075437 0.972917 0.440088
O O5 0.404998 0.011333 0.140434
O O6 0.263288 0.997010 0.164518
O O7 0.103898 0.816906 0.774082
O O8 0.578876 0.502814 0.389128
O O9 0.699570 0.311177 0.578287
O O10 0.195359 0.390404 0.037634
O O11 0.500000 0.000000 0.500000
O O12 0.762650 0.030153 0.680139
O O13 0.000000 0.500000 0.000000
#
# Coordination Sequence:
#
# PCOD9064632 Si02
#       6
#     2   2   2   2   2   2
#     4  11  26  46  67 103 144 185 229 286 352 416
#     4  12  24  44  74 101 139 189 231 287 352 415
#     4  12  26  44  74 107 135 180 244 288 343 417
#     4  11  24  46  70  98 145 187 229 282 356 420
#     4  12  25  45  74 103 141 184 233 292 353 409
#     4  12  24  46  73 105 139 180 239 293 344 416
#
# _framework density 22.729382000000001
#
# number of rings (size 3 to 8) (size 9 to 14) (size 15 to 20)
#    0.000    0.333    6.667    2.500    0.000    2.667 
#    6.000    0.000    0.000    0.000    0.000    0.000 
#    0.000    0.000    0.000    0.000    0.000    0.000 
#
# Total GULP energy -67225.194591 kJ/mol
# GULP energy per Si atom -5602.099549 kJ/mol
# Density = 2.267765 g / cm^3
# Si number density = 22.729382 Si / 1000 Ang^3
#
#
#
# Elastic Constant Matrix: (Units=GPa)
#
#
# Indices 1 2 3 4 5 6 
#
# 1 67.7947 16.3282 -6.5601 -8.1037 7.6374 11.8605
# 2 16.3282 102.2396 -2.9626 5.8677 -12.0589 19.8124
# 3 -6.5601 -2.9626 42.1639 -6.7616 -5.5471 2.9283
# 4 -8.1037 5.8677 -6.7616 47.7525 2.2197 -2.1497
# 5 7.6374 -12.0589 -5.5471 2.2197 33.0714 13.3794
# 6 11.8605 19.8124 2.9283 -2.1497 13.3794 26.0530
#
#
#
# Elastic Compliance Matrix: (Units=1/GPa)
#
#
# Indices 1 2 3 4 5 6 
#
# 1 0.017136 -0.002187 0.003090 0.003508 -0.002481 -0.004921
# 2 -0.002187 0.016020 0.003591 -0.003418 0.015124 -0.019639
# 3 0.003090 0.003591 0.027034 0.002919 0.009769 -0.011952
# 4 0.003508 -0.003418 0.002919 0.022849 -0.005221 0.005241
# 5 -0.002481 0.015124 0.009769 -0.005221 0.054439 -0.039857
# 6 -0.004921 -0.019639 -0.011952 0.005241 -0.039857 0.077803
#
#
# Mechanical properties :
#
#
# Convention : Reuss Voigt Hill
#
# Bulk Modulus (GPa) = 14.45566 25.08992 19.77279
# Shear Modulus (GPa) = 21.80049 35.06823 28.43436
#
# Velocity S-wave (km/s) = 3.10035 3.93219 3.54078
# Velocity P-wave (km/s) = 4.38063 5.62838 5.04324
#
# Compressibility (1/GPa) = 0.06917706
#
# Stress axis : x y z
#
# Youngs Moduli (GPa) = 58.35622 62.42141 36.99107
#
# Poissons Ratio (x) = 0.13655 -0.11432
# Poissons Ratio (y) = 0.12765 -0.13282
# Poissons Ratio (z) = -0.18034 -0.22414
#
# Static dielectric constant tensor:
#      x y z
#    x 1.816940 -0.009660 0.004190 
#    y -0.009660 1.865780 -0.013240 
#    z 0.004190 -0.013240 1.843440 
# 
# From -- ./inp_files/17255.got.cif
#   From: 2010.05.17/outbox.cif.g08.bks.cpg/sg2_9_cif.got.tgz:17255.got - 2010.06.03 11:33:40.
