data_PCOD9064519
_publ_section_title
;
Structure prediction by ZEFSAII (Michael W. Deem and Ramdas Pophale) SiO2 
 PCOD9064519
Probable space group: P -1
;
_chemical_formula_sum "Si O2"
_cell_formula_units_Z 16
_cell_length_a 18.249600
_cell_length_b 8.963462
_cell_length_c 5.725272
_cell_angle_alpha 53.464373
_cell_angle_beta 95.744311
_cell_angle_gamma 76.545574
_cell_volume 696.893138
_symmetry_space_group_name_H-M "P -1"
_symmetry_group_IT_number 2
_symmetry_cell_setting 'triclinic'
loop_
_space_group_symop_operation_xyz
x,y,z
-x,-y,-z
loop_
_atom_site_type_symbol
_atom_site_label
_atom_site_fract_x
_atom_site_fract_y
_atom_site_fract_z
Si Si1 0.188021 0.027618 0.282710
Si Si2 0.007071 0.088536 0.168904
Si Si3 0.546279 0.648485 0.326006
Si Si4 0.303771 0.918507 0.801612
Si Si5 0.216234 0.293879 0.694134
Si Si6 0.707490 0.377966 0.576272
Si Si7 0.437247 0.027101 0.654022
Si Si8 0.952868 0.511039 0.724740
O O1 0.221504 0.962763 0.607743
O O2 0.237051 0.827937 0.336625
O O3 0.095197 0.087203 0.190665
O O4 0.202695 0.223065 0.013636
O O5 0.000000 0.000000 0.500000
O O6 0.940115 0.304571 0.933961
O O7 0.000000 0.000000 0.000000
O O8 0.500000 0.500000 0.500000
O O9 0.623170 0.524999 0.307677
O O10 0.579668 0.754483 0.443432
O O11 0.480285 0.845898 0.014161
O O12 0.364491 0.964433 0.604645
O O13 0.287854 0.100104 0.807097
O O14 0.323379 0.706885 0.126450
O O15 0.240815 0.484405 0.508195
O O16 0.134287 0.326904 0.497267
O O17 0.500000 0.000000 0.500000
O O18 0.000000 0.500000 0.500000
O O19 0.000000 0.500000 0.000000
#
# Coordination Sequence:
#
# PCOD9064519 Si02
#       8
#     2   2   2   2   2   2   2   2
#     4  11  27  44  71 101 143 182 235 300 358 431
#     4  12  27  48  75 107 149 193 249 311 369 438
#     4  11  24  46  67  98 140 181 231 289 348 429
#     4  11  25  45  65 103 140 180 232 297 355 429
#     4  11  25  46  69  97 140 185 232 289 363 431
#     4  11  25  45  69 100 138 185 232 287 363 429
#     4  11  26  42  71 100 138 183 233 291 356 423
#     4  12  25  46  73 104 142 192 246 300 367 438
#
# _framework density 22.959043999999999
#
# number of rings (size 3 to 8) (size 9 to 14) (size 15 to 20)
#    0.000    0.750    3.750    2.250    8.750    2.500 
#    0.000    0.000    0.000    0.000    0.000    0.000 
#    0.000    0.000    0.000    0.000    0.000    0.000 
#
# Total GULP energy -89097.534925 kJ/mol
# GULP energy per Si atom -5568.595933 kJ/mol
# Density = 2.290679 g / cm^3
# Si number density = 22.959044 Si / 1000 Ang^3
#
#
#
# Elastic Constant Matrix: (Units=GPa)
#
#
# Indices 1 2 3 4 5 6 
#
# 1 108.6633 17.6182 16.5603 -13.9025 -12.7776 2.3256
# 2 17.6182 80.1455 45.3370 -21.4324 -18.0847 6.9849
# 3 16.5603 45.3370 104.4363 -19.4420 -17.5451 10.3557
# 4 -13.9025 -21.4324 -19.4420 38.2253 2.4907 0.8064
# 5 -12.7776 -18.0847 -17.5451 2.4907 48.4550 -5.2707
# 6 2.3256 6.9849 10.3557 0.8064 -5.2707 36.0169
#
#
#
# Elastic Compliance Matrix: (Units=1/GPa)
#
#
# Indices 1 2 3 4 5 6 
#
# 1 0.009995 -0.000735 -0.000362 0.002908 0.002063 -0.000162
# 2 -0.000735 0.018982 -0.005948 0.007107 0.004212 -0.001466
# 3 -0.000362 -0.005948 0.013421 0.003274 0.002110 -0.002447
# 4 0.002908 0.007107 0.003274 0.032759 0.002610 -0.002859
# 5 0.002063 0.004212 0.002110 0.002610 0.023584 0.001836
# 6 -0.000162 -0.001466 -0.002447 -0.002859 0.001836 0.029096
#
#
# Mechanical properties :
#
#
# Convention : Reuss Voigt Hill
#
# Bulk Modulus (GPa) = 35.32413 50.25291 42.78852
# Shear Modulus (GPa) = 33.03331 38.78808 35.91070
#
# Velocity S-wave (km/s) = 3.79726 4.11475 3.95919
# Velocity P-wave (km/s) = 5.88597 6.67161 6.29107
#
# Compressibility (1/GPa) = 0.02830926
#
# Stress axis : x y z
#
# Youngs Moduli (GPa) = 100.04789 52.68041 74.50951
#
# Poissons Ratio (x) = 0.03873 0.02695
# Poissons Ratio (y) = 0.07356 0.44316
# Poissons Ratio (z) = 0.03619 0.31333
#
# Static dielectric constant tensor:
#      x y z
#    x 1.888750 0.014430 -0.007370 
#    y 0.014430 1.964430 0.063610 
#    z -0.007370 0.063610 1.892850 
# 
# From -- ./inp_files/106090.got.cif
#   From: 2010.05.17/outbox.cif.g08.bks.cpg/sg2_54_cif.got.tgz:106090.got - 2010.06.03 11:33:40.
