data_PCOD9064768
_publ_section_title
;
Structure prediction by ZEFSAII (Michael W. Deem and Ramdas Pophale) SiO2 
 PCOD9064768
Probable space group: P -1
;
_chemical_formula_sum "Si O2"
_cell_formula_units_Z 16
_cell_length_a 15.778724
_cell_length_b 10.271530
_cell_length_c 9.486378
_cell_angle_alpha 68.154870
_cell_angle_beta 128.213943
_cell_angle_gamma 144.095769
_cell_volume 680.096498
_symmetry_space_group_name_H-M "P -1"
_symmetry_group_IT_number 2
_symmetry_cell_setting 'triclinic'
loop_
_space_group_symop_operation_xyz
x,y,z
-x,-y,-z
loop_
_atom_site_type_symbol
_atom_site_label
_atom_site_fract_x
_atom_site_fract_y
_atom_site_fract_z
Si Si1 0.733427 0.765762 0.750431
Si Si2 0.355900 0.428512 0.974020
Si Si3 0.431075 0.086833 0.888238
Si Si4 0.442675 0.147988 0.548146
Si Si5 0.002643 0.190272 0.647390
Si Si6 0.166123 0.433998 0.170690
Si Si7 0.931226 0.342546 0.724951
Si Si8 0.931316 0.213206 0.275890
O O1 0.718636 0.751336 0.909278
O O2 0.573385 0.701967 0.561754
O O3 0.760385 0.630620 0.799132
O O4 0.898293 0.003950 0.740381
O O5 0.438410 0.653094 0.039158
O O6 0.500000 0.500000 0.000000
O O7 0.190531 0.314437 0.763758
O O8 0.387708 0.065793 0.687154
O O9 0.266260 0.932629 0.887377
O O10 0.500000 0.000000 0.000000
O O11 0.647041 0.307816 0.682709
O O12 0.279157 0.913725 0.384286
O O13 0.012405 0.354031 0.663249
O O14 0.912834 0.096855 0.440446
O O15 0.031982 0.255311 0.229886
O O16 0.050680 0.406415 0.952539
O O17 0.953644 0.531483 0.668080
#
# Coordination Sequence:
#
# PCOD9064768 Si02
#       8
#     2   2   2   2   2   2   2   2
#     4  11  24  46  74  97 151 198 244 302 390 442
#     4  12  28  44  77 116 147 192 260 317 370 453
#     4  12  26  48  74 109 153 196 247 313 380 448
#     4  11  25  45  78 103 140 206 248 301 380 457
#     4  11  24  46  73 102 143 198 242 314 377 443
#     4  12  26  46  73 107 151 195 244 318 376 445
#     4  11  24  48  75 101 149 203 250 300 386 452
#     4  12  27  44  72 110 147 191 258 313 370 454
#
# _framework density 23.526074000000001
#
# number of rings (size 3 to 8) (size 9 to 14) (size 15 to 20)
#    0.000    0.500    5.000    3.000    7.000    1.000 
#    0.000    0.000    0.000    0.000    0.000    0.000 
#    0.000    0.000    0.000    0.000    0.000    0.000 
#
# Total GULP energy -89368.982957 kJ/mol
# GULP energy per Si atom -5585.561435 kJ/mol
# Density = 2.347253 g / cm^3
# Si number density = 23.526074 Si / 1000 Ang^3
#
#
#
# Elastic Constant Matrix: (Units=GPa)
#
#
# Indices 1 2 3 4 5 6 
#
# 1 101.3136 18.7433 30.6167 -4.3916 1.0248 33.6197
# 2 18.7433 84.5131 24.2087 10.5610 3.2243 8.4860
# 3 30.6167 24.2087 100.9339 9.0960 15.8500 10.3957
# 4 -4.3916 10.5610 9.0960 35.0962 15.2220 7.2040
# 5 1.0248 3.2243 15.8500 15.2220 16.1022 0.7717
# 6 33.6197 8.4860 10.3957 7.2040 0.7717 51.8875
#
#
#
# Elastic Compliance Matrix: (Units=1/GPa)
#
#
# Indices 1 2 3 4 5 6 
#
# 1 0.014616 -0.002133 -0.003028 0.006631 -0.003341 -0.009385
# 2 -0.002133 0.013723 -0.003166 -0.006616 0.006730 0.000590
# 3 -0.003028 -0.003166 0.013941 0.004544 -0.017159 -0.000689
# 4 0.006631 -0.006616 0.004544 0.057212 -0.057117 -0.011219
# 5 -0.003341 0.006730 -0.017159 -0.057117 0.131351 0.010478
# 6 -0.009385 0.000590 -0.000689 -0.011219 0.010478 0.026797
#
#
# Mechanical properties :
#
#
# Convention : Reuss Voigt Hill
#
# Bulk Modulus (GPa) = 39.02232 48.21088 43.61660
# Shear Modulus (GPa) = 17.67808 34.82996 26.25402
#
# Velocity S-wave (km/s) = 2.74419 3.85188 3.34421
# Velocity P-wave (km/s) = 5.16368 6.34978 5.78720
#
# Compressibility (1/GPa) = 0.02562636
#
# Stress axis : x y z
#
# Youngs Moduli (GPa) = 68.41958 72.86975 71.72893
#
# Poissons Ratio (x) = 0.15542 0.21721
# Poissons Ratio (y) = 0.14593 0.22709
# Poissons Ratio (z) = 0.20718 0.23070
#
# Static dielectric constant tensor:
#      x y z
#    x 1.839770 -0.013510 -0.000070 
#    y -0.013510 1.954810 0.056600 
#    z -0.000070 0.056600 1.920250 
# 
# From -- ./inp_files/333054.got.cif
#   From: 2010.05.17/outbox.cif.g08.bks.cpg/sg2_167_cif.got.tgz:333054.got - 2010.06.03 11:33:40.
