data_PCOD9064104
_publ_section_title
;
Structure prediction by ZEFSAII (Michael W. Deem and Ramdas Pophale) SiO2 
 PCOD9064104
Probable space group: P -1
;
_chemical_formula_sum "Si O2"
_cell_formula_units_Z 16
_cell_length_a 11.404763
_cell_length_b 9.035699
_cell_length_c 12.380103
_cell_angle_alpha 128.918561
_cell_angle_beta 48.271358
_cell_angle_gamma 122.516309
_cell_volume 724.952521
_symmetry_space_group_name_H-M "P -1"
_symmetry_group_IT_number 2
_symmetry_cell_setting 'triclinic'
loop_
_space_group_symop_operation_xyz
x,y,z
-x,-y,-z
loop_
_atom_site_type_symbol
_atom_site_label
_atom_site_fract_x
_atom_site_fract_y
_atom_site_fract_z
Si Si1 0.303344 0.923240 0.751421
Si Si2 0.368345 0.511103 0.495464
Si Si3 0.763325 0.260187 0.874821
Si Si4 0.632702 0.189738 0.689895
Si Si5 0.876739 0.052455 0.340495
Si Si6 0.493419 0.465764 0.164066
Si Si7 0.910204 0.805398 0.403900
Si Si8 0.243596 0.067615 0.092194
O O1 0.286128 0.692539 0.652303
O O2 0.202437 0.989821 0.746933
O O3 0.491934 0.013488 0.659805
O O4 0.256528 0.995292 0.929088
O O5 0.500000 0.500000 0.500000
O O6 0.452827 0.532489 0.338008
O O7 0.232386 0.315702 0.494852
O O8 0.685202 0.162830 0.767337
O O9 0.952784 0.314920 0.761360
O O10 0.737438 0.104321 0.915862
O O11 0.674719 0.435778 0.032361
O O12 0.785836 0.204080 0.524800
O O13 0.556270 0.379075 0.814792
O O14 0.068172 0.114979 0.241219
O O15 0.847440 0.872764 0.359837
O O16 0.381136 0.255508 0.115184
O O17 0.000000 0.000000 0.500000
#
# Coordination Sequence:
#
# PCOD9064104 Si02
#       8
#     2   2   2   2   2   2   2   2
#     4  12  26  48  66 104 148 187 230 291 366 420
#     4  12  27  44  74 107 145 187 238 291 356 425
#     4  11  24  45  72 101 139 181 241 294 340 413
#     4  12  25  44  69 104 141 186 233 292 358 416
#     4  11  24  45  71 100 144 184 228 295 360 419
#     4  12  26  45  69 106 138 190 242 287 350 425
#     4  11  24  47  74 106 139 190 236 292 350 417
#     4  11  26  46  73 102 140 189 239 294 348 420
#
# _framework density 22.070409999999999
#
# number of rings (size 3 to 8) (size 9 to 14) (size 15 to 20)
#    0.000    0.500    3.750    4.500    3.500    1.500 
#    2.250    1.875    0.000    0.000    0.000    0.000 
#    0.000    0.000    0.000    0.000    0.000    0.000 
#
# Total GULP energy -89604.159907 kJ/mol
# GULP energy per Si atom -5600.259994 kJ/mol
# Density = 2.202018 g / cm^3
# Si number density = 22.070410 Si / 1000 Ang^3
#
#
#
# Elastic Constant Matrix: (Units=GPa)
#
#
# Indices 1 2 3 4 5 6 
#
# 1 133.3711 26.0611 38.1913 -6.8809 -0.9439 -33.6317
# 2 26.0611 47.1937 18.2659 0.3649 -2.7528 -5.6569
# 3 38.1913 18.2659 124.0671 -5.5402 -11.8635 -8.8371
# 4 -6.8809 0.3649 -5.5402 25.9728 -5.1367 1.8602
# 5 -0.9439 -2.7528 -11.8635 -5.1367 55.3522 -5.4940
# 6 -33.6317 -5.6569 -8.8371 1.8602 -5.4940 29.8205
#
#
#
# Elastic Compliance Matrix: (Units=1/GPa)
#
#
# Indices 1 2 3 4 5 6 
#
# 1 0.012170 -0.004417 -0.002027 0.002164 0.000978 0.012332
# 2 -0.004417 0.024474 -0.002352 -0.001880 0.000379 -0.000849
# 3 -0.002027 -0.002352 0.009331 0.001871 0.002051 0.000294
# 4 0.002164 -0.001880 0.001871 0.040261 0.004169 0.000895
# 5 0.000978 0.000379 0.002051 0.004169 0.019435 0.005103
# 6 0.012332 -0.000849 0.000294 0.000895 0.005103 0.048252
#
#
# Mechanical properties :
#
#
# Convention : Reuss Voigt Hill
#
# Bulk Modulus (GPa) = 35.23346 52.18538 43.70942
# Shear Modulus (GPa) = 27.62812 37.03669 32.33240
#
# Velocity S-wave (km/s) = 3.54194 4.10092 3.83164
# Velocity P-wave (km/s) = 5.72066 6.79115 6.27876
#
# Compressibility (1/GPa) = 0.02838211
#
# Stress axis : x y z
#
# Youngs Moduli (GPa) = 82.17115 40.86040 107.16911
#
# Poissons Ratio (x) = 0.18049 0.21727
# Poissons Ratio (y) = 0.36297 0.25202
# Poissons Ratio (z) = 0.16659 0.09609
#
# Static dielectric constant tensor:
#      x y z
#    x 1.794000 -0.005490 -0.018690 
#    y -0.005490 1.773020 0.007210 
#    z -0.018690 0.007210 1.834660 
# 
# From -- ./inp_files/419923.got.cif
#   From: 2010.05.17/outbox.cif.g08.bks.cpg/sg2_210_cif.got.tgz:419923.got - 2010.06.03 11:33:40.
