data_PCOD9064138
_publ_section_title
;
Structure prediction by ZEFSAII (Michael W. Deem and Ramdas Pophale) SiO2 
 PCOD9064138
Probable space group: P -1
;
_chemical_formula_sum "Si O2"
_cell_formula_units_Z 16
_cell_length_a 8.517413
_cell_length_b 19.991629
_cell_length_c 8.798034
_cell_angle_alpha 54.614608
_cell_angle_beta 32.291803
_cell_angle_gamma 49.561043
_cell_volume 607.386704
_symmetry_space_group_name_H-M "P -1"
_symmetry_group_IT_number 2
_symmetry_cell_setting 'triclinic'
loop_
_space_group_symop_operation_xyz
x,y,z
-x,-y,-z
loop_
_atom_site_type_symbol
_atom_site_label
_atom_site_fract_x
_atom_site_fract_y
_atom_site_fract_z
Si Si1 0.126597 0.538625 0.697865
Si Si2 0.561878 0.071768 0.963384
Si Si3 0.127841 0.296867 0.122894
Si Si4 0.234300 0.746188 0.145213
Si Si5 0.721693 0.989920 0.476053
Si Si6 0.507454 0.452145 0.897434
Si Si7 0.519743 0.254751 0.603557
Si Si8 0.547617 0.814423 0.559766
O O1 0.418135 0.506812 0.379921
O O2 0.089128 0.633598 0.669366
O O3 0.000000 0.500000 0.000000
O O4 0.837456 0.551219 0.809683
O O5 0.518417 0.163174 0.798129
O O6 0.907047 0.033595 0.808516
O O7 0.500000 0.000000 0.000000
O O8 0.320968 0.082311 0.283396
O O9 0.477766 0.261802 0.965347
O O10 0.868247 0.256992 0.331220
O O11 0.246802 0.328350 0.827369
O O12 0.275194 0.809252 0.897480
O O13 0.281846 0.650946 0.161341
O O14 0.866884 0.791221 0.427231
O O15 0.571201 0.087938 0.539493
O O16 0.500000 0.000000 0.500000
O O17 0.500000 0.500000 0.000000
O O18 0.419347 0.253196 0.514523
#
# Coordination Sequence:
#
# PCOD9064138 Si02
#       8
#     2   2   2   2   2   2   2   2
#     4  11  24  45  71 105 145 183 235 297 349 421
#     4  12  26  48  69  96 140 180 230 296 354 410
#     4  11  25  45  69 101 137 183 234 278 355 424
#     4  11  25  45  69  98 142 182 226 292 347 417
#     4  12  28  46  68 102 134 178 240 288 352 419
#     4  11  24  45  72 106 142 187 238 285 359 428
#     4  12  26  43  70  99 134 184 232 287 357 420
#     4  12  26  44  68 100 139 178 235 292 351 419
#
# _framework density 26.342358999999998
#
# number of rings (size 3 to 8) (size 9 to 14) (size 15 to 20)
#    0.000    0.500    1.250    7.500    7.000    3.000 
#    0.000    0.000    0.000    0.000    0.000    0.000 
#    0.000    0.000    0.000    0.000    0.000    0.000 
#
# Total GULP energy -89313.053161 kJ/mol
# GULP energy per Si atom -5582.065823 kJ/mol
# Density = 2.628240 g / cm^3
# Si number density = 26.342359 Si / 1000 Ang^3
#
#
#
# Elastic Constant Matrix: (Units=GPa)
#
#
# Indices 1 2 3 4 5 6 
#
# 1 94.3740 29.0338 38.9023 0.3902 -10.9415 32.9701
# 2 29.0338 49.4788 19.7583 5.8540 -15.0646 6.6626
# 3 38.9023 19.7583 163.8984 1.3128 -20.1933 9.6142
# 4 0.3902 5.8540 1.3128 45.0373 3.2034 7.9853
# 5 -10.9415 -15.0646 -20.1933 3.2034 45.5735 4.6272
# 6 32.9701 6.6626 9.6142 7.9853 4.6272 44.4648
#
#
#
# Elastic Compliance Matrix: (Units=1/GPa)
#
#
# Indices 1 2 3 4 5 6 
#
# 1 0.018879 -0.008134 -0.002540 0.003141 0.001816 -0.012984
# 2 -0.008134 0.027595 -0.000623 -0.004366 0.006988 0.002088
# 3 -0.002540 -0.000623 0.007050 -0.000314 0.002303 0.000269
# 4 0.003141 -0.004366 -0.000314 0.023901 -0.001930 -0.005698
# 5 0.001816 0.006988 0.002303 -0.001930 0.026381 -0.005290
# 6 -0.012984 0.002088 0.000269 -0.005698 -0.005290 0.033320
#
#
# Mechanical properties :
#
#
# Convention : Reuss Voigt Hill
#
# Bulk Modulus (GPa) = 32.33097 53.68222 43.00659
# Shear Modulus (GPa) = 29.40655 41.68558 35.54606
#
# Velocity S-wave (km/s) = 3.34477 3.98232 3.67739
# Velocity P-wave (km/s) = 5.21696 6.44733 5.86450
#
# Compressibility (1/GPa) = 0.03093010
#
# Stress axis : x y z
#
# Youngs Moduli (GPa) = 52.96851 36.23810 141.84838
#
# Poissons Ratio (x) = 0.29477 0.36034
# Poissons Ratio (y) = 0.43086 0.08831
# Poissons Ratio (z) = 0.13456 0.02256
#
# Static dielectric constant tensor:
#      x y z
#    x 2.364230 0.191370 -0.134860 
#    y 0.191370 2.416700 -0.126790 
#    z -0.134860 -0.126790 2.143300 
# 
# From -- ./inp_files/223360.got.cif
#   From: 2010.05.17/outbox.cif.g08.bks.cpg/sg2_112_cif.got.tgz:223360.got - 2010.06.03 11:33:40.
