data_PCOD9064773
_publ_section_title
;
Structure prediction by ZEFSAII (Michael W. Deem and Ramdas Pophale) SiO2 
 PCOD9064773
Probable space group: P -1
;
_chemical_formula_sum "Si O2"
_cell_formula_units_Z 16
_cell_length_a 9.943665
_cell_length_b 8.758444
_cell_length_c 15.553521
_cell_angle_alpha 108.751117
_cell_angle_beta 144.530210
_cell_angle_gamma 79.331985
_cell_volume 737.019539
_symmetry_space_group_name_H-M "P -1"
_symmetry_group_IT_number 2
_symmetry_cell_setting 'triclinic'
loop_
_space_group_symop_operation_xyz
x,y,z
-x,-y,-z
loop_
_atom_site_type_symbol
_atom_site_label
_atom_site_fract_x
_atom_site_fract_y
_atom_site_fract_z
Si Si1 0.724981 0.220284 0.631847
Si Si2 0.869628 0.560488 0.025216
Si Si3 0.428331 0.661732 0.037774
Si Si4 0.348716 0.571541 0.508308
Si Si5 0.287846 0.126028 0.494391
Si Si6 0.719069 0.959600 0.332005
Si Si7 0.461031 0.710076 0.768959
Si Si8 0.099886 0.666996 0.715988
O O1 0.677622 0.254656 0.514388
O O2 0.500807 0.233773 0.576486
O O3 0.767312 0.035168 0.621662
O O4 0.935955 0.351068 0.794137
O O5 0.718174 0.410327 0.968353
O O6 0.706253 0.696476 0.939397
O O7 0.000000 0.500000 0.000000
O O8 0.636185 0.801394 0.200232
O O9 0.500000 0.500000 0.000000
O O10 0.263272 0.730990 0.893015
O O11 0.500000 0.500000 0.500000
O O12 0.466201 0.603014 0.666773
O O13 0.092564 0.474404 0.373277
O O14 0.365558 0.091346 0.624738
O O15 0.056459 0.209394 0.385303
O O16 0.609220 0.113951 0.262713
O O17 0.000000 0.000000 0.500000
O O18 0.266201 0.623989 0.718157
#
# Coordination Sequence:
#
# PCOD9064773 Si02
#       8
#     2   2   2   2   2   2   2   2
#     4  11  24  46  73 102 150 195 243 304 366 436
#     4  12  27  49  73 105 151 196 247 311 369 438
#     4  12  29  48  73 111 146 190 246 305 369 445
#     4  12  24  45  73 107 143 194 251 300 368 441
#     4  11  25  46  73 110 143 194 248 301 368 441
#     4  12  28  48  74 106 151 193 244 302 373 444
#     4  12  28  45  72 109 147 195 249 304 377 435
#     4  12  26  44  75 108 147 187 246 310 366 438
#
# _framework density 21.709057999999999
#
# number of rings (size 3 to 8) (size 9 to 14) (size 15 to 20)
#    0.000    0.250    6.250    1.875    7.000    0.500 
#    0.000    1.250    0.000    0.000    0.000    0.000 
#    0.000    0.000    0.000    0.000    0.000    0.000 
#
# Total GULP energy -89405.937499 kJ/mol
# GULP energy per Si atom -5587.871094 kJ/mol
# Density = 2.165965 g / cm^3
# Si number density = 21.709058 Si / 1000 Ang^3
#
#
#
# Elastic Constant Matrix: (Units=GPa)
#
#
# Indices 1 2 3 4 5 6 
#
# 1 131.8630 31.2497 16.2979 -1.3863 -4.4480 13.6530
# 2 31.2497 88.3257 28.8191 -3.3803 2.0504 1.5590
# 3 16.2979 28.8191 90.3235 4.9463 -3.8862 9.9497
# 4 -1.3863 -3.3803 4.9463 44.2093 0.3881 -2.4045
# 5 -4.4480 2.0504 -3.8862 0.3881 32.6473 -4.4206
# 6 13.6530 1.5590 9.9497 -2.4045 -4.4206 35.8886
#
#
#
# Elastic Compliance Matrix: (Units=1/GPa)
#
#
# Indices 1 2 3 4 5 6 
#
# 1 0.008654 -0.002955 -0.000244 -0.000098 0.000932 -0.002988
# 2 -0.002955 0.013804 -0.004199 0.001533 -0.001571 0.001598
# 3 -0.000244 -0.004199 0.012984 -0.001972 0.001354 -0.003290
# 4 -0.000098 0.001533 -0.001972 0.023067 -0.000345 0.002020
# 5 0.000932 -0.001571 0.001354 -0.000345 0.031453 0.003189
# 6 -0.002988 0.001598 -0.003290 0.002020 0.003189 0.030371
#
#
# Mechanical properties :
#
#
# Convention : Reuss Voigt Hill
#
# Bulk Modulus (GPa) = 48.43499 51.47175 49.95337
# Shear Modulus (GPa) = 35.20851 38.15874 36.68363
#
# Velocity S-wave (km/s) = 4.03157 4.19708 4.11516
# Velocity P-wave (km/s) = 6.63557 6.87376 6.75572
#
# Compressibility (1/GPa) = 0.02064623
#
# Stress axis : x y z
#
# Youngs Moduli (GPa) = 115.55613 72.44243 77.01960
#
# Poissons Ratio (x) = 0.21405 0.01880
# Poissons Ratio (y) = 0.34143 0.32339
# Poissons Ratio (z) = 0.02821 0.30417
#
# Static dielectric constant tensor:
#      x y z
#    x 1.809640 0.002410 0.009470 
#    y 0.002410 1.853090 -0.025030 
#    z 0.009470 -0.025030 1.750170 
# 
# From -- ./inp_files/208264.got.cif
#   From: 2010.05.17/outbox.cif.g08.bks.cpg/sg2_105_cif.got.tgz:208264.got - 2010.06.03 11:33:40.
