data_PCOD9064512
_publ_section_title
;
Structure prediction by ZEFSAII (Michael W. Deem and Ramdas Pophale) SiO2 
 PCOD9064512
Probable space group: P -1
;
_chemical_formula_sum "Si O2"
_cell_formula_units_Z 10
_cell_length_a 5.712396
_cell_length_b 14.497460
_cell_length_c 9.114426
_cell_angle_alpha 38.285123
_cell_angle_beta 59.146114
_cell_angle_gamma 69.205798
_cell_volume 399.871863
_symmetry_space_group_name_H-M "P -1"
_symmetry_group_IT_number 2
_symmetry_cell_setting 'triclinic'
loop_
_space_group_symop_operation_xyz
x,y,z
-x,-y,-z
loop_
_atom_site_type_symbol
_atom_site_label
_atom_site_fract_x
_atom_site_fract_y
_atom_site_fract_z
Si Si1 0.884766 0.610233 0.780014
Si Si2 0.606854 0.917954 0.206497
Si Si3 0.671199 0.357752 0.941040
Si Si4 0.105075 0.764219 0.246309
Si Si5 0.250875 0.916422 0.587710
O O1 0.759973 0.507110 0.814398
O O2 0.086782 0.724581 0.475773
O O3 0.643504 0.681990 0.857275
O O4 0.000000 0.500000 0.000000
O O5 0.390822 0.858969 0.469114
O O6 0.765399 0.067440 0.040620
O O7 0.793096 0.786132 0.275298
O O8 0.500000 0.000000 0.000000
O O9 0.734883 0.350703 0.756748
O O10 0.849331 0.229119 0.106190
O O11 0.500000 0.000000 0.500000
O O12 0.000000 0.000000 0.500000
#
# Coordination Sequence:
#
# PCOD9064512 Si02
#       5
#     2   2   2   2   2
#     4  11  27  44  70  98 143 196 247 301 358 441
#     4  11  25  40  71 107 142 189 238 310 368 440
#     4  11  25  45  68 103 142 192 244 299 368 437
#     4  11  24  46  67 102 146 181 250 294 375 430
#     4  12  26  46  77 110 148 193 245 306 375 438
#
# _framework density 25.008011
#
# number of rings (size 3 to 8) (size 9 to 14) (size 15 to 20)
#    0.000    0.800    4.000    1.800    8.400    2.400 
#    0.000    0.000    0.000    0.000    0.000    0.000 
#    0.000    0.000    0.000    0.000    0.000    0.000 
#
# Total GULP energy -55812.611175 kJ/mol
# GULP energy per Si atom -5581.261117 kJ/mol
# Density = 2.495109 g / cm^3
# Si number density = 25.008011 Si / 1000 Ang^3
#
#
#
# Elastic Constant Matrix: (Units=GPa)
#
#
# Indices 1 2 3 4 5 6 
#
# 1 72.5669 45.8435 18.1272 6.5105 28.3932 -6.8636
# 2 45.8435 162.6863 30.4569 41.2115 6.8456 -13.4925
# 3 18.1272 30.4569 130.1483 21.7597 23.7819 -12.3070
# 4 6.5105 41.2115 21.7597 61.8453 -0.8769 -0.0917
# 5 28.3932 6.8456 23.7819 -0.8769 39.7683 -10.1592
# 6 -6.8636 -13.4925 -12.3070 -0.0917 -10.1592 35.5664
#
#
#
# Elastic Compliance Matrix: (Units=1/GPa)
#
#
# Indices 1 2 3 4 5 6 
#
# 1 0.024301 -0.006867 0.000905 0.001449 -0.017329 -0.002548
# 2 -0.006867 0.009693 -0.000932 -0.005339 0.004518 0.003306
# 3 0.000905 -0.000932 0.009460 -0.002883 -0.005844 0.001418
# 4 0.001449 -0.005339 -0.002883 0.020607 0.001484 -0.002266
# 5 -0.017329 0.004518 -0.005844 0.001484 0.042432 0.008472
# 6 -0.002548 0.003306 0.001418 -0.002266 0.008472 0.031784
#
#
# Mechanical properties :
#
#
# Convention : Reuss Voigt Hill
#
# Bulk Modulus (GPa) = 33.70787 61.58408 47.64597
# Shear Modulus (GPa) = 30.87334 45.50093 38.18714
#
# Velocity S-wave (km/s) = 3.51741 4.27013 3.91192
# Velocity P-wave (km/s) = 5.47762 6.99938 6.28473
#
# Compressibility (1/GPa) = 0.02966666
#
# Stress axis : x y z
#
# Youngs Moduli (GPa) = 41.14993 103.16825 105.71263
#
# Poissons Ratio (x) = 0.70843 -0.09571
# Poissons Ratio (y) = 0.28257 0.09855
# Poissons Ratio (z) = -0.03726 0.09618
#
# Static dielectric constant tensor:
#      x y z
#    x 2.326880 0.006650 -0.114290 
#    y 0.006650 2.013850 -0.023420 
#    z -0.114290 -0.023420 2.009550 
# 
# From -- ./inp_files/15208.got.cif
#   From: 2010.05.17/outbox.cif.g08.bks.cpg/sg2_8_cif.got.tgz:15208.got - 2010.06.03 11:33:40.
