data_PCOD9064228
_publ_section_title
;
Structure prediction by ZEFSAII (Michael W. Deem and Ramdas Pophale) SiO2 
 PCOD9064228
Probable space group: P -1
;
_chemical_formula_sum "Si O2"
_cell_formula_units_Z 16
_cell_length_a 24.475966
_cell_length_b 14.958918
_cell_length_c 18.184502
_cell_angle_alpha 152.242742
_cell_angle_beta 17.837079
_cell_angle_gamma 159.288246
_cell_volume 720.347914
_symmetry_space_group_name_H-M "P -1"
_symmetry_group_IT_number 2
_symmetry_cell_setting 'triclinic'
loop_
_space_group_symop_operation_xyz
x,y,z
-x,-y,-z
loop_
_atom_site_type_symbol
_atom_site_label
_atom_site_fract_x
_atom_site_fract_y
_atom_site_fract_z
Si Si1 0.729899 0.758146 0.859960
Si Si2 0.820089 0.109010 0.114057
Si Si3 0.350590 0.385325 0.682052
Si Si4 0.728566 0.789439 0.712000
Si Si5 0.584774 0.230076 0.005787
Si Si6 0.963119 0.605388 0.538628
Si Si7 0.244157 0.913172 0.544415
Si Si8 0.480905 0.224958 0.613120
O O1 0.711149 0.760677 0.800052
O O2 0.925453 0.751711 0.636991
O O3 0.500000 0.500000 0.000000
O O4 0.790539 0.005380 0.995632
O O5 0.694473 0.227142 0.358472
O O6 0.664376 0.869485 0.194071
O O7 0.085021 0.266790 0.916081
O O8 0.500000 0.500000 0.500000
O O9 0.419398 0.584780 0.802397
O O10 0.371721 0.179478 0.533071
O O11 0.596638 0.872014 0.902854
O O12 0.600288 0.506567 0.642925
O O13 0.000000 0.000000 0.500000
O O14 0.832387 0.372091 0.749122
O O15 0.500000 0.000000 0.000000
O O16 0.033249 0.738447 0.626025
O O17 0.741388 0.306970 0.617904
O O18 0.292451 0.022415 0.645632
#
# Coordination Sequence:
#
# PCOD9064228 Si02
#       8
#     2   2   2   2   2   2   2   2
#     4  12  25  47  73 108 151 190 244 301 369 440
#     4  11  26  45  76 103 145 191 237 310 368 432
#     4  12  27  48  72 104 146 194 245 303 373 437
#     4  12  29  47  74 106 149 195 246 303 374 451
#     4  12  28  49  75 103 147 195 243 305 366 444
#     4  11  26  44  75 109 145 190 243 303 370 436
#     4  11  24  45  72 106 146 183 250 302 359 441
#     4  11  25  48  73 108 140 190 250 302 371 435
#
# _framework density 22.211489
#
# number of rings (size 3 to 8) (size 9 to 14) (size 15 to 20)
#    0.000    0.500    3.750    3.000   14.000    1.000 
#    0.000    1.250    0.000    0.000    0.000    0.000 
#    0.000    0.000    0.000    0.000    0.000    0.000 
#
# Total GULP energy -89182.838294 kJ/mol
# GULP energy per Si atom -5573.927393 kJ/mol
# Density = 2.216093 g / cm^3
# Si number density = 22.211489 Si / 1000 Ang^3
#
#
#
# Elastic Constant Matrix: (Units=GPa)
#
#
# Indices 1 2 3 4 5 6 
#
# 1 138.4566 39.6406 35.7096 -14.8282 1.9312 2.0476
# 2 39.6406 99.7646 4.4843 4.3601 14.3841 -6.5093
# 3 35.7096 4.4843 92.0447 -14.5039 3.4961 -11.4173
# 4 -14.8282 4.3601 -14.5039 15.4779 -0.0328 3.2633
# 5 1.9312 14.3841 3.4961 -0.0328 26.6905 7.7400
# 6 2.0476 -6.5093 -11.4173 3.2633 7.7400 48.8375
#
#
#
# Elastic Compliance Matrix: (Units=1/GPa)
#
#
# Indices 1 2 3 4 5 6 
#
# 1 0.010396 -0.005065 -0.002787 0.009392 0.003194 -0.002896
# 2 -0.005065 0.013885 0.000708 -0.008997 -0.008428 0.004165
# 3 -0.002787 0.000708 0.013926 0.009478 -0.002950 0.003301
# 4 0.009392 -0.008997 0.009478 0.086275 0.004743 -0.005894
# 5 0.003194 -0.008428 -0.002950 0.004743 0.044889 -0.009378
# 6 -0.002896 0.004165 0.003301 -0.005894 -0.009378 0.023804
#
#
# Mechanical properties :
#
#
# Convention : Reuss Voigt Hill
#
# Bulk Modulus (GPa) = 41.81076 54.43721 48.12398
# Shear Modulus (GPa) = 23.20879 34.89660 29.05269
#
# Velocity S-wave (km/s) = 3.23600 3.96802 3.62056
# Velocity P-wave (km/s) = 5.72949 6.74947 6.26029
#
# Compressibility (1/GPa) = 0.02391729
#
# Stress axis : x y z
#
# Youngs Moduli (GPa) = 96.19443 72.02253 71.80804
#
# Poissons Ratio (x) = 0.36482 0.20013
# Poissons Ratio (y) = 0.48726 -0.05083
# Poissons Ratio (z) = 0.26809 -0.05098
#
# Static dielectric constant tensor:
#      x y z
#    x 1.807230 0.003000 -0.028300 
#    y 0.003000 1.782070 0.039850 
#    z -0.028300 0.039850 1.823690 
# 
# From -- ./inp_files/579323.got.cif
#   From: 2010.05.17/outbox.cif.g08.bks.cpg/sg2_290_cif.got.tgz:579323.got - 2010.06.03 11:33:40.
