data_PCOD9064666
_publ_section_title
;
Structure prediction by ZEFSAII (Michael W. Deem and Ramdas Pophale) SiO2 
 PCOD9064666
Probable space group: P -1
;
_chemical_formula_sum "Si O2"
_cell_formula_units_Z 16
_cell_length_a 8.960574
_cell_length_b 9.643685
_cell_length_c 12.481243
_cell_angle_alpha 113.131821
_cell_angle_beta 65.453613
_cell_angle_gamma 75.907953
_cell_volume 788.393258
_symmetry_space_group_name_H-M "P -1"
_symmetry_group_IT_number 2
_symmetry_cell_setting 'triclinic'
loop_
_space_group_symop_operation_xyz
x,y,z
-x,-y,-z
loop_
_atom_site_type_symbol
_atom_site_label
_atom_site_fract_x
_atom_site_fract_y
_atom_site_fract_z
Si Si1 0.964890 0.166481 0.627577
Si Si2 0.551689 0.314018 0.889564
Si Si3 0.793466 0.560731 0.128908
Si Si4 0.946611 0.517223 0.648202
Si Si5 0.305025 0.089303 0.646997
Si Si6 0.251548 0.959001 0.844548
Si Si7 0.930033 0.274174 0.162672
Si Si8 0.522272 0.814656 0.911108
O O1 0.753020 0.237747 0.752242
O O2 0.978772 0.328227 0.618812
O O3 0.127745 0.089467 0.644841
O O4 0.000000 0.000000 0.500000
O O5 0.376421 0.348788 0.876885
O O6 0.500000 0.500000 0.000000
O O7 0.561850 0.216410 0.965384
O O8 0.756323 0.710742 0.267232
O O9 0.803232 0.401195 0.143463
O O10 0.000000 0.500000 0.000000
O O11 0.729599 0.657622 0.779491
O O12 0.000000 0.500000 0.500000
O O13 0.046584 0.604660 0.717924
O O14 0.500000 0.000000 0.500000
O O15 0.329094 0.008263 0.732737
O O16 0.145408 0.852271 0.810391
O O17 0.406941 0.837917 0.845171
O O18 0.119625 0.136432 0.002479
O O19 0.500000 0.000000 0.000000
#
# Coordination Sequence:
#
# PCOD9064666 Si02
#       8
#     2   2   2   2   2   2   2   2
#     4  12  29  49  72 104 146 193 246 304 364 437
#     4  12  25  44  73 107 141 186 246 302 358 427
#     4  12  22  44  73 103 141 185 239 293 356 425
#     4  12  28  49  72 104 150 195 238 301 375 433
#     4  12  27  47  72 102 144 190 242 295 366 429
#     4  11  26  42  74 108 143 185 242 297 359 434
#     4  11  24  46  71 106 142 189 238 301 359 430
#     4  12  25  44  73 107 147 188 239 296 365 438
#
# _framework density 20.294440000000002
#
# number of rings (size 3 to 8) (size 9 to 14) (size 15 to 20)
#    0.000    0.250    5.000    3.750    8.750    0.000 
#    0.000    1.250    0.000    0.000    0.000    0.000 
#    0.000    0.000    0.000    0.000    0.000    0.000 
#
# Total GULP energy -89301.859503 kJ/mol
# GULP energy per Si atom -5581.366219 kJ/mol
# Density = 2.024825 g / cm^3
# Si number density = 20.294440 Si / 1000 Ang^3
#
#
#
# Elastic Constant Matrix: (Units=GPa)
#
#
# Indices 1 2 3 4 5 6 
#
# 1 118.0631 32.3056 49.8635 -1.4987 7.2975 -10.5879
# 2 32.3056 137.9574 49.7942 -11.2462 5.6093 13.4848
# 3 49.8635 49.7942 140.5510 9.0744 -8.0825 13.2847
# 4 -1.4987 -11.2462 9.0744 44.8687 5.8597 5.3222
# 5 7.2975 5.6093 -8.0825 5.8597 39.8671 3.7129
# 6 -10.5879 13.4848 13.2847 5.3222 3.7129 40.0576
#
#
#
# Elastic Compliance Matrix: (Units=1/GPa)
#
#
# Indices 1 2 3 4 5 6 
#
# 1 0.011314 -0.001431 -0.004223 0.000701 -0.003303 0.005086
# 2 -0.001431 0.009233 -0.002822 0.003414 -0.001847 -0.002833
# 3 -0.004223 -0.002822 0.010382 -0.003053 0.004057 -0.003579
# 4 0.000701 0.003414 -0.003053 0.024718 -0.004599 -0.002809
# 5 -0.003303 -0.001847 0.004057 -0.004599 0.027778 -0.003560
# 6 0.005086 -0.002833 -0.003579 -0.002809 -0.003560 0.029152
#
#
# Mechanical properties :
#
#
# Convention : Reuss Voigt Hill
#
# Bulk Modulus (GPa) = 71.54890 73.38869 72.46880
# Shear Modulus (GPa) = 37.26132 42.59921 39.93027
#
# Velocity S-wave (km/s) = 4.28955 4.58652 4.44052
# Velocity P-wave (km/s) = 7.73729 8.01802 7.87890
#
# Compressibility (1/GPa) = 0.01397646
#
# Stress axis : x y z
#
# Youngs Moduli (GPa) = 88.38418 108.31096 96.32386
#
# Poissons Ratio (x) = 0.15498 0.40677
# Poissons Ratio (y) = 0.12647 0.27185
# Poissons Ratio (z) = 0.37324 0.30568
#
# Static dielectric constant tensor:
#      x y z
#    x 1.777470 0.024510 0.066250 
#    y 0.024510 1.679430 0.000500 
#    z 0.066250 0.000500 1.706740 
# 
# From -- ./inp_files/382922.got.cif
#   From: 2010.05.17/outbox.cif.g08.bks.cpg/sg2_192_cif.got.tgz:382922.got - 2010.06.03 11:33:40.
