data_PCOD9064887
_publ_section_title
;
Structure prediction by ZEFSAII (Michael W. Deem and Ramdas Pophale) SiO2 
 PCOD9064887
Probable space group: P -1
;
_chemical_formula_sum "Si O2"
_cell_formula_units_Z 14
_cell_length_a 28.935982
_cell_length_b 9.033512
_cell_length_c 5.096520
_cell_angle_alpha 65.599580
_cell_angle_beta 123.918791
_cell_angle_gamma 150.844744
_cell_volume 529.422606
_symmetry_space_group_name_H-M "P -1"
_symmetry_group_IT_number 2
_symmetry_cell_setting 'triclinic'
loop_
_space_group_symop_operation_xyz
x,y,z
-x,-y,-z
loop_
_atom_site_type_symbol
_atom_site_label
_atom_site_fract_x
_atom_site_fract_y
_atom_site_fract_z
Si Si1 0.572646 0.219497 0.815853
Si Si2 0.776111 0.054637 0.189096
Si Si3 0.163979 0.519674 0.325883
Si Si4 0.527802 0.750326 0.357642
Si Si5 0.988029 0.652264 0.744176
Si Si6 0.199110 0.255819 0.657972
Si Si7 0.342767 0.971719 0.952914
O O1 0.575316 0.417282 0.732258
O O2 0.500000 0.000000 0.500000
O O3 0.691193 0.453479 0.044235
O O4 0.500000 0.000000 0.000000
O O5 0.676146 0.881698 0.158459
O O6 0.888911 0.385633 0.430220
O O7 0.781007 0.870333 0.328962
O O8 0.779948 0.184813 0.851107
O O9 0.172838 0.360652 0.347685
O O10 0.229045 0.650498 0.705114
O O11 0.049324 0.305246 0.194936
O O12 0.500000 0.500000 0.500000
O O13 0.571706 0.866305 0.116241
O O14 0.620791 0.019706 0.666412
O O15 0.096423 0.971157 0.718275
O O16 0.000000 0.500000 0.000000
#
# Coordination Sequence:
#
# PCOD9064887 Si02
#       7
#     2   2   2   2   2   2   2
#     4  12  29  51  73 113 157 198 267 329 377 462
#     4  11  25  48  78 114 158 203 259 325 390 485
#     4  11  24  48  77 110 159 198 261 317 390 479
#     4  12  24  44  75 107 144 204 260 318 393 456
#     4  11  25  47  76 117 164 199 259 325 389 486
#     4  12  26  49  78 114 151 216 256 322 407 455
#     4  11  24  46  75 106 154 199 254 329 387 454
#
# _framework density 26.443904
#
# number of rings (size 3 to 8) (size 9 to 14) (size 15 to 20)
#    0.000    0.571    2.857    4.714    0.000    2.857 
#    5.143    0.000    0.000    0.000    0.000    0.000 
#    0.000    0.000    0.000    0.000    0.000    0.000 
#
# Total GULP energy -78152.654490 kJ/mol
# GULP energy per Si atom -5582.332464 kJ/mol
# Density = 2.638372 g / cm^3
# Si number density = 26.443904 Si / 1000 Ang^3
#
#
#
# Elastic Constant Matrix: (Units=GPa)
#
#
# Indices 1 2 3 4 5 6 
#
# 1 204.3623 30.0918 61.4891 -5.8687 47.0839 -13.1068
# 2 30.0918 102.4388 28.2683 3.9129 5.2812 -0.1771
# 3 61.4891 28.2683 118.5958 2.9479 6.4986 2.9112
# 4 -5.8687 3.9129 2.9479 46.2908 -3.4287 14.8462
# 5 47.0839 5.2812 6.4986 -3.4287 62.5697 -9.5788
# 6 -13.1068 -0.1771 2.9112 14.8462 -9.5788 49.8342
#
#
#
# Elastic Compliance Matrix: (Units=1/GPa)
#
#
# Indices 1 2 3 4 5 6 
#
# 1 0.007216 -0.000984 -0.003280 0.000528 -0.004824 0.001001
# 2 -0.000984 0.010641 -0.002008 -0.000954 0.000027 0.000186
# 3 -0.003280 -0.002008 0.010576 -0.000471 0.001347 -0.001089
# 4 0.000528 -0.000954 -0.000471 0.024023 -0.000023 -0.006998
# 5 -0.004824 0.000027 0.001347 -0.000023 0.019848 0.002475
# 6 0.001001 0.000186 -0.001089 -0.006998 0.002475 0.022955
#
#
# Mechanical properties :
#
#
# Convention : Reuss Voigt Hill
#
# Bulk Modulus (GPa) = 62.94382 73.89949 68.42165
# Shear Modulus (GPa) = 44.20925 52.10879 48.15902
#
# Velocity S-wave (km/s) = 4.09322 4.44389 4.27215
# Velocity P-wave (km/s) = 6.79659 7.37139 7.08982
#
# Compressibility (1/GPa) = 0.01588718
#
# Stress axis : x y z
#
# Youngs Moduli (GPa) = 138.58210 93.97958 94.55434
#
# Poissons Ratio (x) = 0.09251 0.31014
# Poissons Ratio (y) = 0.13641 0.18989
# Poissons Ratio (z) = 0.45456 0.18874
#
# Static dielectric constant tensor:
#      x y z
#    x 2.029030 -0.038210 -0.123260 
#    y -0.038210 2.126050 -0.006610 
#    z -0.123260 -0.006610 2.174610 
# 
# From -- ./inp_files/128215.got.cif
#   From: 2010.05.17/outbox.cif.g08.bks.cpg/sg2_65_cif.got.tgz:128215.got - 2010.06.03 11:33:40.
