data_PCOD9064462
_publ_section_title
;
Structure prediction by ZEFSAII (Michael W. Deem and Ramdas Pophale) SiO2 
 PCOD9064462
Probable space group: P -1
;
_chemical_formula_sum "Si O2"
_cell_formula_units_Z 16
_cell_length_a 11.401155
_cell_length_b 5.355149
_cell_length_c 20.692814
_cell_angle_alpha 96.678281
_cell_angle_beta 150.267970
_cell_angle_gamma 86.882426
_cell_volume 619.532056
_symmetry_space_group_name_H-M "P -1"
_symmetry_group_IT_number 2
_symmetry_cell_setting 'triclinic'
loop_
_space_group_symop_operation_xyz
x,y,z
-x,-y,-z
loop_
_atom_site_type_symbol
_atom_site_label
_atom_site_fract_x
_atom_site_fract_y
_atom_site_fract_z
Si Si1 0.178248 0.697094 0.553851
Si Si2 0.198800 0.596843 0.003891
Si Si3 0.941777 0.026257 0.376898
Si Si4 0.690342 0.534024 0.801410
Si Si5 0.045035 0.326101 0.801360
Si Si6 0.541848 0.849675 0.413123
Si Si7 0.269989 0.214754 0.363128
Si Si8 0.577841 0.879091 0.099908
O O1 0.449107 0.654468 0.675505
O O2 0.000000 0.500000 0.500000
O O3 0.034827 0.750221 0.421968
O O4 0.189328 0.927692 0.617797
O O5 0.302788 0.527427 0.120916
O O6 0.370625 0.785215 0.047946
O O7 0.151678 0.359989 0.925493
O O8 0.938786 0.679497 0.901693
O O9 0.765130 0.061585 0.235993
O O10 0.201710 0.169796 0.496871
O O11 0.652338 0.284224 0.731280
O O12 0.260865 0.338471 0.854082
O O13 0.887865 0.561289 0.723383
O O14 0.898651 0.051063 0.715521
O O15 0.584257 0.727597 0.499516
O O16 0.458724 0.122743 0.399467
O O17 0.500000 0.000000 0.000000
#
# Coordination Sequence:
#
# PCOD9064462 Si02
#       8
#     2   2   2   2   2   2   2   2
#     4  11  24  45  76 111 156 198 262 338 408 494
#     4  11  27  49  77 112 161 216 276 329 407 503
#     4  11  26  45  75 117 146 206 269 335 415 482
#     4  11  25  49  80 115 161 215 267 339 419 493
#     4  12  26  52  78 118 159 219 279 334 411 488
#     4  11  24  47  77 118 161 207 269 340 425 485
#     4  11  27  47  81 118 164 205 273 346 412 497
#     4  12  28  52  79 113 163 220 276 337 410 496
#
# _framework density 25.825942999999999
#
# number of rings (size 3 to 8) (size 9 to 14) (size 15 to 20)
#    0.000    0.750    3.750    1.875    7.000    3.000 
#    0.000    1.250    0.000    0.000    0.000    0.000 
#    0.000    0.000    0.000    0.000    0.000    0.000 
#
# Total GULP energy -89458.716714 kJ/mol
# GULP energy per Si atom -5591.169795 kJ/mol
# Density = 2.576716 g / cm^3
# Si number density = 25.825943 Si / 1000 Ang^3
#
#
#
# Elastic Constant Matrix: (Units=GPa)
#
#
# Indices 1 2 3 4 5 6 
#
# 1 190.7084 46.1808 76.0139 -13.4374 7.5684 14.1160
# 2 46.1808 86.1097 49.4785 -16.3634 5.8871 1.1150
# 3 76.0139 49.4785 159.5734 -7.7183 -14.5698 19.3180
# 4 -13.4374 -16.3634 -7.7183 38.2975 4.4062 4.2519
# 5 7.5684 5.8871 -14.5698 4.4062 62.3456 5.4028
# 6 14.1160 1.1150 19.3180 4.2519 5.4028 45.6319
#
#
#
# Elastic Compliance Matrix: (Units=1/GPa)
#
#
# Indices 1 2 3 4 5 6 
#
# 1 0.006982 -0.001829 -0.002698 0.001381 -0.001321 -0.000945
# 2 -0.001829 0.016376 -0.004428 0.005591 -0.002916 0.001864
# 3 -0.002698 -0.004428 0.009603 -0.000908 0.003352 -0.003435
# 4 0.001381 0.005591 -0.000908 0.029408 -0.002761 -0.002593
# 5 -0.001321 -0.002916 0.003352 -0.002761 0.017694 -0.002777
# 6 -0.000945 0.001864 -0.003435 -0.002593 -0.002777 0.024186
#
#
# Mechanical properties :
#
#
# Convention : Reuss Voigt Hill
#
# Bulk Modulus (GPa) = 66.44235 86.63754 76.53995
# Shear Modulus (GPa) = 39.31597 46.90289 43.10943
#
# Velocity S-wave (km/s) = 3.90596 4.26621 4.09005
# Velocity P-wave (km/s) = 6.79153 7.60835 7.21151
#
# Compressibility (1/GPa) = 0.01505064
#
# Stress axis : x y z
#
# Youngs Moduli (GPa) = 143.23354 61.06520 104.13621
#
# Poissons Ratio (x) = 0.11168 0.28096
# Poissons Ratio (y) = 0.26196 0.46111
# Poissons Ratio (z) = 0.38645 0.27039
#
# Static dielectric constant tensor:
#      x y z
#    x 2.088710 0.006810 0.018300 
#    y 0.006810 2.250310 0.038370 
#    z 0.018300 0.038370 2.037520 
# 
# From -- ./inp_files/592781.got.cif
#   From: 2010.05.17/outbox.cif.g08.bks.cpg/sg2_297_cif.got.tgz:592781.got - 2010.06.03 11:33:40.
