data_PCOD9064508
_publ_section_title
;
Structure prediction by ZEFSAII (Michael W. Deem and Ramdas Pophale) SiO2 
 PCOD9064508
Probable space group: P -1
;
_chemical_formula_sum "Si O2"
_cell_formula_units_Z 16
_cell_length_a 6.215860
_cell_length_b 20.608397
_cell_length_c 5.495684
_cell_angle_alpha 90.959233
_cell_angle_beta 98.297305
_cell_angle_gamma 81.770122
_cell_volume 689.442638
_symmetry_space_group_name_H-M "P -1"
_symmetry_group_IT_number 2
_symmetry_cell_setting 'triclinic'
loop_
_space_group_symop_operation_xyz
x,y,z
-x,-y,-z
loop_
_atom_site_type_symbol
_atom_site_label
_atom_site_fract_x
_atom_site_fract_y
_atom_site_fract_z
Si Si1 0.234362 0.530410 0.492365
Si Si2 0.550054 0.300212 0.678406
Si Si3 0.189717 0.610223 0.989104
Si Si4 0.946101 0.216895 0.548922
Si Si5 0.592457 0.064320 0.933306
Si Si6 0.159955 0.930614 0.534581
Si Si7 0.789869 0.703496 0.729257
Si Si8 0.349922 0.202585 0.924702
O O1 0.500000 0.500000 0.500000
O O2 0.245413 0.572954 0.742964
O O3 0.000000 0.500000 0.500000
O O4 0.184703 0.566306 0.226626
O O5 0.756745 0.278530 0.541627
O O6 0.331569 0.331439 0.504553
O O7 0.497844 0.228417 0.742753
O O8 0.628030 0.343814 0.906084
O O9 0.952151 0.652984 0.907634
O O10 0.910537 0.141452 0.520695
O O11 0.083670 0.239555 0.351738
O O12 0.098482 0.219972 0.809853
O O13 0.769324 0.072970 0.170637
O O14 0.672334 0.063394 0.665735
O O15 0.408547 0.126242 0.951477
O O16 0.500000 0.000000 0.000000
O O17 0.000000 0.000000 0.500000
O O18 0.604539 0.749568 0.850263
#
# Coordination Sequence:
#
# PCOD9064508 Si02
#       8
#     2   2   2   2   2   2   2   2
#     4  12  31  59  89 125 172 224 271 334 397 478
#     4  11  25  47  72 114 158 203 253 327 402 467
#     4  12  28  52  86 123 164 212 275 321 393 488
#     4  11  24  46  66 107 153 195 257 319 404 468
#     4  12  27  46  69 100 141 195 262 324 394 471
#     4  12  27  45  72  97 138 198 257 327 392 474
#     4  11  27  43  76 115 158 205 254 329 399 472
#     4  11  25  42  72 105 153 198 252 329 396 475
#
# _framework density 23.207151
#
# number of rings (size 3 to 8) (size 9 to 14) (size 15 to 20)
#    0.000    0.500    2.500    3.750   14.000    0.000 
#    0.000    0.000    0.000    0.000    0.000    0.000 
#    0.000    0.000    0.000    0.000    0.000    0.000 
#
# Total GULP energy -89156.797990 kJ/mol
# GULP energy per Si atom -5572.299874 kJ/mol
# Density = 2.315433 g / cm^3
# Si number density = 23.207151 Si / 1000 Ang^3
#
#
#
# Elastic Constant Matrix: (Units=GPa)
#
#
# Indices 1 2 3 4 5 6 
#
# 1 75.3945 62.9043 26.9642 -0.9789 2.2262 2.7137
# 2 62.9043 119.4897 63.3479 -1.7570 5.4248 -9.7924
# 3 26.9642 63.3479 114.4919 1.7695 8.0509 -13.5893
# 4 -0.9789 -1.7570 1.7695 47.8375 1.3117 1.1085
# 5 2.2262 5.4248 8.0509 1.3117 41.1949 3.7834
# 6 2.7137 -9.7924 -13.5893 1.1085 3.7834 39.1656
#
#
#
# Elastic Compliance Matrix: (Units=1/GPa)
#
#
# Indices 1 2 3 4 5 6 
#
# 1 0.024778 -0.014219 0.001406 0.000026 0.000704 -0.004853
# 2 -0.014219 0.020048 -0.007279 0.000655 -0.000794 0.003530
# 3 0.001406 -0.007279 0.012901 -0.000728 -0.001869 0.002760
# 4 0.000026 0.000655 -0.000728 0.020985 -0.000555 -0.000631
# 5 0.000704 -0.000794 -0.001869 -0.000555 0.025027 -0.003298
# 6 -0.004853 0.003530 0.002760 -0.000631 -0.003298 0.028046
#
#
# Mechanical properties :
#
#
# Convention : Reuss Voigt Hill
#
# Bulk Modulus (GPa) = 57.00243 68.42323 62.71283
# Shear Modulus (GPa) = 28.11854 36.05024 32.08439
#
# Velocity S-wave (km/s) = 3.48463 3.94561 3.72226
# Velocity P-wave (km/s) = 6.38795 7.09259 6.74947
#
# Compressibility (1/GPa) = 0.01754311
#
# Stress axis : x y z
#
# Youngs Moduli (GPa) = 40.35778 49.87915 77.51319
#
# Poissons Ratio (x) = 0.70923 -0.10897
# Poissons Ratio (y) = 0.57384 0.56424
# Poissons Ratio (z) = -0.05673 0.36308
#
# Static dielectric constant tensor:
#      x y z
#    x 1.843200 0.316040 0.191260 
#    y 0.316040 0.972950 -0.454870 
#    z 0.191260 -0.454870 1.716520 
# 
# From -- ./inp_files/11420.got.cif
#   From: 2010.05.17/outbox.cif.g08.bks.cpg/sg2_6_cif.got.tgz:11420.got - 2010.06.03 11:33:40.
