data_PCOD9064804
_publ_section_title
;
Structure prediction by ZEFSAII (Michael W. Deem and Ramdas Pophale) SiO2 
 PCOD9064804
Probable space group: P -1
;
_chemical_formula_sum "Si O2"
_cell_formula_units_Z 14
_cell_length_a 17.313567
_cell_length_b 11.687010
_cell_length_c 17.766972
_cell_angle_alpha 30.940784
_cell_angle_beta 20.056179
_cell_angle_gamma 31.071072
_cell_volume 606.967526
_symmetry_space_group_name_H-M "P -1"
_symmetry_group_IT_number 2
_symmetry_cell_setting 'triclinic'
loop_
_space_group_symop_operation_xyz
x,y,z
-x,-y,-z
loop_
_atom_site_type_symbol
_atom_site_label
_atom_site_fract_x
_atom_site_fract_y
_atom_site_fract_z
Si Si1 0.654976 0.791463 0.233737
Si Si2 0.723473 0.005759 0.735193
Si Si3 0.702112 0.833777 0.458242
Si Si4 0.085172 0.755004 0.964358
Si Si5 0.916999 0.536085 0.733120
Si Si6 0.386106 0.294053 0.220499
Si Si7 0.618605 0.541974 0.270090
O O1 0.754895 0.656768 0.141299
O O2 0.453109 0.673173 0.506833
O O3 0.547486 0.062757 0.163685
O O4 0.829849 0.764264 0.159569
O O5 0.610606 0.246983 0.658996
O O6 0.785018 0.769291 0.765117
O O7 0.000000 0.000000 0.500000
O O8 0.500000 0.000000 0.000000
O O9 0.638532 0.781331 0.629678
O O10 0.804729 0.589747 0.458167
O O11 0.500000 0.000000 0.500000
O O12 0.881476 0.990461 0.216276
O O13 0.248755 0.565314 0.866017
O O14 0.143949 0.660949 0.048191
O O15 0.845249 0.597695 0.677936
O O16 0.500000 0.500000 0.000000
#
# Coordination Sequence:
#
# PCOD9064804 Si02
#       7
#     2   2   2   2   2   2   2
#     4  11  24  46  73 109 147 200 257 315 386 469
#     4  12  27  48  76 114 159 202 257 324 396 464
#     4  12  27  48  74 107 148 209 258 317 388 474
#     4  12  24  46  76 105 148 198 258 312 387 469
#     4  12  26  46  71 112 149 200 255 323 392 458
#     4  12  25  47  70 108 153 194 258 321 392 456
#     4  11  24  46  74 109 149 198 261 313 387 470
#
# _framework density 23.065484000000001
#
# number of rings (size 3 to 8) (size 9 to 14) (size 15 to 20)
#    0.000    0.286    4.286    4.714    2.000    1.143 
#    2.571    0.000    0.000    0.000    0.000    0.000 
#    0.000    0.000    0.000    0.000    0.000    0.000 
#
# Total GULP energy -78042.423440 kJ/mol
# GULP energy per Si atom -5574.458817 kJ/mol
# Density = 2.301299 g / cm^3
# Si number density = 23.065484 Si / 1000 Ang^3
#
#
#
# Elastic Constant Matrix: (Units=GPa)
#
#
# Indices 1 2 3 4 5 6 
#
# 1 121.0466 51.9455 52.5208 4.0391 22.7167 -13.0772
# 2 51.9455 174.6341 41.8675 6.0294 4.7305 0.4723
# 3 52.5208 41.8675 69.0300 -9.0418 8.1461 5.4062
# 4 4.0391 6.0294 -9.0418 47.6820 0.9524 3.0402
# 5 22.7167 4.7305 8.1461 0.9524 32.7448 2.6501
# 6 -13.0772 0.4723 5.4062 3.0402 2.6501 46.6894
#
#
#
# Elastic Compliance Matrix: (Units=1/GPa)
#
#
# Indices 1 2 3 4 5 6 
#
# 1 0.016468 -0.001828 -0.011377 -0.003572 -0.008767 0.006679
# 2 -0.001828 0.007049 -0.003175 -0.001348 0.001094 -0.000190
# 3 -0.011377 -0.003175 0.026221 0.006724 0.002179 -0.006752
# 4 -0.003572 -0.001348 0.006724 0.022918 0.000600 -0.003292
# 5 -0.008767 0.001094 0.002179 0.000600 0.036294 -0.004818
# 6 0.006679 -0.000190 -0.006752 -0.003292 -0.004818 0.024560
#
#
# Mechanical properties :
#
#
# Convention : Reuss Voigt Hill
#
# Bulk Modulus (GPa) = 58.90370 73.04203 65.97286
# Shear Modulus (GPa) = 29.08163 39.98170 34.53166
#
# Velocity S-wave (km/s) = 3.55467 4.16793 3.87345
# Velocity P-wave (km/s) = 6.51464 7.40933 6.97634
#
# Compressibility (1/GPa) = 0.01697686
#
# Stress axis : x y z
#
# Youngs Moduli (GPa) = 60.72275 141.87086 38.13761
#
# Poissons Ratio (x) = 0.25936 0.43390
# Poissons Ratio (y) = 0.11101 0.12109
# Poissons Ratio (z) = 0.69086 0.45044
#
# Static dielectric constant tensor:
#      x y z
#    x 1.922340 0.043940 0.003080 
#    y 0.043940 1.851930 0.055110 
#    z 0.003080 0.055110 1.956080 
# 
# From -- ./inp_files/322265.got.cif
#   From: 2010.05.17/outbox.cif.g08.bks.cpg/sg2_162_cif.got.tgz:322265.got - 2010.06.03 11:33:40.
