data_PCOD9064406
_publ_section_title
;
Structure prediction by ZEFSAII (Michael W. Deem and Ramdas Pophale) SiO2 
 PCOD9064406
Probable space group: P -1
;
_chemical_formula_sum "Si O2"
_cell_formula_units_Z 16
_cell_length_a 14.600608
_cell_length_b 8.623076
_cell_length_c 11.330903
_cell_angle_alpha 110.291772
_cell_angle_beta 57.144673
_cell_angle_gamma 62.563831
_cell_volume 637.543026
_symmetry_space_group_name_H-M "P -1"
_symmetry_group_IT_number 2
_symmetry_cell_setting 'triclinic'
loop_
_space_group_symop_operation_xyz
x,y,z
-x,-y,-z
loop_
_atom_site_type_symbol
_atom_site_label
_atom_site_fract_x
_atom_site_fract_y
_atom_site_fract_z
Si Si1 0.648794 0.191909 0.751615
Si Si2 0.016464 0.835729 0.269742
Si Si3 0.628499 0.585190 0.443979
Si Si4 0.313142 0.381579 0.336699
Si Si5 0.109031 0.107498 0.277431
Si Si6 0.915863 0.430659 0.086410
Si Si7 0.251530 0.915555 0.875005
Si Si8 0.624374 0.720011 0.998113
O O1 0.508402 0.226570 0.811051
O O2 0.784871 0.955601 0.699558
O O3 0.500000 0.500000 0.000000
O O4 0.798142 0.076535 0.523915
O O5 0.047118 0.743925 0.090781
O O6 0.071798 0.957214 0.286390
O O7 0.164512 0.537626 0.163086
O O8 0.704200 0.481388 0.499804
O O9 0.401106 0.847593 0.686196
O O10 0.698078 0.335479 0.259936
O O11 0.703274 0.656220 0.344794
O O12 0.102977 0.559868 0.515367
O O13 0.495637 0.040815 0.152081
O O14 0.353989 0.387000 0.175812
O O15 0.246836 0.947769 0.026376
O O16 0.044144 0.217038 0.050758
O O17 0.000000 0.500000 0.000000
#
# Coordination Sequence:
#
# PCOD9064406 Si02
#       8
#     2   2   2   2   2   2   2   2
#     4  12  25  43  74 108 143 187 236 293 369 422
#     4  12  26  46  73 104 149 187 240 298 360 434
#     4  11  24  48  74 103 140 190 244 300 357 431
#     4  11  24  45  74  99 147 184 241 299 356 430
#     4  12  22  46  77 105 139 191 242 299 355 435
#     4  12  28  46  71 106 147 189 238 299 363 430
#     4  11  25  46  76 105 137 191 250 299 356 427
#     4  11  26  47  67 109 141 190 235 302 360 432
#
# _framework density 25.096346
#
# number of rings (size 3 to 8) (size 9 to 14) (size 15 to 20)
#    0.000    0.500    5.000    3.000    3.500    4.000 
#    0.000    0.000    0.000    0.000    0.000    0.000 
#    0.000    0.000    0.000    0.000    0.000    0.000 
#
# Total GULP energy -89522.337278 kJ/mol
# GULP energy per Si atom -5595.146080 kJ/mol
# Density = 2.503923 g / cm^3
# Si number density = 25.096346 Si / 1000 Ang^3
#
#
#
# Elastic Constant Matrix: (Units=GPa)
#
#
# Indices 1 2 3 4 5 6 
#
# 1 48.5561 1.2787 30.1379 -5.3074 -6.6125 1.5422
# 2 1.2787 54.9525 43.2136 -1.3646 -3.1646 3.2747
# 3 30.1379 43.2136 164.6348 -26.6317 -24.9838 15.3965
# 4 -5.3074 -1.3646 -26.6317 45.5947 -2.3428 -6.2501
# 5 -6.6125 -3.1646 -24.9838 -2.3428 42.5591 -8.6028
# 6 1.5422 3.2747 15.3965 -6.2501 -8.6028 28.8329
#
#
#
# Elastic Compliance Matrix: (Units=1/GPa)
#
#
# Indices 1 2 3 4 5 6 
#
# 1 0.023885 0.003554 -0.005249 0.000088 0.001202 0.001499
# 2 0.003554 0.024140 -0.007948 -0.003673 -0.002571 -0.000251
# 3 -0.005249 -0.007948 0.010948 0.005525 0.004921 -0.001997
# 4 0.000088 -0.003673 0.005525 0.025979 0.005363 0.004694
# 5 0.001202 -0.002571 0.004921 0.005363 0.028122 0.007153
# 6 0.001499 -0.000251 -0.001997 0.004694 0.007153 0.038849
#
#
# Mechanical properties :
#
#
# Convention : Reuss Voigt Hill
#
# Bulk Modulus (GPa) = 25.19657 46.37819 35.78738
# Shear Modulus (GPa) = 27.10933 36.29823 31.70378
#
# Velocity S-wave (km/s) = 3.29022 3.80722 3.55812
# Velocity P-wave (km/s) = 4.94932 6.15197 5.58313
#
# Compressibility (1/GPa) = 0.03968794
#
# Stress axis : x y z
#
# Youngs Moduli (GPa) = 41.86805 41.42416 91.33829
#
# Poissons Ratio (x) = -0.14721 0.47940
# Poissons Ratio (y) = -0.14879 0.72594
# Poissons Ratio (z) = 0.21975 0.32923
#
# Static dielectric constant tensor:
#      x y z
#    x 1.992130 0.063190 -0.015090 
#    y 0.063190 1.998900 -0.007040 
#    z -0.015090 -0.007040 1.965960 
# 
# From -- ./inp_files/447790.got.cif
#   From: 2010.05.17/outbox.cif.g08.bks.cpg/sg2_224_cif.got.tgz:447790.got - 2010.06.03 11:33:40.
