data_PCOD9064218
_publ_section_title
;
Structure prediction by ZEFSAII (Michael W. Deem and Ramdas Pophale) SiO2 
 PCOD9064218
Probable space group: P -1
;
_chemical_formula_sum "Si O2"
_cell_formula_units_Z 14
_cell_length_a 8.930111
_cell_length_b 5.488840
_cell_length_c 14.526338
_cell_angle_alpha 106.596619
_cell_angle_beta 119.827355
_cell_angle_gamma 96.535818
_cell_volume 563.227814
_symmetry_space_group_name_H-M "P -1"
_symmetry_group_IT_number 2
_symmetry_cell_setting 'triclinic'
loop_
_space_group_symop_operation_xyz
x,y,z
-x,-y,-z
loop_
_atom_site_type_symbol
_atom_site_label
_atom_site_fract_x
_atom_site_fract_y
_atom_site_fract_z
Si Si1 0.842580 0.705063 0.914132
Si Si2 0.350137 0.576995 0.405918
Si Si3 0.992519 0.461463 0.224044
Si Si4 0.515227 0.154986 0.218763
Si Si5 0.362903 0.071291 0.587163
Si Si6 0.890534 0.614839 0.397398
Si Si7 0.646937 0.365130 0.995945
O O1 0.908886 0.510255 0.843812
O O2 0.670360 0.774180 0.828060
O O3 0.766654 0.548166 0.969298
O O4 0.000000 0.000000 0.000000
O O5 0.500000 0.500000 0.500000
O O6 0.150513 0.363162 0.312807
O O7 0.467830 0.683458 0.364008
O O8 0.328671 0.840085 0.476410
O O9 0.970223 0.656165 0.321474
O O10 0.788644 0.330361 0.112308
O O11 0.698309 0.395075 0.290219
O O12 0.562484 0.032117 0.312595
O O13 0.471671 0.922600 0.105797
O O14 0.182976 0.152959 0.559276
O O15 0.000000 0.500000 0.500000
O O16 0.500000 0.500000 0.000000
#
# Coordination Sequence:
#
# PCOD9064218 Si02
#       7
#     2   2   2   2   2   2   2
#     4  12  27  47  76 112 154 200 261 318 390 468
#     4  11  24  45  74 105 146 194 258 324 394 457
#     4  12  25  46  73 107 151 199 256 314 391 466
#     4  12  25  47  73 100 156 197 251 324 388 463
#     4  11  24  45  72 105 144 200 254 321 388 461
#     4  12  28  48  74 112 155 207 264 323 393 464
#     4  12  28  47  73 111 154 203 256 315 399 472
#
# _framework density 24.856724
#
# number of rings (size 3 to 8) (size 9 to 14) (size 15 to 20)
#    0.000    0.286    1.429    8.143    4.000    5.714 
#    0.000    0.000    0.000    0.000    0.000    0.000 
#    0.000    0.000    0.000    0.000    0.000    0.000 
#
# Total GULP energy -77966.394225 kJ/mol
# GULP energy per Si atom -5569.028159 kJ/mol
# Density = 2.480015 g / cm^3
# Si number density = 24.856724 Si / 1000 Ang^3
#
#
#
# Elastic Constant Matrix: (Units=GPa)
#
#
# Indices 1 2 3 4 5 6 
#
# 1 176.6821 66.1437 133.6599 -0.3537 6.0420 -46.1066
# 2 66.1437 47.5336 -22.7442 -3.3497 2.2415 24.8802
# 3 133.6599 -22.7442 -41.1292 2.6974 20.5901 126.1479
# 4 -0.3537 -3.3497 2.6974 39.9479 -9.0126 13.5367
# 5 6.0420 2.2415 20.5901 -9.0126 82.2008 9.9614
# 6 -46.1066 24.8802 126.1479 13.5367 9.9614 -65.5132
#
#
#
# Elastic Compliance Matrix: (Units=1/GPa)
#
#
# Indices 1 2 3 4 5 6 
#
# 1 0.006423 -0.005064 -0.001488 0.002924 0.001388 -0.008493
# 2 -0.005064 0.022594 -0.001240 -0.001481 -0.001218 0.009265
# 3 -0.001488 -0.001240 0.006967 -0.005582 -0.003701 0.012275
# 4 0.002924 -0.001481 -0.005582 0.028731 0.005179 -0.006645
# 5 0.001388 -0.001218 -0.003701 0.005179 0.014238 -0.005332
# 6 -0.008493 0.009265 0.012275 -0.006645 -0.005332 0.015683
#
#
# Mechanical properties :
#
#
# Convention : Reuss Voigt Hill
#
# Bulk Modulus (GPa) = 49.01690 59.68948 54.35319
# Shear Modulus (GPa) = 42.72775 11.72891 27.22833
#
# Velocity S-wave (km/s) = 4.15053 2.17459 3.31329
# Velocity P-wave (km/s) = 6.53696 5.51096 6.04576
#
# Compressibility (1/GPa) = 0.02040113
#
# Stress axis : x y z
#
# Youngs Moduli (GPa) = 155.68819 44.25927 143.53518
#
# Poissons Ratio (x) = 0.22412 0.21352
# Poissons Ratio (y) = 0.78837 0.17800
# Poissons Ratio (z) = 0.23160 0.05489
#
# Static dielectric constant tensor:
#      x y z
#    x 2.027120 -0.020520 -0.038060 
#    y -0.020520 1.826530 0.023420 
#    z -0.038060 0.023420 2.061650 
# 
# From -- ./inp_files/488724.got.cif
#   From: 2010.05.17/outbox.cif.g08.bks.cpg/sg2_245_cif.got.tgz:488724.got - 2010.06.03 11:33:40.
