data_PCOD9064929
_publ_section_title
;
Structure prediction by ZEFSAII (Michael W. Deem and Ramdas Pophale) SiO2 
 PCOD9064929
Probable space group: P -1
;
_chemical_formula_sum "Si O2"
_cell_formula_units_Z 15
_cell_length_a 8.550567
_cell_length_b 9.694965
_cell_length_c 8.934215
_cell_angle_alpha 106.424019
_cell_angle_beta 90.300236
_cell_angle_gamma 56.619465
_cell_volume 582.669891
_symmetry_space_group_name_H-M "P -1"
_symmetry_group_IT_number 2
_symmetry_cell_setting 'triclinic'
loop_
_space_group_symop_operation_xyz
x,y,z
-x,-y,-z
loop_
_atom_site_type_symbol
_atom_site_label
_atom_site_fract_x
_atom_site_fract_y
_atom_site_fract_z
Si Si1 0.886939 0.791006 0.307628
Si Si2 0.635752 0.785809 0.543927
Si Si3 0.327807 0.178762 0.974914
Si Si4 0.260676 0.861075 0.452180
Si Si5 0.602825 0.290700 0.927294
Si Si6 0.795124 0.423355 0.563754
Si Si7 0.000000 0.000000 0.000000
Si Si8 0.103750 0.220266 0.253077
O O1 0.766165 0.738500 0.384963
O O2 0.788521 0.847301 0.163033
O O3 0.102434 0.625942 0.288799
O O4 0.903675 0.941412 0.431037
O O5 0.426250 0.883118 0.514245
O O6 0.664711 0.627272 0.593587
O O7 0.701235 0.881323 0.679780
O O8 0.432530 0.266163 0.948149
O O9 0.161534 0.282048 0.128995
O O10 0.500000 0.000000 0.000000
O O11 0.306453 0.793379 0.261279
O O12 0.280466 0.699021 0.489030
O O13 0.500000 0.500000 0.000000
O O14 0.778891 0.181207 0.011270
O O15 0.953175 0.357579 0.412959
O O16 0.033884 0.107015 0.156187
#
# Coordination Sequence:
#
# PCOD9064929 Si02
#       8
#     2   2   2   2   2   2   1   2
#     4  11  24  46  76 107 147 199 267 313 383 482
#     4  11  24  50  76 106 151 199 262 317 392 470
#     4  12  26  49  79 110 154 211 261 326 405 470
#     4  12  26  47  77 110 151 202 260 323 391 470
#     4  12  30  51  78 123 160 210 265 328 405 477
#     4  11  27  46  76 112 151 199 262 325 394 463
#     4  12  28  50  78 112 172 198 258 338 400 458
#     4  11  26  45  78 110 150 211 260 318 402 471
#
# _framework density 25.743565
#
# number of rings (size 3 to 8) (size 9 to 14) (size 15 to 20)
#    0.000    0.533    2.667    5.200    7.467    2.133 
#    0.000    3.333    0.000    0.000    0.000    0.000 
#    0.000    0.000    0.000    0.000    0.000    0.000 
#
# Total GULP energy -83549.918703 kJ/mol
# GULP energy per Si atom -5569.994580 kJ/mol
# Density = 2.568497 g / cm^3
# Si number density = 25.743565 Si / 1000 Ang^3
#
#
#
# Elastic Constant Matrix: (Units=GPa)
#
#
# Indices 1 2 3 4 5 6 
#
# 1 65.6838 23.2125 47.0370 -5.6522 8.8909 13.3870
# 2 23.2125 117.9822 44.7717 2.5446 32.7546 7.4084
# 3 47.0370 44.7717 152.8658 -4.4613 24.2640 0.5190
# 4 -5.6522 2.5446 -4.4613 31.3582 2.5901 6.3859
# 5 8.8909 32.7546 24.2640 2.5901 55.1642 -9.4095
# 6 13.3870 7.4084 0.5190 6.3859 -9.4095 36.0666
#
#
#
# Elastic Compliance Matrix: (Units=1/GPa)
#
#
# Indices 1 2 3 4 5 6 
#
# 1 0.022742 -0.001021 -0.006146 0.005471 -0.002268 -0.009703
# 2 -0.001021 0.011429 -0.002020 -0.000150 -0.006334 -0.003566
# 3 -0.006146 -0.002020 0.009260 0.000060 -0.001518 0.002156
# 4 0.005471 -0.000150 0.000060 0.035120 -0.004050 -0.009276
# 5 -0.002268 -0.006334 -0.001518 -0.004050 0.024703 0.009327
# 6 -0.009703 -0.003566 0.002156 -0.009276 0.009327 0.036105
#
#
# Mechanical properties :
#
#
# Convention : Reuss Voigt Hill
#
# Bulk Modulus (GPa) = 39.91031 62.95268 51.43149
# Shear Modulus (GPa) = 30.10507 39.28518 34.69513
#
# Velocity S-wave (km/s) = 3.42339 3.91067 3.67511
# Velocity P-wave (km/s) = 5.58237 6.70059 6.16688
#
# Compressibility (1/GPa) = 0.02505619
#
# Stress axis : x y z
#
# Youngs Moduli (GPa) = 43.97158 87.49711 107.99350
#
# Poissons Ratio (x) = 0.08936 0.66374
# Poissons Ratio (y) = 0.04491 0.21814
# Poissons Ratio (z) = 0.27025 0.17674
#
# Static dielectric constant tensor:
#      x y z
#    x 2.142350 -0.032010 -0.088220 
#    y -0.032010 2.060570 -0.017570 
#    z -0.088220 -0.017570 2.052300 
# 
# From -- ./inp_files/159295.got.cif
#   From: 2010.05.17/outbox.cif.g08.bks.cpg/sg2_80_cif.got.tgz:159295.got - 2010.06.03 11:33:40.
