data_PCOD9064608
_publ_section_title
;
Structure prediction by ZEFSAII (Michael W. Deem and Ramdas Pophale) SiO2 
 PCOD9064608
Probable space group: P -1
;
_chemical_formula_sum "Si O2"
_cell_formula_units_Z 16
_cell_length_a 9.359638
_cell_length_b 14.357613
_cell_length_c 13.551896
_cell_angle_alpha 63.610650
_cell_angle_beta 53.696041
_cell_angle_gamma 109.372904
_cell_volume 744.844081
_symmetry_space_group_name_H-M "P -1"
_symmetry_group_IT_number 2
_symmetry_cell_setting 'triclinic'
loop_
_space_group_symop_operation_xyz
x,y,z
-x,-y,-z
loop_
_atom_site_type_symbol
_atom_site_label
_atom_site_fract_x
_atom_site_fract_y
_atom_site_fract_z
Si Si1 0.819449 0.486323 0.669110
Si Si2 0.859533 0.167341 0.237385
Si Si3 0.148796 0.363767 0.222198
Si Si4 0.844294 0.231442 0.991075
Si Si5 0.953006 0.866911 0.128935
Si Si6 0.176228 0.990476 0.381995
Si Si7 0.742085 0.488996 0.493836
Si Si8 0.124511 0.057721 0.164211
O O1 0.833740 0.541419 0.746054
O O2 0.806752 0.561315 0.545775
O O3 0.129796 0.564706 0.508737
O O4 0.491596 0.263740 0.899883
O O5 0.027167 0.317071 0.182584
O O6 0.965113 0.095684 0.225031
O O7 0.500000 0.000000 0.500000
O O8 0.933408 0.248522 0.060035
O O9 0.945792 0.173306 0.442018
O O10 0.500000 0.500000 0.000000
O O11 0.787140 0.089124 0.034314
O O12 0.066698 0.383187 0.741495
O O13 0.549914 0.164669 0.153301
O O14 0.616184 0.669080 0.317108
O O15 0.975571 0.911175 0.211521
O O16 0.000000 0.000000 0.000000
O O17 0.100944 0.974734 0.307784
O O18 0.000000 0.000000 0.500000
#
# Coordination Sequence:
#
# PCOD9064608 Si02
#       8
#     2   2   2   2   2   2   2   2
#     4  11  24  46  70 103 144 189 232 294 353 425
#     4  12  24  45  71 101 143 187 234 293 356 417
#     4  12  26  43  75 102 143 190 238 285 362 416
#     4  12  26  46  76 104 142 188 240 292 360 423
#     4  12  26  43  72 106 142 187 232 291 361 420
#     4  12  25  47  72 106 142 185 241 293 349 429
#     4  11  26  46  72 104 148 182 239 294 354 420
#     4  12  24  47  70 102 147 183 235 297 354 419
#
# _framework density 21.481007999999999
#
# number of rings (size 3 to 8) (size 9 to 14) (size 15 to 20)
#    0.000    0.250    7.500    0.375    5.250    1.500 
#    0.000    0.625    0.000    0.000    0.000    0.000 
#    0.000    0.000    0.000    0.000    0.000    0.000 
#
# Total GULP energy -89127.444257 kJ/mol
# GULP energy per Si atom -5570.465266 kJ/mol
# Density = 2.143212 g / cm^3
# Si number density = 21.481008 Si / 1000 Ang^3
#
#
#
# Elastic Constant Matrix: (Units=GPa)
#
#
# Indices 1 2 3 4 5 6 
#
# 1 93.3772 47.1295 18.7310 18.4682 9.8722 27.1214
# 2 47.1295 115.5247 21.7309 24.9519 -5.0973 34.9985
# 3 18.7310 21.7309 69.2416 25.9949 3.6420 8.4742
# 4 18.4682 24.9519 25.9949 27.0091 5.7124 5.9868
# 5 9.8722 -5.0973 3.6420 5.7124 55.8402 19.4052
# 6 27.1214 34.9985 8.4742 5.9868 19.4052 47.5548
#
#
#
# Elastic Compliance Matrix: (Units=1/GPa)
#
#
# Indices 1 2 3 4 5 6 
#
# 1 0.015151 -0.003348 -0.000208 -0.005798 -0.000580 -0.005174
# 2 -0.003348 0.016637 0.001988 -0.013931 0.007587 -0.012031
# 3 -0.000208 0.001988 0.023027 -0.023589 0.002320 -0.003425
# 4 -0.005798 -0.013931 -0.023589 0.076064 -0.010877 0.012626
# 5 -0.000580 0.007587 0.002320 -0.010877 0.024654 -0.014357
# 6 -0.005174 -0.012031 -0.003425 0.012626 -0.014357 0.037713
#
#
# Mechanical properties :
#
#
# Convention : Reuss Voigt Hill
#
# Bulk Modulus (GPa) = 19.34990 50.36958 34.85974
# Shear Modulus (GPa) = 23.40732 38.78428 31.09580
#
# Velocity S-wave (km/s) = 3.30460 4.25374 3.80885
# Velocity P-wave (km/s) = 4.85675 6.90110 5.96712
#
# Compressibility (1/GPa) = 0.05167985
#
# Stress axis : x y z
#
# Youngs Moduli (GPa) = 66.00041 60.10853 43.42667
#
# Poissons Ratio (x) = 0.20125 0.00901
# Poissons Ratio (y) = 0.22097 -0.08633
# Poissons Ratio (z) = 0.01370 -0.11949
#
# Static dielectric constant tensor:
#      x y z
#    x 1.783030 0.028240 0.014710 
#    y 0.028240 1.092340 -0.232450 
#    z 0.014710 -0.232450 1.715180 
# 
# From -- ./inp_files/245689.got.cif
#   From: 2010.05.17/outbox.cif.g08.bks.cpg/sg2_123_cif.got.tgz:245689.got - 2010.06.03 11:33:40.
