data_PCOD9064686
_publ_section_title
;
Structure prediction by ZEFSAII (Michael W. Deem and Ramdas Pophale) SiO2 
 PCOD9064686
Probable space group: P -1
;
_chemical_formula_sum "Si O2"
_cell_formula_units_Z 16
_cell_length_a 13.470894
_cell_length_b 8.854632
_cell_length_c 10.106235
_cell_angle_alpha 131.705068
_cell_angle_beta 112.545615
_cell_angle_gamma 45.741392
_cell_volume 637.143725
_symmetry_space_group_name_H-M "P -1"
_symmetry_group_IT_number 2
_symmetry_cell_setting 'triclinic'
loop_
_space_group_symop_operation_xyz
x,y,z
-x,-y,-z
loop_
_atom_site_type_symbol
_atom_site_label
_atom_site_fract_x
_atom_site_fract_y
_atom_site_fract_z
Si Si1 0.158280 0.756687 0.476028
Si Si2 0.539308 0.647553 0.335388
Si Si3 0.750751 0.155197 0.801381
Si Si4 0.697332 0.040267 0.976290
Si Si5 0.577818 0.759417 0.717969
Si Si6 0.731720 0.943004 0.209865
Si Si7 0.741168 0.566571 0.189758
Si Si8 0.041946 0.683586 0.620020
O O1 0.278795 0.505737 0.302984
O O2 0.140988 0.623965 0.514051
O O3 0.225386 0.889665 0.623244
O O4 0.000000 0.000000 0.500000
O O5 0.377214 0.798749 0.309873
O O6 0.620445 0.341172 0.157179
O O7 0.558445 0.685697 0.519391
O O8 0.612249 0.723275 0.319522
O O9 0.778006 0.998276 0.859802
O O10 0.712236 0.424062 0.987801
O O11 0.896908 0.977805 0.697951
O O12 0.790376 0.854683 0.039580
O O13 0.595738 0.978209 0.851728
O O14 0.436379 0.874462 0.788085
O O15 0.766749 0.737082 0.218677
O O16 0.875345 0.358594 0.229070
O O17 0.000000 0.500000 0.500000
#
# Coordination Sequence:
#
# PCOD9064686 Si02
#       8
#     2   2   2   2   2   2   2   2
#     4  12  27  48  69 107 147 186 236 295 354 431
#     4  11  24  46  75 108 142 179 250 298 348 426
#     4  11  25  45  74 104 138 192 236 298 354 417
#     4  11  24  46  71 111 144 178 242 301 353 424
#     4  12  25  46  78 104 142 193 232 297 364 413
#     4  12  26  45  73 106 147 184 237 296 361 429
#     4  11  24  47  71 105 143 188 236 298 355 422
#     4  12  26  47  71 103 142 188 245 290 348 432
#
# _framework density 25.112074
#
# number of rings (size 3 to 8) (size 9 to 14) (size 15 to 20)
#    0.000    0.500    2.500    6.375    3.500    2.000 
#    0.000    1.875    0.000    0.000    0.000    0.000 
#    0.000    0.000    0.000    0.000    0.000    0.000 
#
# Total GULP energy -89646.842715 kJ/mol
# GULP energy per Si atom -5602.927670 kJ/mol
# Density = 2.505492 g / cm^3
# Si number density = 25.112074 Si / 1000 Ang^3
#
#
#
# Elastic Constant Matrix: (Units=GPa)
#
#
# Indices 1 2 3 4 5 6 
#
# 1 105.6191 4.7932 5.0067 1.0155 21.3621 14.3674
# 2 4.7932 94.7590 -1.2532 -2.3427 1.1801 -8.3693
# 3 5.0067 -1.2532 83.2371 -5.9446 21.2623 7.1766
# 4 1.0155 -2.3427 -5.9446 22.5278 5.9815 -6.5918
# 5 21.3621 1.1801 21.2623 5.9815 44.9629 8.6706
# 6 14.3674 -8.3693 7.1766 -6.5918 8.6706 48.3057
#
#
#
# Elastic Compliance Matrix: (Units=1/GPa)
#
#
# Indices 1 2 3 4 5 6 
#
# 1 0.010827 -0.000688 0.000877 0.000288 -0.005094 -0.002516
# 2 -0.000688 0.010881 0.000385 0.002242 -0.000922 0.002504
# 3 0.000877 0.000385 0.014448 0.005918 -0.008029 -0.000092
# 4 0.000288 0.002242 0.005918 0.051734 -0.011526 0.008552
# 5 -0.005094 -0.000922 -0.008029 -0.011526 0.030896 -0.004570
# 6 -0.002516 0.002504 -0.000092 0.008552 -0.004570 0.023885
#
#
# Mechanical properties :
#
#
# Convention : Reuss Voigt Hill
#
# Bulk Modulus (GPa) = 26.80582 33.41206 30.10894
# Shear Modulus (GPa) = 32.47635 41.49718 36.98677
#
# Velocity S-wave (km/s) = 3.60009 4.06948 3.84196
# Velocity P-wave (km/s) = 5.28947 5.95105 5.62998
#
# Compressibility (1/GPa) = 0.03730533
#
# Stress axis : x y z
#
# Youngs Moduli (GPa) = 92.35812 91.90323 69.21190
#
# Poissons Ratio (x) = 0.06321 -0.06071
# Poissons Ratio (y) = 0.06352 -0.02664
# Poissons Ratio (z) = -0.08101 -0.03537
#
# Static dielectric constant tensor:
#      x y z
#    x 1.951010 0.025350 -0.026400 
#    y 0.025350 2.067890 0.016430 
#    z -0.026400 0.016430 1.943800 
# 
# From -- ./inp_files/154274.got.cif
#   From: 2010.05.17/outbox.cif.g08.bks.cpg/sg2_78_cif.got.tgz:154274.got - 2010.06.03 11:33:40.
