data_PCOD9064294
_publ_section_title
;
Structure prediction by ZEFSAII (Michael W. Deem and Ramdas Pophale) SiO2 
 PCOD9064294
Probable space group: P -1
;
_chemical_formula_sum "Si O2"
_cell_formula_units_Z 16
_cell_length_a 17.511481
_cell_length_b 14.305374
_cell_length_c 8.637198
_cell_angle_alpha 36.424238
_cell_angle_beta 35.760557
_cell_angle_gamma 32.286700
_cell_volume 624.735333
_symmetry_space_group_name_H-M "P -1"
_symmetry_group_IT_number 2
_symmetry_cell_setting 'triclinic'
loop_
_space_group_symop_operation_xyz
x,y,z
-x,-y,-z
loop_
_atom_site_type_symbol
_atom_site_label
_atom_site_fract_x
_atom_site_fract_y
_atom_site_fract_z
Si Si1 0.975286 0.000355 0.356110
Si Si2 0.307195 0.827641 0.636395
Si Si3 0.831671 0.554494 0.935021
Si Si4 0.745223 0.371595 0.728639
Si Si5 0.623038 0.921238 0.628817
Si Si6 0.863378 0.792296 0.163818
Si Si7 0.729161 0.747694 0.170998
Si Si8 0.598895 0.483304 0.510417
O O1 0.806240 0.108262 0.409152
O O2 0.000000 0.000000 0.500000
O O3 0.079498 0.791522 0.390859
O O4 0.060612 0.105449 0.023399
O O5 0.489018 0.700955 0.455643
O O6 0.285587 0.004688 0.524755
O O7 0.287226 0.696252 0.966167
O O8 0.806804 0.665930 0.986047
O O9 0.770542 0.421632 0.255877
O O10 0.699206 0.706138 0.836972
O O11 0.003481 0.432057 0.743902
O O12 0.725739 0.574717 0.487953
O O13 0.636237 0.375580 0.759101
O O14 0.688341 0.894681 0.383550
O O15 0.444102 0.062852 0.781986
O O16 0.836921 0.800868 0.012625
O O17 0.500000 0.500000 0.500000
#
# Coordination Sequence:
#
# PCOD9064294 Si02
#       8
#     2   2   2   2   2   2   2   2
#     4  12  27  45  72 109 144 188 243 297 362 427
#     4  12  25  45  73 104 147 189 238 295 367 425
#     4  11  25  46  70 104 143 189 242 292 365 418
#     4  11  24  46  72 106 146 189 242 291 365 430
#     4  12  26  46  72 107 143 189 236 296 364 426
#     4  12  27  46  69 108 142 186 242 295 361 423
#     4  11  26  47  74 105 142 193 238 294 361 425
#     4  11  24  45  73 106 142 192 243 297 354 426
#
# _framework density 25.610845000000001
#
# number of rings (size 3 to 8) (size 9 to 14) (size 15 to 20)
#    0.000    0.500    3.750    5.250    3.500    3.000 
#    0.000    0.000    0.000    0.000    0.000    0.000 
#    0.000    0.000    0.000    0.000    0.000    0.000 
#
# Total GULP energy -89335.109297 kJ/mol
# GULP energy per Si atom -5583.444331 kJ/mol
# Density = 2.555255 g / cm^3
# Si number density = 25.610845 Si / 1000 Ang^3
#
#
#
# Elastic Constant Matrix: (Units=GPa)
#
#
# Indices 1 2 3 4 5 6 
#
# 1 124.5809 10.1225 7.0594 -0.6112 7.1467 -14.9463
# 2 10.1225 150.9791 6.6372 7.6951 -4.7164 -17.4600
# 3 7.0594 6.6372 42.1889 -5.5438 7.6828 -6.7474
# 4 -0.6112 7.6951 -5.5438 36.4264 -7.5232 5.9287
# 5 7.1467 -4.7164 7.6828 -7.5232 29.0784 0.4198
# 6 -14.9463 -17.4600 -6.7474 5.9287 0.4198 38.3433
#
#
#
# Elastic Compliance Matrix: (Units=1/GPa)
#
#
# Indices 1 2 3 4 5 6 
#
# 1 0.008601 -0.000190 -0.000583 -0.000916 -0.002276 0.003330
# 2 -0.000190 0.007197 -0.000999 -0.002031 0.000905 0.003331
# 3 -0.000583 -0.000999 0.025989 0.002256 -0.006354 0.003612
# 4 -0.000916 -0.002031 0.002256 0.030648 0.007311 -0.005704
# 5 -0.002276 0.000905 -0.006354 0.007311 0.038712 -0.003148
# 6 0.003330 0.003331 0.003612 -0.005704 -0.003148 0.030447
#
#
# Mechanical properties :
#
#
# Convention : Reuss Voigt Hill
#
# Bulk Modulus (GPa) = 26.14883 40.59858 33.37370
# Shear Modulus (GPa) = 31.66850 40.36494 36.01672
#
# Velocity S-wave (km/s) = 3.52024 3.97430 3.75414
# Velocity P-wave (km/s) = 5.17253 6.07838 5.64366
#
# Compressibility (1/GPa) = 0.03824264
#
# Stress axis : x y z
#
# Youngs Moduli (GPa) = 116.26588 138.94377 38.47810
#
# Poissons Ratio (x) = 0.02645 0.02242
# Poissons Ratio (y) = 0.02213 0.03845
# Poissons Ratio (z) = 0.06774 0.13884
#
# Static dielectric constant tensor:
#      x y z
#    x 2.012160 0.001700 0.036550 
#    y 0.001700 1.995490 -0.037260 
#    z 0.036550 -0.037260 2.120460 
# 
# From -- ./inp_files/335623.got.cif
#   From: 2010.05.17/outbox.cif.g08.bks.cpg/sg2_168_cif.got.tgz:335623.got - 2010.06.03 11:33:40.
