data_PCOD9064193
_publ_section_title
;
Structure prediction by ZEFSAII (Michael W. Deem and Ramdas Pophale) SiO2 
 PCOD9064193
Probable space group: P -1
;
_chemical_formula_sum "Si O2"
_cell_formula_units_Z 14
_cell_length_a 14.755948
_cell_length_b 8.638775
_cell_length_c 8.394443
_cell_angle_alpha 101.169439
_cell_angle_beta 40.527996
_cell_angle_gamma 122.528313
_cell_volume 539.240427
_symmetry_space_group_name_H-M "P -1"
_symmetry_group_IT_number 2
_symmetry_cell_setting 'triclinic'
loop_
_space_group_symop_operation_xyz
x,y,z
-x,-y,-z
loop_
_atom_site_type_symbol
_atom_site_label
_atom_site_fract_x
_atom_site_fract_y
_atom_site_fract_z
Si Si1 0.270764 0.483991 0.651410
Si Si2 0.770720 0.857821 0.731004
Si Si3 0.742810 0.307065 0.027171
Si Si4 0.350929 0.077639 0.775019
Si Si5 0.432626 0.774590 0.053495
Si Si6 0.183295 0.078543 0.687140
Si Si7 0.096272 0.399282 0.546417
O O1 0.186280 0.505312 0.921925
O O2 0.459841 0.702537 0.422537
O O3 0.300123 0.319037 0.586074
O O4 0.120556 0.399977 0.702221
O O5 0.835909 0.970354 0.489064
O O6 0.844616 0.731908 0.621979
O O7 0.778660 0.935496 0.916256
O O8 0.563682 0.742919 0.951771
O O9 0.643557 0.098994 0.210298
O O10 0.608848 0.295774 0.085209
O O11 0.908041 0.332383 0.732386
O O12 0.272174 0.028255 0.691738
O O13 0.245177 0.630327 0.356323
O O14 0.500000 0.000000 0.000000
O O15 0.000000 0.000000 0.000000
#
# Coordination Sequence:
#
# PCOD9064193 Si02
#       7
#     2   2   2   2   2   2   2
#     4  11  24  45  72 102 143 190 241 293 359 431
#     4  11  25  47  77 100 143 187 245 288 356 430
#     4  12  26  44  70 107 146 185 238 297 368 421
#     4  12  24  47  74 104 142 194 243 293 360 431
#     4  12  24  46  67 105 140 187 241 293 350 430
#     4  11  27  45  70 110 145 188 241 300 360 424
#     4  11  25  44  70 104 142 188 233 301 363 419
#
# _framework density 25.962446
#
# number of rings (size 3 to 8) (size 9 to 14) (size 15 to 20)
#    0.000    0.571    2.857    4.714    4.000    4.571 
#    0.000    0.000    0.000    0.000    0.000    0.000 
#    0.000    0.000    0.000    0.000    0.000    0.000 
#
# Total GULP energy -78195.506159 kJ/mol
# GULP energy per Si atom -5585.393297 kJ/mol
# Density = 2.590335 g / cm^3
# Si number density = 25.962446 Si / 1000 Ang^3
#
#
#
# Elastic Constant Matrix: (Units=GPa)
#
#
# Indices 1 2 3 4 5 6 
#
# 1 131.3904 8.8677 17.9578 10.4678 -2.2796 -2.4587
# 2 8.8677 64.5687 20.4713 15.9309 5.6849 -1.1814
# 3 17.9578 20.4713 116.4704 -2.5119 -9.4042 -1.9102
# 4 10.4678 15.9309 -2.5119 52.5433 6.8278 8.9855
# 5 -2.2796 5.6849 -9.4042 6.8278 48.4252 7.2364
# 6 -2.4587 -1.1814 -1.9102 8.9855 7.2364 27.6148
#
#
#
# Elastic Compliance Matrix: (Units=1/GPa)
#
#
# Indices 1 2 3 4 5 6 
#
# 1 0.007958 -0.000283 -0.001176 -0.001783 0.000262 0.001126
# 2 -0.000283 0.018346 -0.003457 -0.005877 -0.002470 0.003080
# 3 -0.001176 -0.003457 0.009566 0.001580 0.002083 -0.000651
# 4 -0.001783 -0.005877 0.001580 0.022657 -0.001181 -0.007364
# 5 0.000262 -0.002470 0.002083 -0.001181 0.022332 -0.005406
# 6 0.001126 0.003080 -0.000651 -0.007364 -0.005406 0.040212
#
#
# Mechanical properties :
#
#
# Convention : Reuss Voigt Hill
#
# Bulk Modulus (GPa) = 38.40290 45.22480 41.81385
# Shear Modulus (GPa) = 35.82105 43.39217 39.60661
#
# Velocity S-wave (km/s) = 3.71850 4.09264 3.91005
# Velocity P-wave (km/s) = 5.76716 6.30794 6.04360
#
# Compressibility (1/GPa) = 0.02603970
#
# Stress axis : x y z
#
# Youngs Moduli (GPa) = 125.65337 54.50773 104.53327
#
# Poissons Ratio (x) = 0.01541 0.12295
# Poissons Ratio (y) = 0.03553 0.36133
# Poissons Ratio (z) = 0.14779 0.18841
#
# Static dielectric constant tensor:
#      x y z
#    x 2.097160 -0.020180 0.049030 
#    y -0.020180 2.050510 -0.007870 
#    z 0.049030 -0.007870 2.203630 
# 
# From -- ./inp_files/185828.got.cif
#   From: 2010.05.17/outbox.cif.g08.bks.cpg/sg2_93_cif.got.tgz:185828.got - 2010.06.03 11:33:40.
