data_PCOD9064708
_publ_section_title
;
Structure prediction by ZEFSAII (Michael W. Deem and Ramdas Pophale) SiO2 
 PCOD9064708
Probable space group: P -1
;
_chemical_formula_sum "Si O2"
_cell_formula_units_Z 16
_cell_length_a 11.492851
_cell_length_b 12.552240
_cell_length_c 9.125361
_cell_angle_alpha 128.227884
_cell_angle_beta 59.532864
_cell_angle_gamma 88.663129
_cell_volume 773.027865
_symmetry_space_group_name_H-M "P -1"
_symmetry_group_IT_number 2
_symmetry_cell_setting 'triclinic'
loop_
_space_group_symop_operation_xyz
x,y,z
-x,-y,-z
loop_
_atom_site_type_symbol
_atom_site_label
_atom_site_fract_x
_atom_site_fract_y
_atom_site_fract_z
Si Si1 0.404102 0.444151 0.618296
Si Si2 0.397490 0.186256 0.210608
Si Si3 0.048249 0.959948 0.767641
Si Si4 0.607250 0.637673 0.920086
Si Si5 0.057489 0.244369 0.528851
Si Si6 0.374860 0.668650 0.340880
Si Si7 0.046381 0.714382 0.042481
Si Si8 0.086377 0.433815 0.231434
O O1 0.500000 0.500000 0.500000
O O2 0.407553 0.290269 0.422193
O O3 0.493456 0.387385 0.666407
O O4 0.226261 0.587480 0.856359
O O5 0.440612 0.257239 0.103658
O O6 0.220128 0.224050 0.352276
O O7 0.500000 0.000000 0.000000
O O8 0.232444 0.843132 0.569486
O O9 0.982160 0.868288 0.635689
O O10 0.982853 0.123678 0.866963
O O11 0.000000 0.000000 0.000000
O O12 0.692151 0.449317 0.682031
O O13 0.730577 0.675124 0.950604
O O14 0.463860 0.656286 0.122386
O O15 0.051373 0.237064 0.702271
O O16 0.929469 0.419927 0.722967
O O17 0.989040 0.640575 0.888858
O O18 0.000000 0.500000 0.500000
#
# Coordination Sequence:
#
# PCOD9064708 Si02
#       8
#     2   2   2   2   2   2   2   2
#     4  12  25  47  73 103 145 190 238 290 361 435
#     4  12  29  45  72 105 148 187 235 297 367 426
#     4  12  28  47  73 106 143 190 245 296 358 426
#     4  11  24  46  72 102 142 187 236 293 360 429
#     4  12  26  47  71 102 145 189 241 295 360 424
#     4  11  26  44  75 105 139 190 239 295 354 429
#     4  12  28  45  74 107 143 191 242 300 353 430
#     4  12  22  45  74 103 137 187 241 291 353 427
#
# _framework density 20.697831999999998
#
# number of rings (size 3 to 8) (size 9 to 14) (size 15 to 20)
#    0.000    0.250    5.000    3.000    8.750    0.000 
#    0.000    1.250    0.000    0.000    0.000    0.000 
#    0.000    0.000    0.000    0.000    0.000    0.000 
#
# Total GULP energy -89308.441244 kJ/mol
# GULP energy per Si atom -5581.777578 kJ/mol
# Density = 2.065072 g / cm^3
# Si number density = 20.697832 Si / 1000 Ang^3
#
#
#
# Elastic Constant Matrix: (Units=GPa)
#
#
# Indices 1 2 3 4 5 6 
#
# 1 116.6260 27.8856 35.9925 12.5274 13.3800 -0.2671
# 2 27.8856 110.5068 41.4730 -8.3940 6.8643 9.5811
# 3 35.9925 41.4730 89.5363 3.9599 4.1998 6.2189
# 4 12.5274 -8.3940 3.9599 43.9576 -2.8277 7.5489
# 5 13.3800 6.8643 4.1998 -2.8277 35.8729 8.6392
# 6 -0.2671 9.5811 6.2189 7.5489 8.6392 22.7260
#
#
#
# Elastic Compliance Matrix: (Units=1/GPa)
#
#
# Indices 1 2 3 4 5 6 
#
# 1 0.011211 -0.002003 -0.003515 -0.004502 -0.005029 0.005345
# 2 -0.002003 0.012047 -0.004612 0.004274 0.000644 -0.005505
# 3 -0.003515 -0.004612 0.014865 -0.000769 0.000939 -0.002266
# 4 -0.004502 0.004274 -0.000769 0.027591 0.006307 -0.013207
# 5 -0.005029 0.000644 0.000939 0.006307 0.033752 -0.015513
# 6 0.005345 -0.005505 -0.002266 -0.013207 -0.015513 0.057290
#
#
# Mechanical properties :
#
#
# Convention : Reuss Voigt Hill
#
# Bulk Modulus (GPa) = 55.98001 58.59680 57.28841
# Shear Modulus (GPa) = 27.32658 34.59917 30.96287
#
# Velocity S-wave (km/s) = 3.63748 4.09300 3.87194
# Velocity P-wave (km/s) = 6.68930 7.12102 6.90853
#
# Compressibility (1/GPa) = 0.01786352
#
# Stress axis : x y z
#
# Youngs Moduli (GPa) = 89.19868 83.00537 67.27012
#
# Poissons Ratio (x) = 0.16624 0.23647
# Poissons Ratio (y) = 0.17865 0.31026
# Poissons Ratio (z) = 0.31355 0.38283
#
# Static dielectric constant tensor:
#      x y z
#    x 1.873000 0.042640 0.029190 
#    y 0.042640 1.680060 0.050430 
#    z 0.029190 0.050430 1.860090 
# 
# From -- ./inp_files/263329.got.cif
#   From: 2010.05.17/outbox.cif.g08.bks.cpg/sg2_132_cif.got.tgz:263329.got - 2010.06.03 11:33:40.
