data_PCOD9064655
_publ_section_title
;
Structure prediction by ZEFSAII (Michael W. Deem and Ramdas Pophale) SiO2 
 PCOD9064655
Probable space group: P -1
;
_chemical_formula_sum "Si O2"
_cell_formula_units_Z 14
_cell_length_a 13.947676
_cell_length_b 8.325949
_cell_length_c 10.657452
_cell_angle_alpha 117.169660
_cell_angle_beta 34.192179
_cell_angle_gamma 126.373171
_cell_volume 558.428741
_symmetry_space_group_name_H-M "P -1"
_symmetry_group_IT_number 2
_symmetry_cell_setting 'triclinic'
loop_
_space_group_symop_operation_xyz
x,y,z
-x,-y,-z
loop_
_atom_site_type_symbol
_atom_site_label
_atom_site_fract_x
_atom_site_fract_y
_atom_site_fract_z
Si Si1 0.686341 0.389768 0.456141
Si Si2 0.992723 0.720019 0.922254
Si Si3 0.186170 0.957954 0.180229
Si Si4 0.781509 0.843692 0.517127
Si Si5 0.546107 0.307725 0.855566
Si Si6 0.863385 0.421104 0.740842
Si Si7 0.302217 0.134533 0.639293
O O1 0.881144 0.387102 0.199172
O O2 0.691459 0.606824 0.523035
O O3 0.665469 0.343113 0.611142
O O4 0.503614 0.239741 0.524564
O O5 0.901966 0.613589 0.851175
O O6 0.158843 0.939883 0.797471
O O7 0.814448 0.728527 0.187060
O O8 0.126659 0.739680 0.228156
O O9 0.007316 0.940430 0.287521
O O10 0.226363 0.092334 0.309864
O O11 0.370294 0.092543 0.950958
O O12 0.686729 0.916905 0.536811
O O13 0.661140 0.308564 0.855269
O O14 0.500000 0.500000 0.000000
O O15 0.000000 0.500000 0.500000
#
# Coordination Sequence:
#
# PCOD9064655 Si02
#       7
#     2   2   2   2   2   2   2
#     4  12  24  49  70 107 142 189 238 291 358 428
#     4  11  25  46  70 105 141 187 241 289 360 422
#     4  11  25  44  72 108 141 180 240 295 363 422
#     4  11  24  46  71 104 140 184 236 297 358 425
#     4  12  25  42  73 106 143 185 234 299 355 426
#     4  12  23  46  72 103 144 183 234 298 357 422
#     4  11  27  45  73 102 144 191 240 293 356 423
#
# _framework density 25.070340999999999
#
# number of rings (size 3 to 8) (size 9 to 14) (size 15 to 20)
#    0.000    0.571    4.286    3.000    8.000    0.571 
#    0.000    0.000    0.000    0.000    0.000    0.000 
#    0.000    0.000    0.000    0.000    0.000    0.000 
#
# Total GULP energy -78322.070544 kJ/mol
# GULP energy per Si atom -5594.433610 kJ/mol
# Density = 2.501328 g / cm^3
# Si number density = 25.070341 Si / 1000 Ang^3
#
#
#
# Elastic Constant Matrix: (Units=GPa)
#
#
# Indices 1 2 3 4 5 6 
#
# 1 127.4969 22.1982 17.2961 0.6974 -5.3286 34.6754
# 2 22.1982 91.5430 18.8830 -14.7841 2.9951 12.8240
# 3 17.2961 18.8830 62.1831 -6.2196 3.1450 -1.2599
# 4 0.6974 -14.7841 -6.2196 37.8210 -0.6376 -5.4848
# 5 -5.3286 2.9951 3.1450 -0.6376 33.6297 -8.2291
# 6 34.6754 12.8240 -1.2599 -5.4848 -8.2291 46.6053
#
#
#
# Elastic Compliance Matrix: (Units=1/GPa)
#
#
# Indices 1 2 3 4 5 6 
#
# 1 0.010628 -0.001232 -0.002978 -0.002312 0.000094 -0.007905
# 2 -0.001232 0.012951 -0.003143 0.004176 -0.001593 -0.002522
# 3 -0.002978 -0.003143 0.018221 0.002341 -0.000951 0.003681
# 4 -0.002312 0.004176 0.002341 0.029115 0.000615 0.004170
# 5 0.000094 -0.001593 -0.000951 0.000615 0.031453 0.005969
# 6 -0.007905 -0.002522 0.003681 0.004170 0.005969 0.029676
#
#
# Mechanical properties :
#
#
# Convention : Reuss Voigt Hill
#
# Bulk Modulus (GPa) = 36.90912 44.21974 40.56443
# Shear Modulus (GPa) = 32.09608 38.46758 35.28183
#
# Velocity S-wave (km/s) = 3.58193 3.92137 3.75549
# Velocity P-wave (km/s) = 5.64457 6.17895 5.91779
#
# Compressibility (1/GPa) = 0.02709358
#
# Stress axis : x y z
#
# Youngs Moduli (GPa) = 94.08854 77.21648 54.88137
#
# Poissons Ratio (x) = 0.09513 0.16345
# Poissons Ratio (y) = 0.11592 0.17249
# Poissons Ratio (z) = 0.28022 0.24268
#
# Static dielectric constant tensor:
#      x y z
#    x 1.926260 -0.064540 -0.008230 
#    y -0.064540 2.031640 0.032170 
#    z -0.008230 0.032170 2.076530 
# 
# From -- ./inp_files/202207.got.cif
#   From: 2010.05.17/outbox.cif.g08.bks.cpg/sg2_102_cif.got.tgz:202207.got - 2010.06.03 11:33:40.
