data_PCOD9064263
_publ_section_title
;
Structure prediction by ZEFSAII (Michael W. Deem and Ramdas Pophale) SiO2 
 PCOD9064263
Probable space group: P -1
;
_chemical_formula_sum "Si O2"
_cell_formula_units_Z 16
_cell_length_a 13.159946
_cell_length_b 8.565518
_cell_length_c 15.202135
_cell_angle_alpha 68.002366
_cell_angle_beta 150.961201
_cell_angle_gamma 101.908486
_cell_volume 742.776208
_symmetry_space_group_name_H-M "P -1"
_symmetry_group_IT_number 2
_symmetry_cell_setting 'triclinic'
loop_
_space_group_symop_operation_xyz
x,y,z
-x,-y,-z
loop_
_atom_site_type_symbol
_atom_site_label
_atom_site_fract_x
_atom_site_fract_y
_atom_site_fract_z
Si Si1 0.149587 0.003210 0.245991
Si Si2 0.446057 0.028241 0.314237
Si Si3 0.072369 0.663971 0.326022
Si Si4 0.378000 0.286024 0.613635
Si Si5 0.337778 0.387616 0.053450
Si Si6 0.959373 0.172207 0.375969
Si Si7 0.197035 0.734795 0.954840
Si Si8 0.192264 0.599853 0.623579
O O1 0.366232 0.959146 0.478874
O O2 0.063732 0.831694 0.224862
O O3 0.227331 0.042341 0.200709
O O4 0.980136 0.163021 0.131437
O O5 0.419072 0.191149 0.193486
O O6 0.524389 0.837374 0.368677
O O7 0.259767 0.493250 0.471249
O O8 0.126941 0.703040 0.459617
O O9 0.839395 0.621882 0.152278
O O10 0.188253 0.211058 0.523507
O O11 0.572164 0.259307 0.834780
O O12 0.544355 0.462684 0.172706
O O13 0.202624 0.531555 0.989683
O O14 0.853251 0.178885 0.198182
O O15 0.826722 0.309528 0.315959
O O16 0.000000 0.000000 0.500000
O O17 0.000000 0.500000 0.500000
#
# Coordination Sequence:
#
# PCOD9064263 Si02
#       8
#     2   2   2   2   2   2   2   2
#     4  11  24  45  73 102 137 180 227 284 344 413
#     4  11  24  45  73 102 137 179 228 283 347 408
#     4  12  24  45  70 101 141 182 227 282 341 400
#     4  12  24  46  68  99 139 180 224 285 337 404
#     4  12  24  44  72 101 140 184 223 285 339 404
#     4  12  25  42  66  97 136 176 232 280 334 404
#     4  12  24  45  70  97 138 180 226 279 345 398
#     4  12  23  43  67  99 135 177 233 274 334 401
#
# _framework density 21.540808999999999
#
# number of rings (size 3 to 8) (size 9 to 14) (size 15 to 20)
#    0.000    0.250    6.250    2.250    0.000    6.500 
#    0.000    0.000    0.000    0.000    0.000    0.000 
#    0.000    0.000    0.000    0.000    0.000    0.000 
#
# Total GULP energy -89290.902312 kJ/mol
# GULP energy per Si atom -5580.681394 kJ/mol
# Density = 2.149178 g / cm^3
# Si number density = 21.540809 Si / 1000 Ang^3
#
#
#
# Elastic Constant Matrix: (Units=GPa)
#
#
# Indices 1 2 3 4 5 6 
#
# 1 99.2226 33.7092 5.2260 -19.3978 32.3590 -15.4609
# 2 33.7092 46.3258 12.1690 12.9275 17.7174 -0.2732
# 3 5.2260 12.1690 50.3909 -24.2588 46.8642 19.3679
# 4 -19.3978 12.9275 -24.2588 1.4038 13.1175 17.6192
# 5 32.3590 17.7174 46.8642 13.1175 13.3755 -12.6188
# 6 -15.4609 -0.2732 19.3679 17.6192 -12.6188 20.6652
#
#
#
# Elastic Compliance Matrix: (Units=1/GPa)
#
#
# Indices 1 2 3 4 5 6 
#
# 1 0.018087 -0.017312 -0.006824 0.010146 0.008385 0.016169
# 2 -0.017312 0.060791 0.011234 -0.045100 -0.044555 -0.011431
# 3 -0.006824 0.011234 0.009703 -0.024308 -0.005264 0.003460
# 4 0.010146 -0.045100 -0.024308 0.067415 0.066324 0.012799
# 5 0.008385 -0.044555 -0.005264 0.066324 0.055582 -0.011990
# 6 0.016169 -0.011431 0.003460 0.012799 -0.011990 0.038859
#
#
# Mechanical properties :
#
#
# Convention : Reuss Voigt Hill
#
# Bulk Modulus (GPa) = 15.92942 33.12753 24.52848
# Shear Modulus (GPa) = 16.82554 16.74460 16.78507
#
# Velocity S-wave (km/s) = 2.79785 2.79111 2.79448
# Velocity P-wave (km/s) = 4.22473 5.07931 4.67160
#
# Compressibility (1/GPa) = 0.06277693
#
# Stress axis : x y z
#
# Youngs Moduli (GPa) = 55.28706 16.44984 103.06154
#
# Poissons Ratio (x) = 0.28478 0.70327
# Poissons Ratio (y) = 0.95712 -1.15774
# Poissons Ratio (z) = 0.37726 -0.18479
#
# Static dielectric constant tensor:
#      x y z
#    x 1.772210 -0.043030 0.020640 
#    y -0.043030 1.882900 -0.068220 
#    z 0.020640 -0.068220 1.837360 
# 
# From -- ./inp_files/382683.got.cif
#   From: 2010.05.17/outbox.cif.g08.bks.cpg/sg2_192_cif.got.tgz:382683.got - 2010.06.03 11:33:40.
