data_PCOD9064319
_publ_section_title
;
Structure prediction by ZEFSAII (Michael W. Deem and Ramdas Pophale) SiO2 
 PCOD9064319
Probable space group: P -1
;
_chemical_formula_sum "Si O2"
_cell_formula_units_Z 14
_cell_length_a 8.906235
_cell_length_b 12.444607
_cell_length_c 11.977879
_cell_angle_alpha 56.152420
_cell_angle_beta 101.126996
_cell_angle_gamma 54.540546
_cell_volume 580.590424
_symmetry_space_group_name_H-M "P -1"
_symmetry_group_IT_number 2
_symmetry_cell_setting 'triclinic'
loop_
_space_group_symop_operation_xyz
x,y,z
-x,-y,-z
loop_
_atom_site_type_symbol
_atom_site_label
_atom_site_fract_x
_atom_site_fract_y
_atom_site_fract_z
Si Si1 0.817877 0.269254 0.134720
Si Si2 0.981827 0.139668 0.991178
Si Si3 0.350417 0.250624 0.967686
Si Si4 0.230344 0.589853 0.407644
Si Si5 0.164385 0.218773 0.350145
Si Si6 0.860573 0.961743 0.342641
Si Si7 0.420079 0.202974 0.741000
O O1 0.010037 0.254131 0.205606
O O2 0.957983 0.037967 0.336996
O O3 0.500000 0.500000 0.000000
O O4 0.794514 0.270643 0.997155
O O5 0.894416 0.309762 0.792075
O O6 0.000000 0.000000 0.000000
O O7 0.302318 0.928730 0.197892
O O8 0.401200 0.243082 0.848042
O O9 0.025140 0.518488 0.798991
O O10 0.542117 0.197841 0.109744
O O11 0.499660 0.003132 0.146661
O O12 0.500000 0.500000 0.500000
O O13 0.197708 0.458470 0.504956
O O14 0.044489 0.781417 0.369520
O O15 0.130585 0.144811 0.493134
O O16 0.500000 0.000000 0.500000
#
# Coordination Sequence:
#
# PCOD9064319 Si02
#       7
#     2   2   2   2   2   2   2
#     4  12  27  51  83 113 162 219 264 328 411 483
#     4  12  24  46  75 116 157 198 266 336 402 461
#     4  11  25  48  77 109 161 208 262 334 401 478
#     4  12  24  42  80 116 158 199 269 336 400 475
#     4  12  30  53  79 115 165 218 274 330 401 494
#     4  12  25  49  79 114 158 208 273 332 400 478
#     4  11  24  45  73 116 154 203 262 328 413 465
#
# _framework density 24.113385999999998
#
# number of rings (size 3 to 8) (size 9 to 14) (size 15 to 20)
#    0.000    0.286    7.143    0.429    4.000    3.429 
#    5.143    0.000    0.000    0.000    0.000    0.000 
#    0.000    0.000    0.000    0.000    0.000    0.000 
#
# Total GULP energy -78171.340176 kJ/mol
# GULP energy per Si atom -5583.667155 kJ/mol
# Density = 2.405850 g / cm^3
# Si number density = 24.113386 Si / 1000 Ang^3
#
#
#
# Elastic Constant Matrix: (Units=GPa)
#
#
# Indices 1 2 3 4 5 6 
#
# 1 87.6110 46.4091 31.9930 -15.9588 -19.0901 5.8101
# 2 46.4091 162.2059 50.2007 -15.6254 -10.5952 -10.8695
# 3 31.9930 50.2007 66.4519 -10.6210 -29.0834 6.0219
# 4 -15.9588 -15.6254 -10.6210 45.3932 -9.1642 -0.9654
# 5 -19.0901 -10.5952 -29.0834 -9.1642 56.2714 -3.8286
# 6 5.8101 -10.8695 6.0219 -0.9654 -3.8286 44.8430
#
#
#
# Elastic Compliance Matrix: (Units=1/GPa)
#
#
# Indices 1 2 3 4 5 6 
#
# 1 0.015911 -0.003191 -0.002507 0.004698 0.004127 -0.002045
# 2 -0.003191 0.009282 -0.006975 -0.000036 -0.002717 0.003367
# 3 -0.002507 -0.006975 0.028712 0.006056 0.013393 -0.003948
# 4 0.004698 -0.000036 0.006056 0.026921 0.009096 -0.000075
# 5 0.004127 -0.002717 0.013393 0.009096 0.027030 -0.000488
# 6 -0.002045 0.003367 -0.003948 -0.000075 -0.000488 0.023868
#
#
# Mechanical properties :
#
#
# Convention : Reuss Voigt Hill
#
# Bulk Modulus (GPa) = 35.01642 63.71936 49.36789
# Shear Modulus (GPa) = 30.01398 41.81258 35.91328
#
# Velocity S-wave (km/s) = 3.53186 4.16865 3.86340
# Velocity P-wave (km/s) = 5.58437 7.04645 6.35758
#
# Compressibility (1/GPa) = 0.02855803
#
# Stress axis : x y z
#
# Youngs Moduli (GPa) = 62.85067 107.74111 34.82851
#
# Poissons Ratio (x) = 0.34383 0.08730
# Poissons Ratio (y) = 0.20058 0.24294
# Poissons Ratio (z) = 0.15755 0.75151
#
# Static dielectric constant tensor:
#      x y z
#    x 2.140400 0.173240 -0.063300 
#    y 0.173240 2.045250 -0.160760 
#    z -0.063300 -0.160760 1.972050 
# 
# From -- ./inp_files/389431.got.cif
#   From: 2010.05.17/outbox.cif.g08.bks.cpg/sg2_195_cif.got.tgz:389431.got - 2010.06.03 11:33:40.
