data_PCOD9064966
_publ_section_title
;
Structure prediction by ZEFSAII (Michael W. Deem and Ramdas Pophale) SiO2 
 PCOD9064966
Probable space group: P -1
;
_chemical_formula_sum "Si O2"
_cell_formula_units_Z 12
_cell_length_a 9.295041
_cell_length_b 11.075277
_cell_length_c 9.314515
_cell_angle_alpha 29.367699
_cell_angle_beta 97.194018
_cell_angle_gamma 104.645006
_cell_volume 445.736840
_symmetry_space_group_name_H-M "P -1"
_symmetry_group_IT_number 2
_symmetry_cell_setting 'triclinic'
loop_
_space_group_symop_operation_xyz
x,y,z
-x,-y,-z
loop_
_atom_site_type_symbol
_atom_site_label
_atom_site_fract_x
_atom_site_fract_y
_atom_site_fract_z
Si Si1 0.389800 0.603595 0.282263
Si Si2 0.833909 0.105714 0.554339
Si Si3 0.554191 0.974503 0.369000
Si Si4 0.136037 0.764794 0.241550
Si Si5 0.349472 0.495431 0.891931
Si Si6 0.154551 0.119545 0.611201
O O1 0.500000 0.500000 0.500000
O O2 0.293401 0.733379 0.237316
O O3 0.551934 0.297007 0.424801
O O4 0.261811 0.385343 0.409626
O O5 0.766912 0.338898 0.250560
O O6 0.841257 0.137253 0.695502
O O7 0.007995 0.153567 0.480057
O O8 0.744948 0.800249 0.836563
O O9 0.730342 0.987871 0.358050
O O10 0.500000 0.000000 0.500000
O O11 0.471936 0.805194 0.962461
O O12 0.000000 0.500000 0.500000
O O13 0.100624 0.943960 0.927170
O O14 0.500000 0.500000 0.000000
#
# Coordination Sequence:
#
# PCOD9064966 Si02
#       6
#     2   2   2   2   2   2
#     4  11  28  48  82 130 176 223 294 369 442 528
#     4  12  27  50  88 123 174 231 283 370 449 521
#     4  11  29  54  84 116 174 236 301 365 437 531
#     4  11  24  46  77 129 178 217 281 358 454 534
#     4  12  30  54  84 122 165 234 303 356 435 527
#     4  11  27  47  81 128 173 220 298 359 442 539
#
# _framework density 26.921714999999999
#
# number of rings (size 3 to 8) (size 9 to 14) (size 15 to 20)
#    0.000    0.667    1.667    3.000   14.000    1.333 
#    0.000    7.500    0.000    0.000    0.000    0.000 
#    0.000    0.000    0.000    0.000    0.000    0.000 
#
# Total GULP energy -67158.279448 kJ/mol
# GULP energy per Si atom -5596.523287 kJ/mol
# Density = 2.686044 g / cm^3
# Si number density = 26.921715 Si / 1000 Ang^3
#
#
#
# Elastic Constant Matrix: (Units=GPa)
#
#
# Indices 1 2 3 4 5 6 
#
# 1 248.4504 61.5066 44.5904 5.4311 31.3969 18.0421
# 2 61.5066 175.6234 82.0261 -18.0354 12.1969 -2.2639
# 3 44.5904 82.0261 210.7935 -18.4881 18.1867 9.4296
# 4 5.4311 -18.0354 -18.4881 63.5684 -7.7098 -16.6403
# 5 31.3969 12.1969 18.1867 -7.7098 51.0430 -0.4366
# 6 18.0421 -2.2639 9.4296 -16.6403 -0.4366 49.4911
#
#
#
# Elastic Compliance Matrix: (Units=1/GPa)
#
#
# Indices 1 2 3 4 5 6 
#
# 1 0.005099 -0.001721 -0.000213 -0.002029 -0.002978 -0.002606
# 2 -0.001721 0.007730 -0.002590 0.002230 0.000490 0.002229
# 3 -0.000213 -0.002590 0.006008 0.000613 -0.001306 -0.000991
# 4 -0.002029 0.002230 0.000613 0.019001 0.003428 0.007144
# 5 -0.002978 0.000490 -0.001306 0.003428 0.022312 0.002707
# 6 -0.002606 0.002229 -0.000991 0.007144 0.002707 0.023872
#
#
# Mechanical properties :
#
#
# Convention : Reuss Voigt Hill
#
# Bulk Modulus (GPa) = 102.17347 112.34595 107.25971
# Shear Modulus (GPa) = 51.90152 62.60343 57.25247
#
# Velocity S-wave (km/s) = 4.39551 4.82746 4.61654
# Velocity P-wave (km/s) = 7.98719 8.53778 8.26707
#
# Compressibility (1/GPa) = 0.00978728
#
# Stress axis : x y z
#
# Youngs Moduli (GPa) = 196.10480 129.35923 166.44739
#
# Poissons Ratio (x) = 0.22268 0.03551
# Poissons Ratio (y) = 0.33758 0.43117
# Poissons Ratio (z) = 0.04183 0.33510
#
# Static dielectric constant tensor:
#      x y z
#    x 2.248740 0.001920 0.024820 
#    y 0.001920 2.311890 -0.094080 
#    z 0.024820 -0.094080 2.206980 
# 
# From -- ./inp_files/183810.got.cif
#   From: 2010.05.17/outbox.cif.g08.bks.cpg/sg2_92_cif.got.tgz:183810.got - 2010.06.03 11:33:40.
