data_PCOD9064755
_publ_section_title
;
Structure prediction by ZEFSAII (Michael W. Deem and Ramdas Pophale) SiO2 
 PCOD9064755
Probable space group: P -1
;
_chemical_formula_sum "Si O2"
_cell_formula_units_Z 16
_cell_length_a 15.633594
_cell_length_b 9.405091
_cell_length_c 9.311577
_cell_angle_alpha 67.260262
_cell_angle_beta 111.406446
_cell_angle_gamma 142.791530
_cell_volume 759.565910
_symmetry_space_group_name_H-M "P -1"
_symmetry_group_IT_number 2
_symmetry_cell_setting 'triclinic'
loop_
_space_group_symop_operation_xyz
x,y,z
-x,-y,-z
loop_
_atom_site_type_symbol
_atom_site_label
_atom_site_fract_x
_atom_site_fract_y
_atom_site_fract_z
Si Si1 0.400128 0.948784 0.579739
Si Si2 0.903062 0.115416 0.887774
Si Si3 0.858798 0.716679 0.547539
Si Si4 0.895033 0.406836 0.599434
Si Si5 0.580048 0.216572 0.073758
Si Si6 0.548153 0.427656 0.450056
Si Si7 0.413550 0.256252 0.117732
Si Si8 0.166977 0.291447 0.130929
O O1 0.497291 0.211715 0.589447
O O2 0.500000 0.000000 0.500000
O O3 0.262708 0.832153 0.458584
O O4 0.349576 0.785068 0.748730
O O5 0.932064 0.326848 0.772735
O O6 0.751218 0.929707 0.942908
O O7 0.869895 0.937965 0.819223
O O8 0.033503 0.215086 0.017002
O O9 0.889085 0.581232 0.564239
O O10 0.714689 0.614321 0.438945
O O11 0.822856 0.659800 0.715434
O O12 0.000000 0.000000 0.500000
O O13 0.000000 0.500000 0.500000
O O14 0.462628 0.163101 0.108625
O O15 0.694008 0.472458 0.963372
O O16 0.500000 0.000000 0.000000
O O17 0.500000 0.500000 0.500000
O O18 0.460549 0.321986 0.288102
O O19 0.500000 0.500000 0.000000
#
# Coordination Sequence:
#
# PCOD9064755 Si02
#       8
#     2   2   2   2   2   2   2   2
#     4  12  23  47  73 102 139 187 236 295 349 417
#     4  11  24  46  72  97 140 185 231 289 353 419
#     4  12  28  47  71 104 145 186 237 298 355 424
#     4  12  25  45  73 101 136 186 242 288 356 420
#     4  12  26  44  70 104 145 187 234 288 358 423
#     4  12  27  46  76 105 141 185 241 296 356 421
#     4  12  25  45  71 105 139 183 237 290 353 421
#     4  11  26  47  68 102 146 186 233 290 360 422
#
# _framework density 21.064662999999999
#
# number of rings (size 3 to 8) (size 9 to 14) (size 15 to 20)
#    0.000    0.250    5.000    3.000    7.000    1.500 
#    2.250    0.000    0.000    0.000    0.000    0.000 
#    0.000    0.000    0.000    0.000    0.000    0.000 
#
# Total GULP energy -89339.370992 kJ/mol
# GULP energy per Si atom -5583.710687 kJ/mol
# Density = 2.101672 g / cm^3
# Si number density = 21.064663 Si / 1000 Ang^3
#
#
#
# Elastic Constant Matrix: (Units=GPa)
#
#
# Indices 1 2 3 4 5 6 
#
# 1 147.1624 47.8191 25.4522 11.4273 0.5285 -6.4565
# 2 47.8191 101.6763 14.5958 -6.5332 -0.6837 0.1533
# 3 25.4522 14.5958 64.7083 -3.3455 -13.9486 -7.5925
# 4 11.4273 -6.5332 -3.3455 37.3595 0.0173 -0.1362
# 5 0.5285 -0.6837 -13.9486 0.0173 34.4499 1.4232
# 6 -6.4565 0.1533 -7.5925 -0.1362 1.4232 49.8175
#
#
#
# Elastic Compliance Matrix: (Units=1/GPa)
#
#
# Indices 1 2 3 4 5 6 
#
# 1 0.008954 -0.004025 -0.003037 -0.003711 -0.001476 0.000742
# 2 -0.004025 0.012093 -0.001084 0.003246 -0.000109 -0.000712
# 3 -0.003037 -0.001084 0.018924 0.002439 0.007592 0.002284
# 4 -0.003711 0.003246 0.002439 0.028687 0.001097 -0.000072
# 5 -0.001476 -0.000109 0.007592 0.001097 0.032119 0.000052
# 6 0.000742 -0.000712 0.002284 -0.000072 0.000052 0.020518
#
#
# Mechanical properties :
#
#
# Convention : Reuss Voigt Hill
#
# Bulk Modulus (GPa) = 42.23173 54.36459 48.29816
# Shear Modulus (GPa) = 34.36903 39.37069 36.86986
#
# Velocity S-wave (km/s) = 4.04368 4.32793 4.18822
# Velocity P-wave (km/s) = 6.47256 7.13015 6.80930
#
# Compressibility (1/GPa) = 0.02367888
#
# Stress axis : x y z
#
# Youngs Moduli (GPa) = 111.67713 82.69560 52.84421
#
# Poissons Ratio (x) = 0.33284 0.16050
# Poissons Ratio (y) = 0.44948 0.05727
# Poissons Ratio (z) = 0.33918 0.08962
#
# Static dielectric constant tensor:
#      x y z
#    x 1.756210 -0.055610 0.054740 
#    y -0.055610 1.776310 -0.037670 
#    z 0.054740 -0.037670 1.782970 
# 
# From -- ./inp_files/272712.got.cif
#   From: 2010.05.17/outbox.cif.g08.bks.cpg/sg2_137_cif.got.tgz:272712.got - 2010.06.03 11:33:40.
