data_PCOD9064756
_publ_section_title
;
Structure prediction by ZEFSAII (Michael W. Deem and Ramdas Pophale) SiO2 
 PCOD9064756
Probable space group: P -1
;
_chemical_formula_sum "Si O2"
_cell_formula_units_Z 16
_cell_length_a 11.898968
_cell_length_b 9.102165
_cell_length_c 9.495078
_cell_angle_alpha 107.725077
_cell_angle_beta 60.063739
_cell_angle_gamma 119.218835
_cell_volume 775.259963
_symmetry_space_group_name_H-M "P -1"
_symmetry_group_IT_number 2
_symmetry_cell_setting 'triclinic'
loop_
_space_group_symop_operation_xyz
x,y,z
-x,-y,-z
loop_
_atom_site_type_symbol
_atom_site_label
_atom_site_fract_x
_atom_site_fract_y
_atom_site_fract_z
Si Si1 0.673736 0.916813 0.735367
Si Si2 0.875648 0.356430 0.450811
Si Si3 0.864169 0.020906 0.917978
Si Si4 0.852692 0.980262 0.378601
Si Si5 0.868965 0.363557 0.127436
Si Si6 0.607615 0.229228 0.773903
Si Si7 0.384011 0.612733 0.882291
Si Si8 0.679530 0.777279 0.174809
O O1 0.747011 0.981298 0.857983
O O2 0.793747 0.918510 0.552560
O O3 0.544124 0.736816 0.778838
O O4 0.615335 0.051588 0.753585
O O5 0.877312 0.401722 0.299026
O O6 0.726927 0.322211 0.610068
O O7 0.000000 0.500000 0.500000
O O8 0.891747 0.179231 0.401551
O O9 0.811112 0.862076 0.009926
O O10 0.012652 0.053604 0.762310
O O11 0.872758 0.182063 0.047386
O O12 0.726594 0.880070 0.319754
O O13 0.725746 0.359392 0.146429
O O14 0.000000 0.500000 0.000000
O O15 0.454768 0.202513 0.803442
O O16 0.639440 0.335685 0.929446
O O17 0.358008 0.418413 0.838012
#
# Coordination Sequence:
#
# PCOD9064756 Si02
#       8
#     2   2   2   2   2   2   2   2
#     4  11  25  45  71 103 137 183 231 288 343 408
#     4  11  27  45  71 103 138 183 229 285 345 418
#     4  12  24  48  72  98 143 183 231 282 347 413
#     4  11  27  44  70 101 142 183 227 285 348 408
#     4  12  26  45  74 102 137 185 233 284 341 412
#     4  11  24  46  72  99 142 182 231 283 350 406
#     4  12  25  45  71 105 139 180 238 282 343 412
#     4  12  26  44  70 103 139 187 228 287 346 409
#
# _framework density 20.638241000000001
#
# number of rings (size 3 to 8) (size 9 to 14) (size 15 to 20)
#    0.000    0.500    3.750    3.750    7.000    1.500 
#    4.500    0.000    0.000    0.000    0.000    0.000 
#    0.000    0.000    0.000    0.000    0.000    0.000 
#
# Total GULP energy -89607.157742 kJ/mol
# GULP energy per Si atom -5600.447359 kJ/mol
# Density = 2.059127 g / cm^3
# Si number density = 20.638241 Si / 1000 Ang^3
#
#
#
# Elastic Constant Matrix: (Units=GPa)
#
#
# Indices 1 2 3 4 5 6 
#
# 1 88.7608 37.1347 32.0026 8.3485 7.2924 16.5214
# 2 37.1347 134.0866 58.2887 4.7606 12.9445 16.2620
# 3 32.0026 58.2887 118.0050 -14.7542 19.8934 14.7176
# 4 8.3485 4.7606 -14.7542 35.2196 0.8510 1.4650
# 5 7.2924 12.9445 19.8934 0.8510 33.0690 7.5282
# 6 16.5214 16.2620 14.7176 1.4650 7.5282 25.5917
#
#
#
# Elastic Compliance Matrix: (Units=1/GPa)
#
#
# Indices 1 2 3 4 5 6 
#
# 1 0.014660 -0.001956 -0.002850 -0.004151 0.000856 -0.006596
# 2 -0.001956 0.010429 -0.004618 -0.002772 -0.000237 -0.002480
# 3 -0.002850 -0.004618 0.013585 0.007200 -0.005504 -0.001831
# 4 -0.004151 -0.002772 0.007200 0.032870 -0.003019 -0.000693
# 5 0.000856 -0.000237 -0.005504 -0.003019 0.035223 -0.007425
# 6 -0.006596 -0.002480 -0.001831 -0.000693 -0.007425 0.048186
#
#
# Mechanical properties :
#
#
# Convention : Reuss Voigt Hill
#
# Bulk Modulus (GPa) = 50.44170 66.18937 58.31554
# Shear Modulus (GPa) = 27.71440 33.00447 30.35943
#
# Velocity S-wave (km/s) = 3.66849 4.00333 3.83956
# Velocity P-wave (km/s) = 6.51442 7.31503 6.92630
#
# Compressibility (1/GPa) = 0.01982487
#
# Stress axis : x y z
#
# Youngs Moduli (GPa) = 68.21197 95.88305 73.61110
#
# Poissons Ratio (x) = 0.18759 0.20979
# Poissons Ratio (y) = 0.13345 0.33996
# Poissons Ratio (z) = 0.19441 0.44282
#
# Static dielectric constant tensor:
#      x y z
#    x 1.716730 -0.003710 -0.000560 
#    y -0.003710 1.708100 -0.015250 
#    z -0.000560 -0.015250 1.732040 
# 
# From -- ./inp_files/184942.got.cif
#   From: 2010.05.17/outbox.cif.g08.bks.cpg/sg2_93_cif.got.tgz:184942.got - 2010.06.03 11:33:40.
