data_PCOD9064642
_publ_section_title
;
Structure prediction by ZEFSAII (Michael W. Deem and Ramdas Pophale) SiO2 
 PCOD9064642
Probable space group: P -1
;
_chemical_formula_sum "Si O2"
_cell_formula_units_Z 14
_cell_length_a 16.775481
_cell_length_b 5.207073
_cell_length_c 17.340621
_cell_angle_alpha 73.920356
_cell_angle_beta 23.644612
_cell_angle_gamma 71.297453
_cell_volume 574.859738
_symmetry_space_group_name_H-M "P -1"
_symmetry_group_IT_number 2
_symmetry_cell_setting 'triclinic'
loop_
_space_group_symop_operation_xyz
x,y,z
-x,-y,-z
loop_
_atom_site_type_symbol
_atom_site_label
_atom_site_fract_x
_atom_site_fract_y
_atom_site_fract_z
Si Si1 0.540662 0.314245 0.303166
Si Si2 0.589551 0.897358 0.710767
Si Si3 0.784413 0.634875 0.956182
Si Si4 0.644992 0.413964 0.950786
Si Si5 0.798040 0.354501 0.334504
Si Si6 0.995647 0.810165 0.446375
Si Si7 0.799753 0.955294 0.225305
O O1 0.399975 0.182920 0.380488
O O2 0.725341 0.388737 0.081952
O O3 0.402179 0.576177 0.441529
O O4 0.622921 0.106273 0.314578
O O5 0.796472 0.925211 0.564718
O O6 0.400756 0.129178 0.878109
O O7 0.518040 0.646929 0.838238
O O8 0.773399 0.579843 0.878998
O O9 0.998919 0.691726 0.790396
O O10 0.816107 0.195862 0.777189
O O11 0.500000 0.500000 0.000000
O O12 0.796816 0.115901 0.294817
O O13 0.797934 0.638104 0.265019
O O14 0.000000 0.500000 0.500000
O O15 0.000000 0.000000 0.500000
O O16 0.000000 0.000000 0.000000
#
# Coordination Sequence:
#
# PCOD9064642 Si02
#       7
#     2   2   2   2   2   2   2
#     4  11  26  45  70 106 143 181 240 285 353 414
#     4  11  26  45  73 101 144 186 230 296 349 417
#     4  11  26  44  71 103 142 188 228 298 348 418
#     4  11  24  46  71 101 139 184 237 285 355 415
#     4  12  27  46  74 104 143 188 235 288 351 411
#     4  12  27  46  73 103 137 181 236 290 345 416
#     4  12  25  47  75 103 142 191 234 289 345 419
#
# _framework density 24.353764000000002
#
# number of rings (size 3 to 8) (size 9 to 14) (size 15 to 20)
#    0.000    0.571    2.857    3.857   10.000    2.286 
#    0.000    0.000    0.000    0.000    0.000    0.000 
#    0.000    0.000    0.000    0.000    0.000    0.000 
#
# Total GULP energy -78369.579838 kJ/mol
# GULP energy per Si atom -5597.827131 kJ/mol
# Density = 2.429833 g / cm^3
# Si number density = 24.353764 Si / 1000 Ang^3
#
#
#
# Elastic Constant Matrix: (Units=GPa)
#
#
# Indices 1 2 3 4 5 6 
#
# 1 212.8321 25.5733 52.1883 10.0636 -3.7617 -0.4352
# 2 25.5733 66.6800 -0.5864 2.2097 11.7211 3.5141
# 3 52.1883 -0.5864 120.2608 13.2466 4.6037 3.8650
# 4 10.0636 2.2097 13.2466 40.0169 -2.9593 1.0033
# 5 -3.7617 11.7211 4.6037 -2.9593 55.5490 16.8891
# 6 -0.4352 3.5141 3.8650 1.0033 16.8891 35.9223
#
#
#
# Elastic Compliance Matrix: (Units=1/GPa)
#
#
# Indices 1 2 3 4 5 6 
#
# 1 0.005618 -0.002349 -0.002448 -0.000399 0.001031 0.000088
# 2 -0.002349 0.016619 0.001364 -0.001064 -0.003847 0.000037
# 3 -0.002448 0.001364 0.009754 -0.002767 -0.001242 -0.000552
# 4 -0.000399 -0.001064 -0.002767 0.026266 0.002250 -0.001395
# 5 0.001031 -0.003847 -0.001242 0.002250 0.022130 -0.009945
# 6 0.000088 0.000037 -0.000552 -0.001395 -0.009945 0.032609
#
#
# Mechanical properties :
#
#
# Convention : Reuss Voigt Hill
#
# Bulk Modulus (GPa) = 39.80041 61.56926 50.68484
# Shear Modulus (GPa) = 38.98984 47.80414 43.39699
#
# Velocity S-wave (km/s) = 4.00556 4.43528 4.22588
# Velocity P-wave (km/s) = 6.14580 7.18088 6.68340
#
# Compressibility (1/GPa) = 0.02512537
#
# Stress axis : x y z
#
# Youngs Moduli (GPa) = 177.99012 60.17083 102.52002
#
# Poissons Ratio (x) = 0.14134 0.25096
# Poissons Ratio (y) = 0.41808 -0.13980
# Poissons Ratio (z) = 0.43571 -0.08205
#
# Static dielectric constant tensor:
#      x y z
#    x 1.862420 -0.094730 -0.003000 
#    y -0.094730 2.005410 -0.079270 
#    z -0.003000 -0.079270 1.923830 
# 
# From -- ./inp_files/39066.got.cif
#   From: 2010.05.17/outbox.cif.g08.bks.cpg/sg2_20_cif.got.tgz:39066.got - 2010.06.03 11:33:40.
