data_PCOD9064350
_publ_section_title
;
Structure prediction by ZEFSAII (Michael W. Deem and Ramdas Pophale) SiO2 
 PCOD9064350
Probable space group: P -1
;
_chemical_formula_sum "Si O2"
_cell_formula_units_Z 13
_cell_length_a 10.793712
_cell_length_b 12.360262
_cell_length_c 14.643649
_cell_angle_alpha 28.731514
_cell_angle_beta 137.907298
_cell_angle_gamma 145.030916
_cell_volume 536.289575
_symmetry_space_group_name_H-M "P -1"
_symmetry_group_IT_number 2
_symmetry_cell_setting 'triclinic'
loop_
_space_group_symop_operation_xyz
x,y,z
-x,-y,-z
loop_
_atom_site_type_symbol
_atom_site_label
_atom_site_fract_x
_atom_site_fract_y
_atom_site_fract_z
Si Si1 0.395663 0.439060 0.776063
Si Si2 0.950061 0.229925 0.295732
Si Si3 0.676618 0.413673 0.642395
Si Si4 0.615159 0.054577 0.407458
Si Si5 0.015622 0.320841 0.561747
Si Si6 0.500000 0.500000 0.000000
Si Si7 0.605281 0.143413 0.045792
O O1 0.157941 0.225272 0.764026
O O2 0.470444 0.737230 0.565746
O O3 0.402566 0.420881 0.901275
O O4 0.568976 0.379402 0.872165
O O5 0.773082 0.165614 0.324170
O O6 0.844920 0.217899 0.149749
O O7 0.165364 0.493134 0.252027
O O8 0.000000 0.000000 0.500000
O O9 0.500000 0.500000 0.500000
O O10 0.830257 0.544787 0.542146
O O11 0.548680 0.102391 0.789627
O O12 0.497182 0.218695 0.217975
O O13 0.781537 0.138732 0.522681
O O14 0.000000 0.500000 0.500000
O O15 0.500000 0.000000 0.000000
#
# Coordination Sequence:
#
# PCOD9064350 Si02
#       7
#     2   2   2   2   2   1   2
#     4  12  27  47  74 106 154 191 246 314 372 446
#     4  11  24  45  74 103 144 197 251 305 376 441
#     4  11  24  46  74 103 146 194 244 308 372 443
#     4  11  26  50  73 109 149 194 246 312 374 446
#     4  11  25  46  76 108 142 195 247 308 370 441
#     4  12  24  48  76 108 142 198 250 292 390 444
#     4  12  27  45  69 113 150 198 252 307 382 444
#
# _framework density 24.240635000000001
#
# number of rings (size 3 to 8) (size 9 to 14) (size 15 to 20)
#    0.000    0.615    4.615    2.308    4.308    1.846 
#    0.000    2.308    0.000    0.000    0.000    0.000 
#    0.000    0.000    0.000    0.000    0.000    0.000 
#
# Total GULP energy -72409.106251 kJ/mol
# GULP energy per Si atom -5569.931250 kJ/mol
# Density = 2.418546 g / cm^3
# Si number density = 24.240635 Si / 1000 Ang^3
#
#
#
# Elastic Constant Matrix: (Units=GPa)
#
#
# Indices 1 2 3 4 5 6 
#
# 1 51.4552 -6.4821 23.7022 -10.4119 -5.2539 0.5706
# 2 -6.4821 172.1701 72.6137 32.8421 -5.0776 -3.7726
# 3 23.7022 72.6137 159.0670 12.7727 16.6389 5.3620
# 4 -10.4119 32.8421 12.7727 62.4589 -10.1365 -6.8374
# 5 -5.2539 -5.0776 16.6389 -10.1365 35.5231 2.0472
# 6 0.5706 -3.7726 5.3620 -6.8374 2.0472 37.9425
#
#
#
# Elastic Compliance Matrix: (Units=1/GPa)
#
#
# Indices 1 2 3 4 5 6 
#
# 1 0.024671 0.002849 -0.006348 0.005439 0.008505 0.001331
# 2 0.002849 0.008325 -0.004359 -0.002451 0.002907 0.000802
# 3 -0.006348 -0.004359 0.010171 -0.002152 -0.006837 -0.001794
# 4 0.005439 -0.002451 -0.002152 0.020139 0.007023 0.003229
# 5 0.008505 0.002907 -0.006837 0.007023 0.035001 0.000504
# 6 0.001331 0.000802 -0.001794 0.003229 0.000504 0.027224
#
#
# Mechanical properties :
#
#
# Convention : Reuss Voigt Hill
#
# Bulk Modulus (GPa) = 36.42908 62.48442 49.45675
# Shear Modulus (GPa) = 33.24511 46.70881 39.97696
#
# Velocity S-wave (km/s) = 3.70734 4.39439 4.06540
# Velocity P-wave (km/s) = 5.77811 7.18194 6.51793
#
# Compressibility (1/GPa) = 0.02745060
#
# Stress axis : x y z
#
# Youngs Moduli (GPa) = 40.53268 120.12233 98.32044
#
# Poissons Ratio (x) = -0.34218 0.62412
# Poissons Ratio (y) = -0.11546 0.42858
# Poissons Ratio (z) = 0.25729 0.52362
#
# Static dielectric constant tensor:
#      x y z
#    x 2.033480 0.044650 -0.035450 
#    y 0.044650 1.976260 0.044340 
#    z -0.035450 0.044340 1.947160 
# 
# From -- ./inp_files/517553.got.cif
#   From: 2010.05.17/outbox.cif.g08.bks.cpg/sg2_259_cif.got.tgz:517553.got - 2010.06.03 11:33:40.
