data_PCOD9064099
_publ_section_title
;
Structure prediction by ZEFSAII (Michael W. Deem and Ramdas Pophale) SiO2 
 PCOD9064099
Probable space group: P -1
;
_chemical_formula_sum "Si O2"
_cell_formula_units_Z 11
_cell_length_a 7.732406
_cell_length_b 16.128996
_cell_length_c 12.742713
_cell_angle_alpha 24.745488
_cell_angle_beta 133.067701
_cell_angle_gamma 132.075033
_cell_volume 479.455447
_symmetry_space_group_name_H-M "P -1"
_symmetry_group_IT_number 2
_symmetry_cell_setting 'triclinic'
loop_
_space_group_symop_operation_xyz
x,y,z
-x,-y,-z
loop_
_atom_site_type_symbol
_atom_site_label
_atom_site_fract_x
_atom_site_fract_y
_atom_site_fract_z
Si Si1 0.500000 0.000000 0.500000
Si Si2 0.669508 0.779604 0.468625
Si Si3 0.436081 0.794101 0.061993
Si Si4 0.139213 0.729523 0.800389
Si Si5 0.169020 0.400665 0.475466
Si Si6 0.596427 0.344675 0.297605
O O1 0.676140 0.196915 0.299963
O O2 0.494689 0.120545 0.471958
O O3 0.747432 0.678508 0.511280
O O4 0.505144 0.640285 0.643534
O O5 0.920408 0.850224 0.551790
O O6 0.552521 0.974831 0.170512
O O7 0.285155 0.634497 0.262972
O O8 0.697470 0.727378 0.240863
O O9 0.282461 0.755355 0.937428
O O10 0.000000 0.500000 0.000000
O O11 0.884357 0.375779 0.389359
O O12 0.500000 0.500000 0.000000
#
# Coordination Sequence:
#
# PCOD9064099 Si02
#       6
#     1   2   2   2   2   2
#     4  12  24  44  70 110 136 188 236 294 358 408
#     4  12  24  44  73 101 135 188 235 290 351 426
#     4  11  24  45  70  99 141 190 226 291 373 403
#     4  12  23  45  74 102 142 182 240 297 343 424
#     4  11  26  47  67 101 147 179 233 303 346 427
#     4  12  27  42  72 107 135 185 244 288 354 430
#
# _framework density 22.942696999999999
#
# number of rings (size 3 to 8) (size 9 to 14) (size 15 to 20)
#    0.000    0.364    5.455    3.273    2.545    0.727 
#    0.000    3.636    0.000    0.000    0.000    0.000 
#    0.000    0.000    0.000    0.000    0.000    0.000 
#
# Total GULP energy -61248.721884 kJ/mol
# GULP energy per Si atom -5568.065626 kJ/mol
# Density = 2.289048 g / cm^3
# Si number density = 22.942697 Si / 1000 Ang^3
#
#
#
# Elastic Constant Matrix: (Units=GPa)
#
#
# Indices 1 2 3 4 5 6 
#
# 1 123.1727 40.5305 39.4750 1.8191 -5.7504 20.6755
# 2 40.5305 107.2761 40.2001 13.2811 5.6158 15.9308
# 3 39.4750 40.2001 147.3733 6.4328 9.2165 26.5120
# 4 1.8191 13.2811 6.4328 57.2915 6.5780 3.4121
# 5 -5.7504 5.6158 9.2165 6.5780 31.7498 4.1855
# 6 20.6755 15.9308 26.5120 3.4121 4.1855 26.8017
#
#
#
# Elastic Compliance Matrix: (Units=1/GPa)
#
#
# Indices 1 2 3 4 5 6 
#
# 1 0.010607 -0.002914 -0.001234 0.000425 0.003475 -0.005826
# 2 -0.002914 0.011808 -0.001815 -0.002141 -0.001317 -0.002496
# 3 -0.001234 -0.001815 0.008882 0.000037 -0.001631 -0.006505
# 4 0.000425 -0.002141 0.000037 0.018360 -0.003237 -0.000924
# 5 0.003475 -0.001317 -0.001631 -0.003237 0.034190 -0.005212
# 6 -0.005826 -0.002496 -0.006505 -0.000924 -0.005212 0.050656
#
#
# Mechanical properties :
#
#
# Convention : Reuss Voigt Hill
#
# Bulk Modulus (GPa) = 51.62821 68.69257 60.16039
# Shear Modulus (GPa) = 32.70413 40.34303 36.52358
#
# Velocity S-wave (km/s) = 3.77964 4.19791 3.99425
# Velocity P-wave (km/s) = 6.44977 7.31454 6.89572
#
# Compressibility (1/GPa) = 0.01936926
#
# Stress axis : x y z
#
# Youngs Moduli (GPa) = 94.27653 84.68936 112.59027
#
# Poissons Ratio (x) = 0.24682 0.13893
# Poissons Ratio (y) = 0.27476 0.20439
# Poissons Ratio (z) = 0.11633 0.15374
#
# Static dielectric constant tensor:
#      x y z
#    x 1.914940 -0.065330 0.004200 
#    y -0.065330 1.893080 0.048560 
#    z 0.004200 0.048560 1.926020 
# 
# From -- ./inp_files/376779.got.cif
#   From: 2010.05.17/outbox.cif.g08.bks.cpg/sg2_189_cif.got.tgz:376779.got - 2010.06.03 11:33:40.
