data_PCOD9064015
_publ_section_title
;
Structure prediction by ZEFSAII (Michael W. Deem and Ramdas Pophale) SiO2 
 PCOD9064015
Probable space group: P -1
;
_chemical_formula_sum "Si O2"
_cell_formula_units_Z 16
_cell_length_a 19.110219
_cell_length_b 10.888840
_cell_length_c 16.755202
_cell_angle_alpha 21.913194
_cell_angle_beta 145.906835
_cell_angle_gamma 136.179426
_cell_volume 710.895420
_symmetry_space_group_name_H-M "P -1"
_symmetry_group_IT_number 2
_symmetry_cell_setting 'triclinic'
loop_
_space_group_symop_operation_xyz
x,y,z
-x,-y,-z
loop_
_atom_site_type_symbol
_atom_site_label
_atom_site_fract_x
_atom_site_fract_y
_atom_site_fract_z
Si Si1 0.579910 0.102970 0.585405
Si Si2 0.598458 0.227749 0.938290
Si Si3 0.228279 0.774005 0.431206
Si Si4 0.734131 0.700716 0.100644
Si Si5 0.102803 0.682669 0.953112
Si Si6 0.833178 0.432182 0.095950
Si Si7 0.647034 0.314081 0.761057
Si Si8 0.989226 0.442631 0.399176
O O1 0.688665 0.265637 0.547812
O O2 0.500000 0.000000 0.500000
O O3 0.484732 0.388332 0.373716
O O4 0.642810 0.769345 0.895796
O O5 0.714648 0.243943 0.098148
O O6 0.654164 0.115085 0.971730
O O7 0.500000 0.000000 0.000000
O O8 0.287676 0.552156 0.697713
O O9 0.090933 0.679139 0.345412
O O10 0.215489 0.165455 0.203598
O O11 0.877975 0.581732 0.274472
O O12 0.697323 0.070337 0.882707
O O13 0.097086 0.689281 0.847938
O O14 0.242697 0.486473 0.235560
O O15 0.068565 0.067051 0.720272
O O16 0.000000 0.500000 0.000000
O O17 0.917810 0.403426 0.272196
O O18 0.500000 0.500000 0.500000
#
# Coordination Sequence:
#
# PCOD9064015 Si02
#       8
#     2   2   2   2   2   2   2   2
#     4  12  25  47  71 108 145 194 249 299 370 442
#     4  11  24  46  71  99 147 192 246 300 365 448
#     4  12  25  45  74 107 149 188 246 305 363 443
#     4  12  25  45  78 105 145 194 247 301 374 435
#     4  11  26  45  71 105 150 191 247 308 365 445
#     4  11  25  46  69 109 146 189 247 307 369 437
#     4  11  24  45  69 106 142 191 247 297 369 440
#     4  12  25  47  73 109 146 195 246 304 377 439
#
# _framework density 22.506826
#
# number of rings (size 3 to 8) (size 9 to 14) (size 15 to 20)
#    0.000    0.500    5.000    2.625    3.500    1.500 
#    0.000    3.750    0.000    0.000    0.000    0.000 
#    0.000    0.000    0.000    0.000    0.000    0.000 
#
# Total GULP energy -89375.540252 kJ/mol
# GULP energy per Si atom -5585.971266 kJ/mol
# Density = 2.245560 g / cm^3
# Si number density = 22.506826 Si / 1000 Ang^3
#
#
#
# Elastic Constant Matrix: (Units=GPa)
#
#
# Indices 1 2 3 4 5 6 
#
# 1 103.4002 36.5938 19.4691 11.9658 22.4883 -5.3861
# 2 36.5938 132.9463 32.1592 20.1855 -4.6001 12.3056
# 3 19.4691 32.1592 95.1687 27.6661 -0.6504 -3.6671
# 4 11.9658 20.1855 27.6661 35.3844 -11.9588 0.3960
# 5 22.4883 -4.6001 -0.6504 -11.9588 41.2839 -1.8799
# 6 -5.3861 12.3056 -3.6671 0.3960 -1.8799 47.3030
#
#
#
# Elastic Compliance Matrix: (Units=1/GPa)
#
#
# Indices 1 2 3 4 5 6 
#
# 1 0.013736 -0.003421 0.000113 -0.006019 -0.009508 0.002135
# 2 -0.003421 0.009608 -0.002091 -0.001908 0.002214 -0.002947
# 3 0.000113 -0.002091 0.014525 -0.011326 -0.003272 0.001648
# 4 -0.006019 -0.001908 -0.011326 0.045686 0.016085 -0.000810
# 5 -0.009508 0.002214 -0.003272 0.016085 0.034225 -0.000687
# 6 0.002135 -0.002947 0.001648 -0.000810 -0.000687 0.022257
#
#
# Mechanical properties :
#
#
# Convention : Reuss Voigt Hill
#
# Bulk Modulus (GPa) = 36.93808 56.43994 46.68901
# Shear Modulus (GPa) = 31.27749 41.01381 36.14565
#
# Velocity S-wave (km/s) = 3.73190 4.27345 4.01182
# Velocity P-wave (km/s) = 5.91752 7.03428 6.49993
#
# Compressibility (1/GPa) = 0.02707233
#
# Stress axis : x y z
#
# Youngs Moduli (GPa) = 72.79970 104.07605 68.84815
#
# Poissons Ratio (x) = 0.35605 -0.00779
# Poissons Ratio (y) = 0.24905 0.14393
# Poissons Ratio (z) = -0.00823 0.21758
#
# Static dielectric constant tensor:
#      x y z
#    x 2.155860 -0.067680 -0.300750 
#    y -0.067680 1.930610 0.123900 
#    z -0.300750 0.123900 2.244890 
# 
# From -- ./inp_files/577883.got.cif
#   From: 2010.05.17/outbox.cif.g08.bks.cpg/sg2_289_cif.got.tgz:577883.got - 2010.06.03 11:33:40.
