data_PCOD9064108
_publ_section_title
;
Structure prediction by ZEFSAII (Michael W. Deem and Ramdas Pophale) SiO2 
 PCOD9064108
Probable space group: P -1
;
_chemical_formula_sum "Si O2"
_cell_formula_units_Z 15
_cell_length_a 11.375870
_cell_length_b 14.599785
_cell_length_c 8.586241
_cell_angle_alpha 47.762424
_cell_angle_beta 128.308368
_cell_angle_gamma 139.243122
_cell_volume 670.952954
_symmetry_space_group_name_H-M "P -1"
_symmetry_group_IT_number 2
_symmetry_cell_setting 'triclinic'
loop_
_space_group_symop_operation_xyz
x,y,z
-x,-y,-z
loop_
_atom_site_type_symbol
_atom_site_label
_atom_site_fract_x
_atom_site_fract_y
_atom_site_fract_z
Si Si1 0.001556 0.313719 0.634016
Si Si2 0.700790 0.547132 0.004705
Si Si3 0.950701 0.037778 0.752876
Si Si4 0.662733 0.182493 0.733488
Si Si5 0.000000 0.000000 0.500000
Si Si6 0.421359 0.263958 0.292141
Si Si7 0.103075 0.578190 0.838234
Si Si8 0.261109 0.874113 0.808569
O O1 0.807911 0.214278 0.683366
O O2 0.004622 0.439867 0.388900
O O3 0.163026 0.379760 0.818242
O O4 0.012680 0.207189 0.642667
O O5 0.513113 0.388817 0.088152
O O6 0.782406 0.488824 0.021371
O O7 0.683121 0.676039 0.770398
O O8 0.046551 0.021856 0.700130
O O9 0.730589 0.905239 0.700192
O O10 0.000000 0.000000 0.000000
O O11 0.578767 0.274366 0.508820
O O12 0.473177 0.013637 0.790306
O O13 0.755077 0.208988 0.947143
O O14 0.130598 0.933224 0.650392
O O15 0.215859 0.756377 0.768477
O O16 0.000000 0.500000 0.000000
#
# Coordination Sequence:
#
# PCOD9064108 Si02
#       8
#     2   2   2   2   1   2   2   2
#     4  12  24  46  75 101 136 195 242 290 362 440
#     4  11  26  45  70 101 143 189 237 288 363 438
#     4  12  25  45  79 105 138 189 250 297 364 431
#     4  11  24  45  74 102 145 184 246 304 358 422
#     4  12  24  48  70 106 150 178 240 314 350 422
#     4  11  24  45  71 101 142 184 240 304 351 427
#     4  12  26  41  68 100 143 189 237 288 362 435
#     4  11  26  44  69 110 143 189 240 305 363 422
#
# _framework density 22.356261
#
# number of rings (size 3 to 8) (size 9 to 14) (size 15 to 20)
#    0.000    0.533    5.333    2.000    5.600    1.067 
#    0.000    0.667    0.000    0.000    0.000    0.000 
#    0.000    0.000    0.000    0.000    0.000    0.000 
#
# Total GULP energy -83507.686792 kJ/mol
# GULP energy per Si atom -5567.179119 kJ/mol
# Density = 2.230538 g / cm^3
# Si number density = 22.356261 Si / 1000 Ang^3
#
#
#
# Elastic Constant Matrix: (Units=GPa)
#
#
# Indices 1 2 3 4 5 6 
#
# 1 115.3280 40.9654 8.3785 14.2878 -4.7967 -18.4167
# 2 40.9654 80.2946 -3.0288 8.4886 5.6032 -10.8656
# 3 8.3785 -3.0288 95.6930 14.4430 1.0166 -2.9360
# 4 14.2878 8.4886 14.4430 25.4738 0.0669 -3.5263
# 5 -4.7967 5.6032 1.0166 0.0669 42.8263 -2.0214
# 6 -18.4167 -10.8656 -2.9360 -3.5263 -2.0214 35.5252
#
#
#
# Elastic Compliance Matrix: (Units=1/GPa)
#
#
# Indices 1 2 3 4 5 6 
#
# 1 0.011823 -0.005207 -0.000484 -0.004043 0.002222 0.004222
# 2 -0.005207 0.015912 0.001491 -0.002965 -0.002609 0.001848
# 3 -0.000484 0.001491 0.011574 -0.006722 -0.000492 0.000467
# 4 -0.004043 -0.002965 -0.006722 0.046469 0.000072 0.001058
# 5 0.002222 -0.002609 -0.000492 0.000072 0.024032 0.001688
# 6 0.004222 0.001848 0.000467 0.001058 0.001688 0.031143
#
#
# Mechanical properties :
#
#
# Convention : Reuss Voigt Hill
#
# Bulk Modulus (GPa) = 32.35055 42.66065 37.50560
# Shear Modulus (GPa) = 31.31766 37.09842 34.20804
#
# Velocity S-wave (km/s) = 3.74685 4.07802 3.91593
# Velocity P-wave (km/s) = 5.76371 6.42629 6.10400
#
# Compressibility (1/GPa) = 0.03091138
#
# Stress axis : x y z
#
# Youngs Moduli (GPa) = 84.58068 62.84440 86.40265
#
# Poissons Ratio (x) = 0.32720 0.04180
# Poissons Ratio (y) = 0.44037 -0.12887
# Poissons Ratio (z) = 0.04092 -0.09373
#
# Static dielectric constant tensor:
#      x y z
#    x -0.373280 0.134550 0.503910 
#    y 0.134550 1.748040 -0.070040 
#    z 0.503910 -0.070040 1.811070 
# 
# From -- ./inp_files/271939.got.cif
#   From: 2010.05.17/outbox.cif.g08.bks.cpg/sg2_136_cif.got.tgz:271939.got - 2010.06.03 11:33:40.
