data_PCOD9064151
_publ_section_title
;
Structure prediction by ZEFSAII (Michael W. Deem and Ramdas Pophale) SiO2 
 PCOD9064151
Probable space group: P -1
;
_chemical_formula_sum "Si O2"
_cell_formula_units_Z 15
_cell_length_a 18.149693
_cell_length_b 12.934052
_cell_length_c 8.857530
_cell_angle_alpha 113.652403
_cell_angle_beta 43.051680
_cell_angle_gamma 146.700694
_cell_volume 646.071024
_symmetry_space_group_name_H-M "P -1"
_symmetry_group_IT_number 2
_symmetry_cell_setting 'triclinic'
loop_
_space_group_symop_operation_xyz
x,y,z
-x,-y,-z
loop_
_atom_site_type_symbol
_atom_site_label
_atom_site_fract_x
_atom_site_fract_y
_atom_site_fract_z
Si Si1 0.448732 0.636223 0.886746
Si Si2 0.066646 0.372813 0.526079
Si Si3 0.273781 0.673798 0.687910
Si Si4 0.684094 0.082820 0.719914
Si Si5 0.191286 0.083854 0.260797
Si Si6 0.656810 0.839915 0.243398
Si Si7 0.135637 0.755384 0.785797
Si Si8 0.500000 0.500000 0.500000
O O1 0.634307 0.738606 0.764479
O O2 0.373959 0.482177 0.781495
O O3 0.575209 0.860149 0.764457
O O4 0.258590 0.503348 0.205699
O O5 0.167535 0.530773 0.607737
O O6 0.892651 0.280633 0.631361
O O7 0.927199 0.142708 0.666445
O O8 0.471854 0.769300 0.476199
O O9 0.272565 0.807518 0.736285
O O10 0.108658 0.506358 0.974904
O O11 0.762365 0.176694 0.488809
O O12 0.500000 0.000000 0.000000
O O13 0.316846 0.192390 0.978422
O O14 0.000000 0.000000 0.500000
O O15 0.613236 0.705767 0.352510
O O16 0.863569 0.108655 0.116352
#
# Coordination Sequence:
#
# PCOD9064151 Si02
#       8
#     2   2   2   2   2   2   2   1
#     4  11  25  48  69 109 144 186 244 292 355 433
#     4  11  24  45  71 108 138 190 241 287 360 432
#     4  11  25  44  76 105 140 189 241 291 362 430
#     4  11  26  45  74 106 150 185 230 300 363 425
#     4  11  25  45  73 100 139 189 241 300 349 419
#     4  12  25  48  71 103 148 188 237 302 353 421
#     4  11  25  45  70 110 143 182 234 302 356 431
#     4  12  28  44  74 102 144 198 234 292 360 420
#
# _framework density 23.217262999999999
#
# number of rings (size 3 to 8) (size 9 to 14) (size 15 to 20)
#    0.000    0.800    4.000    2.000    5.600    5.333 
#    0.000    2.667    0.000    0.000    0.000    0.000 
#    0.000    0.000    0.000    0.000    0.000    0.000 
#
# Total GULP energy -83684.929641 kJ/mol
# GULP energy per Si atom -5578.995309 kJ/mol
# Density = 2.316442 g / cm^3
# Si number density = 23.217263 Si / 1000 Ang^3
#
#
#
# Elastic Constant Matrix: (Units=GPa)
#
#
# Indices 1 2 3 4 5 6 
#
# 1 89.9719 26.9877 34.2296 -14.2896 -0.9417 -26.7886
# 2 26.9877 73.9379 -0.0325 0.2023 6.3323 -30.6643
# 3 34.2296 -0.0325 144.0398 4.9451 6.9769 -10.2618
# 4 -14.2896 0.2023 4.9451 33.3447 -8.2300 3.9226
# 5 -0.9417 6.3323 6.9769 -8.2300 52.5574 -11.5035
# 6 -26.7886 -30.6643 -10.2618 3.9226 -11.5035 36.2302
#
#
#
# Elastic Compliance Matrix: (Units=1/GPa)
#
#
# Indices 1 2 3 4 5 6 
#
# 1 0.017916 -0.002608 -0.004022 0.008227 0.004760 0.010522
# 2 -0.002608 0.021717 0.001975 -0.003514 0.000356 0.017505
# 3 -0.004022 0.001975 0.008162 -0.003477 -0.001757 0.000829
# 4 0.008227 -0.003514 -0.003477 0.035661 0.006702 0.000392
# 5 0.004760 0.000356 -0.001757 0.006702 0.022483 0.009736
# 6 0.010522 0.017505 0.000829 0.000392 0.009736 0.053480
#
#
# Mechanical properties :
#
#
# Convention : Reuss Voigt Hill
#
# Bulk Modulus (GPa) = 25.98336 47.81324 36.89830
# Shear Modulus (GPa) = 27.53974 40.87744 34.20859
#
# Velocity S-wave (km/s) = 3.44783 4.20056 3.84267
# Velocity P-wave (km/s) = 5.20247 6.64566 5.96785
#
# Compressibility (1/GPa) = 0.03848617
#
# Stress axis : x y z
#
# Youngs Moduli (GPa) = 55.81590 46.04782 122.51669
#
# Poissons Ratio (x) = 0.12008 0.49271
# Poissons Ratio (y) = 0.14556 -0.24199
# Poissons Ratio (z) = 0.22447 -0.09095
#
# Static dielectric constant tensor:
#      x y z
#    x 1.894240 0.034970 -0.007540 
#    y 0.034970 1.918340 -0.020860 
#    z -0.007540 -0.020860 1.835470 
# 
# From -- ./inp_files/118781.got.cif
#   From: 2010.05.17/outbox.cif.g08.bks.cpg/sg2_60_cif.got.tgz:118781.got - 2010.06.03 11:33:40.
