data_PCOD9064735
_publ_section_title
;
Structure prediction by ZEFSAII (Michael W. Deem and Ramdas Pophale) SiO2 
 PCOD9064735
Probable space group: P -1
;
_chemical_formula_sum "Si O2"
_cell_formula_units_Z 13
_cell_length_a 12.113145
_cell_length_b 11.453562
_cell_length_c 8.522945
_cell_angle_alpha 145.255415
_cell_angle_beta 81.060967
_cell_angle_gamma 110.421916
_cell_volume 612.160489
_symmetry_space_group_name_H-M "P -1"
_symmetry_group_IT_number 2
_symmetry_cell_setting 'triclinic'
loop_
_space_group_symop_operation_xyz
x,y,z
-x,-y,-z
loop_
_atom_site_type_symbol
_atom_site_label
_atom_site_fract_x
_atom_site_fract_y
_atom_site_fract_z
Si Si1 0.566670 0.354120 0.151023
Si Si2 0.256402 0.867670 0.164341
Si Si3 0.500000 0.500000 0.000000
Si Si4 0.905763 0.987155 0.145015
Si Si5 0.791503 0.770340 0.236883
Si Si6 0.328325 0.189307 0.207548
Si Si7 0.064465 0.413651 0.759414
O O1 0.456131 0.214560 0.133943
O O2 0.654660 0.564071 0.465527
O O3 0.631205 0.200397 0.897046
O O4 0.515387 0.451410 0.127642
O O5 0.220829 0.999782 0.454836
O O6 0.293711 0.030849 0.189765
O O7 0.148605 0.633881 0.891983
O O8 0.347216 0.401519 0.945278
O O9 0.877063 0.821796 0.120291
O O10 0.776106 0.913591 0.010135
O O11 0.965798 0.231456 0.474981
O O12 0.000000 0.000000 0.000000
O O13 0.853919 0.693382 0.281798
O O14 0.000000 0.500000 0.000000
#
# Coordination Sequence:
#
# PCOD9064735 Si02
#       7
#     2   2   1   2   2   2   2
#     4  11  24  46  72 107 144 187 246 301 367 430
#     4  12  23  46  73 100 146 191 238 301 367 422
#     4  12  22  48  76 102 138 186 240 302 362 420
#     4  12  26  46  73 102 147 197 236 298 370 421
#     4  12  26  49  73 107 145 187 247 307 354 438
#     4  11  25  46  67 107 150 185 238 308 363 426
#     4  12  27  48  72 105 143 194 247 294 352 440
#
# _framework density 21.236260999999999
#
# number of rings (size 3 to 8) (size 9 to 14) (size 15 to 20)
#    0.000    0.308    6.154    2.769    2.154    1.231 
#    5.538    0.000    0.000    0.000    0.000    0.000 
#    0.000    0.000    0.000    0.000    0.000    0.000 
#
# Total GULP energy -72391.593930 kJ/mol
# GULP energy per Si atom -5568.584148 kJ/mol
# Density = 2.118793 g / cm^3
# Si number density = 21.236261 Si / 1000 Ang^3
#
#
#
# Elastic Constant Matrix: (Units=GPa)
#
#
# Indices 1 2 3 4 5 6 
#
# 1 93.0737 16.5222 74.4252 7.2233 12.8848 8.5748
# 2 16.5222 135.8509 33.9591 5.2015 12.6123 35.2571
# 3 74.4252 33.9591 103.9075 -7.3025 5.6444 1.4084
# 4 7.2233 5.2015 -7.3025 29.8061 6.3589 9.0115
# 5 12.8848 12.6123 5.6444 6.3589 40.3140 -4.5844
# 6 8.5748 35.2571 1.4084 9.0115 -4.5844 34.4540
#
#
#
# Elastic Compliance Matrix: (Units=1/GPa)
#
#
# Indices 1 2 3 4 5 6 
#
# 1 0.034485 0.007403 -0.027132 -0.010141 -0.009493 -0.013659
# 2 0.007403 0.013694 -0.009153 0.000103 -0.007258 -0.016474
# 3 -0.027132 -0.009153 0.032259 0.010727 0.006793 0.012898
# 4 -0.010141 0.000103 0.010727 0.042997 -0.006223 -0.010094
# 5 -0.009493 -0.007258 0.006793 -0.006223 0.031890 0.015383
# 6 -0.013659 -0.016474 0.012898 -0.010094 0.015383 0.053442
#
#
# Mechanical properties :
#
#
# Convention : Reuss Voigt Hill
#
# Bulk Modulus (GPa) = 44.10308 64.73834 54.42071
# Shear Modulus (GPa) = 18.24217 34.77653 26.50935
#
# Velocity S-wave (km/s) = 2.93407 4.05112 3.53697
# Velocity P-wave (km/s) = 5.68254 7.24107 6.50862
#
# Compressibility (1/GPa) = 0.02267415
#
# Stress axis : x y z
#
# Youngs Moduli (GPa) = 28.99775 73.02374 30.99911
#
# Poissons Ratio (x) = -0.54058 0.84107
# Poissons Ratio (y) = -0.21466 0.28374
# Poissons Ratio (z) = 0.78677 0.66839
#
# Static dielectric constant tensor:
#      x y z
#    x 1.340340 0.025740 -0.143390 
#    y 0.025740 1.772270 0.010450 
#    z -0.143390 0.010450 1.724080 
# 
# From -- ./inp_files/36136.got.cif
#   From: 2010.05.17/outbox.cif.g08.bks.cpg/sg2_19_cif.got.tgz:36136.got - 2010.06.03 11:33:40.
