data_PCOD9064101
_publ_section_title
;
Structure prediction by ZEFSAII (Michael W. Deem and Ramdas Pophale) SiO2 
 PCOD9064101
Probable space group: P -1
;
_chemical_formula_sum "Si O2"
_cell_formula_units_Z 13
_cell_length_a 16.025108
_cell_length_b 7.843804
_cell_length_c 6.320964
_cell_angle_alpha 97.989917
_cell_angle_beta 111.643353
_cell_angle_gamma 47.240053
_cell_volume 534.947072
_symmetry_space_group_name_H-M "P -1"
_symmetry_group_IT_number 2
_symmetry_cell_setting 'triclinic'
loop_
_space_group_symop_operation_xyz
x,y,z
-x,-y,-z
loop_
_atom_site_type_symbol
_atom_site_label
_atom_site_fract_x
_atom_site_fract_y
_atom_site_fract_z
Si Si1 0.885705 0.063658 0.016402
Si Si2 0.413037 0.872421 0.525185
Si Si3 0.427656 0.509141 0.736203
Si Si4 0.500000 0.000000 0.000000
Si Si5 0.748947 0.502214 0.175915
Si Si6 0.004554 0.277917 0.584277
Si Si7 0.144358 0.244043 0.320213
O O1 0.775541 0.343364 0.973398
O O2 0.929435 0.962154 0.276232
O O3 0.856430 0.923022 0.854161
O O4 0.000000 0.000000 0.000000
O O5 0.390217 0.715239 0.586100
O O6 0.483355 0.737441 0.350338
O O7 0.488707 0.884653 0.764549
O O8 0.282166 0.131325 0.409784
O O9 0.317679 0.537099 0.725223
O O10 0.500000 0.500000 0.000000
O O11 0.348504 0.220396 0.903170
O O12 0.881855 0.392992 0.358262
O O13 0.953514 0.475534 0.749742
O O14 0.103828 0.232244 0.513828
#
# Coordination Sequence:
#
# PCOD9064101 Si02
#       7
#     2   2   2   1   2   2   2
#     4  12  26  44  72 108 141 188 243 297 364 431
#     4  11  25  45  72 104 142 189 242 297 358 434
#     4  11  24  45  70  99 144 193 240 289 358 435
#     4  12  26  48  68 110 146 188 248 290 364 428
#     4  12  25  48  70 105 146 188 241 299 356 438
#     4  11  25  47  72 105 143 187 237 305 366 425
#     4  11  24  47  72 105 140 188 237 304 366 430
#
# _framework density 24.301469999999998
#
# number of rings (size 3 to 8) (size 9 to 14) (size 15 to 20)
#    0.000    0.615    4.615    2.769    4.308    0.615 
#    2.769    0.000    0.000    0.000    0.000    0.000 
#    0.000    0.000    0.000    0.000    0.000    0.000 
#
# Total GULP energy -72511.863541 kJ/mol
# GULP energy per Si atom -5577.835657 kJ/mol
# Density = 2.424616 g / cm^3
# Si number density = 24.301470 Si / 1000 Ang^3
#
#
#
# Elastic Constant Matrix: (Units=GPa)
#
#
# Indices 1 2 3 4 5 6 
#
# 1 78.5511 -0.2492 12.5163 8.9460 4.3904 -18.4518
# 2 -0.2492 155.2823 30.7867 30.5036 1.9361 -30.7003
# 3 12.5163 30.7867 69.1907 31.7822 33.0606 -6.4471
# 4 8.9460 30.5036 31.7822 46.5556 12.0577 -3.1385
# 5 4.3904 1.9361 33.0606 12.0577 38.3523 8.6432
# 6 -18.4518 -30.7003 -6.4471 -3.1385 8.6432 37.9761
#
#
#
# Elastic Compliance Matrix: (Units=1/GPa)
#
#
# Indices 1 2 3 4 5 6 
#
# 1 0.015721 0.002761 -0.000134 -0.003235 -0.003126 0.010292
# 2 0.002761 0.009391 -0.001949 -0.004977 0.000641 0.008045
# 3 -0.000134 -0.001949 0.038041 -0.016232 -0.029892 0.010280
# 4 -0.003235 -0.004977 -0.016232 0.034639 0.005229 -0.006679
# 5 -0.003126 0.000641 -0.029892 0.005229 0.054595 -0.018069
# 6 0.010292 0.008045 0.010280 -0.006679 -0.018069 0.043142
#
#
# Mechanical properties :
#
#
# Convention : Reuss Voigt Hill
#
# Bulk Modulus (GPa) = 15.50120 43.23686 29.36903
# Shear Modulus (GPa) = 23.18298 41.90816 32.54557
#
# Velocity S-wave (km/s) = 3.09200 4.15723 3.66354
# Velocity P-wave (km/s) = 4.37491 6.39327 5.47785
#
# Compressibility (1/GPa) = 0.06451114
#
# Stress axis : x y z
#
# Youngs Moduli (GPa) = 63.60720 106.48564 26.28761
#
# Poissons Ratio (x) = -0.29402 0.00351
# Poissons Ratio (y) = -0.17563 0.05122
# Poissons Ratio (z) = 0.00849 0.20750
#
# Static dielectric constant tensor:
#      x y z
#    x 1.722440 0.031300 -0.141920 
#    y 0.031300 1.957040 -0.035040 
#    z -0.141920 -0.035040 1.864860 
# 
# From -- ./inp_files/23273.got.cif
#   From: 2010.05.17/outbox.cif.g08.bks.cpg/sg2_12_cif.got.tgz:23273.got - 2010.06.03 11:33:40.
