data_PCOD9064370
_publ_section_title
;
Structure prediction by ZEFSAII (Michael W. Deem and Ramdas Pophale) SiO2 
 PCOD9064370
Probable space group: P -1
;
_chemical_formula_sum "Si O2"
_cell_formula_units_Z 14
_cell_length_a 8.924666
_cell_length_b 14.089198
_cell_length_c 5.314058
_cell_angle_alpha 73.524435
_cell_angle_beta 57.915705
_cell_angle_gamma 86.738553
_cell_volume 539.270068
_symmetry_space_group_name_H-M "P -1"
_symmetry_group_IT_number 2
_symmetry_cell_setting 'triclinic'
loop_
_space_group_symop_operation_xyz
x,y,z
-x,-y,-z
loop_
_atom_site_type_symbol
_atom_site_label
_atom_site_fract_x
_atom_site_fract_y
_atom_site_fract_z
Si Si1 0.218415 0.692517 0.703816
Si Si2 0.760751 0.899955 0.757470
Si Si3 0.593274 0.733560 0.326580
Si Si4 0.831949 0.570030 0.221761
Si Si5 0.876093 0.122618 0.685886
Si Si6 0.305295 0.533970 0.099413
Si Si7 0.442864 0.887441 0.716943
O O1 0.409547 0.685550 0.390919
O O2 0.165187 0.795622 0.546189
O O3 0.290572 0.648165 0.940593
O O4 0.025515 0.625879 0.939129
O O5 0.557237 0.883571 0.868203
O O6 0.916646 0.882888 0.436856
O O7 0.804444 0.011019 0.738203
O O8 0.757272 0.805067 0.007475
O O9 0.697529 0.644812 0.389298
O O10 0.514817 0.811999 0.519878
O O11 0.818035 0.492270 0.524963
O O12 0.756985 0.525890 0.056601
O O13 0.763466 0.136716 0.024345
O O14 0.500000 0.500000 0.000000
O O15 0.500000 0.000000 0.500000
#
# Coordination Sequence:
#
# PCOD9064370 Si02
#       7
#     2   2   2   2   2   2   2
#     4  12  26  47  80 113 150 210 262 320 404 476
#     4  11  24  47  68 106 158 198 255 331 385 465
#     4  12  26  44  76 109 152 200 265 319 395 467
#     4  12  29  53  77 119 160 206 266 332 401 479
#     4  11  24  45  74 105 155 203 263 321 391 476
#     4  12  28  53  85 114 161 204 262 337 405 471
#     4  12  25  42  70 106 150 207 253 322 389 464
#
# _framework density 25.961015
#
# number of rings (size 3 to 8) (size 9 to 14) (size 15 to 20)
#    0.000    0.286    5.714    2.571    2.000    4.000 
#    0.000    0.000    0.000    0.000    0.000    0.000 
#    0.000    0.000    0.000    0.000    0.000    0.000 
#
# Total GULP energy -78040.530381 kJ/mol
# GULP energy per Si atom -5574.323599 kJ/mol
# Density = 2.590193 g / cm^3
# Si number density = 25.961015 Si / 1000 Ang^3
#
#
#
# Elastic Constant Matrix: (Units=GPa)
#
#
# Indices 1 2 3 4 5 6 
#
# 1 87.4312 19.5082 32.0381 -11.1043 -17.6284 -5.1370
# 2 19.5082 64.6973 36.8073 -17.1793 -6.4198 -12.3076
# 3 32.0381 36.8073 162.6084 -19.3594 -20.6993 6.3989
# 4 -11.1043 -17.1793 -19.3594 56.1464 -12.4263 -2.3003
# 5 -17.6284 -6.4198 -20.6993 -12.4263 54.6606 4.9996
# 6 -5.1370 -12.3076 6.3989 -2.3003 4.9996 38.1430
#
#
#
# Elastic Compliance Matrix: (Units=1/GPa)
#
#
# Indices 1 2 3 4 5 6 
#
# 1 0.013623 -0.002007 -0.001450 0.002528 0.004088 0.001047
# 2 -0.002007 0.021203 -0.003969 0.005214 0.000845 0.007441
# 3 -0.001450 -0.003969 0.008018 0.001753 0.002783 -0.003080
# 4 0.002528 0.005214 0.001753 0.022132 0.006926 0.002156
# 5 0.004088 0.000845 0.002783 0.006926 0.022540 -0.002180
# 6 0.001047 0.007441 -0.003080 0.002156 -0.002180 0.029692
#
#
# Mechanical properties :
#
#
# Convention : Reuss Voigt Hill
#
# Bulk Modulus (GPa) = 35.72168 54.60490 45.16329
# Shear Modulus (GPa) = 35.36315 44.88222 40.12268
#
# Velocity S-wave (km/s) = 3.69475 4.16243 3.93555
# Velocity P-wave (km/s) = 5.65608 6.64682 6.17136
#
# Compressibility (1/GPa) = 0.02799420
#
# Stress axis : x y z
#
# Youngs Moduli (GPa) = 73.40291 47.16210 124.72140
#
# Poissons Ratio (x) = 0.09466 0.18081
# Poissons Ratio (y) = 0.14732 0.49496
# Poissons Ratio (z) = 0.10641 0.18716
#
# Static dielectric constant tensor:
#      x y z
#    x 2.135280 0.485790 0.276550 
#    y 0.485790 0.880790 0.090380 
#    z 0.276550 0.090380 2.807300 
# 
# From -- ./inp_files/37140.got.cif
#   From: 2010.05.17/outbox.cif.g08.bks.cpg/sg2_19_cif.got.tgz:37140.got - 2010.06.03 11:33:40.
