data_PCOD9064567
_publ_section_title
;
Structure prediction by ZEFSAII (Michael W. Deem and Ramdas Pophale) SiO2 
 PCOD9064567
Probable space group: P -1
;
_chemical_formula_sum "Si O2"
_cell_formula_units_Z 15
_cell_length_a 18.348652
_cell_length_b 21.512181
_cell_length_c 12.078038
_cell_angle_alpha 143.208087
_cell_angle_beta 154.296055
_cell_angle_gamma 19.260618
_cell_volume 639.425451
_symmetry_space_group_name_H-M "P -1"
_symmetry_group_IT_number 2
_symmetry_cell_setting 'triclinic'
loop_
_space_group_symop_operation_xyz
x,y,z
-x,-y,-z
loop_
_atom_site_type_symbol
_atom_site_label
_atom_site_fract_x
_atom_site_fract_y
_atom_site_fract_z
Si Si1 0.721069 0.668290 0.448581
Si Si2 0.000000 0.500000 0.000000
Si Si3 0.555417 0.450633 0.352416
Si Si4 0.339938 0.657432 0.909726
Si Si5 0.903717 0.605485 0.221594
Si Si6 0.767476 0.818576 0.025536
Si Si7 0.659094 0.241335 0.379623
Si Si8 0.624038 0.963258 0.417102
O O1 0.544241 0.873833 0.489544
O O2 0.000000 0.500000 0.500000
O O3 0.900281 0.563182 0.661952
O O4 0.460669 0.712298 0.159833
O O5 0.082222 0.555620 0.286402
O O6 0.806503 0.678718 0.907619
O O7 0.545368 0.437512 0.190667
O O8 0.518248 0.361833 0.242857
O O9 0.334236 0.664451 0.394226
O O10 0.903130 0.297278 0.661252
O O11 0.500000 0.500000 0.000000
O O12 0.951425 0.849789 0.664296
O O13 0.740903 0.781941 0.324840
O O14 0.634163 0.684670 0.886618
O O15 0.643118 0.903263 0.854017
O O16 0.500000 0.000000 0.000000
O O17 0.000000 0.000000 0.500000
#
# Coordination Sequence:
#
# PCOD9064567 Si02
#       8
#     2   1   2   2   2   2   2   2
#     4  12  28  50  71  99 147 198 241 289 353 430
#     4  12  22  38  70 108 130 168 228 294 356 412
#     4  11  24  46  69 105 146 179 236 293 365 428
#     4  12  26  49  74 107 146 194 244 303 347 424
#     4  12  24  43  72 104 137 181 238 288 359 422
#     4  12  22  39  74 104 135 173 224 301 368 413
#     4  11  25  43  70 107 143 184 227 297 368 436
#     4  12  25  46  76 106 139 186 250 298 357 419
#
# _framework density 23.458561
#
# number of rings (size 3 to 8) (size 9 to 14) (size 15 to 20)
#    0.000    0.267    6.667    2.000    0.000    3.733 
#    7.200    0.000    0.000    0.000    0.000    0.000 
#    0.000    0.000    0.000    0.000    0.000    0.000 
#
# Total GULP energy -83573.264901 kJ/mol
# GULP energy per Si atom -5571.550993 kJ/mol
# Density = 2.340517 g / cm^3
# Si number density = 23.458561 Si / 1000 Ang^3
#
#
#
# Elastic Constant Matrix: (Units=GPa)
#
#
# Indices 1 2 3 4 5 6 
#
# 1 82.0988 -3.3686 17.5644 7.1109 -33.6607 -14.1860
# 2 -3.3686 134.6640 20.9493 9.6890 -11.4610 -27.7984
# 3 17.5644 20.9493 93.8211 0.8182 -3.2287 1.4408
# 4 7.1109 9.6890 0.8182 29.4696 -4.3818 -3.4448
# 5 -33.6607 -11.4610 -3.2287 -4.3818 39.1604 9.7990
# 6 -14.1860 -27.7984 1.4408 -3.4448 9.7990 39.6661
#
#
#
# Elastic Compliance Matrix: (Units=1/GPa)
#
#
# Indices 1 2 3 4 5 6 
#
# 1 0.022046 0.004331 -0.004549 -0.003211 0.017885 0.006388
# 2 0.004331 0.010102 -0.003010 -0.002779 0.004257 0.007444
# 3 -0.004549 -0.003010 0.012129 0.000932 -0.002837 -0.003395
# 4 -0.003211 -0.002779 0.000932 0.035656 0.000534 -0.000166
# 5 0.017885 0.004257 -0.002837 0.000534 0.042205 -0.000897
# 6 0.006388 0.007444 -0.003395 -0.000166 -0.000897 0.033043
#
#
# Mechanical properties :
#
#
# Convention : Reuss Voigt Hill
#
# Bulk Modulus (GPa) = 26.44087 42.31936 34.38012
# Shear Modulus (GPa) = 28.69560 40.02181 34.35870
#
# Velocity S-wave (km/s) = 3.50129 4.13493 3.83123
# Velocity P-wave (km/s) = 5.25748 6.39344 5.85309
#
# Compressibility (1/GPa) = 0.03782024
#
# Stress axis : x y z
#
# Youngs Moduli (GPa) = 45.35970 98.99511 82.44935
#
# Poissons Ratio (x) = -0.42874 0.37506
# Poissons Ratio (y) = -0.19645 0.24817
# Poissons Ratio (z) = 0.20634 0.29797
#
# Static dielectric constant tensor:
#      x y z
#    x 2.013350 -0.472950 -0.068760 
#    y -0.472950 2.870920 0.113830 
#    z -0.068760 0.113830 1.879480 
# 
# From -- ./inp_files/467147.got.cif
#   From: 2010.05.17/outbox.cif.g08.bks.cpg/sg2_234_cif.got.tgz:467147.got - 2010.06.03 11:33:40.
