data_PCOD9064536
_publ_section_title
;
Structure prediction by ZEFSAII (Michael W. Deem and Ramdas Pophale) SiO2 
 PCOD9064536
Probable space group: P -1
;
_chemical_formula_sum "Si O2"
_cell_formula_units_Z 14
_cell_length_a 12.210915
_cell_length_b 6.134048
_cell_length_c 11.471042
_cell_angle_alpha 129.043425
_cell_angle_beta 113.464853
_cell_angle_gamma 67.419926
_cell_volume 601.349497
_symmetry_space_group_name_H-M "P -1"
_symmetry_group_IT_number 2
_symmetry_cell_setting 'triclinic'
loop_
_space_group_symop_operation_xyz
x,y,z
-x,-y,-z
loop_
_atom_site_type_symbol
_atom_site_label
_atom_site_fract_x
_atom_site_fract_y
_atom_site_fract_z
Si Si1 0.515872 0.392975 0.773708
Si Si2 0.857461 0.580149 0.461233
Si Si3 0.274628 0.776564 0.359175
Si Si4 0.850700 0.303613 0.122113
Si Si5 0.332606 0.668352 0.598749
Si Si6 0.918432 0.631192 0.899915
Si Si7 0.625619 0.739962 0.102144
O O1 0.637290 0.210129 0.708617
O O2 0.422926 0.455225 0.647911
O O3 0.457814 0.273018 0.822217
O O4 0.550965 0.685497 0.937585
O O5 0.820245 0.431495 0.279434
O O6 0.794705 0.438228 0.490066
O O7 0.000000 0.500000 0.500000
O O8 0.808806 0.916317 0.551617
O O9 0.357801 0.696781 0.482599
O O10 0.186906 0.549505 0.224966
O O11 0.739638 0.476486 0.059355
O O12 0.980876 0.370882 0.159752
O O13 0.861233 0.964207 0.007637
O O14 0.324342 0.971751 0.761321
O O15 0.000000 0.500000 0.000000
#
# Coordination Sequence:
#
# PCOD9064536 Si02
#       7
#     2   2   2   2   2   2   2
#     4  11  26  46  72 107 147 191 247 295 363 434
#     4  12  27  45  72 105 148 190 242 296 366 430
#     4  12  27  45  72 112 147 188 239 307 363 430
#     4  11  24  46  68 105 140 186 245 295 352 433
#     4  12  25  46  72 106 146 197 236 300 368 430
#     4  11  26  44  73 103 144 191 241 299 360 425
#     4  11  25  46  75 105 146 192 244 300 359 432
#
# _framework density 23.280971000000001
#
# number of rings (size 3 to 8) (size 9 to 14) (size 15 to 20)
#    0.000    0.571    2.857    3.429    6.000   10.286 
#    0.000    0.000    0.000    0.000    0.000    0.000 
#    0.000    0.000    0.000    0.000    0.000    0.000 
#
# Total GULP energy -78357.891867 kJ/mol
# GULP energy per Si atom -5596.992276 kJ/mol
# Density = 2.322798 g / cm^3
# Si number density = 23.280971 Si / 1000 Ang^3
#
#
#
# Elastic Constant Matrix: (Units=GPa)
#
#
# Indices 1 2 3 4 5 6 
#
# 1 125.8583 37.3555 45.2997 21.1745 -7.4582 -12.3363
# 2 37.3555 36.8390 22.5626 9.6572 -2.9634 5.7032
# 3 45.2997 22.5626 92.0202 3.6776 3.7754 -0.1305
# 4 21.1745 9.6572 3.6776 41.7692 0.1813 11.8949
# 5 -7.4582 -2.9634 3.7754 0.1813 44.0146 1.0844
# 6 -12.3363 5.7032 -0.1305 11.8949 1.0844 17.4890
#
#
#
# Elastic Compliance Matrix: (Units=1/GPa)
#
#
# Indices 1 2 3 4 5 6 
#
# 1 0.020999 -0.018905 -0.005159 -0.014579 0.002031 0.030728
# 2 -0.018905 0.052317 -0.003957 0.008087 0.001513 -0.036020
# 3 -0.005159 -0.003957 0.014321 0.003569 -0.002272 -0.004528
# 4 -0.014579 0.008087 0.003569 0.040681 -0.001402 -0.040476
# 5 0.002031 0.001513 -0.002272 -0.001402 0.023356 0.000428
# 6 0.030728 -0.036020 -0.004528 -0.040476 0.000428 0.118069
#
#
# Mechanical properties :
#
#
# Convention : Reuss Voigt Hill
#
# Bulk Modulus (GPa) = 31.65153 51.68367 41.66760
# Shear Modulus (GPa) = 14.86694 30.62122 22.74408
#
# Velocity S-wave (km/s) = 2.52977 3.63063 3.12899
# Velocity P-wave (km/s) = 4.70722 6.31058 5.56693
#
# Compressibility (1/GPa) = 0.03159405
#
# Stress axis : x y z
#
# Youngs Moduli (GPa) = 47.62235 19.11416 69.82613
#
# Poissons Ratio (x) = 0.36136 0.36022
# Poissons Ratio (y) = 0.90031 0.27633
# Poissons Ratio (z) = 0.24568 0.07564
#
# Static dielectric constant tensor:
#      x y z
#    x 1.889250 0.007990 0.037890 
#    y 0.007990 1.905280 -0.088870 
#    z 0.037890 -0.088870 1.948500 
# 
# From -- ./inp_files/27560.got.cif
#   From: 2010.05.17/outbox.cif.g08.bks.cpg/sg2_14_cif.got.tgz:27560.got - 2010.06.03 11:33:40.
