data_PCOD9064208
_publ_section_title
;
Structure prediction by ZEFSAII (Michael W. Deem and Ramdas Pophale) SiO2 
 PCOD9064208
Probable space group: P -1
;
_chemical_formula_sum "Si O2"
_cell_formula_units_Z 16
_cell_length_a 14.426111
_cell_length_b 13.858788
_cell_length_c 9.360299
_cell_angle_alpha 101.676440
_cell_angle_beta 81.989416
_cell_angle_gamma 30.489910
_cell_volume 721.042744
_symmetry_space_group_name_H-M "P -1"
_symmetry_group_IT_number 2
_symmetry_cell_setting 'triclinic'
loop_
_space_group_symop_operation_xyz
x,y,z
-x,-y,-z
loop_
_atom_site_type_symbol
_atom_site_label
_atom_site_fract_x
_atom_site_fract_y
_atom_site_fract_z
Si Si1 0.645787 0.803192 0.745308
Si Si2 0.769651 0.448916 0.906576
Si Si3 0.673508 0.063437 0.018208
Si Si4 0.125030 0.969101 0.544875
Si Si5 0.041973 0.558482 0.693315
Si Si6 0.796142 0.137763 0.172542
Si Si7 0.538052 0.523712 0.147278
Si Si8 0.230915 0.342950 0.886557
O O1 0.481960 0.876025 0.866430
O O2 0.835968 0.673028 0.768686
O O3 0.807855 0.598912 0.528023
O O4 0.468449 0.057944 0.798082
O O5 0.506436 0.706977 0.977596
O O6 0.753981 0.386254 0.020255
O O7 0.816199 0.512332 0.971991
O O8 0.951875 0.228607 0.687961
O O9 0.761254 0.057716 0.112146
O O10 0.895584 0.800290 0.813377
O O11 0.190859 0.869971 0.661550
O O12 0.337149 0.787016 0.336832
O O13 0.000000 0.000000 0.500000
O O14 0.222825 0.374997 0.730152
O O15 0.576230 0.408564 0.230945
O O16 0.000000 0.000000 0.000000
O O17 0.500000 0.500000 0.000000
O O18 0.000000 0.500000 0.000000
#
# Coordination Sequence:
#
# PCOD9064208 Si02
#       8
#     2   2   2   2   2   2   2   2
#     4  11  25  46  71 105 143 187 242 297 363 432
#     4  12  26  45  71 106 138 189 239 296 362 434
#     4  12  24  46  70 102 143 187 240 297 363 429
#     4  12  25  46  72 103 140 184 237 295 364 431
#     4  11  24  45  72 104 143 187 238 300 362 430
#     4  12  25  46  74 101 143 192 241 297 370 433
#     4  12  24  48  69  99 143 183 232 301 359 426
#     4  12  24  46  74  99 148 191 236 300 362 428
#
# _framework density 22.190085
#
# number of rings (size 3 to 8) (size 9 to 14) (size 15 to 20)
#    0.000    0.250    6.250    2.625    0.000    2.000 
#    4.500    0.000    0.000    0.000    0.000    0.000 
#    0.000    0.000    0.000    0.000    0.000    0.000 
#
# Total GULP energy -89406.712417 kJ/mol
# GULP energy per Si atom -5587.919526 kJ/mol
# Density = 2.213958 g / cm^3
# Si number density = 22.190085 Si / 1000 Ang^3
#
#
#
# Elastic Constant Matrix: (Units=GPa)
#
#
# Indices 1 2 3 4 5 6 
#
# 1 118.4888 30.3977 56.1308 3.0557 32.3526 -5.4061
# 2 30.3977 121.7691 45.6129 -10.9889 19.8875 3.7347
# 3 56.1308 45.6129 181.8643 8.9118 24.5846 1.8849
# 4 3.0557 -10.9889 8.9118 36.4933 -7.1847 11.2459
# 5 32.3526 19.8875 24.5846 -7.1847 36.0704 0.6903
# 6 -5.4061 3.7347 1.8849 11.2459 0.6903 35.7199
#
#
#
# Elastic Compliance Matrix: (Units=1/GPa)
#
#
# Indices 1 2 3 4 5 6 
#
# 1 0.012828 -0.001216 -0.002102 -0.004081 -0.010286 0.003663
# 2 -0.001216 0.010060 -0.002008 0.003886 -0.002270 -0.002310
# 3 -0.002102 -0.002008 0.007109 -0.002774 -0.002414 0.000437
# 4 -0.004081 0.003886 -0.002774 0.035476 0.010709 -0.012254
# 5 -0.010286 -0.002270 -0.002414 0.010709 0.042082 -0.005377
# 6 0.003663 -0.002310 0.000437 -0.012254 -0.005377 0.032730
#
#
# Mechanical properties :
#
#
# Convention : Reuss Voigt Hill
#
# Bulk Modulus (GPa) = 51.68950 76.26724 63.97837
# Shear Modulus (GPa) = 31.76940 40.98877 36.37909
#
# Velocity S-wave (km/s) = 3.78788 4.30253 4.05338
# Velocity P-wave (km/s) = 6.51730 7.68940 7.12749
#
# Compressibility (1/GPa) = 0.01934629
#
# Stress axis : x y z
#
# Youngs Moduli (GPa) = 77.95395 99.40394 140.67505
#
# Poissons Ratio (x) = 0.12084 0.29569
# Poissons Ratio (y) = 0.09477 0.28242
# Poissons Ratio (z) = 0.16385 0.19956
#
# Static dielectric constant tensor:
#      x y z
#    x 1.833520 0.007490 -0.036880 
#    y 0.007490 2.065390 0.096840 
#    z -0.036880 0.096840 1.860220 
# 
# From -- ./inp_files/315613.got.cif
#   From: 2010.05.17/outbox.cif.g08.bks.cpg/sg2_158_cif.got.tgz:315613.got - 2010.06.03 11:33:40.
