data_PCOD9064034
_publ_section_title
;
Structure prediction by ZEFSAII (Michael W. Deem and Ramdas Pophale) SiO2 
 PCOD9064034
Probable space group: P -1
;
_chemical_formula_sum "Si O2"
_cell_formula_units_Z 15
_cell_length_a 8.491628
_cell_length_b 14.974430
_cell_length_c 6.911303
_cell_angle_alpha 76.176470
_cell_angle_beta 53.245659
_cell_angle_gamma 97.931712
_cell_volume 637.583052
_symmetry_space_group_name_H-M "P -1"
_symmetry_group_IT_number 2
_symmetry_cell_setting 'triclinic'
loop_
_space_group_symop_operation_xyz
x,y,z
-x,-y,-z
loop_
_atom_site_type_symbol
_atom_site_label
_atom_site_fract_x
_atom_site_fract_y
_atom_site_fract_z
Si Si1 0.510502 0.366360 0.953227
Si Si2 0.598962 0.060758 0.198977
Si Si3 0.784946 0.956465 0.801446
Si Si4 0.120438 0.379588 0.770744
Si Si5 0.626972 0.756497 0.228688
Si Si6 0.676378 0.261302 0.209744
Si Si7 0.843298 0.573874 0.698738
Si Si8 0.000000 0.500000 0.000000
O O1 0.533382 0.311980 0.773246
O O2 0.659237 0.479218 0.792792
O O3 0.563167 0.311718 0.123504
O O4 0.269907 0.359381 0.151918
O O5 0.406326 0.059783 0.201534
O O6 0.723001 0.172720 0.119188
O O7 0.500000 0.000000 0.500000
O O8 0.743774 0.019972 0.978173
O O9 0.770170 0.853437 0.961096
O O10 0.000000 0.000000 0.500000
O O11 0.242650 0.306196 0.747069
O O12 0.047322 0.374692 0.604934
O O13 0.219010 0.480335 0.764602
O O14 0.892980 0.348554 0.070516
O O15 0.485356 0.783239 0.476637
O O16 0.960691 0.532833 0.788320
#
# Coordination Sequence:
#
# PCOD9064034 Si02
#       8
#     2   2   2   2   2   2   2   1
#     4  11  24  45  69  99 143 190 230 298 352 416
#     4  11  25  48  72 106 147 182 234 297 368 430
#     4  11  27  47  75 110 141 187 237 299 363 434
#     4  12  28  43  70 105 139 189 240 290 353 424
#     4  12  26  47  71 103 145 182 242 293 358 430
#     4  12  26  46  71 103 143 190 234 294 357 427
#     4  11  25  45  68 101 143 188 238 291 359 411
#     4  12  24  44  64 102 140 176 242 292 340 418
#
# _framework density 23.526347000000001
#
# number of rings (size 3 to 8) (size 9 to 14) (size 15 to 20)
#    0.000    0.533    6.667    0.400    3.733    3.200 
#    0.000    0.000    0.000    0.000    0.000    0.000 
#    0.000    0.000    0.000    0.000    0.000    0.000 
#
# Total GULP energy -83693.066438 kJ/mol
# GULP energy per Si atom -5579.537763 kJ/mol
# Density = 2.347280 g / cm^3
# Si number density = 23.526347 Si / 1000 Ang^3
#
#
#
# Elastic Constant Matrix: (Units=GPa)
#
#
# Indices 1 2 3 4 5 6 
#
# 1 56.5998 1.0859 27.5354 15.6178 11.0361 -4.8234
# 2 1.0859 86.4473 31.2527 26.0486 -0.9506 -5.6567
# 3 27.5354 31.2527 134.6571 10.4734 1.8309 1.1445
# 4 15.6178 26.0486 10.4734 36.2109 2.9192 -2.8766
# 5 11.0361 -0.9506 1.8309 2.9192 34.9778 2.1704
# 6 -4.8234 -5.6567 1.1445 -2.8766 2.1704 23.0055
#
#
#
# Elastic Compliance Matrix: (Units=1/GPa)
#
#
# Indices 1 2 3 4 5 6 
#
# 1 0.025612 0.005801 -0.005564 -0.012559 -0.006966 0.006160
# 2 0.005801 0.017308 -0.004192 -0.013398 -0.000272 0.004031
# 3 -0.005564 -0.004192 0.009354 0.002425 0.001103 -0.002464
# 4 -0.012559 -0.013398 0.002425 0.041903 0.000025 -0.000811
# 5 -0.006966 -0.000272 0.001103 0.000025 0.031000 -0.004504
# 6 0.006160 0.004031 -0.002464 -0.000811 -0.004504 0.046197
#
#
# Mechanical properties :
#
#
# Convention : Reuss Voigt Hill
#
# Bulk Modulus (GPa) = 22.54071 44.16136 33.35104
# Shear Modulus (GPa) = 25.76347 33.36087 29.56217
#
# Velocity S-wave (km/s) = 3.31280 3.76975 3.54864
# Velocity P-wave (km/s) = 4.92288 6.14490 5.56752
#
# Compressibility (1/GPa) = 0.04436418
#
# Stress axis : x y z
#
# Youngs Moduli (GPa) = 39.04351 57.77591 106.90248
#
# Poissons Ratio (x) = -0.33515 0.59486
# Poissons Ratio (y) = -0.22648 0.44811
# Poissons Ratio (z) = 0.21726 0.24218
#
# Static dielectric constant tensor:
#      x y z
#    x 1.810230 -0.118220 -0.036920 
#    y -0.118220 1.495350 0.064190 
#    z -0.036920 0.064190 2.038490 
# 
# From -- ./inp_files/37159.got.cif
#   From: 2010.05.17/outbox.cif.g08.bks.cpg/sg2_19_cif.got.tgz:37159.got - 2010.06.03 11:33:40.
