data_PCOD9064927
_publ_section_title
;
Structure prediction by ZEFSAII (Michael W. Deem and Ramdas Pophale) SiO2 
 PCOD9064927
Probable space group: P -1
;
_chemical_formula_sum "Si O2"
_cell_formula_units_Z 16
_cell_length_a 16.895469
_cell_length_b 14.681954
_cell_length_c 12.064433
_cell_angle_alpha 51.666515
_cell_angle_beta 150.244953
_cell_angle_gamma 147.958068
_cell_volume 707.886541
_symmetry_space_group_name_H-M "P -1"
_symmetry_group_IT_number 2
_symmetry_cell_setting 'triclinic'
loop_
_space_group_symop_operation_xyz
x,y,z
-x,-y,-z
loop_
_atom_site_type_symbol
_atom_site_label
_atom_site_fract_x
_atom_site_fract_y
_atom_site_fract_z
Si Si1 0.789638 0.992662 0.476036
Si Si2 0.159237 0.546279 0.768064
Si Si3 0.797038 0.182198 0.759793
Si Si4 0.042018 0.079230 0.110949
Si Si5 0.954889 0.315463 0.311629
Si Si6 0.291980 0.216822 0.658318
Si Si7 0.718580 0.261662 0.836449
Si Si8 0.649763 0.475052 0.523195
O O1 0.897854 0.158072 0.410070
O O2 0.010366 0.048743 0.764849
O O3 0.644138 0.818259 0.349338
O O4 0.596315 0.927412 0.385432
O O5 0.157754 0.656846 0.762685
O O6 0.000000 0.500000 0.500000
O O7 0.978946 0.349196 0.763075
O O8 0.461440 0.670055 0.043976
O O9 0.798067 0.250759 0.825577
O O10 0.500000 0.000000 0.500000
O O11 0.890810 0.105422 0.941067
O O12 0.346447 0.292198 0.319608
O O13 0.000000 0.000000 0.000000
O O14 0.261500 0.505475 0.509391
O O15 0.818687 0.253624 0.073565
O O16 0.274222 0.344525 0.511321
O O17 0.000000 0.000000 0.500000
O O18 0.765605 0.429169 0.765109
#
# Coordination Sequence:
#
# PCOD9064927 Si02
#       8
#     2   2   2   2   2   2   2   2
#     4  11  26  44  73 108 154 199 251 322 385 457
#     4  12  30  50  78 114 157 206 261 326 400 471
#     4  12  27  49  77 109 152 204 261 319 388 476
#     4  11  27  48  72 108 155 201 258 314 394 466
#     4  12  25  47  73 111 152 196 259 319 390 468
#     4  12  26  49  75 117 154 203 261 327 398 463
#     4  11  25  45  76 109 146 200 256 319 387 459
#     4  11  24  46  76 106 151 195 258 320 387 464
#
# _framework density 22.602494
#
# number of rings (size 3 to 8) (size 9 to 14) (size 15 to 20)
#    0.000    0.500    5.000    2.250    5.250    3.000 
#    0.000    1.250    0.000    0.000    0.000    0.000 
#    0.000    0.000    0.000    0.000    0.000    0.000 
#
# Total GULP energy -89317.447303 kJ/mol
# GULP energy per Si atom -5582.340456 kJ/mol
# Density = 2.255105 g / cm^3
# Si number density = 22.602494 Si / 1000 Ang^3
#
#
#
# Elastic Constant Matrix: (Units=GPa)
#
#
# Indices 1 2 3 4 5 6 
#
# 1 97.5857 35.9789 58.0056 -8.4378 10.0765 4.0041
# 2 35.9789 155.6504 76.8888 -33.2288 5.2055 12.4359
# 3 58.0056 76.8888 161.6884 -23.6600 5.9552 0.9330
# 4 -8.4378 -33.2288 -23.6600 44.6483 -1.8289 0.7181
# 5 10.0765 5.2055 5.9552 -1.8289 40.9250 -5.4130
# 6 4.0041 12.4359 0.9330 0.7181 -5.4130 33.9460
#
#
#
# Elastic Compliance Matrix: (Units=1/GPa)
#
#
# Indices 1 2 3 4 5 6 
#
# 1 0.013482 -0.000823 -0.004404 -0.000487 -0.002808 -0.001605
# 2 -0.000823 0.009814 -0.003547 0.005295 -0.000774 -0.003636
# 3 -0.004404 -0.003547 0.009668 0.001642 0.000412 0.001584
# 4 -0.000487 0.005295 0.001642 0.027160 0.000092 -0.002487
# 5 -0.002808 -0.000774 0.000412 0.000092 0.025793 0.004714
# 6 -0.001605 -0.003636 0.001584 -0.002487 0.004714 0.031741
#
#
# Mechanical properties :
#
#
# Convention : Reuss Voigt Hill
#
# Bulk Modulus (GPa) = 64.87048 84.07455 74.47252
# Shear Modulus (GPa) = 35.62660 40.17394 37.90027
#
# Velocity S-wave (km/s) = 3.97448 4.22051 4.09934
# Velocity P-wave (km/s) = 7.05867 7.81205 7.44489
#
# Compressibility (1/GPa) = 0.01541533
#
# Stress axis : x y z
#
# Youngs Moduli (GPa) = 74.17137 101.89428 103.43803
#
# Poissons Ratio (x) = 0.08383 0.45556
# Poissons Ratio (y) = 0.06103 0.36694
# Poissons Ratio (z) = 0.32666 0.36146
#
# Static dielectric constant tensor:
#      x y z
#    x 1.814220 0.032610 0.006430 
#    y 0.032610 1.852320 0.058130 
#    z 0.006430 0.058130 1.934450 
# 
# From -- ./inp_files/466070.got.cif
#   From: 2010.05.17/outbox.cif.g08.bks.cpg/sg2_234_cif.got.tgz:466070.got - 2010.06.03 11:33:40.
