data_PCOD9064807
_publ_section_title
;
Structure prediction by ZEFSAII (Michael W. Deem and Ramdas Pophale) SiO2 
 PCOD9064807
Probable space group: P -1
;
_chemical_formula_sum "Si O2"
_cell_formula_units_Z 14
_cell_length_a 4.916260
_cell_length_b 23.347879
_cell_length_c 6.846364
_cell_angle_alpha 49.919866
_cell_angle_beta 71.271004
_cell_angle_gamma 70.544634
_cell_volume 560.731606
_symmetry_space_group_name_H-M "P -1"
_symmetry_group_IT_number 2
_symmetry_cell_setting 'triclinic'
loop_
_space_group_symop_operation_xyz
x,y,z
-x,-y,-z
loop_
_atom_site_type_symbol
_atom_site_label
_atom_site_fract_x
_atom_site_fract_y
_atom_site_fract_z
Si Si1 0.280741 0.070358 0.805654
Si Si2 0.500000 0.500000 0.500000
Si Si3 0.996933 0.388870 0.381443
Si Si4 0.478561 0.832963 0.749753
Si Si5 0.145121 0.962436 0.743327
Si Si6 0.633867 0.391373 0.068915
Si Si7 0.000000 0.500000 0.500000
Si Si8 0.020945 0.733150 0.019227
O O1 0.424187 0.138611 0.543532
O O2 0.156089 0.031734 0.733709
O O3 0.038257 0.090838 0.978965
O O4 0.500000 0.000000 0.000000
O O5 0.706832 0.567367 0.356940
O O6 0.682353 0.461300 0.760814
O O7 0.303912 0.396670 0.200110
O O8 0.793786 0.394587 0.228956
O O9 0.870366 0.457361 0.412352
O O10 0.003953 0.314397 0.673965
O O11 0.438245 0.906842 0.737294
O O12 0.709313 0.764698 0.929917
O O13 0.174036 0.805263 0.861943
O O14 0.000000 0.000000 0.500000
O O15 0.775802 0.318766 0.071080
#
# Coordination Sequence:
#
# PCOD9064807 Si02
#       8
#     2   1   2   2   2   2   1   2
#     4  11  25  44  75 111 149 188 256 315 378 455
#     4  12  26  48  80 118 152 190 260 322 368 462
#     4  12  28  52  80 110 154 207 249 322 384 453
#     4  12  27  47  80 104 157 203 247 321 381 445
#     4  11  24  46  73 112 148 192 246 318 382 446
#     4  12  28  52  80 111 157 203 252 314 391 445
#     4  12  26  48  80 118 150 188 264 314 380 446
#     4  12  29  53  68 114 156 199 264 306 368 480
#
# _framework density 24.967382000000001
#
# number of rings (size 3 to 8) (size 9 to 14) (size 15 to 20)
#    0.000    0.286    2.857    4.714    6.000    6.857 
#    0.000    0.000    0.000    0.000    0.000    0.000 
#    0.000    0.000    0.000    0.000    0.000    0.000 
#
# Total GULP energy -78248.217326 kJ/mol
# GULP energy per Si atom -5589.158380 kJ/mol
# Density = 2.491056 g / cm^3
# Si number density = 24.967382 Si / 1000 Ang^3
#
#
#
# Elastic Constant Matrix: (Units=GPa)
#
#
# Indices 1 2 3 4 5 6 
#
# 1 154.0811 11.4653 41.3777 19.2224 16.4494 -0.6429
# 2 11.4653 101.3517 46.5770 21.6929 -1.3836 -13.7429
# 3 41.3777 46.5770 203.5324 23.1723 -9.7125 -5.9747
# 4 19.2224 21.6929 23.1723 43.9308 -3.5998 -1.3738
# 5 16.4494 -1.3836 -9.7125 -3.5998 57.5693 7.8242
# 6 -0.6429 -13.7429 -5.9747 -1.3738 7.8242 42.8414
#
#
#
# Elastic Compliance Matrix: (Units=1/GPa)
#
#
# Indices 1 2 3 4 5 6 
#
# 1 0.007482 0.000455 -0.001400 -0.002960 -0.002608 0.000445
# 2 0.000455 0.012454 -0.002302 -0.005104 -0.001042 0.003708
# 3 -0.001400 -0.002302 0.005926 -0.001277 0.001293 -0.000210
# 4 -0.002960 -0.005104 -0.001277 0.027405 0.002415 -0.001422
# 5 -0.002608 -0.001042 0.001293 0.002415 0.018946 -0.003576
# 6 0.000445 0.003708 -0.000210 -0.001422 -0.003576 0.025116
#
#
# Mechanical properties :
#
#
# Convention : Reuss Voigt Hill
#
# Bulk Modulus (GPa) = 51.63266 73.08946 62.36106
# Shear Modulus (GPa) = 45.33984 52.83799 49.08891
#
# Velocity S-wave (km/s) = 4.26603 4.60530 4.43891
# Velocity P-wave (km/s) = 6.70748 7.59051 7.16262
#
# Compressibility (1/GPa) = 0.01936759
#
# Stress axis : x y z
#
# Youngs Moduli (GPa) = 133.65979 80.29450 168.76116
#
# Poissons Ratio (x) = -0.03654 0.23619
# Poissons Ratio (y) = -0.06082 0.38855
# Poissons Ratio (z) = 0.18707 0.18487
#
# Static dielectric constant tensor:
#      x y z
#    x 2.282900 -0.049580 -0.119240 
#    y -0.049580 1.998440 0.025000 
#    z -0.119240 0.025000 2.000340 
# 
# From -- ./inp_files/12645.got.cif
#   From: 2010.05.17/outbox.cif.g08.bks.cpg/sg2_7_cif.got.tgz:12645.got - 2010.06.03 11:33:40.
