data_PCOD9064992
_publ_section_title
;
Structure prediction by ZEFSAII (Michael W. Deem and Ramdas Pophale) SiO2 
 PCOD9064992
Probable space group: P -1
;
_chemical_formula_sum "Si O2"
_cell_formula_units_Z 13
_cell_length_a 11.873017
_cell_length_b 8.720642
_cell_length_c 8.269512
_cell_angle_alpha 64.867122
_cell_angle_beta 93.731931
_cell_angle_gamma 136.316941
_cell_volume 493.638679
_symmetry_space_group_name_H-M "P -1"
_symmetry_group_IT_number 2
_symmetry_cell_setting 'triclinic'
loop_
_space_group_symop_operation_xyz
x,y,z
-x,-y,-z
loop_
_atom_site_type_symbol
_atom_site_label
_atom_site_fract_x
_atom_site_fract_y
_atom_site_fract_z
Si Si1 0.000000 0.500000 0.500000
Si Si2 0.907381 0.058276 0.538839
Si Si3 0.785226 0.062204 0.213170
Si Si4 0.672619 0.223105 0.533577
Si Si5 0.547032 0.238156 0.825849
Si Si6 0.316936 0.383433 0.055028
Si Si7 0.138507 0.472781 0.870805
O O1 0.017835 0.357903 0.433772
O O2 0.770389 0.184068 0.650858
O O3 0.767984 0.948867 0.433389
O O4 0.837523 0.917365 0.769069
O O5 0.000000 0.000000 0.500000
O O6 0.789654 0.270879 0.156678
O O7 0.626501 0.848821 0.173112
O O8 0.964956 0.227171 0.062080
O O9 0.616046 0.294224 0.625674
O O10 0.865610 0.478165 0.340913
O O11 0.500000 0.000000 0.500000
O O12 0.671403 0.474332 0.855643
O O13 0.500000 0.000000 0.000000
O O14 0.500000 0.500000 0.000000
O O15 0.265921 0.458062 0.879133
#
# Coordination Sequence:
#
# PCOD9064992 Si02
#       7
#     1   2   2   2   2   2   2
#     4  12  28  46  86 104 154 230 250 318 430 456
#     4  12  26  52  74 118 157 205 267 337 386 490
#     4  11  24  46  80 109 159 204 268 323 398 476
#     4  12  25  46  77 118 152 197 275 320 386 489
#     4  12  26  47  80 112 150 214 262 317 411 473
#     4  12  29  49  75 115 166 194 268 337 390 481
#     4  11  24  48  75 109 158 205 254 337 390 469
#
# _framework density 26.335054
#
# number of rings (size 3 to 8) (size 9 to 14) (size 15 to 20)
#    0.000    0.308    6.154    0.923    8.615    0.615 
#    2.769    1.538    0.000    0.000    0.000    0.000 
#    0.000    0.000    0.000    0.000    0.000    0.000 
#
# Total GULP energy -72459.485752 kJ/mol
# GULP energy per Si atom -5573.806596 kJ/mol
# Density = 2.627511 g / cm^3
# Si number density = 26.335054 Si / 1000 Ang^3
#
#
#
# Elastic Constant Matrix: (Units=GPa)
#
#
# Indices 1 2 3 4 5 6 
#
# 1 178.5337 19.9802 23.9117 -12.4530 9.4591 1.2746
# 2 19.9802 96.2412 -4.5490 6.5832 7.9564 3.2876
# 3 23.9117 -4.5490 78.1548 4.1716 -0.7323 -7.6873
# 4 -12.4530 6.5832 4.1716 30.8287 -1.3321 -1.2388
# 5 9.4591 7.9564 -0.7323 -1.3321 54.4454 2.3089
# 6 1.2746 3.2876 -7.6873 -1.2388 2.3089 50.6244
#
#
#
# Elastic Compliance Matrix: (Units=1/GPa)
#
#
# Indices 1 2 3 4 5 6 
#
# 1 0.006340 -0.001560 -0.002234 0.003150 -0.000814 -0.000283
# 2 -0.001560 0.011128 0.001235 -0.003255 -0.001397 -0.000512
# 3 -0.002234 0.001235 0.013908 -0.002957 0.000237 0.002005
# 4 0.003150 -0.003255 -0.002957 0.034856 0.000720 0.000503
# 5 -0.000814 -0.001397 0.000237 0.000720 0.018763 -0.000691
# 6 -0.000283 -0.000512 0.002005 0.000503 -0.000691 0.020142
#
#
# Mechanical properties :
#
#
# Convention : Reuss Voigt Hill
#
# Bulk Modulus (GPa) = 38.08340 47.95727 43.02033
# Shear Modulus (GPa) = 42.01406 48.08549 45.04978
#
# Velocity S-wave (km/s) = 3.99854 4.27770 4.14047
# Velocity P-wave (km/s) = 5.98417 6.53057 6.26333
#
# Compressibility (1/GPa) = 0.02625816
#
# Stress axis : x y z
#
# Youngs Moduli (GPa) = 157.73107 89.85987 71.90193
#
# Poissons Ratio (x) = 0.14020 0.16064
# Poissons Ratio (y) = 0.24610 -0.08883
# Poissons Ratio (z) = 0.35240 -0.11101
#
# Static dielectric constant tensor:
#      x y z
#    x 2.478850 0.103610 0.211520 
#    y 0.103610 2.175500 0.080310 
#    z 0.211520 0.080310 2.458190 
# 
# From -- ./inp_files/204680.got.cif
#   From: 2010.05.17/outbox.cif.g08.bks.cpg/sg2_103_cif.got.tgz:204680.got - 2010.06.03 11:33:40.
