data_PCOD9064960
_publ_section_title
;
Structure prediction by ZEFSAII (Michael W. Deem and Ramdas Pophale) SiO2 
 PCOD9064960
Probable space group: P -1
;
_chemical_formula_sum "Si O2"
_cell_formula_units_Z 15
_cell_length_a 5.069011
_cell_length_b 6.263913
_cell_length_c 22.759192
_cell_angle_alpha 64.800636
_cell_angle_beta 124.925982
_cell_angle_gamma 103.665716
_cell_volume 536.078325
_symmetry_space_group_name_H-M "P -1"
_symmetry_group_IT_number 2
_symmetry_cell_setting 'triclinic'
loop_
_space_group_symop_operation_xyz
x,y,z
-x,-y,-z
loop_
_atom_site_type_symbol
_atom_site_label
_atom_site_fract_x
_atom_site_fract_y
_atom_site_fract_z
Si Si1 0.346828 0.464406 0.201044
Si Si2 0.618100 0.441476 0.467085
Si Si3 0.500000 0.000000 0.000000
Si Si4 0.806676 0.075374 0.332582
Si Si5 0.646070 0.492772 0.929095
Si Si6 0.258867 0.703071 0.286170
Si Si7 0.542187 0.979046 0.436369
Si Si8 0.201971 0.916525 0.846322
O O1 0.688390 0.331080 0.266996
O O2 0.340539 0.612247 0.123169
O O3 0.258551 0.576802 0.238266
O O4 0.087252 0.265155 0.176988
O O5 0.363058 0.543335 0.373414
O O6 0.640934 0.165589 0.476126
O O7 0.000000 0.500000 0.500000
O O8 0.564200 0.688713 0.479840
O O9 0.549365 0.706306 0.037982
O O10 0.730104 0.017470 0.085623
O O11 0.750888 0.056806 0.397603
O O12 0.169443 0.023621 0.367262
O O13 0.558253 0.883620 0.299986
O O14 0.499458 0.756365 0.880143
O O15 0.000000 0.500000 0.000000
O O16 0.928568 0.853404 0.231526
#
# Coordination Sequence:
#
# PCOD9064960 Si02
#       8
#     2   2   1   2   2   2   2   2
#     4  11  26  50  74 111 157 210 256 337 406 480
#     4  11  24  46  77 111 157 209 268 332 404 481
#     4  12  26  50  84 112 150 200 262 322 408 488
#     4  11  26  48  77 112 159 206 274 333 408 479
#     4  12  28  50  79 114 155 201 261 334 404 491
#     4  11  25  50  75 114 154 214 265 327 411 483
#     4  11  26  48  75 113 156 209 268 342 398 473
#     4  11  27  48  78 113 158 199 265 332 399 496
#
# _framework density 27.980986000000001
#
# number of rings (size 3 to 8) (size 9 to 14) (size 15 to 20)
#    0.000    0.800    4.000    1.200    5.600    7.467 
#    2.400    0.000    0.000    0.000    0.000    0.000 
#    0.000    0.000    0.000    0.000    0.000    0.000 
#
# Total GULP energy -83882.195075 kJ/mol
# GULP energy per Si atom -5592.146338 kJ/mol
# Density = 2.791730 g / cm^3
# Si number density = 27.980986 Si / 1000 Ang^3
#
#
#
# Elastic Constant Matrix: (Units=GPa)
#
#
# Indices 1 2 3 4 5 6 
#
# 1 111.8979 44.7773 70.6866 -9.1713 25.2038 -28.2962
# 2 44.7773 171.2116 90.3903 24.9021 11.5173 5.1799
# 3 70.6866 90.3903 206.8558 -9.3820 15.0483 -30.6049
# 4 -9.1713 24.9021 -9.3820 73.1281 -7.3255 -6.5899
# 5 25.2038 11.5173 15.0483 -7.3255 42.6961 -6.5184
# 6 -28.2962 5.1799 -30.6049 -6.5899 -6.5184 49.7382
#
#
#
# Elastic Compliance Matrix: (Units=1/GPa)
#
#
# Indices 1 2 3 4 5 6 
#
# 1 0.014726 -0.002891 -0.002217 0.002607 -0.005627 0.006922
# 2 -0.002891 0.009914 -0.004400 -0.004984 -0.001220 -0.006205
# 3 -0.002217 -0.004400 0.008290 0.002792 0.000781 0.004770
# 4 0.002607 -0.004984 0.002792 0.016895 0.002684 0.006310
# 5 -0.005627 -0.001220 0.000781 0.002684 0.027465 0.001361
# 6 0.006922 -0.006205 0.004770 0.006310 0.001361 0.028639
#
#
# Mechanical properties :
#
#
# Convention : Reuss Voigt Hill
#
# Bulk Modulus (GPa) = 71.86599 100.18594 86.02597
# Shear Modulus (GPa) = 38.58549 52.05323 45.31936
#
# Velocity S-wave (km/s) = 3.71750 4.31781 4.02885
# Velocity P-wave (km/s) = 6.64576 7.79363 7.24247
#
# Compressibility (1/GPa) = 0.01391479
#
# Stress axis : x y z
#
# Youngs Moduli (GPa) = 67.90870 100.86430 120.62640
#
# Poissons Ratio (x) = 0.29157 0.26744
# Poissons Ratio (y) = 0.19631 0.53073
# Poissons Ratio (z) = 0.15056 0.44378
#
# Static dielectric constant tensor:
#      x y z
#    x 2.458860 0.011060 -0.232120 
#    y 0.011060 2.197430 -0.054460 
#    z -0.232120 -0.054460 2.217580 
# 
# From -- ./inp_files/614897.got.cif
#   From: 2010.05.17/outbox.cif.g08.bks.cpg/sg2_308_cif.got.tgz:614897.got - 2010.06.03 11:33:40.
