data_PCOD9064535
_publ_section_title
;
Structure prediction by ZEFSAII (Michael W. Deem and Ramdas Pophale) SiO2 
 PCOD9064535
Probable space group: P -1
;
_chemical_formula_sum "Si O2"
_cell_formula_units_Z 16
_cell_length_a 10.929515
_cell_length_b 12.425451
_cell_length_c 10.951552
_cell_angle_alpha 59.016642
_cell_angle_beta 148.049029
_cell_angle_gamma 108.798124
_cell_volume 652.885043
_symmetry_space_group_name_H-M "P -1"
_symmetry_group_IT_number 2
_symmetry_cell_setting 'triclinic'
loop_
_space_group_symop_operation_xyz
x,y,z
-x,-y,-z
loop_
_atom_site_type_symbol
_atom_site_label
_atom_site_fract_x
_atom_site_fract_y
_atom_site_fract_z
Si Si1 0.427149 0.236923 0.490585
Si Si2 0.834411 0.868405 0.309458
Si Si3 0.141206 0.465287 0.266601
Si Si4 0.230275 0.055278 0.286429
Si Si5 0.644440 0.155371 0.944898
Si Si6 0.638086 0.410499 0.408077
Si Si7 0.987799 0.823573 0.219515
Si Si8 0.241032 0.654887 0.884707
O O1 0.338711 0.342771 0.458027
O O2 0.245211 0.151989 0.352985
O O3 0.648407 0.148473 0.804208
O O4 0.479350 0.311648 0.371678
O O5 0.619398 0.843475 0.224595
O O6 0.787966 0.839064 0.145347
O O7 0.098591 0.776382 0.612461
O O8 0.812983 0.020490 0.213566
O O9 0.261054 0.556983 0.393867
O O10 0.000000 0.500000 0.000000
O O11 0.954784 0.426502 0.221254
O O12 0.500000 0.000000 0.500000
O O13 0.132277 0.931880 0.307513
O O14 0.098817 0.138910 0.012830
O O15 0.725574 0.275291 0.000654
O O16 0.848350 0.322702 0.558148
O O17 0.488226 0.544051 0.141618
#
# Coordination Sequence:
#
# PCOD9064535 Si02
#       8
#     2   2   2   2   2   2   2   2
#     4  12  22  42  73 103 139 172 225 300 347 399
#     4  11  26  46  69  98 138 193 228 287 336 412
#     4  12  23  40  69 104 138 181 225 286 350 403
#     4  11  24  46  68 105 138 178 230 286 352 402
#     4  11  25  46  69 106 138 175 241 290 343 405
#     4  12  25  44  67 108 144 178 230 286 343 421
#     4  11  27  45  70 102 142 185 231 278 344 420
#     4  12  24  44  67 101 141 183 232 277 348 407
#
# _framework density 24.506610999999999
#
# number of rings (size 3 to 8) (size 9 to 14) (size 15 to 20)
#    0.000    0.500    5.000    3.000    3.500    3.500 
#    0.000    2.500    0.000    0.000    0.000    0.000 
#    0.000    0.000    0.000    0.000    0.000    0.000 
#
# Total GULP energy -89396.095365 kJ/mol
# GULP energy per Si atom -5587.255960 kJ/mol
# Density = 2.445083 g / cm^3
# Si number density = 24.506611 Si / 1000 Ang^3
#
#
#
# Elastic Constant Matrix: (Units=GPa)
#
#
# Indices 1 2 3 4 5 6 
#
# 1 59.8350 5.2561 10.2151 -11.1586 2.7158 -13.9532
# 2 5.2561 115.9069 39.1268 -1.0139 2.6682 -13.5769
# 3 10.2151 39.1268 115.3668 -26.9717 -9.2260 -0.8039
# 4 -11.1586 -1.0139 -26.9717 48.8300 -6.0875 0.4579
# 5 2.7158 2.6682 -9.2260 -6.0875 33.0498 -6.1729
# 6 -13.9532 -13.5769 -0.8039 0.4579 -6.1729 31.7242
#
#
#
# Elastic Compliance Matrix: (Units=1/GPa)
#
#
# Indices 1 2 3 4 5 6 
#
# 1 0.019601 0.000458 -0.000855 0.003996 0.000500 0.008835
# 2 0.000458 0.010572 -0.004265 -0.002284 -0.001695 0.004321
# 3 -0.000855 -0.004265 0.012239 0.007103 0.004947 -0.001031
# 4 0.003996 -0.002284 0.007103 0.026124 0.007015 0.001948
# 5 0.000500 -0.001695 0.004947 0.007015 0.034178 0.006169
# 6 0.008835 0.004321 -0.001031 0.001948 0.006169 0.038403
#
#
# Mechanical properties :
#
#
# Convention : Reuss Voigt Hill
#
# Bulk Modulus (GPa) = 30.22289 44.47830 37.35060
# Shear Modulus (GPa) = 30.96504 38.48818 34.72661
#
# Velocity S-wave (km/s) = 3.55848 3.96728 3.76843
# Velocity P-wave (km/s) = 5.40769 6.25897 5.84883
#
# Compressibility (1/GPa) = 0.03308750
#
# Stress axis : x y z
#
# Youngs Moduli (GPa) = 51.01732 94.59014 81.70340
#
# Poissons Ratio (x) = -0.04334 0.06988
# Poissons Ratio (y) = -0.02338 0.34850
# Poissons Ratio (z) = 0.04363 0.40347
#
# Static dielectric constant tensor:
#      x y z
#    x 1.942780 0.010220 -0.039480 
#    y 0.010220 1.934520 -0.126010 
#    z -0.039480 -0.126010 2.278270 
# 
# From -- ./inp_files/427919.got.cif
#   From: 2010.05.17/outbox.cif.g08.bks.cpg/sg2_214_cif.got.tgz:427919.got - 2010.06.03 11:33:40.
