data_PCOD9064936
_publ_section_title
;
Structure prediction by ZEFSAII (Michael W. Deem and Ramdas Pophale) SiO2 
 PCOD9064936
Probable space group: P -1
;
_chemical_formula_sum "Si O2"
_cell_formula_units_Z 12
_cell_length_a 22.630725
_cell_length_b 5.489406
_cell_length_c 5.157011
_cell_angle_alpha 89.973378
_cell_angle_beta 73.288409
_cell_angle_gamma 134.950199
_cell_volume 414.196321
_symmetry_space_group_name_H-M "P -1"
_symmetry_group_IT_number 2
_symmetry_cell_setting 'triclinic'
loop_
_space_group_symop_operation_xyz
x,y,z
-x,-y,-z
loop_
_atom_site_type_symbol
_atom_site_label
_atom_site_fract_x
_atom_site_fract_y
_atom_site_fract_z
Si Si1 0.281408 0.448994 0.106053
Si Si2 0.076403 0.643954 0.111338
Si Si3 0.601326 0.190934 0.522729
Si Si4 0.218124 0.869463 0.538196
Si Si5 0.881488 0.734674 0.690329
Si Si6 0.561350 0.575984 0.686248
O O1 0.345549 0.558716 0.793983
O O2 0.336677 0.669798 0.298577
O O3 0.222590 0.507759 0.078969
O O4 0.218659 0.043968 0.283517
O O5 0.169340 0.883471 0.822473
O O6 0.067593 0.342573 0.238676
O O7 0.000000 0.500000 0.000000
O O8 0.075369 0.877139 0.302938
O O9 0.535954 0.218847 0.687295
O O10 0.563284 0.816556 0.497825
O O11 0.149146 0.444967 0.558212
O O12 0.326050 0.128497 0.426721
O O13 0.500000 0.500000 0.000000
#
# Coordination Sequence:
#
# PCOD9064936 Si02
#       6
#     2   2   2   2   2   2
#     4  11  24  46  76 109 144 201 253 309 376 459
#     4  12  29  49  75 111 150 196 254 318 383 459
#     4  11  25  43  73 104 152 195 255 306 378 440
#     4  11  26  47  77 106 150 201 253 311 386 452
#     4  12  24  46  76 104 149 192 254 305 388 448
#     4  11  24  47  73 110 151 196 251 311 375 449
#
# _framework density 28.971765999999999
#
# number of rings (size 3 to 8) (size 9 to 14) (size 15 to 20)
#    0.000    0.667    3.333    4.000    4.667    1.333 
#    0.000   11.667    0.000    0.000    0.000    0.000 
#    0.000    0.000    0.000    0.000    0.000    0.000 
#
# Total GULP energy -67081.206715 kJ/mol
# GULP energy per Si atom -5590.100560 kJ/mol
# Density = 2.890582 g / cm^3
# Si number density = 28.971766 Si / 1000 Ang^3
#
#
#
# Elastic Constant Matrix: (Units=GPa)
#
#
# Indices 1 2 3 4 5 6 
#
# 1 216.7271 56.7065 19.1950 6.2287 -33.6179 -45.9617
# 2 56.7065 192.5723 22.4775 39.4914 -9.9572 -30.2633
# 3 19.1950 22.4775 160.8643 5.1229 -34.1521 -28.1313
# 4 6.2287 39.4914 5.1229 52.6407 -6.8079 -6.7635
# 5 -33.6179 -9.9572 -34.1521 -6.8079 53.8152 0.0744
# 6 -45.9617 -30.2633 -28.1313 -6.7635 0.0744 55.6313
#
#
#
# Elastic Compliance Matrix: (Units=1/GPa)
#
#
# Indices 1 2 3 4 5 6 
#
# 1 0.006804 -0.001286 0.001417 0.001425 0.005084 0.005804
# 2 -0.001286 0.006875 -0.000409 -0.004774 -0.000397 0.001891
# 3 0.001417 -0.000409 0.008306 0.000802 0.006175 0.005237
# 4 0.001425 -0.004774 0.000802 0.023003 0.003424 0.001778
# 5 0.005084 -0.000397 0.006175 0.003424 0.026026 0.007488
# 6 0.005804 0.001891 0.005237 0.001778 0.007488 0.026654
#
#
# Mechanical properties :
#
#
# Convention : Reuss Voigt Hill
#
# Bulk Modulus (GPa) = 46.66771 85.21351 65.94061
# Shear Modulus (GPa) = 47.45377 63.86975 55.66176
#
# Velocity S-wave (km/s) = 4.05153 4.70036 4.38795
# Velocity P-wave (km/s) = 6.16680 7.67687 6.96289
#
# Compressibility (1/GPa) = 0.02142809
#
# Stress axis : x y z
#
# Youngs Moduli (GPa) = 146.98006 145.45639 120.39868
#
# Poissons Ratio (x) = 0.18706 -0.17058
# Poissons Ratio (y) = 0.18902 0.04922
# Poissons Ratio (z) = -0.20824 0.05947
#
# Static dielectric constant tensor:
#      x y z
#    x 2.786690 0.813740 0.343190 
#    y 0.813740 3.561980 0.494740 
#    z 0.343190 0.494740 2.367390 
# 
# From -- ./inp_files/121732.got.cif
#   From: 2010.05.17/outbox.cif.g08.bks.cpg/sg2_61_cif.got.tgz:121732.got - 2010.06.03 11:33:40.
