data_PCOD9064828
_publ_section_title
;
Structure prediction by ZEFSAII (Michael W. Deem and Ramdas Pophale) SiO2 
 PCOD9064828
Probable space group: P -1
;
_chemical_formula_sum "Si O2"
_cell_formula_units_Z 16
_cell_length_a 18.701568
_cell_length_b 18.884712
_cell_length_c 5.415041
_cell_angle_alpha 45.727142
_cell_angle_beta 126.553249
_cell_angle_gamma 152.377620
_cell_volume 633.374886
_symmetry_space_group_name_H-M "P -1"
_symmetry_group_IT_number 2
_symmetry_cell_setting 'triclinic'
loop_
_space_group_symop_operation_xyz
x,y,z
-x,-y,-z
loop_
_atom_site_type_symbol
_atom_site_label
_atom_site_fract_x
_atom_site_fract_y
_atom_site_fract_z
Si Si1 0.760890 0.049545 0.821628
Si Si2 0.634627 0.756448 0.587328
Si Si3 0.316424 0.463618 0.352886
Si Si4 0.069621 0.320332 0.557822
Si Si5 0.156117 0.202501 0.286336
Si Si6 0.497003 0.220539 0.367017
Si Si7 0.826313 0.299006 0.631240
Si Si8 0.726755 0.304749 0.909019
O O1 0.821222 0.180050 0.833189
O O2 0.886906 0.160169 0.594526
O O3 0.600123 0.933309 0.646508
O O4 0.723966 0.911542 0.207600
O O5 0.462709 0.582805 0.546370
O O6 0.741835 0.758021 0.808340
O O7 0.609818 0.792142 0.701901
O O8 0.161607 0.364175 0.404129
O O9 0.271479 0.322989 0.459711
O O10 0.374307 0.602353 0.948993
O O11 0.137866 0.490180 0.335375
O O12 0.111067 0.272832 0.954256
O O13 0.000000 0.000000 0.500000
O O14 0.571157 0.224081 0.728896
O O15 0.752713 0.255101 0.852585
O O16 0.000000 0.500000 0.500000
O O17 0.739457 0.272131 0.286809
#
# Coordination Sequence:
#
# PCOD9064828 Si02
#       8
#     2   2   2   2   2   2   2   2
#     4  11  28  46  74 114 153 203 254 331 384 460
#     4  11  25  48  72 105 158 196 257 316 388 468
#     4  11  24  46  74 104 152 204 252 313 389 465
#     4  12  25  46  76 109 150 203 253 321 384 464
#     4  12  26  44  71 116 144 200 257 319 388 462
#     4  11  26  49  76 111 152 207 254 316 399 457
#     4  12  28  49  80 119 155 206 265 324 397 465
#     4  12  26  50  82 112 157 206 264 322 391 473
#
# _framework density 25.261500999999999
#
# number of rings (size 3 to 8) (size 9 to 14) (size 15 to 20)
#    0.000    0.500    5.000    1.500    5.250    5.500 
#    0.000    0.000    0.000    0.000    0.000    0.000 
#    0.000    0.000    0.000    0.000    0.000    0.000 
#
# Total GULP energy -89674.237210 kJ/mol
# GULP energy per Si atom -5604.639826 kJ/mol
# Density = 2.520400 g / cm^3
# Si number density = 25.261501 Si / 1000 Ang^3
#
#
#
# Elastic Constant Matrix: (Units=GPa)
#
#
# Indices 1 2 3 4 5 6 
#
# 1 119.0168 41.0756 8.6053 -16.5477 -23.5669 4.1891
# 2 41.0756 104.4578 27.3496 -22.4918 3.2376 -19.3018
# 3 8.6053 27.3496 87.4955 -5.0173 -4.3344 4.4994
# 4 -16.5477 -22.4918 -5.0173 41.6930 0.2973 -1.5014
# 5 -23.5669 3.2376 -4.3344 0.2973 35.2412 1.1922
# 6 4.1891 -19.3018 4.4994 -1.5014 1.1922 29.3562
#
#
#
# Elastic Compliance Matrix: (Units=1/GPa)
#
#
# Indices 1 2 3 4 5 6 
#
# 1 0.013026 -0.006901 0.001798 0.001341 0.009791 -0.007001
# 2 -0.006901 0.018198 -0.005729 0.006964 -0.007540 0.014490
# 3 0.001798 -0.005729 0.013488 -0.001006 0.003609 -0.006289
# 4 0.001341 0.006964 -0.001006 0.028372 -0.000309 0.006005
# 5 0.009791 -0.007540 0.003609 -0.000309 0.036347 -0.008400
# 6 -0.007001 0.014490 -0.006289 0.006005 -0.008400 0.046203
#
#
# Mechanical properties :
#
#
# Convention : Reuss Voigt Hill
#
# Bulk Modulus (GPa) = 43.38960 51.67012 47.52986
# Shear Modulus (GPa) = 27.03026 36.85405 31.94216
#
# Velocity S-wave (km/s) = 3.27466 3.82370 3.55978
# Velocity P-wave (km/s) = 5.61350 6.32398 5.97930
#
# Compressibility (1/GPa) = 0.02304700
#
# Stress axis : x y z
#
# Youngs Moduli (GPa) = 76.77194 54.95245 74.14253
#
# Poissons Ratio (x) = 0.37923 -0.13331
# Poissons Ratio (y) = 0.52980 0.42475
# Poissons Ratio (z) = -0.13804 0.31481
#
# Static dielectric constant tensor:
#      x y z
#    x 1.976370 -0.002860 0.024500 
#    y -0.002860 1.951840 0.033730 
#    z 0.024500 0.033730 2.004220 
# 
# From -- ./inp_files/111593.got.cif
#   From: 2010.05.17/outbox.cif.g08.bks.cpg/sg2_56_cif.got.tgz:111593.got - 2010.06.03 11:33:40.
