data_PCOD9064889
_publ_section_title
;
Structure prediction by ZEFSAII (Michael W. Deem and Ramdas Pophale) SiO2 
 PCOD9064889
Probable space group: P -1
;
_chemical_formula_sum "Si O2"
_cell_formula_units_Z 13
_cell_length_a 8.740552
_cell_length_b 15.258934
_cell_length_c 9.273294
_cell_angle_alpha 142.515784
_cell_angle_beta 58.149970
_cell_angle_gamma 131.490516
_cell_volume 563.772425
_symmetry_space_group_name_H-M "P -1"
_symmetry_group_IT_number 2
_symmetry_cell_setting 'triclinic'
loop_
_space_group_symop_operation_xyz
x,y,z
-x,-y,-z
loop_
_atom_site_type_symbol
_atom_site_label
_atom_site_fract_x
_atom_site_fract_y
_atom_site_fract_z
Si Si1 0.884813 0.172725 0.378958
Si Si2 0.225410 0.648242 0.555051
Si Si3 0.500000 0.000000 0.000000
Si Si4 0.017924 0.338438 0.818354
Si Si5 0.787164 0.825113 0.985475
Si Si6 0.089006 0.917340 0.231597
Si Si7 0.515105 0.498837 0.163640
O O1 0.789501 0.278568 0.496358
O O2 0.901415 0.203935 0.579543
O O3 0.760553 0.980619 0.153748
O O4 0.104069 0.222037 0.259209
O O5 0.321733 0.811018 0.815408
O O6 0.371567 0.568779 0.384850
O O7 0.000000 0.500000 0.500000
O O8 0.673444 0.971618 0.781639
O O9 0.255795 0.393800 0.762736
O O10 0.946914 0.251190 0.893264
O O11 0.000000 0.500000 0.000000
O O12 0.950214 0.878996 0.106405
O O13 0.578806 0.682063 0.960596
O O14 0.000000 0.000000 0.500000
O O15 0.500000 0.500000 0.000000
#
# Coordination Sequence:
#
# PCOD9064889 Si02
#       7
#     2   2   1   2   2   2   2
#     4  11  25  46  72 110 158 191 250 343 381 448
#     4  12  26  50  76 113 156 200 262 321 381 481
#     4  12  28  44  84 114 146 220 260 304 414 468
#     4  12  28  46  73 111 156 193 259 330 382 465
#     4  11  24  46  75 106 156 197 259 322 393 466
#     4  12  24  51  74 110 153 204 256 320 384 485
#     4  12  25  46  79 107 147 215 258 310 408 466
#
# _framework density 23.058949999999999
#
# number of rings (size 3 to 8) (size 9 to 14) (size 15 to 20)
#    0.000    0.308    6.154    1.846    2.154    1.846 
#    0.000    2.308    0.000    0.000    0.000    0.000 
#    0.000    0.000    0.000    0.000    0.000    0.000 
#
# Total GULP energy -72503.267083 kJ/mol
# GULP energy per Si atom -5577.174391 kJ/mol
# Density = 2.300647 g / cm^3
# Si number density = 23.058950 Si / 1000 Ang^3
#
#
#
# Elastic Constant Matrix: (Units=GPa)
#
#
# Indices 1 2 3 4 5 6 
#
# 1 70.5902 29.6122 7.1057 4.5211 -22.4287 9.8976
# 2 29.6122 145.9696 11.5322 14.7748 -8.8490 11.4783
# 3 7.1057 11.5322 70.6795 0.9746 -1.0439 8.9959
# 4 4.5211 14.7748 0.9746 37.5774 1.2917 -5.7066
# 5 -22.4287 -8.8490 -1.0439 1.2917 26.2001 2.8321
# 6 9.8976 11.4783 8.9959 -5.7066 2.8321 49.4208
#
#
#
# Elastic Compliance Matrix: (Units=1/GPa)
#
#
# Indices 1 2 3 4 5 6 
#
# 1 0.022237 -0.002590 -0.000839 -0.003062 0.018834 -0.005132
# 2 -0.002590 0.007915 -0.000778 -0.003045 0.000745 -0.001572
# 3 -0.000839 -0.000778 0.014661 -0.000326 -0.000127 -0.002350
# 4 -0.003062 -0.003045 -0.000326 0.029150 -0.005648 0.005069
# 5 0.018834 0.000745 -0.000127 -0.005648 0.055655 -0.007763
# 6 -0.005132 -0.001572 -0.002350 0.005069 -0.007763 0.023085
#
#
# Mechanical properties :
#
#
# Convention : Reuss Voigt Hill
#
# Bulk Modulus (GPa) = 27.47332 42.63772 35.05552
# Shear Modulus (GPa) = 28.86016 38.57228 33.71622
#
# Velocity S-wave (km/s) = 3.54161 4.09439 3.82799
# Velocity P-wave (km/s) = 5.35390 6.39397 5.89691
#
# Compressibility (1/GPa) = 0.03639895
#
# Stress axis : x y z
#
# Youngs Moduli (GPa) = 44.97054 126.35033 68.20602
#
# Poissons Ratio (x) = 0.32719 0.05726
# Poissons Ratio (y) = 0.11645 0.05306
# Poissons Ratio (z) = 0.03775 0.09829
#
# Static dielectric constant tensor:
#      x y z
#    x 1.817770 0.042240 -0.064340 
#    y 0.042240 1.819270 -0.101480 
#    z -0.064340 -0.101480 2.143520 
# 
# From -- ./inp_files/155801.got.cif
#   From: 2010.05.17/outbox.cif.g08.bks.cpg/sg2_78_cif.got.tgz:155801.got - 2010.06.03 11:33:40.
