data_PCOD9064581
_publ_section_title
;
Structure prediction by ZEFSAII (Michael W. Deem and Ramdas Pophale) SiO2 
 PCOD9064581
Probable space group: P -1
;
_chemical_formula_sum "Si O2"
_cell_formula_units_Z 16
_cell_length_a 5.867992
_cell_length_b 9.822398
_cell_length_c 23.884963
_cell_angle_alpha 135.045270
_cell_angle_beta 106.351068
_cell_angle_gamma 54.777702
_cell_volume 775.251262
_symmetry_space_group_name_H-M "P -1"
_symmetry_group_IT_number 2
_symmetry_cell_setting 'triclinic'
loop_
_space_group_symop_operation_xyz
x,y,z
-x,-y,-z
loop_
_atom_site_type_symbol
_atom_site_label
_atom_site_fract_x
_atom_site_fract_y
_atom_site_fract_z
Si Si1 0.168031 0.409925 0.813560
Si Si2 0.878364 0.409736 0.258989
Si Si3 0.579506 0.459377 0.929313
Si Si4 0.704911 0.725563 0.441543
Si Si5 0.397194 0.533202 0.438672
Si Si6 0.484288 0.909453 0.745396
Si Si7 0.872765 0.982038 0.138121
Si Si8 0.251439 0.242180 0.029439
O O1 0.112583 0.471788 0.762733
O O2 0.346494 0.503874 0.880894
O O3 0.880695 0.570058 0.875622
O O4 0.334410 0.139576 0.763360
O O5 0.698149 0.604978 0.348930
O O6 0.180976 0.234184 0.259050
O O7 0.778558 0.238407 0.189985
O O8 0.670020 0.633758 0.973888
O O9 0.824559 0.188502 0.860611
O O10 0.500000 0.500000 0.000000
O O11 0.543486 0.656847 0.455362
O O12 0.044366 0.647604 0.448469
O O13 0.500000 0.000000 0.500000
O O14 0.500000 0.500000 0.500000
O O15 0.539908 0.286990 0.344072
O O16 0.343504 0.989934 0.820671
O O17 0.912751 0.839650 0.043401
O O18 0.500000 0.000000 0.000000
#
# Coordination Sequence:
#
# PCOD9064581 Si02
#       8
#     2   2   2   2   2   2   2   2
#     4  12  25  43  66  99 131 183 239 285 352 421
#     4  11  26  44  70 100 137 181 234 291 359 423
#     4  12  24  41  64  92 129 183 232 289 355 411
#     4  11  25  50  75 112 153 191 237 302 372 442
#     4  11  25  48  79 112 148 193 242 297 372 444
#     4  11  24  46  69  97 140 177 234 294 355 421
#     4  12  22  43  64  89 137 176 227 291 352 415
#     4  12  26  39  61  93 130 177 233 286 345 419
#
# _framework density 20.638469000000001
#
# number of rings (size 3 to 8) (size 9 to 14) (size 15 to 20)
#    0.000    0.500    5.000    3.375    3.500    1.000 
#    2.250    0.000    0.000    0.000    0.000    0.000 
#    0.000    0.000    0.000    0.000    0.000    0.000 
#
# Total GULP energy -89106.002597 kJ/mol
# GULP energy per Si atom -5569.125162 kJ/mol
# Density = 2.059150 g / cm^3
# Si number density = 20.638469 Si / 1000 Ang^3
#
#
#
# Elastic Constant Matrix: (Units=GPa)
#
#
# Indices 1 2 3 4 5 6 
#
# 1 73.2459 49.4007 38.6572 5.2674 -6.4352 12.7303
# 2 49.4007 162.5069 69.1644 14.6810 -8.3054 26.5235
# 3 38.6572 69.1644 103.2477 10.9634 -8.7228 16.9672
# 4 5.2674 14.6810 10.9634 39.7691 1.7190 -4.7434
# 5 -6.4352 -8.3054 -8.7228 1.7190 33.4046 -3.6356
# 6 12.7303 26.5235 16.9672 -4.7434 -3.6356 36.6698
#
#
#
# Elastic Compliance Matrix: (Units=1/GPa)
#
#
# Indices 1 2 3 4 5 6 
#
# 1 0.018701 -0.003480 -0.004196 -0.000329 0.001448 -0.001933
# 2 -0.003480 0.010043 -0.004416 -0.002558 0.000336 -0.004310
# 3 -0.004196 -0.004416 0.015016 -0.002322 0.001872 -0.002412
# 4 -0.000329 -0.002558 -0.002322 0.027625 -0.002029 0.006411
# 5 0.001448 0.000336 0.001872 -0.002029 0.031022 0.001201
# 6 -0.001933 -0.004310 -0.002412 0.006411 0.001201 0.033123
#
#
# Mechanical properties :
#
#
# Convention : Reuss Voigt Hill
#
# Bulk Modulus (GPa) = 51.08481 72.60500 61.84491
# Shear Modulus (GPa) = 30.07704 34.08724 32.08214
#
# Velocity S-wave (km/s) = 3.82164 4.06844 3.94697
# Velocity P-wave (km/s) = 6.65426 7.57136 7.12757
#
# Compressibility (1/GPa) = 0.01957529
#
# Stress axis : x y z
#
# Youngs Moduli (GPa) = 53.47325 99.57392 66.59620
#
# Poissons Ratio (x) = 0.34652 0.27942
# Poissons Ratio (y) = 0.18609 0.29411
# Poissons Ratio (z) = 0.22436 0.43975
#
# Static dielectric constant tensor:
#      x y z
#    x 1.923280 -0.112340 0.031240 
#    y -0.112340 1.794960 0.016840 
#    z 0.031240 0.016840 1.680210 
# 
# From -- ./inp_files/46968.got.cif
#   From: 2010.05.17/outbox.cif.g08.bks.cpg/sg2_24_cif.got.tgz:46968.got - 2010.06.03 11:33:40.
