data_PCOD9064134
_publ_section_title
;
Structure prediction by ZEFSAII (Michael W. Deem and Ramdas Pophale) SiO2 
 PCOD9064134
Probable space group: P -1
;
_chemical_formula_sum "Si O2"
_cell_formula_units_Z 14
_cell_length_a 17.539905
_cell_length_b 5.153760
_cell_length_c 7.972943
_cell_angle_alpha 101.520144
_cell_angle_beta 52.671070
_cell_angle_gamma 112.586890
_cell_volume 528.598969
_symmetry_space_group_name_H-M "P -1"
_symmetry_group_IT_number 2
_symmetry_cell_setting 'triclinic'
loop_
_space_group_symop_operation_xyz
x,y,z
-x,-y,-z
loop_
_atom_site_type_symbol
_atom_site_label
_atom_site_fract_x
_atom_site_fract_y
_atom_site_fract_z
Si Si1 0.112023 0.900575 0.674465
Si Si2 0.322590 0.781002 0.409245
Si Si3 0.222922 0.387630 0.772422
Si Si4 0.149869 0.188234 0.327113
Si Si5 0.907313 0.417846 0.814540
Si Si6 0.608025 0.573747 0.959231
Si Si7 0.401474 0.247649 0.650650
O O1 0.217956 0.836019 0.512314
O O2 0.016161 0.621358 0.758218
O O3 0.130573 0.097802 0.837552
O O4 0.105932 0.111560 0.562154
O O5 0.286738 0.497074 0.533005
O O6 0.375356 0.727837 0.161969
O O7 0.383027 0.010121 0.499854
O O8 0.303307 0.344873 0.786358
O O9 0.175970 0.609439 0.933985
O O10 0.123888 0.423702 0.282713
O O11 0.270801 0.252965 0.195001
O O12 0.100652 0.890168 0.264502
O O13 0.500000 0.500000 0.000000
O O14 0.585090 0.758731 0.169359
O O15 0.500000 0.500000 0.500000
#
# Coordination Sequence:
#
# PCOD9064134 Si02
#       7
#     2   2   2   2   2   2   2
#     4  11  26  45  73 109 150 203 255 315 393 460
#     4  11  26  49  75 111 157 201 256 328 383 475
#     4  11  24  45  71 104 157 194 260 322 379 472
#     4  12  26  49  72 114 152 197 264 325 380 469
#     4  12  27  46  78 109 156 208 256 322 393 457
#     4  12  26  49  79 111 148 207 260 322 399 464
#     4  11  26  47  72 111 150 199 261 323 397 457
#
# _framework density 26.485108
#
# number of rings (size 3 to 8) (size 9 to 14) (size 15 to 20)
#    0.000    0.571    2.857    3.857    6.000    4.571 
#    0.000    0.000    0.000    0.000    0.000    0.000 
#    0.000    0.000    0.000    0.000    0.000    0.000 
#
# Total GULP energy -78104.375100 kJ/mol
# GULP energy per Si atom -5578.883936 kJ/mol
# Density = 2.642483 g / cm^3
# Si number density = 26.485108 Si / 1000 Ang^3
#
#
#
# Elastic Constant Matrix: (Units=GPa)
#
#
# Indices 1 2 3 4 5 6 
#
# 1 135.1692 58.5686 17.6218 -3.4020 -19.6596 29.7631
# 2 58.5686 135.1199 19.7513 7.4778 -4.1446 44.8497
# 3 17.6218 19.7513 64.1476 10.5729 -4.6592 7.9480
# 4 -3.4020 7.4778 10.5729 36.8298 -1.1135 -6.1893
# 5 -19.6596 -4.1446 -4.6592 -1.1135 38.5390 -5.7386
# 6 29.7631 44.8497 7.9480 -6.1893 -5.7386 62.5621
#
#
#
# Elastic Compliance Matrix: (Units=1/GPa)
#
#
# Indices 1 2 3 4 5 6 
#
# 1 0.010215 -0.003723 -0.001497 0.002031 0.004482 -0.001388
# 2 -0.003723 0.011642 -0.001253 -0.003574 -0.001936 -0.006947
# 3 -0.001497 -0.001253 0.017406 -0.005024 0.000910 -0.001015
# 4 0.002031 -0.003574 -0.005024 0.030468 0.001730 0.005407
# 5 0.004482 -0.001936 0.000910 0.001730 0.028472 0.001923
# 6 -0.001388 -0.006947 -0.001015 0.005407 0.001923 0.022465
#
#
# Mechanical properties :
#
#
# Convention : Reuss Voigt Hill
#
# Bulk Modulus (GPa) = 37.99807 58.48002 48.23905
# Shear Modulus (GPa) = 35.11574 43.48587 39.30080
#
# Velocity S-wave (km/s) = 3.64520 4.05643 3.85630
# Velocity P-wave (km/s) = 5.66522 6.63836 6.17100
#
# Compressibility (1/GPa) = 0.02631713
#
# Stress axis : x y z
#
# Youngs Moduli (GPa) = 97.89339 85.89631 57.45211
#
# Poissons Ratio (x) = 0.31980 0.08601
# Poissons Ratio (y) = 0.36447 0.07197
# Poissons Ratio (z) = 0.14656 0.10760
#
# Static dielectric constant tensor:
#      x y z
#    x 1.980940 0.005430 0.128870 
#    y 0.005430 2.115200 0.093830 
#    z 0.128870 0.093830 2.261100 
# 
# From -- ./inp_files/117239.got.cif
#   From: 2010.05.17/outbox.cif.g08.bks.cpg/sg2_59_cif.got.tgz:117239.got - 2010.06.03 11:33:40.
