data_PCOD9064467
_publ_section_title
;
Structure prediction by ZEFSAII (Michael W. Deem and Ramdas Pophale) SiO2 
 PCOD9064467
Probable space group: P -1
;
_chemical_formula_sum "Si O2"
_cell_formula_units_Z 15
_cell_length_a 17.106851
_cell_length_b 8.929478
_cell_length_c 11.893934
_cell_angle_alpha 49.986833
_cell_angle_beta 31.145810
_cell_angle_gamma 69.188997
_cell_volume 626.486848
_symmetry_space_group_name_H-M "P -1"
_symmetry_group_IT_number 2
_symmetry_cell_setting 'triclinic'
loop_
_space_group_symop_operation_xyz
x,y,z
-x,-y,-z
loop_
_atom_site_type_symbol
_atom_site_label
_atom_site_fract_x
_atom_site_fract_y
_atom_site_fract_z
Si Si1 0.234110 0.102288 0.179627
Si Si2 0.205273 0.843739 0.113185
Si Si3 0.625365 0.287049 0.565917
Si Si4 0.067614 0.363429 0.824916
Si Si5 0.500000 0.000000 0.500000
Si Si6 0.761091 0.454350 0.084813
Si Si7 0.208037 0.005539 0.500356
Si Si8 0.836635 0.623537 0.545435
O O1 0.441987 0.212338 0.882206
O O2 0.192711 0.304272 0.133440
O O3 0.192600 0.971126 0.177266
O O4 0.155221 0.959042 0.457864
O O5 0.232844 0.638122 0.221097
O O6 0.026323 0.745078 0.311890
O O7 0.366332 0.002033 0.760007
O O8 0.781281 0.450492 0.375666
O O9 0.653578 0.412146 0.352743
O O10 0.650572 0.072135 0.613787
O O11 0.144964 0.324739 0.634732
O O12 0.931604 0.440657 0.914297
O O13 0.953891 0.145581 0.146505
O O14 0.652051 0.254200 0.229274
O O15 0.268763 0.263726 0.326244
#
# Coordination Sequence:
#
# PCOD9064467 Si02
#       8
#     2   2   2   2   1   2   2   2
#     4  12  26  47  75 107 143 189 245 292 360 417
#     4  11  26  43  75 105 148 179 245 304 345 424
#     4  11  25  47  68 106 145 187 238 294 359 429
#     4  11  25  49  72 103 150 186 238 295 356 437
#     4  12  22  46  72 108 144 176 236 304 352 412
#     4  11  24  45  77 107 139 190 239 297 355 424
#     4  11  25  44  72 103 143 188 239 290 360 425
#     4  11  25  48  69 109 141 193 239 295 364 414
#
# _framework density 23.94304
#
# number of rings (size 3 to 8) (size 9 to 14) (size 15 to 20)
#    0.000    0.800    2.667    4.400    5.600    0.533 
#    4.800    1.333    0.000    0.000    0.000    0.000 
#    0.000    0.000    0.000    0.000    0.000    0.000 
#
# Total GULP energy -83847.464969 kJ/mol
# GULP energy per Si atom -5589.830998 kJ/mol
# Density = 2.388854 g / cm^3
# Si number density = 23.943040 Si / 1000 Ang^3
#
#
#
# Elastic Constant Matrix: (Units=GPa)
#
#
# Indices 1 2 3 4 5 6 
#
# 1 63.4235 23.2799 22.0283 -8.9656 17.3930 17.2599
# 2 23.2799 84.6798 13.3023 -6.8366 -2.6492 10.1054
# 3 22.0283 13.3023 52.2637 6.1269 -1.3929 -1.2999
# 4 -8.9656 -6.8366 6.1269 35.5427 10.8519 3.6245
# 5 17.3930 -2.6492 -1.3929 10.8519 41.7139 3.1958
# 6 17.2599 10.1054 -1.2999 3.6245 3.1958 42.6535
#
#
#
# Elastic Compliance Matrix: (Units=1/GPa)
#
#
# Indices 1 2 3 4 5 6 
#
# 1 0.034325 -0.004439 -0.016244 0.017687 -0.018708 -0.013434
# 2 -0.004439 0.013694 -0.001739 0.001241 0.002477 -0.001792
# 3 -0.016244 -0.001739 0.028473 -0.013371 0.010463 0.008205
# 4 0.017687 0.001241 -0.013371 0.041599 -0.017794 -0.010060
# 5 -0.018708 0.002477 0.010463 -0.017794 0.036443 0.006084
# 6 -0.013434 -0.001792 0.008205 -0.010060 0.006084 0.029955
#
#
# Mechanical properties :
#
#
# Convention : Reuss Voigt Hill
#
# Bulk Modulus (GPa) = 31.59575 35.28756 33.44166
# Shear Modulus (GPa) = 20.84370 33.43246 27.13808
#
# Velocity S-wave (km/s) = 2.95372 3.74081 3.37032
# Velocity P-wave (km/s) = 4.98572 5.78172 5.39841
#
# Compressibility (1/GPa) = 0.03164982
#
# Stress axis : x y z
#
# Youngs Moduli (GPa) = 29.13353 73.02390 35.12076
#
# Poissons Ratio (x) = 0.32415 0.57049
# Poissons Ratio (y) = 0.12932 0.06106
# Poissons Ratio (z) = 0.47324 0.12696
#
# Static dielectric constant tensor:
#      x y z
#    x 1.907380 0.004210 0.036380 
#    y 0.004210 1.882730 -0.020220 
#    z 0.036380 -0.020220 1.878490 
# 
# From -- ./inp_files/158755.got.cif
#   From: 2010.05.17/outbox.cif.g08.bks.cpg/sg2_80_cif.got.tgz:158755.got - 2010.06.03 11:33:40.
