data_PCOD9064200
_publ_section_title
;
Structure prediction by ZEFSAII (Michael W. Deem and Ramdas Pophale) SiO2 
 PCOD9064200
Probable space group: P -1
;
_chemical_formula_sum "Si O2"
_cell_formula_units_Z 13
_cell_length_a 11.753486
_cell_length_b 6.386640
_cell_length_c 11.310176
_cell_angle_alpha 66.793815
_cell_angle_beta 50.366071
_cell_angle_gamma 87.835121
_cell_volume 572.936578
_symmetry_space_group_name_H-M "P -1"
_symmetry_group_IT_number 2
_symmetry_cell_setting 'triclinic'
loop_
_space_group_symop_operation_xyz
x,y,z
-x,-y,-z
loop_
_atom_site_type_symbol
_atom_site_label
_atom_site_fract_x
_atom_site_fract_y
_atom_site_fract_z
Si Si1 0.236015 0.946393 0.953502
Si Si2 0.029045 0.533813 0.833385
Si Si3 0.334596 0.450050 0.683447
Si Si4 0.432615 0.633234 0.842397
Si Si5 0.000000 0.500000 0.500000
Si Si6 0.735162 0.640358 0.752422
Si Si7 0.090557 0.028365 0.263236
O O1 0.391220 0.875579 0.843241
O O2 0.245019 0.166993 0.812456
O O3 0.091518 0.710512 0.080260
O O4 0.216286 0.038520 0.076168
O O5 0.208416 0.558968 0.684541
O O6 0.989454 0.767905 0.761164
O O7 0.000000 0.500000 0.000000
O O8 0.500000 0.500000 0.500000
O O9 0.368689 0.545330 0.774648
O O10 0.610994 0.651165 0.734685
O O11 0.349115 0.467275 0.044212
O O12 0.161603 0.526026 0.315896
O O13 0.986676 0.756201 0.399749
O O14 0.833778 0.902453 0.673443
#
# Coordination Sequence:
#
# PCOD9064200 Si02
#       7
#     2   2   2   2   1   2   2
#     4  12  22  45  77 104 143 195 243 293 380 436
#     4  12  23  46  76 104 141 198 248 297 364 449
#     4  12  28  46  72 111 148 188 248 309 365 434
#     4  11  24  46  70 105 139 195 235 298 368 433
#     4  12  26  44  72 108 142 192 242 304 356 432
#     4  11  24  45  72 103 148 184 244 296 361 439
#     4  12  24  44  74 108 144 188 245 297 368 438
#
# _framework density 22.690118999999999
#
# number of rings (size 3 to 8) (size 9 to 14) (size 15 to 20)
#    0.000    0.308    7.692    0.923    0.000    6.154 
#    0.000    0.000    0.000    0.000    0.000    0.000 
#    0.000    0.000    0.000    0.000    0.000    0.000 
#
# Total GULP energy -72402.726673 kJ/mol
# GULP energy per Si atom -5569.440513 kJ/mol
# Density = 2.263847 g / cm^3
# Si number density = 22.690119 Si / 1000 Ang^3
#
#
#
# Elastic Constant Matrix: (Units=GPa)
#
#
# Indices 1 2 3 4 5 6 
#
# 1 120.8841 72.8476 26.2941 10.3032 -21.6817 -16.2214
# 2 72.8476 133.9024 42.0500 6.6465 -9.6855 -30.2766
# 3 26.2941 42.0500 81.2025 3.7722 -17.9416 -18.5161
# 4 10.3032 6.6465 3.7722 44.2683 -19.0468 2.6205
# 5 -21.6817 -9.6855 -17.9416 -19.0468 29.7288 3.6802
# 6 -16.2214 -30.2766 -18.5161 2.6205 3.6802 30.4032
#
#
#
# Elastic Compliance Matrix: (Units=1/GPa)
#
#
# Indices 1 2 3 4 5 6 
#
# 1 0.014110 -0.007624 0.001358 0.002110 0.010057 -0.000636
# 2 -0.007624 0.014735 -0.004446 -0.003528 -0.006821 0.009028
# 3 0.001358 -0.004446 0.017903 0.003682 0.012034 0.005426
# 4 0.002110 -0.003528 0.003682 0.033290 0.024683 -0.006002
# 5 0.010057 -0.006821 0.012034 0.024683 0.062292 -0.003766
# 6 -0.000636 0.009028 0.005426 -0.006002 -0.003766 0.045820
#
#
# Mechanical properties :
#
#
# Convention : Reuss Voigt Hill
#
# Bulk Modulus (GPa) = 39.48936 68.70804 54.09870
# Shear Modulus (GPa) = 22.93421 33.86655 28.40038
#
# Velocity S-wave (km/s) = 3.18269 3.86757 3.54172
# Velocity P-wave (km/s) = 5.56305 7.09161 6.37332
#
# Compressibility (1/GPa) = 0.02532328
#
# Stress axis : x y z
#
# Youngs Moduli (GPa) = 70.87215 67.86490 55.85758
#
# Poissons Ratio (x) = 0.51739 -0.07585
# Poissons Ratio (y) = 0.54032 0.24837
# Poissons Ratio (z) = -0.09624 0.30175
#
# Static dielectric constant tensor:
#      x y z
#    x 1.800670 0.021490 0.111940 
#    y 0.021490 1.893060 -0.000150 
#    z 0.111940 -0.000150 1.535530 
# 
# From -- ./inp_files/64346.got.cif
#   From: 2010.05.17/outbox.cif.g08.bks.cpg/sg2_33_cif.got.tgz:64346.got - 2010.06.03 11:33:40.
