data_PCOD9064771
_publ_section_title
;
Structure prediction by ZEFSAII (Michael W. Deem and Ramdas Pophale) SiO2 
 PCOD9064771
Probable space group: P -1
;
_chemical_formula_sum "Si O2"
_cell_formula_units_Z 15
_cell_length_a 8.747410
_cell_length_b 5.632550
_cell_length_c 18.888243
_cell_angle_alpha 110.849584
_cell_angle_beta 124.329335
_cell_angle_gamma 54.263298
_cell_volume 623.327342
_symmetry_space_group_name_H-M "P -1"
_symmetry_group_IT_number 2
_symmetry_cell_setting 'triclinic'
loop_
_space_group_symop_operation_xyz
x,y,z
-x,-y,-z
loop_
_atom_site_type_symbol
_atom_site_label
_atom_site_fract_x
_atom_site_fract_y
_atom_site_fract_z
Si Si1 0.500000 0.000000 0.500000
Si Si2 0.053784 0.812570 0.827241
Si Si3 0.893245 0.292774 0.454314
Si Si4 0.887031 0.339394 0.919322
Si Si5 0.337553 0.210036 0.201628
Si Si6 0.483607 0.341874 0.390652
Si Si7 0.105158 0.964519 0.344413
Si Si8 0.480353 0.662868 0.086629
O O1 0.557105 0.140157 0.457087
O O2 0.724780 0.927536 0.588166
O O3 0.277089 0.526928 0.842986
O O4 0.865993 0.781227 0.812472
O O5 0.076135 0.025225 0.911869
O O6 0.978067 0.967537 0.748941
O O7 0.646083 0.474577 0.435376
O O8 0.000000 0.500000 0.500000
O O9 0.000000 0.000000 0.500000
O O10 0.914491 0.155204 0.368151
O O11 0.752744 0.482883 0.828509
O O12 0.713431 0.350634 0.928038
O O13 0.000000 0.500000 0.000000
O O14 0.493029 0.168993 0.303011
O O15 0.423968 0.986154 0.134059
O O16 0.244297 0.617606 0.360517
O O17 0.500000 0.500000 0.000000
#
# Coordination Sequence:
#
# PCOD9064771 Si02
#       8
#     1   2   2   2   2   2   2   2
#     4  12  24  48  78 104 146 208 250 322 396 464
#     4  11  25  45  71 104 149 189 255 314 383 464
#     4  12  30  48  74 113 155 205 267 330 393 475
#     4  11  24  46  73 102 146 194 244 306 384 469
#     4  11  25  45  72 108 146 196 247 325 380 456
#     4  12  27  48  76 109 155 200 267 323 397 474
#     4  12  26  46  73 107 147 200 256 316 397 459
#     4  11  26  46  72 112 148 196 249 315 393 476
#
# _framework density 24.064402999999999
#
# number of rings (size 3 to 8) (size 9 to 14) (size 15 to 20)
#    0.000    0.533    4.000    2.800    3.733    7.467 
#    0.000    0.000    0.000    0.000    0.000    0.000 
#    0.000    0.000    0.000    0.000    0.000    0.000 
#
# Total GULP energy -83594.189697 kJ/mol
# GULP energy per Si atom -5572.945980 kJ/mol
# Density = 2.400963 g / cm^3
# Si number density = 24.064403 Si / 1000 Ang^3
#
#
#
# Elastic Constant Matrix: (Units=GPa)
#
#
# Indices 1 2 3 4 5 6 
#
# 1 60.3473 36.8852 21.7945 1.0661 -10.3889 -18.7082
# 2 36.8852 91.7430 28.5844 -3.2077 -16.0370 -20.4386
# 3 21.7945 28.5844 114.5280 8.6108 -25.5198 -3.9476
# 4 1.0661 -3.2077 8.6108 43.7359 1.8074 -0.4209
# 5 -10.3889 -16.0370 -25.5198 1.8074 50.1130 3.5685
# 6 -18.7082 -20.4386 -3.9476 -0.4209 3.5685 45.8111
#
#
#
# Elastic Compliance Matrix: (Units=1/GPa)
#
#
# Indices 1 2 3 4 5 6 
#
# 1 0.024033 -0.007423 -0.002220 -0.000677 0.001058 0.006223
# 2 -0.007423 0.015776 -0.002047 0.001688 0.002144 0.003679
# 3 -0.002220 -0.002047 0.010823 -0.002428 0.004574 -0.001266
# 4 -0.000677 0.001688 -0.002428 0.023560 -0.001731 0.000619
# 5 0.001058 0.002144 0.004574 -0.001731 0.023255 -0.000045
# 6 0.006223 0.003679 -0.001266 0.000619 -0.000045 0.025911
#
#
# Mechanical properties :
#
#
# Convention : Reuss Voigt Hill
#
# Bulk Modulus (GPa) = 36.69515 49.01628 42.85571
# Shear Modulus (GPa) = 32.08794 39.88896 35.98845
#
# Velocity S-wave (km/s) = 3.65556 4.07577 3.87137
# Velocity P-wave (km/s) = 5.75320 6.52397 6.15067
#
# Compressibility (1/GPa) = 0.02725156
#
# Stress axis : x y z
#
# Youngs Moduli (GPa) = 41.61009 63.38842 92.39661
#
# Poissons Ratio (x) = 0.47055 0.20508
# Poissons Ratio (y) = 0.30888 0.18914
# Poissons Ratio (z) = 0.09236 0.12976
#
# Static dielectric constant tensor:
#      x y z
#    x 1.944090 0.087890 0.018600 
#    y 0.087890 1.648880 -0.024220 
#    z 0.018600 -0.024220 1.899850 
# 
# From -- ./inp_files/553650.got.cif
#   From: 2010.05.17/outbox.cif.g08.bks.cpg/sg2_277_cif.got.tgz:553650.got - 2010.06.03 11:33:40.
