data_PCOD9064962
_publ_section_title
;
Structure prediction by ZEFSAII (Michael W. Deem and Ramdas Pophale) SiO2 
 PCOD9064962
Probable space group: P -1
;
_chemical_formula_sum "Si O2"
_cell_formula_units_Z 12
_cell_length_a 11.943845
_cell_length_b 5.388699
_cell_length_c 9.581367
_cell_angle_alpha 86.489526
_cell_angle_beta 110.102089
_cell_angle_gamma 114.983573
_cell_volume 522.361536
_symmetry_space_group_name_H-M "P -1"
_symmetry_group_IT_number 2
_symmetry_cell_setting 'triclinic'
loop_
_space_group_symop_operation_xyz
x,y,z
-x,-y,-z
loop_
_atom_site_type_symbol
_atom_site_label
_atom_site_fract_x
_atom_site_fract_y
_atom_site_fract_z
Si Si1 0.365733 0.972221 0.116115
Si Si2 0.985052 0.267045 0.615974
Si Si3 0.225139 0.279478 0.598406
Si Si4 0.543433 0.734069 0.128608
Si Si5 0.539656 0.292247 0.433362
Si Si6 0.069068 0.800597 0.084152
O O1 0.418934 0.737102 0.157294
O O2 0.221275 0.923253 0.099596
O O3 0.465375 0.210481 0.253783
O O4 0.381153 0.013032 0.954241
O O5 0.940966 0.265152 0.753734
O O6 0.000000 0.500000 0.500000
O O7 0.135166 0.300943 0.683441
O O8 0.878350 0.974948 0.523086
O O9 0.345840 0.235434 0.714193
O O10 0.302659 0.554039 0.531851
O O11 0.500000 0.500000 0.000000
O O12 0.500000 0.500000 0.500000
O O13 0.500000 0.000000 0.500000
O O14 0.000000 0.500000 0.000000
O O15 0.000000 0.000000 0.000000
#
# Coordination Sequence:
#
# PCOD9064962 Si02
#       6
#     2   2   2   2   2   2
#     4  11  27  44  76 111 154 200 266 323 408 467
#     4  11  29  49  81 113 159 222 266 329 399 489
#     4  11  26  48  77 108 161 201 272 319 404 471
#     4  11  24  46  77 114 149 206 257 332 401 475
#     4  12  27  45  75 112 152 199 255 329 395 470
#     4  12  31  51  80 115 162 209 270 333 397 483
#
# _framework density 22.972595999999999
#
# number of rings (size 3 to 8) (size 9 to 14) (size 15 to 20)
#    0.000    0.667    1.667    3.000   18.667    0.000 
#    0.000    0.000    0.000    0.000    0.000    0.000 
#    0.000    0.000    0.000    0.000    0.000    0.000 
#
# Total GULP energy -66986.467543 kJ/mol
# GULP energy per Si atom -5582.205629 kJ/mol
# Density = 2.292031 g / cm^3
# Si number density = 22.972596 Si / 1000 Ang^3
#
#
#
# Elastic Constant Matrix: (Units=GPa)
#
#
# Indices 1 2 3 4 5 6 
#
# 1 186.8678 50.9060 40.6869 5.2765 1.9836 14.7909
# 2 50.9060 132.6622 33.7836 4.9327 5.6452 15.0012
# 3 40.6869 33.7836 95.5956 -8.6434 -11.0590 1.9812
# 4 5.2765 4.9327 -8.6434 45.2064 0.7701 -1.8008
# 5 1.9836 5.6452 -11.0590 0.7701 41.0960 2.1699
# 6 14.7909 15.0012 1.9812 -1.8008 2.1699 48.1607
#
#
#
# Elastic Compliance Matrix: (Units=1/GPa)
#
#
# Indices 1 2 3 4 5 6 
#
# 1 0.006451 -0.001671 -0.002292 -0.001053 -0.000606 -0.001379
# 2 -0.001671 0.009292 -0.002866 -0.001425 -0.001822 -0.002234
# 3 -0.002292 -0.002866 0.013161 0.003069 0.003936 0.000993
# 4 -0.001053 -0.001425 0.003069 0.023035 0.000563 0.001477
# 5 -0.000606 -0.001822 0.003936 0.000563 0.025690 -0.000545
# 6 -0.001379 -0.002234 0.000993 0.001477 -0.000545 0.021922
#
#
# Mechanical properties :
#
#
# Convention : Reuss Voigt Hill
#
# Bulk Modulus (GPa) = 65.58778 73.98652 69.78715
# Shear Modulus (GPa) = 42.26833 46.20923 44.23878
#
# Velocity S-wave (km/s) = 4.29411 4.48983 4.39306
# Velocity P-wave (km/s) = 7.29372 7.69120 7.49509
#
# Compressibility (1/GPa) = 0.01524674
#
# Stress axis : x y z
#
# Youngs Moduli (GPa) = 155.01819 107.61750 75.98010
#
# Poissons Ratio (x) = 0.17982 0.17414
# Poissons Ratio (y) = 0.25902 0.21776
# Poissons Ratio (z) = 0.35528 0.30844
#
# Static dielectric constant tensor:
#      x y z
#    x 2.009340 -0.158330 0.006470 
#    y -0.158330 2.713800 -0.285590 
#    z 0.006470 -0.285590 2.060220 
# 
# From -- ./inp_files/138402.got.cif
#   From: 2010.05.17/outbox.cif.g08.bks.cpg/sg2_70_cif.got.tgz:138402.got - 2010.06.03 11:33:40.
