data_PCOD9064014
_publ_section_title
;
Structure prediction by ZEFSAII (Michael W. Deem and Ramdas Pophale) SiO2 
 PCOD9064014
Probable space group: P -1
;
_chemical_formula_sum "Si O2"
_cell_formula_units_Z 16
_cell_length_a 6.510370
_cell_length_b 23.090060
_cell_length_c 10.753853
_cell_angle_alpha 140.017905
_cell_angle_beta 88.614931
_cell_angle_gamma 63.609559
_cell_volume 719.785136
_symmetry_space_group_name_H-M "P -1"
_symmetry_group_IT_number 2
_symmetry_cell_setting 'triclinic'
loop_
_space_group_symop_operation_xyz
x,y,z
-x,-y,-z
loop_
_atom_site_type_symbol
_atom_site_label
_atom_site_fract_x
_atom_site_fract_y
_atom_site_fract_z
Si Si1 0.878523 0.974609 0.848619
Si Si2 0.254103 0.269557 0.902596
Si Si3 0.875096 0.014779 0.389206
Si Si4 0.334879 0.363329 0.287770
Si Si5 0.149004 0.527316 0.953574
Si Si6 0.157098 0.689354 0.398835
Si Si7 0.755505 0.753478 0.722757
Si Si8 0.069172 0.747873 0.938563
O O1 0.983883 0.976297 0.713991
O O2 0.993182 0.836729 0.634693
O O3 0.524468 0.096213 0.057815
O O4 0.000000 0.000000 0.000000
O O5 0.523859 0.145951 0.614665
O O6 0.050144 0.403846 0.052830
O O7 0.043727 0.258328 0.941502
O O8 0.394751 0.274751 0.028589
O O9 0.000000 0.000000 0.500000
O O10 0.948844 0.887107 0.157932
O O11 0.366978 0.303608 0.321426
O O12 0.000000 0.500000 0.500000
O O13 0.579103 0.362129 0.264684
O O14 0.136821 0.632530 0.184494
O O15 0.498729 0.400074 0.723368
O O16 0.000000 0.500000 0.000000
O O17 0.990826 0.681881 0.492051
O O18 0.924363 0.737776 0.813923
#
# Coordination Sequence:
#
# PCOD9064014 Si02
#       8
#     2   2   2   2   2   2   2   2
#     4  12  27  47  77 108 148 193 244 306 368 427
#     4  11  26  41  73 102 134 187 236 289 360 426
#     4  12  23  45  73 104 146 183 233 300 362 430
#     4  11  26  44  72 103 143 184 234 291 361 431
#     4  11  28  48  69 102 143 190 242 299 360 427
#     4  11  28  46  72 103 142 191 244 294 360 441
#     4  11  26  46  71 105 138 188 238 292 366 431
#     4  11  24  45  69 106 140 180 231 297 356 430
#
# _framework density 22.228853999999998
#
# number of rings (size 3 to 8) (size 9 to 14) (size 15 to 20)
#    0.000    0.750    2.500    3.000   12.250    2.000 
#    0.000    0.000    0.000    0.000    0.000    0.000 
#    0.000    0.000    0.000    0.000    0.000    0.000 
#
# Total GULP energy -89547.066756 kJ/mol
# GULP energy per Si atom -5596.691672 kJ/mol
# Density = 2.217826 g / cm^3
# Si number density = 22.228854 Si / 1000 Ang^3
#
#
#
# Elastic Constant Matrix: (Units=GPa)
#
#
# Indices 1 2 3 4 5 6 
#
# 1 87.5598 22.6497 28.4951 0.1339 -25.0534 1.7113
# 2 22.6497 93.6350 18.6512 -4.6374 -13.2016 6.9595
# 3 28.4951 18.6512 109.8890 12.1668 -27.5278 -2.1728
# 4 0.1339 -4.6374 12.1668 42.9821 -0.7274 -2.3793
# 5 -25.0534 -13.2016 -27.5278 -0.7274 57.0624 2.9590
# 6 1.7113 6.9595 -2.1728 -2.3793 2.9590 31.3353
#
#
#
# Elastic Compliance Matrix: (Units=1/GPa)
#
#
# Indices 1 2 3 4 5 6 
#
# 1 0.014048 -0.002233 -0.002152 0.000357 0.004661 -0.000834
# 2 -0.002233 0.011942 -0.001349 0.001554 0.001288 -0.002628
# 3 -0.002152 -0.001349 0.011288 -0.003233 0.004118 0.000566
# 4 0.000357 0.001554 -0.003233 0.024408 -0.000802 0.001340
# 5 0.004661 0.001288 0.004118 -0.000802 0.021969 -0.002390
# 6 -0.000834 -0.002628 0.000566 0.001340 -0.002390 0.032909
#
#
# Mechanical properties :
#
#
# Convention : Reuss Voigt Hill
#
# Bulk Modulus (GPa) = 38.74519 47.85285 43.29902
# Shear Modulus (GPa) = 36.59356 41.02849 38.81103
#
# Velocity S-wave (km/s) = 4.06176 4.30086 4.18302
# Velocity P-wave (km/s) = 6.28213 6.79980 6.54609
#
# Compressibility (1/GPa) = 0.02580965
#
# Stress axis : x y z
#
# Youngs Moduli (GPa) = 71.18410 83.73504 88.59037
#
# Poissons Ratio (x) = 0.18695 0.19068
# Poissons Ratio (y) = 0.15893 0.11955
# Poissons Ratio (z) = 0.15321 0.11299
#
# Static dielectric constant tensor:
#      x y z
#    x 1.831450 0.002460 0.006620 
#    y 0.002460 1.822050 -0.019990 
#    z 0.006620 -0.019990 1.841720 
# 
# From -- ./inp_files/371061.got.cif
#   From: 2010.05.17/outbox.cif.g08.bks.cpg/sg2_186_cif.got.tgz:371061.got - 2010.06.03 11:33:40.
