data_PCOD9064701
_publ_section_title
;
Structure prediction by ZEFSAII (Michael W. Deem and Ramdas Pophale) SiO2 
 PCOD9064701
Probable space group: P -1
;
_chemical_formula_sum "Si O2"
_cell_formula_units_Z 12
_cell_length_a 16.275521
_cell_length_b 9.464040
_cell_length_c 5.308966
_cell_angle_alpha 63.568126
_cell_angle_beta 122.651262
_cell_angle_gamma 136.287379
_cell_volume 473.654859
_symmetry_space_group_name_H-M "P -1"
_symmetry_group_IT_number 2
_symmetry_cell_setting 'triclinic'
loop_
_space_group_symop_operation_xyz
x,y,z
-x,-y,-z
loop_
_atom_site_type_symbol
_atom_site_label
_atom_site_fract_x
_atom_site_fract_y
_atom_site_fract_z
Si Si1 0.717585 0.566066 0.960842
Si Si2 0.636140 0.832067 0.756991
Si Si3 0.166375 0.526467 0.140473
Si Si4 0.587520 0.232814 0.368882
Si Si5 0.775341 0.091750 0.300992
Si Si6 0.981299 0.811174 0.499581
O O1 0.611965 0.327162 0.056880
O O2 0.847249 0.678359 0.244849
O O3 0.666333 0.684830 0.841715
O O4 0.771975 0.573746 0.776292
O O5 0.486819 0.701439 0.667129
O O6 0.683666 0.981181 0.475732
O O7 0.707875 0.956563 0.038816
O O8 0.273831 0.682504 0.392556
O O9 0.173490 0.676686 0.837620
O O10 0.034068 0.341289 0.192016
O O11 0.500000 0.000000 0.500000
O O12 0.899684 0.112580 0.533740
O O13 0.000000 0.000000 0.500000
#
# Coordination Sequence:
#
# PCOD9064701 Si02
#       6
#     2   2   2   2   2   2
#     4  11  26  44  73 105 138 189 237 291 353 417
#     4  12  27  46  74 105 143 189 235 289 356 420
#     4  11  26  44  73 105 138 189 237 291 353 417
#     4  11  24  46  72 101 144 184 236 292 352 419
#     4  12  27  46  74 105 143 189 235 289 356 420
#     4  11  24  46  72 101 144 184 236 292 352 419
#
# _framework density 25.334900999999999
#
# number of rings (size 3 to 8) (size 9 to 14) (size 15 to 20)
#    0.000    0.667    3.333    3.000    9.333    4.000 
#    0.000    0.000    0.000    0.000    0.000    0.000 
#    0.000    0.000    0.000    0.000    0.000    0.000 
#
# Total GULP energy -67057.083899 kJ/mol
# GULP energy per Si atom -5588.090325 kJ/mol
# Density = 2.527724 g / cm^3
# Si number density = 25.334901 Si / 1000 Ang^3
#
#
#
# Elastic Constant Matrix: (Units=GPa)
#
#
# Indices 1 2 3 4 5 6 
#
# 1 106.1150 -5.1460 -0.3847 -1.0047 -4.1477 -1.1525
# 2 -5.1460 95.3739 17.5549 -5.2520 -8.7899 1.9471
# 3 -0.3847 17.5549 51.9677 -5.4783 -8.3768 2.4345
# 4 -1.0047 -5.2520 -5.4783 22.5948 -0.5384 -2.5520
# 5 -4.1477 -8.7899 -8.3768 -0.5384 47.9051 -8.9425
# 6 -1.1525 1.9471 2.4345 -2.5520 -8.9425 51.9312
#
#
#
# Elastic Compliance Matrix: (Units=1/GPa)
#
#
# Indices 1 2 3 4 5 6 
#
# 1 0.009505 0.000622 0.000077 0.000655 0.001031 0.000394
# 2 0.000622 0.011392 -0.003391 0.001904 0.001594 0.000114
# 3 0.000077 -0.003391 0.021372 0.004460 0.003151 -0.000111
# 4 0.000655 0.001904 0.004460 0.046130 0.002147 0.002371
# 5 0.001031 0.001594 0.003151 0.002147 0.022541 0.003802
# 6 0.000394 0.000114 -0.000111 0.002371 0.003802 0.020037
#
#
# Mechanical properties :
#
#
# Convention : Reuss Voigt Hill
#
# Bulk Modulus (GPa) = 27.11177 30.83387 28.97282
# Shear Modulus (GPa) = 33.63434 40.58172 37.10803
#
# Velocity S-wave (km/s) = 3.64756 4.00660 3.83129
# Velocity P-wave (km/s) = 5.33518 5.79662 5.57068
#
# Compressibility (1/GPa) = 0.03688435
#
# Stress axis : x y z
#
# Youngs Moduli (GPa) = 105.20823 87.77887 46.78981
#
# Poissons Ratio (x) = -0.05457 -0.00361
# Poissons Ratio (y) = -0.06541 0.15868
# Poissons Ratio (z) = -0.00812 0.29770
#
# Static dielectric constant tensor:
#      x y z
#    x 1.932040 -0.033010 -0.017980 
#    y -0.033010 2.082020 0.075800 
#    z -0.017980 0.075800 2.225570 
# 
# From -- ./inp_files/92531.got.cif
#   From: 2010.05.17/outbox.cif.g08.bks.cpg/sg2_47_cif.got.tgz:92531.got - 2010.06.03 11:33:40.
