data_PCOD9065279
_publ_section_title
;
Structure prediction by ZEFSAII (Michael W. Deem and Ramdas Pophale) SiO2 
 PCOD9065279
Probable space group: P -1
;
_chemical_formula_sum "Si O2"
_cell_formula_units_Z 16
_cell_length_a 10.074479
_cell_length_b 17.785794
_cell_length_c 5.464689
_cell_angle_alpha 62.077514
_cell_angle_beta 111.635922
_cell_angle_gamma 128.251168
_cell_volume 675.037512
_symmetry_space_group_name_H-M "P -1"
_symmetry_group_IT_number 2
_symmetry_cell_setting 'triclinic'
loop_
_space_group_symop_operation_xyz
x,y,z
-x,-y,-z
loop_
_atom_site_type_symbol
_atom_site_label
_atom_site_fract_x
_atom_site_fract_y
_atom_site_fract_z
Si Si1 0.020520 0.597907 0.493222
Si Si2 0.931478 0.233476 0.092278
Si Si3 0.726661 0.890331 0.054543
Si Si4 0.232895 0.408778 0.322447
Si Si5 0.028108 0.083211 0.195554
Si Si6 0.665280 0.380385 0.113577
Si Si7 0.454062 0.315301 0.570833
Si Si8 0.551766 0.064545 0.189449
O O1 0.087037 0.694116 0.217330
O O2 0.166868 0.624528 0.752233
O O3 0.000000 0.500000 0.500000
O O4 0.837354 0.569693 0.511804
O O5 0.750791 0.146411 0.202803
O O6 0.065016 0.306511 0.272226
O O7 0.007480 0.173804 0.111787
O O8 0.703393 0.802432 0.351128
O O9 0.790632 0.872293 0.873080
O O10 0.550566 0.881322 0.956721
O O11 0.869806 0.007945 0.025248
O O12 0.380941 0.386900 0.451053
O O13 0.278887 0.502756 0.038969
O O14 0.000000 0.000000 0.500000
O O15 0.557210 0.335828 0.358247
O O16 0.563264 0.332640 0.864761
O O17 0.500000 0.000000 0.500000
O O18 0.500000 0.000000 0.000000
#
# Coordination Sequence:
#
# PCOD9065279 Si02
#       8
#     2   2   2   2   2   2   2   2
#     4  12  27  50  79 112 157 204 266 320 390 476
#     4  12  27  47  82 110 158 209 258 327 396 463
#     4  11  26  46  75 108 153 199 259 317 384 466
#     4  12  28  48  80 113 156 205 267 321 393 473
#     4  11  24  47  77 110 151 204 261 322 386 463
#     4  12  28  50  78 113 157 207 259 326 390 469
#     4  12  29  49  79 115 157 206 261 324 402 457
#     4  12  28  49  74 112 154 202 259 321 384 466
#
# _framework density 23.702385
#
# number of rings (size 3 to 8) (size 9 to 14) (size 15 to 20)
#    0.000    0.250    2.500    4.875   10.500    2.000 
#    0.000    0.000    0.000    0.000    0.000    0.000 
#    0.000    0.000    0.000    0.000    0.000    0.000 
#
# Total GULP energy -89589.146421 kJ/mol
# GULP energy per Si atom -5599.321651 kJ/mol
# Density = 2.364844 g / cm^3
# Si number density = 23.702385 Si / 1000 Ang^3
#
#
#
# Elastic Constant Matrix: (Units=GPa)
#
#
# Indices 1 2 3 4 5 6 
#
# 1 137.0480 28.9132 38.6173 -7.1720 -8.7291 -19.7028
# 2 28.9132 123.4359 31.8983 -7.7583 -11.7998 -15.5255
# 3 38.6173 31.8983 118.8288 -12.4165 -12.7642 -6.5473
# 4 -7.1720 -7.7583 -12.4165 48.2591 6.2092 11.0895
# 5 -8.7291 -11.7998 -12.7642 6.2092 54.6185 -11.5783
# 6 -19.7028 -15.5255 -6.5473 11.0895 -11.5783 38.8687
#
#
#
# Elastic Compliance Matrix: (Units=1/GPa)
#
#
# Indices 1 2 3 4 5 6 
#
# 1 0.008829 -0.000788 -0.002294 -0.000656 0.001728 0.004476
# 2 -0.000788 0.009451 -0.001847 -0.000252 0.002325 0.003829
# 3 -0.002294 -0.001847 0.009966 0.001847 0.001275 -0.000369
# 4 -0.000656 -0.000252 0.001847 0.023429 -0.004092 -0.008025
# 5 0.001728 0.002325 0.001275 -0.004092 0.021910 0.009713
# 6 0.004476 0.003829 -0.000369 -0.008025 0.009713 0.034647
#
#
# Mechanical properties :
#
#
# Convention : Reuss Voigt Hill
#
# Bulk Modulus (GPa) = 54.38099 64.24115 59.31107
# Shear Modulus (GPa) = 40.25157 47.00818 43.62988
#
# Velocity S-wave (km/s) = 4.12540 4.45822 4.29504
# Velocity P-wave (km/s) = 6.75907 7.32551 7.04798
#
# Compressibility (1/GPa) = 0.01838878
#
# Stress axis : x y z
#
# Youngs Moduli (GPa) = 113.26845 105.80701 100.33815
#
# Poissons Ratio (x) = 0.08341 0.23016
# Poissons Ratio (y) = 0.08929 0.18528
# Poissons Ratio (z) = 0.25982 0.19538
#
# Static dielectric constant tensor:
#      x y z
#    x 1.897600 -0.041150 0.000420 
#    y -0.041150 2.019490 0.194910 
#    z 0.000420 0.194910 1.522880 
# 
# From -- ./inp_files/46774.got.cif
#   From: 2010.05.17/outbox.cif.g08.bks.cpg/sg2_24_cif.got.tgz:46774.got - 2010.06.03 11:33:40.
