data_PCOD9065808
_publ_section_title
;
Structure prediction by ZEFSAII (Michael W. Deem and Ramdas Pophale) SiO2 
 PCOD9065808
Probable space group: P -1
;
_chemical_formula_sum "Si O2"
_cell_formula_units_Z 15
_cell_length_a 5.218527
_cell_length_b 20.069352
_cell_length_c 5.330174
_cell_angle_alpha 82.454922
_cell_angle_beta 89.363320
_cell_angle_gamma 108.572794
_cell_volume 523.754261
_symmetry_space_group_name_H-M "P -1"
_symmetry_group_IT_number 2
_symmetry_cell_setting 'triclinic'
loop_
_space_group_symop_operation_xyz
x,y,z
-x,-y,-z
loop_
_atom_site_type_symbol
_atom_site_label
_atom_site_fract_x
_atom_site_fract_y
_atom_site_fract_z
Si Si1 0.659520 0.557216 0.672771
Si Si2 0.500000 0.000000 0.500000
Si Si3 0.791931 0.402860 0.099916
Si Si4 0.702806 0.122754 0.248509
Si Si5 0.562996 0.250181 0.440383
Si Si6 0.279738 0.061230 0.943529
Si Si7 0.030676 0.327316 0.750539
Si Si8 0.135408 0.197220 0.836088
O O1 0.500000 0.500000 0.500000
O O2 0.452849 0.565153 0.888138
O O3 0.759737 0.631480 0.483083
O O4 0.945715 0.551323 0.765467
O O5 0.815092 0.072614 0.439914
O O6 0.401588 0.050355 0.684940
O O7 0.664721 0.322889 0.248403
O O8 0.934481 0.387038 0.857242
O O9 0.644726 0.188170 0.340715
O O10 0.441729 0.053825 0.202788
O O11 0.852024 0.149086 0.973548
O O12 0.249751 0.221105 0.543761
O O13 0.754812 0.273381 0.670380
O O14 0.294342 0.143072 0.930743
O O15 0.000000 0.000000 0.000000
O O16 0.164894 0.275050 0.917537
#
# Coordination Sequence:
#
# PCOD9065808 Si02
#       8
#     2   1   2   2   2   2   2   2
#     4  11  26  47  72 110 153 197 242 291 354 426
#     4  12  26  46  64  92 130 174 222 282 346 422
#     4  11  25  44  76 107 148 192 242 297 354 423
#     4  12  27  44  69  98 132 176 232 290 357 435
#     4  11  25  43  68 103 137 179 230 296 356 425
#     4  12  28  45  66  96 131 176 232 287 358 431
#     4  11  26  43  73 106 142 182 240 293 359 423
#     4  12  24  44  71  97 135 178 231 295 359 423
#
# _framework density 28.639382999999999
#
# number of rings (size 3 to 8) (size 9 to 14) (size 15 to 20)
#    0.000    0.533    5.333    1.600    1.867    3.733 
#    0.000    0.000    0.000    0.000    0.000    0.000 
#    0.000    0.000    0.000    0.000    0.000    0.000 
#
# Total GULP energy -83774.046085 kJ/mol
# GULP energy per Si atom -5584.936406 kJ/mol
# Density = 2.857420 g / cm^3
# Si number density = 28.639383 Si / 1000 Ang^3
#
#
#
# Elastic Constant Matrix: (Units=GPa)
#
#
# Indices 1 2 3 4 5 6 
#
# 1 145.0105 66.7144 49.5188 15.4766 -22.8656 -7.5090
# 2 66.7144 154.0258 30.3384 -3.8340 -3.3664 -11.6461
# 3 49.5188 30.3384 120.9493 16.0036 -23.9470 11.1886
# 4 15.4766 -3.8340 16.0036 67.5337 1.4966 -6.7841
# 5 -22.8656 -3.3664 -23.9470 1.4966 43.8558 -0.7945
# 6 -7.5090 -11.6461 11.1886 -6.7841 -0.7945 62.7931
#
#
#
# Elastic Compliance Matrix: (Units=1/GPa)
#
#
# Indices 1 2 3 4 5 6 
#
# 1 0.010373 -0.003957 -0.002265 -0.002079 0.003952 0.000736
# 2 -0.003957 0.008592 -0.001365 0.001921 -0.002186 0.001544
# 3 -0.002265 -0.001365 0.011079 -0.002563 0.004802 -0.002714
# 4 -0.002079 0.001921 -0.002563 0.016293 -0.002850 0.002289
# 5 0.003952 -0.002186 0.004802 -0.002850 0.027400 -0.000750
# 6 0.000736 0.001544 -0.002714 0.002289 -0.000750 0.017021
#
#
# Mechanical properties :
#
#
# Convention : Reuss Voigt Hill
#
# Bulk Modulus (GPa) = 67.24946 79.23653 73.24299
# Shear Modulus (GPa) = 45.09062 53.06413 49.07737
#
# Velocity S-wave (km/s) = 3.97221 4.30913 4.14410
# Velocity P-wave (km/s) = 6.67610 7.24467 6.96619
#
# Compressibility (1/GPa) = 0.01487001
#
# Stress axis : x y z
#
# Youngs Moduli (GPa) = 96.40549 116.39021 90.26402
#
# Poissons Ratio (x) = 0.46050 0.20444
# Poissons Ratio (y) = 0.38143 0.12323
# Poissons Ratio (z) = 0.21835 0.15890
#
# Static dielectric constant tensor:
#      x y z
#    x 2.403840 0.029930 0.120440 
#    y 0.029930 2.219430 -0.083870 
#    z 0.120440 -0.083870 2.382120 
# 
# From -- ./inp_files/9838.got.cif
#   From: 2010.05.17/outbox.cif.g08.bks.cpg/sg2_5_cif.got.tgz:9838.got - 2010.06.03 11:33:40.
