data_PCOD9065641
_publ_section_title
;
Structure prediction by ZEFSAII (Michael W. Deem and Ramdas Pophale) SiO2 
 PCOD9065641
Probable space group: P -1
;
_chemical_formula_sum "Si O2"
_cell_formula_units_Z 14
_cell_length_a 7.550301
_cell_length_b 14.910709
_cell_length_c 6.328639
_cell_angle_alpha 89.598903
_cell_angle_beta 58.334918
_cell_angle_gamma 70.355875
_cell_volume 558.209664
_symmetry_space_group_name_H-M "P -1"
_symmetry_group_IT_number 2
_symmetry_cell_setting 'triclinic'
loop_
_space_group_symop_operation_xyz
x,y,z
-x,-y,-z
loop_
_atom_site_type_symbol
_atom_site_label
_atom_site_fract_x
_atom_site_fract_y
_atom_site_fract_z
Si Si1 0.813438 0.823385 0.753784
Si Si2 0.390843 0.894127 0.791344
Si Si3 0.943474 0.321522 0.782113
Si Si4 0.677302 0.682181 0.143172
Si Si5 0.251848 0.474512 0.260913
Si Si6 0.960300 0.035028 0.289493
Si Si7 0.409382 0.691556 0.685616
O O1 0.596735 0.907126 0.776019
O O2 0.953996 0.753484 0.473999
O O3 0.961929 0.874353 0.774144
O O4 0.715177 0.766974 0.983263
O O5 0.300422 0.934945 0.615731
O O6 0.471195 0.778133 0.739588
O O7 0.149037 0.944438 0.053306
O O8 0.757187 0.420722 0.802231
O O9 0.141180 0.342445 0.779259
O O10 0.823726 0.290658 0.051108
O O11 0.443648 0.701593 0.414228
O O12 0.717084 0.595004 0.958500
O O13 0.424562 0.414506 0.334393
O O14 0.000000 0.500000 0.500000
O O15 0.000000 0.000000 0.500000
#
# Coordination Sequence:
#
# PCOD9065641 Si02
#       7
#     2   2   2   2   2   2   2
#     4  12  25  49  77 106 150 199 237 305 375 433
#     4  11  24  50  68 110 147 186 246 301 366 442
#     4  12  26  45  72 108 147 192 253 298 360 439
#     4  12  24  45  73 102 148 196 239 300 366 436
#     4  12  23  47  69 104 150 193 243 303 361 433
#     4  11  27  45  77 109 144 188 248 306 365 447
#     4  12  26  45  73 104 147 190 245 305 360 437
#
# _framework density 25.080182000000001
#
# number of rings (size 3 to 8) (size 9 to 14) (size 15 to 20)
#    0.000    0.286    5.714    3.000    2.000    4.571 
#    0.000    0.000    0.000    0.000    0.000    0.000 
#    0.000    0.000    0.000    0.000    0.000    0.000 
#
# Total GULP energy -78274.717699 kJ/mol
# GULP energy per Si atom -5591.051264 kJ/mol
# Density = 2.502310 g / cm^3
# Si number density = 25.080182 Si / 1000 Ang^3
#
#
#
# Elastic Constant Matrix: (Units=GPa)
#
#
# Indices 1 2 3 4 5 6 
#
# 1 103.6933 31.4500 21.8029 -0.0837 6.7937 -21.1836
# 2 31.4500 109.5454 53.7254 -8.1787 -0.2639 -16.1402
# 3 21.8029 53.7254 164.0926 -11.6818 -17.0736 9.3917
# 4 -0.0837 -8.1787 -11.6818 47.6614 3.3409 6.1890
# 5 6.7937 -0.2639 -17.0736 3.3409 33.1106 -3.0961
# 6 -21.1836 -16.1402 9.3917 6.1890 -3.0961 45.9644
#
#
#
# Elastic Compliance Matrix: (Units=1/GPa)
#
#
# Indices 1 2 3 4 5 6 
#
# 1 0.011770 -0.001961 -0.001569 -0.001168 -0.002651 0.005035
# 2 -0.001961 0.012357 -0.004107 0.000670 -0.001301 0.004096
# 3 -0.001569 -0.004107 0.008404 0.001560 0.004109 -0.003816
# 4 -0.001168 0.000670 0.001560 0.022063 -0.001522 -0.003695
# 5 -0.002651 -0.001301 0.004109 -0.001522 0.032999 -0.000090
# 6 0.005035 0.004096 -0.003816 -0.003695 -0.000090 0.026786
#
#
# Mechanical properties :
#
#
# Convention : Reuss Voigt Hill
#
# Bulk Modulus (GPa) = 57.95200 65.69867 61.82533
# Shear Modulus (GPa) = 36.92604 43.37081 40.14843
#
# Velocity S-wave (km/s) = 3.84124 4.16298 4.00534
# Velocity P-wave (km/s) = 6.54449 7.02563 6.78933
#
# Compressibility (1/GPa) = 0.01725566
#
# Stress axis : x y z
#
# Youngs Moduli (GPa) = 84.96232 80.92904 118.98749
#
# Poissons Ratio (x) = 0.15874 0.18667
# Poissons Ratio (y) = 0.16665 0.48871
# Poissons Ratio (z) = 0.13329 0.33239
#
# Static dielectric constant tensor:
#      x y z
#    x 27.372990 7.379920 23.492710 
#    y 7.379920 4.135620 6.799590 
#    z 23.492710 6.799590 23.918580 
# 
# From -- ./inp_files/38327.got.cif
#   From: 2010.05.17/outbox.cif.g08.bks.cpg/sg2_20_cif.got.tgz:38327.got - 2010.06.03 11:33:40.
