data_PCOD9065963
_publ_section_title
;
Structure prediction by ZEFSAII (Michael W. Deem and Ramdas Pophale) SiO2 
 PCOD9065963
Probable space group: P -1
;
_chemical_formula_sum "Si O2"
_cell_formula_units_Z 16
_cell_length_a 8.639884
_cell_length_b 8.694202
_cell_length_c 14.892110
_cell_angle_alpha 75.635324
_cell_angle_beta 77.730145
_cell_angle_gamma 39.540931
_cell_volume 689.492347
_symmetry_space_group_name_H-M "P -1"
_symmetry_group_IT_number 2
_symmetry_cell_setting 'triclinic'
loop_
_space_group_symop_operation_xyz
x,y,z
-x,-y,-z
loop_
_atom_site_type_symbol
_atom_site_label
_atom_site_fract_x
_atom_site_fract_y
_atom_site_fract_z
Si Si1 0.824831 0.668881 0.412709
Si Si2 0.313567 0.533574 0.468629
Si Si3 0.976295 0.406877 0.255588
Si Si4 0.598038 0.165404 0.330780
Si Si5 0.068022 0.987696 0.342812
Si Si6 0.699199 0.207999 0.992053
Si Si7 0.520682 0.254743 0.810173
Si Si8 0.447353 0.146980 0.158995
O O1 0.670991 0.627773 0.443718
O O2 0.931771 0.572696 0.313636
O O3 0.000000 0.500000 0.500000
O O4 0.684400 0.938078 0.401628
O O5 0.500000 0.500000 0.500000
O O6 0.391899 0.403414 0.381831
O O7 0.097997 0.823981 0.436186
O O8 0.758363 0.496826 0.212030
O O9 0.154460 0.357775 0.170125
O O10 0.061137 0.183336 0.333468
O O11 0.515931 0.169217 0.243378
O O12 0.824451 0.112799 0.305653
O O13 0.305382 0.801772 0.277755
O O14 0.638646 0.215976 0.894748
O O15 0.500000 0.500000 0.000000
O O16 0.596093 0.136362 0.071131
O O17 0.000000 0.000000 0.000000
O O18 0.503784 0.076870 0.826146
#
# Coordination Sequence:
#
# PCOD9065963 Si02
#       8
#     2   2   2   2   2   2   2   2
#     4  12  24  44  66 103 143 193 250 314 370 439
#     4  12  27  41  66  98 145 198 252 313 377 448
#     4  11  26  46  74 106 144 200 250 307 383 450
#     4  12  25  44  69 101 143 192 250 313 376 447
#     4  11  25  44  70 100 145 194 248 308 380 450
#     4  12  31  51  83 120 157 195 252 316 383 473
#     4  11  25  50  76 107 152 192 251 304 384 460
#     4  11  27  47  78 107 147 197 244 309 383 454
#
# _framework density 23.205477999999999
#
# number of rings (size 3 to 8) (size 9 to 14) (size 15 to 20)
#    0.000    0.500    2.500    4.500   12.250    1.500 
#    0.000    0.000    0.000    0.000    0.000    0.000 
#    0.000    0.000    0.000    0.000    0.000    0.000 
#
# Total GULP energy -89157.882616 kJ/mol
# GULP energy per Si atom -5572.367663 kJ/mol
# Density = 2.315266 g / cm^3
# Si number density = 23.205478 Si / 1000 Ang^3
#
#
#
# Elastic Constant Matrix: (Units=GPa)
#
#
# Indices 1 2 3 4 5 6 
#
# 1 118.2839 33.0168 17.0155 5.0773 -12.4163 -12.3285
# 2 33.0168 92.4384 27.5579 2.9304 -4.6744 10.0796
# 3 17.0155 27.5579 65.4527 0.4412 -5.0703 -1.4088
# 4 5.0773 2.9304 0.4412 20.7856 1.1622 0.6147
# 5 -12.4163 -4.6744 -5.0703 1.1622 65.1170 -4.3784
# 6 -12.3285 10.0796 -1.4088 0.6147 -4.3784 47.1464
#
#
#
# Elastic Compliance Matrix: (Units=1/GPa)
#
#
# Indices 1 2 3 4 5 6 
#
# 1 0.010272 -0.003631 -0.000900 -0.002193 0.001912 0.003642
# 2 -0.003631 0.014096 -0.005101 -0.000851 -0.000341 -0.004136
# 3 -0.000900 -0.005101 0.017761 0.000466 0.000935 0.001467
# 4 -0.002193 -0.000851 0.000466 0.048868 -0.001392 -0.001144
# 5 0.001912 -0.000341 0.000935 -0.001392 0.015936 0.002099
# 6 0.003642 -0.004136 0.001467 -0.001144 0.002099 0.023301
#
#
# Mechanical properties :
#
#
# Convention : Reuss Voigt Hill
#
# Bulk Modulus (GPa) = 43.73614 47.92840 45.83227
# Shear Modulus (GPa) = 31.82303 39.84879 35.83591
#
# Velocity S-wave (km/s) = 3.70720 4.14842 3.93400
# Velocity P-wave (km/s) = 6.10022 6.60641 6.35836
#
# Compressibility (1/GPa) = 0.02286439
#
# Stress axis : x y z
#
# Youngs Moduli (GPa) = 97.35479 70.93976 56.30415
#
# Poissons Ratio (x) = 0.25761 0.05068
# Poissons Ratio (y) = 0.35353 0.28719
# Poissons Ratio (z) = 0.08763 0.36185
#
# Static dielectric constant tensor:
#      x y z
#    x 1.554780 -0.074810 0.415140 
#    y -0.074810 2.049180 -0.011030 
#    z 0.415140 -0.011030 1.323850 
# 
# From -- ./inp_files/39186.got.cif
#   From: 2010.05.17/outbox.cif.g08.bks.cpg/sg2_20_cif.got.tgz:39186.got - 2010.06.03 11:33:40.
