data_PCOD9065168
_publ_section_title
;
Structure prediction by ZEFSAII (Michael W. Deem and Ramdas Pophale) SiO2 
 PCOD9065168
Probable space group: P -1
;
_chemical_formula_sum "Si O2"
_cell_formula_units_Z 14
_cell_length_a 5.832958
_cell_length_b 12.176601
_cell_length_c 11.391642
_cell_angle_alpha 46.286458
_cell_angle_beta 105.438162
_cell_angle_gamma 100.533983
_cell_volume 563.717287
_symmetry_space_group_name_H-M "P -1"
_symmetry_group_IT_number 2
_symmetry_cell_setting 'triclinic'
loop_
_space_group_symop_operation_xyz
x,y,z
-x,-y,-z
loop_
_atom_site_type_symbol
_atom_site_label
_atom_site_fract_x
_atom_site_fract_y
_atom_site_fract_z
Si Si1 0.642387 0.626404 0.497518
Si Si2 0.697700 0.149749 0.038558
Si Si3 0.226490 0.143965 0.846194
Si Si4 0.520831 0.775955 0.604760
Si Si5 0.767417 0.082354 0.363440
Si Si6 0.762192 0.578036 0.966629
Si Si7 0.981589 0.388197 0.785117
O O1 0.500000 0.500000 0.500000
O O2 0.657980 0.777706 0.310684
O O3 0.524215 0.665039 0.577296
O O4 0.901803 0.553128 0.610222
O O5 0.759070 0.147687 0.184281
O O6 0.856033 0.020281 0.089882
O O7 0.426753 0.114405 0.994115
O O8 0.752602 0.312740 0.871423
O O9 0.054550 0.273707 0.776555
O O10 0.287762 0.790563 0.641112
O O11 0.714107 0.719384 0.768245
O O12 0.575073 0.945270 0.440717
O O13 0.000000 0.000000 0.500000
O O14 0.500000 0.500000 0.000000
O O15 0.000000 0.500000 0.000000
O O16 0.827462 0.613886 0.083462
#
# Coordination Sequence:
#
# PCOD9065168 Si02
#       7
#     2   2   2   2   2   2   2
#     4  12  25  47  71 108 153 197 253 313 394 467
#     4  11  24  47  73 106 145 191 259 314 383 460
#     4  11  25  46  72 103 150 196 250 315 378 473
#     4  11  26  47  71 107 149 197 252 321 382 459
#     4  11  25  45  75 104 142 196 255 319 382 455
#     4  12  29  49  79 113 155 204 258 323 395 466
#     4  12  26  45  76 106 148 201 253 320 389 463
#
# _framework density 24.835145000000001
#
# number of rings (size 3 to 8) (size 9 to 14) (size 15 to 20)
#    0.000    0.571    4.286    2.571    8.000    2.286 
#    0.000    0.000    0.000    0.000    0.000    0.000 
#    0.000    0.000    0.000    0.000    0.000    0.000 
#
# Total GULP energy -78355.785006 kJ/mol
# GULP energy per Si atom -5596.841786 kJ/mol
# Density = 2.477862 g / cm^3
# Si number density = 24.835145 Si / 1000 Ang^3
#
#
#
# Elastic Constant Matrix: (Units=GPa)
#
#
# Indices 1 2 3 4 5 6 
#
# 1 75.8747 34.5261 20.4361 9.2615 7.8468 -27.9266
# 2 34.5261 133.3077 30.5652 18.2352 1.1615 -31.0335
# 3 20.4361 30.5652 140.4736 15.2972 7.1160 -16.9844
# 4 9.2615 18.2352 15.2972 43.7057 -5.5130 -3.2687
# 5 7.8468 1.1615 7.1160 -5.5130 27.7616 -11.7499
# 6 -27.9266 -31.0335 -16.9844 -3.2687 -11.7499 54.9211
#
#
#
# Elastic Compliance Matrix: (Units=1/GPa)
#
#
# Indices 1 2 3 4 5 6 
#
# 1 0.017464 -0.002474 -0.000855 -0.002158 -0.002245 0.006609
# 2 -0.002474 0.009684 -0.001056 -0.002614 0.001787 0.004114
# 3 -0.000855 -0.001056 0.007925 -0.002316 -0.001829 0.000891
# 4 -0.002158 -0.002614 -0.002316 0.026006 0.006311 -0.000393
# 5 -0.002245 0.001787 -0.001829 0.006311 0.041967 0.008657
# 6 0.006609 0.004114 0.000891 -0.000393 0.008657 0.025998
#
#
# Mechanical properties :
#
#
# Convention : Reuss Voigt Hill
#
# Bulk Modulus (GPa) = 38.01522 57.85676 47.93599
# Shear Modulus (GPa) = 34.11133 42.88627 38.49880
#
# Velocity S-wave (km/s) = 3.71011 4.16003 3.94150
# Velocity P-wave (km/s) = 5.80461 6.81332 6.32909
#
# Compressibility (1/GPa) = 0.02630525
#
# Stress axis : x y z
#
# Youngs Moduli (GPa) = 57.26194 103.26393 126.17681
#
# Poissons Ratio (x) = 0.25544 0.10782
# Poissons Ratio (y) = 0.14165 0.13320
# Poissons Ratio (z) = 0.04893 0.10901
#
# Static dielectric constant tensor:
#      x y z
#    x 1.588890 -0.093690 -2.208070 
#    y -0.093690 1.951170 -0.456510 
#    z -2.208070 -0.456510 -8.669680 
# 
# From -- ./inp_files/69678.got.cif
#   From: 2010.05.17/outbox.cif.g08.bks.cpg/sg2_35_cif.got.tgz:69678.got - 2010.06.03 11:33:40.
