data_PCOD9065116
_publ_section_title
;
Structure prediction by ZEFSAII (Michael W. Deem and Ramdas Pophale) SiO2 
 PCOD9065116
Probable space group: P -1
;
_chemical_formula_sum "Si O2"
_cell_formula_units_Z 16
_cell_length_a 15.011449
_cell_length_b 12.452336
_cell_length_c 9.193167
_cell_angle_alpha 123.747217
_cell_angle_beta 119.178568
_cell_angle_gamma 108.836444
_cell_volume 717.985912
_symmetry_space_group_name_H-M "P -1"
_symmetry_group_IT_number 2
_symmetry_cell_setting 'triclinic'
loop_
_space_group_symop_operation_xyz
x,y,z
-x,-y,-z
loop_
_atom_site_type_symbol
_atom_site_label
_atom_site_fract_x
_atom_site_fract_y
_atom_site_fract_z
Si Si1 0.631583 0.349197 0.803009
Si Si2 0.988112 0.595823 0.184329
Si Si3 0.917061 0.479850 0.558690
Si Si4 0.752583 0.998709 0.733871
Si Si5 0.183412 0.185665 0.201135
Si Si6 0.367487 0.610427 0.829376
Si Si7 0.252291 0.070579 0.644608
Si Si8 0.667844 0.627858 0.830867
O O1 0.423581 0.096761 0.459064
O O2 0.642315 0.466834 0.772420
O O3 0.786947 0.409119 0.937222
O O4 0.667230 0.439775 0.062904
O O5 0.108614 0.663585 0.459441
O O6 0.074311 0.815719 0.360106
O O7 0.000000 0.500000 0.000000
O O8 0.747882 0.390297 0.320455
O O9 0.000000 0.500000 0.500000
O O10 0.070213 0.734374 0.930576
O O11 0.754962 0.897760 0.789633
O O12 0.745481 0.906994 0.510724
O O13 0.307183 0.418410 0.554284
O O14 0.177486 0.214246 0.048253
O O15 0.000000 0.000000 0.000000
O O16 0.575076 0.843141 0.138184
O O17 0.288017 0.226915 0.896055
O O18 0.500000 0.500000 0.500000
#
# Coordination Sequence:
#
# PCOD9065116 Si02
#       8
#     2   2   2   2   2   2   2   2
#     4  11  26  46  73 101 143 183 229 290 352 418
#     4  12  28  46  68 101 142 186 243 289 340 404
#     4  12  26  46  70 101 136 184 245 286 338 415
#     4  11  24  47  73 101 142 185 228 284 358 420
#     4  12  25  41  72 105 139 178 223 285 355 419
#     4  11  24  47  72 103 139 185 230 286 356 417
#     4  11  26  46  72 103 142 183 228 294 353 414
#     4  12  25  44  71 111 139 173 231 289 353 428
#
# _framework density 22.284559999999999
#
# number of rings (size 3 to 8) (size 9 to 14) (size 15 to 20)
#    0.000    0.500    6.250    0.750    7.000    4.500 
#    0.000    0.000    0.000    0.000    0.000    0.000 
#    0.000    0.000    0.000    0.000    0.000    0.000 
#
# Total GULP energy -89431.129721 kJ/mol
# GULP energy per Si atom -5589.445608 kJ/mol
# Density = 2.223384 g / cm^3
# Si number density = 22.284560 Si / 1000 Ang^3
#
#
#
# Elastic Constant Matrix: (Units=GPa)
#
#
# Indices 1 2 3 4 5 6 
#
# 1 82.0945 2.3484 19.4809 -2.7347 7.6184 20.4660
# 2 2.3484 99.4909 -1.7649 -19.9333 9.5003 13.5517
# 3 19.4809 -1.7649 45.6354 -11.2617 9.7854 7.2747
# 4 -2.7347 -19.9333 -11.2617 22.3402 6.3681 2.1013
# 5 7.6184 9.5003 9.7854 6.3681 44.7264 -5.7586
# 6 20.4660 13.5517 7.2747 2.1013 -5.7586 42.5891
#
#
#
# Elastic Compliance Matrix: (Units=1/GPa)
#
#
# Indices 1 2 3 4 5 6 
#
# 1 0.015447 0.001699 -0.003615 0.003398 -0.003717 -0.008016
# 2 0.001699 0.018079 0.010709 0.026115 -0.011640 -0.011261
# 3 -0.003615 0.010709 0.037607 0.033825 -0.016243 -0.011959
# 4 0.003398 0.026115 0.033825 0.096520 -0.030436 -0.024598
# 5 -0.003717 -0.011640 -0.016243 -0.030436 0.035221 0.014529
# 6 -0.008016 -0.011261 -0.011959 -0.024598 0.014529 0.036136
#
#
# Mechanical properties :
#
#
# Convention : Reuss Voigt Hill
#
# Bulk Modulus (GPa) = 11.27155 29.70552 20.48853
# Shear Modulus (GPa) = 19.92070 35.74158 27.83114
#
# Velocity S-wave (km/s) = 2.99310 4.00918 3.53781
# Velocity P-wave (km/s) = 4.12478 5.89834 5.08941
#
# Compressibility (1/GPa) = 0.08871897
#
# Stress axis : x y z
#
# Youngs Moduli (GPa) = 64.73810 55.31431 26.59110
#
# Poissons Ratio (x) = -0.09397 0.09612
# Poissons Ratio (y) = -0.10998 -0.28477
# Poissons Ratio (z) = 0.23401 -0.59238
#
# Static dielectric constant tensor:
#      x y z
#    x 1.828080 0.002150 0.044930 
#    y 0.002150 1.772690 0.004160 
#    z 0.044930 0.004160 1.855930 
# 
# From -- ./inp_files/185395.got.cif
#   From: 2010.05.17/outbox.cif.g08.bks.cpg/sg2_93_cif.got.tgz:185395.got - 2010.06.03 11:33:40.
