data_PCOD9065661
_publ_section_title
;
Structure prediction by ZEFSAII (Michael W. Deem and Ramdas Pophale) SiO2 
 PCOD9065661
Probable space group: P -1
;
_chemical_formula_sum "Si O2"
_cell_formula_units_Z 16
_cell_length_a 14.048341
_cell_length_b 16.326480
_cell_length_c 17.146811
_cell_angle_alpha 162.760934
_cell_angle_beta 66.429628
_cell_angle_gamma 106.463846
_cell_volume 995.567770
_symmetry_space_group_name_H-M "P -1"
_symmetry_group_IT_number 2
_symmetry_cell_setting 'triclinic'
loop_
_space_group_symop_operation_xyz
x,y,z
-x,-y,-z
loop_
_atom_site_type_symbol
_atom_site_label
_atom_site_fract_x
_atom_site_fract_y
_atom_site_fract_z
Si Si1 0.761478 0.483964 0.589329
Si Si2 0.926821 0.522224 0.857235
Si Si3 0.169783 0.209487 0.022461
Si Si4 0.242059 0.736332 0.848869
Si Si5 0.058791 0.702537 0.757001
Si Si6 0.370517 0.191936 0.211968
Si Si7 0.091396 0.857156 0.157486
Si Si8 0.919638 0.329410 0.846333
O O1 0.755058 0.672651 0.840047
O O2 0.862143 0.511699 0.527993
O O3 0.659710 0.606535 0.673598
O O4 0.793710 0.141782 0.292887
O O5 0.003084 0.713268 0.026078
O O6 0.838384 0.690426 0.973205
O O7 0.868268 0.471568 0.910082
O O8 0.015960 0.203524 0.510050
O O9 0.040135 0.372915 0.240723
O O10 0.138560 0.765657 0.852162
O O11 0.328300 0.413200 0.500841
O O12 0.188028 0.791020 0.001945
O O13 0.301833 0.971375 0.030020
O O14 0.000000 0.000000 0.000000
O O15 0.500000 0.000000 0.000000
O O16 0.141100 0.708206 0.089155
O O17 0.000000 0.000000 0.500000
O O18 0.000000 0.500000 0.000000
#
# Coordination Sequence:
#
# PCOD9065661 Si02
#       8
#     2   2   2   2   2   2   2   2
#     4  10  21  32  44  65  89 121 158 195 228 269
#     4  10  18  28  45  66  99 134 154 177 223 265
#     4  11  19  29  45  68  98 124 154 183 214 280
#     4  11  21  32  51  72  89 123 162 193 234 278
#     4   9  18  28  41  63  95 121 148 179 218 260
#     4  11  23  39  52  64  89 120 160 208 250 274
#     4  10  18  30  45  68  96 124 162 191 214 268
#     4   8  16  28  42  62  92 130 158 182 214 258
#
# _framework density 16.071231000000001
#
# number of rings (size 3 to 8) (size 9 to 14) (size 15 to 20)
#    0.000    2.000    1.250    4.500    3.500    0.000 
#    0.000    0.000    0.000    0.000    0.000    0.000 
#    0.000    6.000    0.000    0.000    0.000    0.000 
#
# Total GULP energy -89105.704018 kJ/mol
# GULP energy per Si atom -5569.106501 kJ/mol
# Density = 1.603465 g / cm^3
# Si number density = 16.071231 Si / 1000 Ang^3
#
#
#
# Elastic Constant Matrix: (Units=GPa)
#
#
# Indices 1 2 3 4 5 6 
#
# 1 36.4383 32.8903 25.3184 0.6700 -5.1319 -7.9222
# 2 32.8903 132.3570 24.4807 -3.9531 -9.4036 -23.8684
# 3 25.3184 24.4807 83.1118 0.1891 9.3953 -5.0040
# 4 0.6700 -3.9531 0.1891 21.0676 -2.8733 2.0578
# 5 -5.1319 -9.4036 9.3953 -2.8733 30.4539 2.6558
# 6 -7.9222 -23.8684 -5.0040 2.0578 2.6558 14.6828
#
#
#
# Elastic Compliance Matrix: (Units=1/GPa)
#
#
# Indices 1 2 3 4 5 6 
#
# 1 0.045117 -0.007094 -0.012135 -0.002258 0.008290 0.007492
# 2 -0.007094 0.012433 -0.000745 0.001258 0.001626 0.015659
# 3 -0.012135 -0.000745 0.016761 -0.000868 -0.007478 -0.000572
# 4 -0.002258 0.001258 -0.000868 0.049262 0.005567 -0.007381
# 5 0.008290 0.001626 -0.007478 0.005567 0.037834 -0.003055
# 6 0.007492 0.015659 -0.000572 -0.007381 -0.003055 0.098997
#
#
# Mechanical properties :
#
#
# Convention : Reuss Voigt Hill
#
# Bulk Modulus (GPa) = 29.10188 46.36508 37.73348
# Shear Modulus (GPa) = 16.03552 24.52203 20.27877
#
# Velocity S-wave (km/s) = 3.16219 3.91043 3.55604
# Velocity P-wave (km/s) = 5.61070 7.02147 6.35535
#
# Compressibility (1/GPa) = 0.03436204
#
# Stress axis : x y z
#
# Youngs Moduli (GPa) = 22.16454 80.43108 59.66212
#
# Poissons Ratio (x) = 0.57061 0.72402
# Poissons Ratio (y) = 0.15724 0.04444
# Poissons Ratio (z) = 0.26897 0.05991
#
# Static dielectric constant tensor:
#      x y z
#    x 1.522050 -0.020820 0.013520 
#    y -0.020820 1.609000 -0.007530 
#    z 0.013520 -0.007530 1.558980 
# 
# From -- ./inp_files/108606.got.cif
#   From: 2010.05.17/outbox.cif.g08.bks.cpg/sg2_55_cif.got.tgz:108606.got - 2010.06.03 11:33:40.
