data_PCOD9065129
_publ_section_title
;
Structure prediction by ZEFSAII (Michael W. Deem and Ramdas Pophale) SiO2 
 PCOD9065129
Probable space group: P -1
;
_chemical_formula_sum "Si O2"
_cell_formula_units_Z 14
_cell_length_a 9.175290
_cell_length_b 31.065247
_cell_length_c 5.153518
_cell_angle_alpha 51.383837
_cell_angle_beta 122.708310
_cell_angle_gamma 150.135383
_cell_volume 571.514974
_symmetry_space_group_name_H-M "P -1"
_symmetry_group_IT_number 2
_symmetry_cell_setting 'triclinic'
loop_
_space_group_symop_operation_xyz
x,y,z
-x,-y,-z
loop_
_atom_site_type_symbol
_atom_site_label
_atom_site_fract_x
_atom_site_fract_y
_atom_site_fract_z
Si Si1 0.180053 0.749605 0.775031
Si Si2 0.794669 0.437431 0.286450
Si Si3 0.156078 0.913596 0.931022
Si Si4 0.806828 0.914113 0.329131
Si Si5 0.601255 0.558466 0.127190
Si Si6 0.770383 0.175861 0.936217
Si Si7 0.602502 0.772494 0.260001
O O1 0.051783 0.740236 0.416252
O O2 0.243917 0.812255 0.819950
O O3 0.449166 0.776518 0.898273
O O4 0.944540 0.653248 0.067283
O O5 0.618735 0.334666 0.506653
O O6 0.000000 0.500000 0.500000
O O7 0.544716 0.419396 0.102054
O O8 0.000000 0.500000 0.000000
O O9 0.039066 0.943758 0.626299
O O10 0.134802 0.861946 0.879839
O O11 0.915393 0.834904 0.210546
O O12 0.500000 0.000000 0.000000
O O13 0.548019 0.890271 0.239903
O O14 0.656907 0.824956 0.363697
O O15 0.000000 0.000000 0.000000
O O16 0.500000 0.500000 0.500000
O O17 0.500000 0.500000 0.000000
#
# Coordination Sequence:
#
# PCOD9065129 Si02
#       7
#     2   2   2   2   2   2   2
#     4  11  24  47  72 105 147 199 251 312 379 462
#     4  12  28  48  80 116 156 201 261 324 389 462
#     4  12  28  45  78 110 155 201 268 319 395 463
#     4  11  27  49  75 108 157 206 259 324 389 467
#     4  12  25  45  72 108 148 196 249 318 387 454
#     4  11  26  45  73 105 148 197 253 309 384 453
#     4  11  26  47  77 110 157 206 259 321 394 458
#
# _framework density 24.496296000000001
#
# number of rings (size 3 to 8) (size 9 to 14) (size 15 to 20)
#    0.000    0.571    1.429    5.143   10.000    3.429 
#    0.000    0.000    0.000    0.000    0.000    0.000 
#    0.000    0.000    0.000    0.000    0.000    0.000 
#
# Total GULP energy -78319.507595 kJ/mol
# GULP energy per Si atom -5594.250543 kJ/mol
# Density = 2.444054 g / cm^3
# Si number density = 24.496296 Si / 1000 Ang^3
#
#
#
# Elastic Constant Matrix: (Units=GPa)
#
#
# Indices 1 2 3 4 5 6 
#
# 1 147.3390 32.7563 26.9538 1.0211 3.2349 6.0956
# 2 32.7563 105.3701 27.9702 -9.5632 -9.1965 -2.5922
# 3 26.9538 27.9702 111.8404 4.5292 -2.2112 -0.3337
# 4 1.0211 -9.5632 4.5292 32.9073 8.2513 1.4072
# 5 3.2349 -9.1965 -2.2112 8.2513 46.8596 5.6610
# 6 6.0956 -2.5922 -0.3337 1.4072 5.6610 55.3632
#
#
#
# Elastic Compliance Matrix: (Units=1/GPa)
#
#
# Indices 1 2 3 4 5 6 
#
# 1 0.007554 -0.002139 -0.001287 -0.000436 -0.000823 -0.000844
# 2 -0.002139 0.011237 -0.002392 0.003236 0.001610 0.000500
# 3 -0.001287 -0.002392 0.009946 -0.002142 0.000454 0.000098
# 4 -0.000436 0.003236 -0.002142 0.032952 -0.005224 -0.000117
# 5 -0.000823 0.001610 0.000454 -0.005224 0.022901 -0.002040
# 6 -0.000844 0.000500 0.000098 -0.000117 -0.002040 0.018391
#
#
# Mechanical properties :
#
#
# Convention : Reuss Voigt Hill
#
# Bulk Modulus (GPa) = 58.47836 59.99002 59.23419
# Shear Modulus (GPa) = 41.55678 45.48397 43.52038
#
# Velocity S-wave (km/s) = 4.12327 4.31370 4.21956
# Velocity P-wave (km/s) = 6.82588 7.02519 6.92625
#
# Compressibility (1/GPa) = 0.01710034
#
# Stress axis : x y z
#
# Youngs Moduli (GPa) = 132.37983 88.99258 100.54521
#
# Poissons Ratio (x) = 0.19035 0.12937
# Poissons Ratio (y) = 0.28316 0.24055
# Poissons Ratio (z) = 0.17034 0.21291
#
# Static dielectric constant tensor:
#      x y z
#    x 1.992310 0.073580 -0.131600 
#    y 0.073580 1.418280 0.568890 
#    z -0.131600 0.568890 1.449200 
# 
# From -- ./inp_files/56798.got.cif
#   From: 2010.05.17/outbox.cif.g08.bks.cpg/sg2_29_cif.got.tgz:56798.got - 2010.06.03 11:33:40.
