data_PCOD9065149
_publ_section_title
;
Structure prediction by ZEFSAII (Michael W. Deem and Ramdas Pophale) SiO2 
 PCOD9065149
Probable space group: P -1
;
_chemical_formula_sum "Si O2"
_cell_formula_units_Z 13
_cell_length_a 9.618260
_cell_length_b 9.002055
_cell_length_c 8.800266
_cell_angle_alpha 95.812601
_cell_angle_beta 75.041173
_cell_angle_gamma 132.339374
_cell_volume 541.315012
_symmetry_space_group_name_H-M "P -1"
_symmetry_group_IT_number 2
_symmetry_cell_setting 'triclinic'
loop_
_space_group_symop_operation_xyz
x,y,z
-x,-y,-z
loop_
_atom_site_type_symbol
_atom_site_label
_atom_site_fract_x
_atom_site_fract_y
_atom_site_fract_z
Si Si1 0.000000 0.500000 0.000000
Si Si2 0.565160 0.495858 0.672526
Si Si3 0.808383 0.074690 0.051947
Si Si4 0.538765 0.139374 0.639809
Si Si5 0.827403 0.768234 0.369193
Si Si6 0.857298 0.823427 0.838308
Si Si7 0.950455 0.387389 0.665470
O O1 0.023867 0.532490 0.805798
O O2 0.156488 0.741068 0.010552
O O3 0.583931 0.339530 0.593364
O O4 0.681969 0.686032 0.544247
O O5 0.335811 0.370767 0.731159
O O6 0.690450 0.600504 0.799092
O O7 0.019888 0.171802 0.065559
O O8 0.650578 0.973437 0.215930
O O9 0.759029 0.906926 0.933331
O O10 0.718332 0.210867 0.697507
O O11 0.500000 0.000000 0.500000
O O12 0.950150 0.705542 0.358166
O O13 0.974354 0.003464 0.309728
O O14 0.000000 0.500000 0.500000
#
# Coordination Sequence:
#
# PCOD9065149 Si02
#       7
#     1   2   2   2   2   2   2
#     4  12  26  50  76 110 160 206 256 324 410 466
#     4  11  25  45  78 107 150 206 262 329 386 468
#     4  11  26  47  73 114 152 207 260 329 391 475
#     4  12  27  46  76 116 159 207 262 327 401 480
#     4  11  24  47  72 116 145 204 266 317 388 468
#     4  11  24  49  78 107 154 201 270 323 387 467
#     4  12  26  48  77 112 159 209 255 332 397 468
#
# _framework density 24.015592999999999
#
# number of rings (size 3 to 8) (size 9 to 14) (size 15 to 20)
#    0.000    0.615    4.615    2.308    2.154    4.923 
#    0.000    0.000    0.000    0.000    0.000    0.000 
#    0.000    0.000    0.000    0.000    0.000    0.000 
#
# Total GULP energy -72472.728264 kJ/mol
# GULP energy per Si atom -5574.825251 kJ/mol
# Density = 2.396093 g / cm^3
# Si number density = 24.015593 Si / 1000 Ang^3
#
#
#
# Elastic Constant Matrix: (Units=GPa)
#
#
# Indices 1 2 3 4 5 6 
#
# 1 120.5215 26.4714 13.9762 15.1255 0.5685 31.5130
# 2 26.4714 101.0245 34.2783 21.9534 -2.6664 12.8998
# 3 13.9762 34.2783 99.2543 5.4614 -4.2697 9.6472
# 4 15.1255 21.9534 5.4614 46.9759 7.5630 3.1028
# 5 0.5685 -2.6664 -4.2697 7.5630 34.4567 1.9775
# 6 31.5130 12.8998 9.6472 3.1028 1.9775 36.5102
#
#
#
# Elastic Compliance Matrix: (Units=1/GPa)
#
#
# Indices 1 2 3 4 5 6 
#
# 1 0.011271 -0.001163 -0.000123 -0.002599 0.000802 -0.009107
# 2 -0.001163 0.012978 -0.003722 -0.005412 0.001879 -0.002240
# 3 -0.000123 -0.003722 0.011577 0.000359 0.001169 -0.001732
# 4 -0.002599 -0.005412 0.000359 0.025438 -0.006043 0.002226
# 5 0.000802 0.001879 0.001169 -0.006043 0.030787 -0.002819
# 6 -0.009107 -0.002240 -0.001732 0.002226 -0.002819 0.036463
#
#
# Mechanical properties :
#
#
# Convention : Reuss Voigt Hill
#
# Bulk Modulus (GPa) = 38.74429 52.25024 45.49726
# Shear Modulus (GPa) = 33.98325 39.99351 36.98838
#
# Velocity S-wave (km/s) = 3.76580 4.08525 3.92877
# Velocity P-wave (km/s) = 5.92252 6.63750 6.29018
#
# Compressibility (1/GPa) = 0.02581026
#
# Stress axis : x y z
#
# Youngs Moduli (GPa) = 88.72667 77.05385 86.38063
#
# Poissons Ratio (x) = 0.08959 0.01061
# Poissons Ratio (y) = 0.10317 0.32150
# Poissons Ratio (z) = 0.01089 0.28679
#
# Static dielectric constant tensor:
#      x y z
#    x 1.983950 -0.007700 0.080540 
#    y -0.007700 1.899230 -0.009900 
#    z 0.080540 -0.009900 2.063340 
# 
# From -- ./inp_files/159175.got.cif
#   From: 2010.05.17/outbox.cif.g08.bks.cpg/sg2_80_cif.got.tgz:159175.got - 2010.06.03 11:33:40.
