data_PCOD9065277
_publ_section_title
;
Structure prediction by ZEFSAII (Michael W. Deem and Ramdas Pophale) SiO2 
 PCOD9065277
Probable space group: P -1
;
_chemical_formula_sum "Si O2"
_cell_formula_units_Z 10
_cell_length_a 12.717775
_cell_length_b 8.754446
_cell_length_c 17.751128
_cell_angle_alpha 32.720737
_cell_angle_beta 20.776646
_cell_angle_gamma 34.558340
_cell_volume 371.856826
_symmetry_space_group_name_H-M "P -1"
_symmetry_group_IT_number 2
_symmetry_cell_setting 'triclinic'
loop_
_space_group_symop_operation_xyz
x,y,z
-x,-y,-z
loop_
_atom_site_type_symbol
_atom_site_label
_atom_site_fract_x
_atom_site_fract_y
_atom_site_fract_z
Si Si1 0.836802 0.062691 0.162421
Si Si2 0.354035 0.807543 0.040627
Si Si3 0.410249 0.387160 0.815793
Si Si4 0.878211 0.728448 0.599204
Si Si5 0.646774 0.275143 0.431127
O O1 0.726271 0.396584 0.116840
O O2 0.559031 0.901718 0.406746
O O3 0.000000 0.000000 0.000000
O O4 0.079538 0.922667 0.119469
O O5 0.666145 0.767419 0.800297
O O6 0.358594 0.062416 0.989795
O O7 0.268670 0.510186 0.248189
O O8 0.269460 0.522623 0.774684
O O9 0.771177 0.370399 0.576672
O O10 0.840585 0.021490 0.455817
O O11 0.500000 0.500000 0.500000
#
# Coordination Sequence:
#
# PCOD9065277 Si02
#       5
#     2   2   2   2   2
#     4  12  25  50  73 109 153 202 253 311 371 446
#     4  11  24  47  77 109 156 194 246 313 375 447
#     4  12  26  49  78 109 152 202 250 307 377 449
#     4  11  25  46  76 113 155 190 254 306 378 447
#     4  12  25  46  78 111 148 197 247 308 381 446
#
# _framework density 26.892071999999999
#
# number of rings (size 3 to 8) (size 9 to 14) (size 15 to 20)
#    0.000    0.400    6.000    1.800    0.000    0.800 
#    3.600    1.000    0.000    0.000    0.000    0.000 
#    0.000    0.000    0.000    0.000    0.000    0.000 
#
# Total GULP energy -56113.290059 kJ/mol
# GULP energy per Si atom -5611.329006 kJ/mol
# Density = 2.683086 g / cm^3
# Si number density = 26.892072 Si / 1000 Ang^3
#
#
#
# Elastic Constant Matrix: (Units=GPa)
#
#
# Indices 1 2 3 4 5 6 
#
# 1 127.1956 68.5107 34.9342 -0.2824 0.6473 6.9967
# 2 68.5107 234.8393 74.0829 -18.7687 5.4201 29.5258
# 3 34.9342 74.0829 139.2143 -3.7930 4.0933 12.7856
# 4 -0.2824 -18.7687 -3.7930 50.6005 1.0463 -9.1456
# 5 0.6473 5.4201 4.0933 1.0463 38.0208 -7.0667
# 6 6.9967 29.5258 12.7856 -9.1456 -7.0667 59.0879
#
#
#
# Elastic Compliance Matrix: (Units=1/GPa)
#
#
# Indices 1 2 3 4 5 6 
#
# 1 0.009516 -0.002551 -0.001094 -0.000931 0.000399 0.000288
# 2 -0.002551 0.006182 -0.002377 0.001738 -0.001025 -0.002126
# 3 -0.001094 -0.002377 0.008801 -0.000344 -0.000715 -0.000726
# 4 -0.000931 0.001738 -0.000344 0.020835 -0.000302 0.002505
# 5 0.000399 -0.001025 -0.000715 -0.000302 0.027238 0.003831
# 6 0.000288 -0.002126 -0.000726 0.002505 0.003831 0.018955
#
#
# Mechanical properties :
#
#
# Convention : Reuss Voigt Hill
#
# Bulk Modulus (GPa) = 80.28553 95.14497 87.71525
# Shear Modulus (GPa) = 46.41491 51.12326 48.76908
#
# Velocity S-wave (km/s) = 4.15899 4.36484 4.26315
# Velocity P-wave (km/s) = 7.27890 7.80125 7.54460
#
# Compressibility (1/GPa) = 0.01245555
#
# Stress axis : x y z
#
# Youngs Moduli (GPa) = 105.08083 161.75617 113.62448
#
# Poissons Ratio (x) = 0.41264 0.12432
# Poissons Ratio (y) = 0.26806 0.27008
# Poissons Ratio (z) = 0.11497 0.38448
#
# Static dielectric constant tensor:
#      x y z
#    x 2.042740 -0.015280 0.011080 
#    y -0.015280 2.107750 0.104790 
#    z 0.011080 0.104790 2.036450 
# 
# From -- ./inp_files/144238.got.cif
#   From: 2010.05.17/outbox.cif.g08.bks.cpg/sg2_73_cif.got.tgz:144238.got - 2010.06.03 11:33:40.
