data_PCOD9065254
_publ_section_title
;
Structure prediction by ZEFSAII (Michael W. Deem and Ramdas Pophale) SiO2 
 PCOD9065254
Probable space group: P -1
;
_chemical_formula_sum "Si O2"
_cell_formula_units_Z 14
_cell_length_a 15.205272
_cell_length_b 4.830405
_cell_length_c 11.637245
_cell_angle_alpha 107.063022
_cell_angle_beta 138.219561
_cell_angle_gamma 95.103754
_cell_volume 476.648039
_symmetry_space_group_name_H-M "P -1"
_symmetry_group_IT_number 2
_symmetry_cell_setting 'triclinic'
loop_
_space_group_symop_operation_xyz
x,y,z
-x,-y,-z
loop_
_atom_site_type_symbol
_atom_site_label
_atom_site_fract_x
_atom_site_fract_y
_atom_site_fract_z
Si Si1 0.138643 0.689746 0.275366
Si Si2 0.132728 0.121219 0.737143
Si Si3 0.577457 0.831842 0.528215
Si Si4 0.321620 0.017064 0.718307
Si Si5 0.054255 0.983002 0.891942
Si Si6 0.313546 0.860237 0.109144
Si Si7 0.531255 0.401428 0.217666
O O1 0.993794 0.736621 0.113045
O O2 0.269496 0.827880 0.326969
O O3 0.200454 0.876408 0.480838
O O4 0.074990 0.311687 0.200076
O O5 0.256830 0.093756 0.777136
O O6 0.058989 0.896964 0.750780
O O7 0.214390 0.488478 0.920455
O O8 0.000000 0.000000 0.500000
O O9 0.500000 0.500000 0.500000
O O10 0.605653 0.618574 0.428120
O O11 0.564503 0.107078 0.667151
O O12 0.462156 0.329855 0.833446
O O13 0.369597 0.743273 0.759433
O O14 0.214066 0.013183 0.087503
O O15 0.392831 0.095211 0.107638
#
# Coordination Sequence:
#
# PCOD9065254 Si02
#       7
#     2   2   2   2   2   2   2
#     4  11  24  47  76 110 152 199 262 314 384 457
#     4  12  28  51  79 113 162 209 260 320 388 465
#     4  11  27  53  85 115 156 207 256 326 393 465
#     4  11  25  47  79 111 153 205 262 316 387 458
#     4  12  26  48  73 114 152 204 258 315 383 452
#     4  12  28  48  79 118 160 205 263 319 390 465
#     4  11  27  49  78 114 151 205 259 322 388 457
#
# _framework density 29.371777999999999
#
# number of rings (size 3 to 8) (size 9 to 14) (size 15 to 20)
#    0.000    0.571    2.857    3.857    6.000    4.571 
#    0.000    0.000    0.000    0.000    0.000    0.000 
#    0.000    0.000    0.000    0.000    0.000    0.000 
#
# Total GULP energy -78333.425113 kJ/mol
# GULP energy per Si atom -5595.244651 kJ/mol
# Density = 2.930493 g / cm^3
# Si number density = 29.371778 Si / 1000 Ang^3
#
#
#
# Elastic Constant Matrix: (Units=GPa)
#
#
# Indices 1 2 3 4 5 6 
#
# 1 157.9057 41.6897 27.3777 13.4596 7.5790 -2.7582
# 2 41.6897 171.4562 38.9441 14.7117 13.8573 -2.4834
# 3 27.3777 38.9441 182.8211 5.3483 -7.9737 19.1105
# 4 13.4596 14.7117 5.3483 49.7124 5.1278 -6.7083
# 5 7.5790 13.8573 -7.9737 5.1278 63.2814 -12.6199
# 6 -2.7582 -2.4834 19.1105 -6.7083 -12.6199 71.6273
#
#
#
# Elastic Compliance Matrix: (Units=1/GPa)
#
#
# Indices 1 2 3 4 5 6 
#
# 1 0.006964 -0.001366 -0.000757 -0.001321 -0.000480 0.000214
# 2 -0.001366 0.006670 -0.001252 -0.001312 -0.001317 0.000158
# 3 -0.000757 -0.001252 0.006062 -0.000377 0.000845 -0.001576
# 4 -0.001321 -0.001312 -0.000377 0.021248 -0.000960 0.001825
# 5 -0.000480 -0.001317 0.000845 -0.000960 0.016849 0.002589
# 6 0.000214 0.000158 -0.001576 0.001825 0.002589 0.015023
#
#
# Mechanical properties :
#
#
# Convention : Reuss Voigt Hill
#
# Bulk Modulus (GPa) = 77.23370 80.91177 79.07274
# Shear Modulus (GPa) = 59.60822 63.86901 61.73862
#
# Velocity S-wave (km/s) = 4.50982 4.66822 4.58970
# Velocity P-wave (km/s) = 7.31233 7.52752 7.42071
#
# Compressibility (1/GPa) = 0.01294772
#
# Stress axis : x y z
#
# Youngs Moduli (GPa) = 143.59158 149.91961 164.95001
#
# Poissons Ratio (x) = 0.20482 0.12480
# Poissons Ratio (y) = 0.19617 0.20649
# Poissons Ratio (z) = 0.10864 0.18767
#
# Static dielectric constant tensor:
#      x y z
#    x 2.216200 -0.104650 0.054100 
#    y -0.104650 2.286530 -0.093950 
#    z 0.054100 -0.093950 2.622250 
# 
# From -- ./inp_files/77690.got.cif
#   From: 2010.05.17/outbox.cif.g08.bks.cpg/sg2_39_cif.got.tgz:77690.got - 2010.06.03 11:33:40.
