data_PCOD9065961
_publ_section_title
;
Structure prediction by ZEFSAII (Michael W. Deem and Ramdas Pophale) SiO2 
 PCOD9065961
Probable space group: P -1
;
_chemical_formula_sum "Si O2"
_cell_formula_units_Z 16
_cell_length_a 11.764747
_cell_length_b 16.887802
_cell_length_c 13.740279
_cell_angle_alpha 33.508566
_cell_angle_beta 149.125047
_cell_angle_gamma 128.747054
_cell_volume 733.540740
_symmetry_space_group_name_H-M "P -1"
_symmetry_group_IT_number 2
_symmetry_cell_setting 'triclinic'
loop_
_space_group_symop_operation_xyz
x,y,z
-x,-y,-z
loop_
_atom_site_type_symbol
_atom_site_label
_atom_site_fract_x
_atom_site_fract_y
_atom_site_fract_z
Si Si1 0.334775 0.222822 0.408335
Si Si2 0.994558 0.300984 0.440841
Si Si3 0.200117 0.471701 0.756266
Si Si4 0.572652 0.599400 0.368768
Si Si5 0.443622 0.525636 0.145640
Si Si6 0.162503 0.947098 0.957651
Si Si7 0.717184 0.864797 0.758207
Si Si8 0.103689 0.852284 0.790563
O O1 0.340074 0.389926 0.221931
O O2 0.326681 0.144488 0.379360
O O3 0.092991 0.230412 0.273917
O O4 0.574555 0.132650 0.730820
O O5 0.194866 0.359108 0.481339
O O6 0.099137 0.127998 0.727537
O O7 0.892494 0.410175 0.345723
O O8 0.776196 0.323864 0.184850
O O9 0.409283 0.497303 0.821580
O O10 0.000000 0.500000 0.500000
O O11 0.266429 0.298469 0.018441
O O12 0.500000 0.500000 0.500000
O O13 0.594268 0.525587 0.352933
O O14 0.354909 0.750103 0.045463
O O15 0.141348 0.895928 0.884170
O O16 0.963574 0.897700 0.919838
O O17 0.500000 0.000000 0.500000
O O18 0.000000 0.000000 0.500000
#
# Coordination Sequence:
#
# PCOD9065961 Si02
#       8
#     2   2   2   2   2   2   2   2
#     4  11  25  44  69  99 140 180 230 284 348 409
#     4  12  26  45  71 107 137 183 233 281 348 416
#     4  12  25  46  74  99 147 182 226 288 347 412
#     4  12  27  44  72 102 138 180 237 287 342 408
#     4  12  25  45  71 102 140 183 227 285 350 411
#     4  11  26  44  71 101 140 180 234 282 349 410
#     4  11  26  45  67 103 140 182 228 281 340 413
#     4  11  25  46  68  98 140 183 231 293 340 405
#
# _framework density 21.812011999999999
#
# number of rings (size 3 to 8) (size 9 to 14) (size 15 to 20)
#    0.000    0.500    2.500    4.875    5.250    8.500 
#    0.000    0.000    0.000    0.000    0.000    0.000 
#    0.000    0.000    0.000    0.000    0.000    0.000 
#
# Total GULP energy -89564.205921 kJ/mol
# GULP energy per Si atom -5597.762870 kJ/mol
# Density = 2.176237 g / cm^3
# Si number density = 21.812012 Si / 1000 Ang^3
#
#
#
# Elastic Constant Matrix: (Units=GPa)
#
#
# Indices 1 2 3 4 5 6 
#
# 1 85.1720 23.2882 15.2605 -0.8974 -0.0716 16.8930
# 2 23.2882 72.1119 16.7186 2.3678 -1.3763 16.4302
# 3 15.2605 16.7186 108.1481 9.7576 -4.7788 2.4675
# 4 -0.8974 2.3678 9.7576 46.0348 -1.5709 -1.5644
# 5 -0.0716 -1.3763 -4.7788 -1.5709 37.3625 1.6390
# 6 16.8930 16.4302 2.4675 -1.5644 1.6390 42.7435
#
#
#
# Elastic Compliance Matrix: (Units=1/GPa)
#
#
# Indices 1 2 3 4 5 6 
#
# 1 0.013677 -0.003184 -0.001401 0.000586 -0.000067 -0.004077
# 2 -0.003184 0.016514 -0.001905 -0.000660 0.000551 -0.005025
# 3 -0.001401 -0.001905 0.009952 -0.001981 0.001091 0.000597
# 4 0.000586 -0.000660 -0.001981 0.022241 0.000618 0.000926
# 5 -0.000067 0.000551 0.001091 0.000618 0.027006 -0.001261
# 6 -0.004077 -0.005025 0.000597 0.000926 -0.001261 0.026986
#
#
# Mechanical properties :
#
#
# Convention : Reuss Voigt Hill
#
# Bulk Modulus (GPa) = 36.81317 41.77406 39.29362
# Shear Modulus (GPa) = 36.12460 39.23916 37.68188
#
# Velocity S-wave (km/s) = 4.07403 4.24603 4.16092
# Velocity P-wave (km/s) = 6.24856 6.57509 6.41390
#
# Compressibility (1/GPa) = 0.02716419
#
# Stress axis : x y z
#
# Youngs Moduli (GPa) = 73.11460 60.55349 100.48176
#
# Poissons Ratio (x) = 0.19280 0.14073
# Poissons Ratio (y) = 0.23279 0.19143
# Poissons Ratio (z) = 0.10240 0.11536
#
# Static dielectric constant tensor:
#      x y z
#    x 1.821970 -0.035510 0.006810 
#    y -0.035510 1.872570 0.030550 
#    z 0.006810 0.030550 1.766040 
# 
# From -- ./inp_files/447430.got.cif
#   From: 2010.05.17/outbox.cif.g08.bks.cpg/sg2_224_cif.got.tgz:447430.got - 2010.06.03 11:33:40.
