data_PCOD9065163
_publ_section_title
;
Structure prediction by ZEFSAII (Michael W. Deem and Ramdas Pophale) SiO2 
 PCOD9065163
Probable space group: P -1
;
_chemical_formula_sum "Si O2"
_cell_formula_units_Z 14
_cell_length_a 7.320548
_cell_length_b 9.104431
_cell_length_c 11.491887
_cell_angle_alpha 115.526029
_cell_angle_beta 54.001497
_cell_angle_gamma 92.101040
_cell_volume 533.993691
_symmetry_space_group_name_H-M "P -1"
_symmetry_group_IT_number 2
_symmetry_cell_setting 'triclinic'
loop_
_space_group_symop_operation_xyz
x,y,z
-x,-y,-z
loop_
_atom_site_type_symbol
_atom_site_label
_atom_site_fract_x
_atom_site_fract_y
_atom_site_fract_z
Si Si1 0.705659 0.395584 0.628347
Si Si2 0.013508 0.437406 0.839771
Si Si3 0.360914 0.960289 0.806619
Si Si4 0.577522 0.707856 0.106284
Si Si5 0.886159 0.843986 0.467170
Si Si6 0.112673 0.699326 0.722255
Si Si7 0.436684 0.224864 0.107338
O O1 0.551452 0.303499 0.730664
O O2 0.731781 0.360767 0.471291
O O3 0.587761 0.593499 0.762483
O O4 0.965617 0.313310 0.560098
O O5 0.090599 0.244023 0.699479
O O6 0.146161 0.545453 0.749384
O O7 0.738037 0.524688 0.940825
O O8 0.000000 0.500000 0.000000
O O9 0.613238 0.901355 0.625465
O O10 0.188180 0.856357 0.797071
O O11 0.427387 0.914499 0.900217
O O12 0.267908 0.161993 0.888279
O O13 0.435553 0.786124 0.069718
O O14 0.000000 0.000000 0.500000
O O15 0.839233 0.758561 0.804638
#
# Coordination Sequence:
#
# PCOD9065163 Si02
#       7
#     2   2   2   2   2   2   2
#     4  12  23  46  76 103 148 198 248 318 369 460
#     4  11  28  50  73 112 158 202 249 321 387 450
#     4  12  27  45  78 113 148 203 251 310 375 457
#     4  11  26  46  74 111 148 197 251 308 387 442
#     4  12  25  47  77 112 152 201 259 307 381 454
#     4  11  26  46  74 108 152 195 254 306 380 453
#     4  11  24  47  73 105 150 195 248 312 377 445
#
# _framework density 26.21754
#
# number of rings (size 3 to 8) (size 9 to 14) (size 15 to 20)
#    0.000    0.571    5.714    2.143    4.000    5.143 
#    2.571    0.000    0.000    0.000    0.000    0.000 
#    0.000    0.000    0.000    0.000    0.000    0.000 
#
# Total GULP energy -78427.551304 kJ/mol
# GULP energy per Si atom -5601.967950 kJ/mol
# Density = 2.615787 g / cm^3
# Si number density = 26.217540 Si / 1000 Ang^3
#
#
#
# Elastic Constant Matrix: (Units=GPa)
#
#
# Indices 1 2 3 4 5 6 
#
# 1 73.2306 40.6352 32.1408 -12.1492 19.6325 19.0352
# 2 40.6352 171.9457 79.8172 -4.7442 13.4626 22.7913
# 3 32.1408 79.8172 190.6476 -21.8795 44.0477 5.6147
# 4 -12.1492 -4.7442 -21.8795 51.1505 -3.0538 -3.0802
# 5 19.6325 13.4626 44.0477 -3.0538 47.3175 1.0201
# 6 19.0352 22.7913 5.6147 -3.0802 1.0201 49.7297
#
#
#
# Elastic Compliance Matrix: (Units=1/GPa)
#
#
# Indices 1 2 3 4 5 6 
#
# 1 0.019278 -0.003337 0.000353 0.003669 -0.007022 -0.005518
# 2 -0.003337 0.008342 -0.003567 -0.001546 0.002281 -0.002286
# 3 0.000353 -0.003567 0.008618 0.003075 -0.006974 0.000860
# 4 0.003669 -0.001546 0.003075 0.021461 -0.002567 0.000339
# 5 -0.007022 0.002281 -0.006974 -0.002567 0.029689 0.001662
# 6 -0.005518 -0.002286 0.000860 0.000339 0.001662 0.023158
#
#
# Mechanical properties :
#
#
# Convention : Reuss Voigt Hill
#
# Bulk Modulus (GPa) = 43.22367 82.33449 62.77908
# Shear Modulus (GPa) = 38.06329 48.52159 43.29244
#
# Velocity S-wave (km/s) = 3.81442 4.30668 4.06800
# Velocity P-wave (km/s) = 5.99350 7.49683 6.78692
#
# Compressibility (1/GPa) = 0.02313547
#
# Stress axis : x y z
#
# Youngs Moduli (GPa) = 51.87272 119.87537 116.03568
#
# Poissons Ratio (x) = 0.40007 -0.04098
# Poissons Ratio (y) = 0.17312 0.41391
# Poissons Ratio (z) = -0.01832 0.42760
#
# Static dielectric constant tensor:
#      x y z
#    x 2.171810 0.009680 0.007740 
#    y 0.009680 2.093660 0.012400 
#    z 0.007740 0.012400 2.081850 
# 
# From -- ./inp_files/383095.got.cif
#   From: 2010.05.17/outbox.cif.g08.bks.cpg/sg2_192_cif.got.tgz:383095.got - 2010.06.03 11:33:40.
