data_PCOD9065554
_publ_section_title
;
Structure prediction by ZEFSAII (Michael W. Deem and Ramdas Pophale) SiO2 
 PCOD9065554
Probable space group: P -1
;
_chemical_formula_sum "Si O2"
_cell_formula_units_Z 13
_cell_length_a 9.682133
_cell_length_b 6.735859
_cell_length_c 10.968422
_cell_angle_alpha 69.417758
_cell_angle_beta 52.932932
_cell_angle_gamma 78.329040
_cell_volume 534.307631
_symmetry_space_group_name_H-M "P -1"
_symmetry_group_IT_number 2
_symmetry_cell_setting 'triclinic'
loop_
_space_group_symop_operation_xyz
x,y,z
-x,-y,-z
loop_
_atom_site_type_symbol
_atom_site_label
_atom_site_fract_x
_atom_site_fract_y
_atom_site_fract_z
Si Si1 0.500000 0.000000 0.000000
Si Si2 0.885031 0.867010 0.216738
Si Si3 0.656336 0.449972 0.752052
Si Si4 0.619339 0.880356 0.559963
Si Si5 0.144695 0.823806 0.487943
Si Si6 0.104736 0.464004 0.170088
Si Si7 0.812656 0.827859 0.007591
O O1 0.302737 0.019908 0.046290
O O2 0.466777 0.745953 0.104817
O O3 0.790740 0.833271 0.400791
O O4 0.030950 0.695135 0.159093
O O5 0.756902 0.839339 0.175667
O O6 0.989565 0.085679 0.113265
O O7 0.565227 0.651865 0.692323
O O8 0.799749 0.339928 0.611512
O O9 0.751856 0.548487 0.797859
O O10 0.500000 0.000000 0.500000
O O11 0.682058 0.043954 0.595848
O O12 0.056524 0.686254 0.671195
O O13 0.000000 0.000000 0.500000
O O14 0.175814 0.395225 0.017154
#
# Coordination Sequence:
#
# PCOD9065554 Si02
#       7
#     1   2   2   2   2   2   2
#     4  12  28  50  70 108 152 192 248 310 366 438
#     4  11  24  49  71 107 147 193 245 302 359 451
#     4  12  27  46  74 109 151 190 249 312 368 439
#     4  12  28  47  77 112 149 194 245 309 376 435
#     4  12  23  43  77 108 142 186 249 303 373 443
#     4  12  22  45  78 107 138 197 245 305 367 437
#     4  11  26  45  73 104 150 194 243 294 370 441
#
# _framework density 24.330552000000001
#
# number of rings (size 3 to 8) (size 9 to 14) (size 15 to 20)
#    0.000    0.308    6.154    2.769    2.154    2.462 
#    5.538    0.000    0.000    0.000    0.000    0.000 
#    0.000    0.000    0.000    0.000    0.000    0.000 
#
# Total GULP energy -72489.022999 kJ/mol
# GULP energy per Si atom -5576.078692 kJ/mol
# Density = 2.427517 g / cm^3
# Si number density = 24.330552 Si / 1000 Ang^3
#
#
#
# Elastic Constant Matrix: (Units=GPa)
#
#
# Indices 1 2 3 4 5 6 
#
# 1 103.4728 52.2813 3.7487 -2.7517 8.7089 -9.0743
# 2 52.2813 108.4599 27.7966 -12.8375 12.7998 10.0879
# 3 3.7487 27.7966 48.0123 -20.3258 -1.1196 16.5816
# 4 -2.7517 -12.8375 -20.3258 57.8192 6.3674 11.5550
# 5 8.7089 12.7998 -1.1196 6.3674 29.2265 -0.8032
# 6 -9.0743 10.0879 16.5816 11.5550 -0.8032 40.2261
#
#
#
# Elastic Compliance Matrix: (Units=1/GPa)
#
#
# Indices 1 2 3 4 5 6 
#
# 1 0.013883 -0.007540 0.000715 -0.001777 -0.000276 0.005233
# 2 -0.007540 0.015763 -0.006416 0.002242 -0.005494 -0.003763
# 3 0.000715 -0.006416 0.037107 0.015206 0.000214 -0.017889
# 4 -0.001777 0.002242 0.015206 0.026730 -0.006107 -0.015031
# 5 -0.000276 -0.005494 0.000214 -0.006107 0.038146 0.003743
# 6 0.005233 -0.003763 -0.017889 -0.015031 0.003743 0.038750
#
#
# Mechanical properties :
#
#
# Convention : Reuss Voigt Hill
#
# Bulk Modulus (GPa) = 24.83180 47.51091 36.17136
# Shear Modulus (GPa) = 23.77728 37.19559 30.48643
#
# Velocity S-wave (km/s) = 3.12951 3.91418 3.54363
# Velocity P-wave (km/s) = 4.82562 6.32435 5.62512
#
# Compressibility (1/GPa) = 0.04027094
#
# Stress axis : x y z
#
# Youngs Moduli (GPa) = 72.03072 63.44122 26.94881
#
# Poissons Ratio (x) = 0.47833 -0.01927
# Poissons Ratio (y) = 0.54310 0.17291
# Poissons Ratio (z) = -0.05151 0.40706
#
# Static dielectric constant tensor:
#      x y z
#    x 2.005340 0.023650 0.012380 
#    y 0.023650 1.936170 0.011060 
#    z 0.012380 0.011060 1.965400 
# 
# From -- ./inp_files/25096.got.cif
#   From: 2010.05.17/outbox.cif.g08.bks.cpg/sg2_13_cif.got.tgz:25096.got - 2010.06.03 11:33:40.
