data_PCOD9065357
_publ_section_title
;
Structure prediction by ZEFSAII (Michael W. Deem and Ramdas Pophale) SiO2 
 PCOD9065357
Probable space group: P -1
;
_chemical_formula_sum "Si O2"
_cell_formula_units_Z 16
_cell_length_a 11.677960
_cell_length_b 8.822423
_cell_length_c 7.755400
_cell_angle_alpha 103.132081
_cell_angle_beta 56.509122
_cell_angle_gamma 95.905244
_cell_volume 648.688946
_symmetry_space_group_name_H-M "P -1"
_symmetry_group_IT_number 2
_symmetry_cell_setting 'triclinic'
loop_
_space_group_symop_operation_xyz
x,y,z
-x,-y,-z
loop_
_atom_site_type_symbol
_atom_site_label
_atom_site_fract_x
_atom_site_fract_y
_atom_site_fract_z
Si Si1 0.629068 0.444559 0.995705
Si Si2 0.783243 0.742645 0.368285
Si Si3 0.510217 0.821852 0.495014
Si Si4 0.149743 0.065548 0.363082
Si Si5 0.026556 0.811469 0.953430
Si Si6 0.389196 0.887731 0.986063
Si Si7 0.105124 0.377265 0.299305
Si Si8 0.300502 0.600333 0.672249
O O1 0.639635 0.258801 0.907657
O O2 0.760859 0.536727 0.850465
O O3 0.500000 0.500000 0.000000
O O4 0.639371 0.445172 0.198834
O O5 0.667260 0.770238 0.325087
O O6 0.764831 0.910091 0.527341
O O7 0.750091 0.564393 0.404164
O O8 0.936687 0.752732 0.173094
O O9 0.409786 0.686637 0.481961
O O10 0.500000 0.000000 0.500000
O O11 0.460215 0.829164 0.737258
O O12 0.138909 0.247434 0.378866
O O13 0.242284 0.978572 0.121980
O O14 0.000000 0.000000 0.500000
O O15 0.177657 0.731078 0.827489
O O16 0.963565 0.723126 0.819482
O O17 0.000000 0.000000 0.000000
O O18 0.500000 0.000000 0.000000
O O19 0.000000 0.500000 0.500000
#
# Coordination Sequence:
#
# PCOD9065357 Si02
#       8
#     2   2   2   2   2   2   2   2
#     4  11  26  47  76 108 146 200 247 306 376 450
#     4  12  25  47  73 106 151 198 250 311 375 453
#     4  11  26  45  74 108 146 195 251 310 379 452
#     4  12  27  45  75 108 150 196 250 309 381 447
#     4  12  27  48  79 112 150 199 256 316 383 455
#     4  11  24  48  71 102 150 193 242 311 374 442
#     4  12  27  48  75 114 152 197 254 314 383 459
#     4  11  26  49  77 107 152 196 250 313 376 446
#
# _framework density 24.665136
#
# number of rings (size 3 to 8) (size 9 to 14) (size 15 to 20)
#    0.000    0.500    2.500    4.500   12.250    1.000 
#    6.750    0.000    0.000    0.000    0.000    0.000 
#    0.000    0.000    0.000    0.000    0.000    0.000 
#
# Total GULP energy -89316.711265 kJ/mol
# GULP energy per Si atom -5582.294454 kJ/mol
# Density = 2.460900 g / cm^3
# Si number density = 24.665136 Si / 1000 Ang^3
#
#
#
# Elastic Constant Matrix: (Units=GPa)
#
#
# Indices 1 2 3 4 5 6 
#
# 1 106.5834 53.1913 28.4693 7.1539 -20.4081 25.9484
# 2 53.1913 207.8743 19.8854 1.1215 -19.3793 33.7185
# 3 28.4693 19.8854 61.5926 5.5946 -14.0500 16.9763
# 4 7.1539 1.1215 5.5946 50.5943 6.2239 -11.9601
# 5 -20.4081 -19.3793 -14.0500 6.2239 47.1869 15.9271
# 6 25.9484 33.7185 16.9763 -11.9601 15.9271 41.2559
#
#
#
# Elastic Compliance Matrix: (Units=1/GPa)
#
#
# Indices 1 2 3 4 5 6 
#
# 1 0.018161 0.000599 0.002944 -0.010644 0.018227 -0.023245
# 2 0.000599 0.007243 0.003336 -0.004693 0.009076 -0.012533
# 3 0.002944 0.003336 0.027898 -0.013036 0.022267 -0.028433
# 4 -0.010644 -0.004693 -0.013036 0.034817 -0.027339 0.036542
# 5 0.018227 0.009076 0.022267 -0.027339 0.063448 -0.060464
# 6 -0.023245 -0.012533 -0.028433 0.036542 -0.060464 0.094739
#
#
# Mechanical properties :
#
#
# Convention : Reuss Voigt Hill
#
# Bulk Modulus (GPa) = 14.91223 64.34914 39.63069
# Shear Modulus (GPa) = 19.61544 46.10770 32.86157
#
# Velocity S-wave (km/s) = 2.82311 4.32829 3.65404
# Velocity P-wave (km/s) = 4.08480 7.15014 5.82280
#
# Compressibility (1/GPa) = 0.06705903
#
# Stress axis : x y z
#
# Youngs Moduli (GPa) = 55.06329 138.06922 35.84476
#
# Poissons Ratio (x) = -0.08264 -0.10553
# Poissons Ratio (y) = -0.03296 -0.11958
# Poissons Ratio (z) = -0.16210 -0.46062
#
# Static dielectric constant tensor:
#      x y z
#    x 2.514030 -0.056260 0.397020 
#    y -0.056260 1.968670 -0.009700 
#    z 0.397020 -0.009700 2.255390 
# 
# From -- ./inp_files/244355.got.cif
#   From: 2010.05.17/outbox.cif.g08.bks.cpg/sg2_123_cif.got.tgz:244355.got - 2010.06.03 11:33:40.
