data_PCOD9065629
_publ_section_title
;
Structure prediction by ZEFSAII (Michael W. Deem and Ramdas Pophale) SiO2 
 PCOD9065629
Probable space group: P -1
;
_chemical_formula_sum "Si O2"
_cell_formula_units_Z 16
_cell_length_a 8.887461
_cell_length_b 18.430474
_cell_length_c 5.299706
_cell_angle_alpha 98.422186
_cell_angle_beta 113.915009
_cell_angle_gamma 60.809164
_cell_volume 691.352347
_symmetry_space_group_name_H-M "P -1"
_symmetry_group_IT_number 2
_symmetry_cell_setting 'triclinic'
loop_
_space_group_symop_operation_xyz
x,y,z
-x,-y,-z
loop_
_atom_site_type_symbol
_atom_site_label
_atom_site_fract_x
_atom_site_fract_y
_atom_site_fract_z
Si Si1 0.903590 0.490933 0.185321
Si Si2 0.507280 0.645916 0.090643
Si Si3 0.914371 0.980851 0.679129
Si Si4 0.133398 0.170946 0.328080
Si Si5 0.996077 0.322798 0.990651
Si Si6 0.509795 0.069157 0.221093
Si Si7 0.628434 0.398791 0.512822
Si Si8 0.648930 0.770189 0.110296
O O1 0.694041 0.562031 0.101297
O O2 0.000000 0.500000 0.500000
O O3 0.928666 0.399054 0.171841
O O4 0.000000 0.500000 0.000000
O O5 0.437918 0.635257 0.310141
O O6 0.551970 0.722778 0.156005
O O7 0.382320 0.645089 0.772957
O O8 0.689814 0.033948 0.506858
O O9 0.954817 0.885122 0.659930
O O10 0.000000 0.000000 0.500000
O O11 0.000000 0.000000 0.000000
O O12 0.318985 0.109257 0.269090
O O13 0.214242 0.209254 0.612692
O O14 0.001144 0.242701 0.083024
O O15 0.847196 0.365952 0.691175
O O16 0.208251 0.292369 0.032565
O O17 0.497069 0.144165 0.075919
O O18 0.500000 0.000000 0.000000
O O19 0.500000 0.500000 0.500000
#
# Coordination Sequence:
#
# PCOD9065629 Si02
#       8
#     2   2   2   2   2   2   2   2
#     4  12  24  42  74 105 142 186 251 307 350 428
#     4  12  27  46  73 109 142 194 253 303 367 438
#     4  12  28  47  77 114 150 192 244 304 378 449
#     4  11  26  48  77 106 151 197 250 307 370 444
#     4  11  27  45  72 106 149 199 241 306 376 437
#     4  11  24  49  79 109 149 203 250 304 375 454
#     4  12  28  48  70 104 154 199 241 305 381 438
#     4  11  26  46  78 108 146 193 258 308 360 439
#
# _framework density 23.143046999999999
#
# number of rings (size 3 to 8) (size 9 to 14) (size 15 to 20)
#    0.000    0.500    3.750    3.000    8.750    2.000 
#    0.000    0.000    0.000    0.000    0.000    0.000 
#    0.000    0.000    0.000    0.000    0.000    0.000 
#
# Total GULP energy -89580.800448 kJ/mol
# GULP energy per Si atom -5598.800028 kJ/mol
# Density = 2.309037 g / cm^3
# Si number density = 23.143047 Si / 1000 Ang^3
#
#
#
# Elastic Constant Matrix: (Units=GPa)
#
#
# Indices 1 2 3 4 5 6 
#
# 1 91.8499 40.9647 29.3727 -7.9357 -22.9534 30.3896
# 2 40.9647 129.5715 46.5312 -14.2269 5.5891 26.1457
# 3 29.3727 46.5312 154.3938 2.2402 11.6097 14.4116
# 4 -7.9357 -14.2269 2.2402 40.2300 2.7463 3.5251
# 5 -22.9534 5.5891 11.6097 2.7463 43.0939 -8.2482
# 6 30.3896 26.1457 14.4116 3.5251 -8.2482 50.6678
#
#
#
# Elastic Compliance Matrix: (Units=1/GPa)
#
#
# Indices 1 2 3 4 5 6 
#
# 1 0.018096 -0.003568 -0.002448 0.002422 0.009272 -0.006975
# 2 -0.003568 0.010929 -0.002035 0.003863 -0.003743 -0.003799
# 3 -0.002448 -0.002035 0.007818 -0.001418 -0.003077 -0.000107
# 4 0.002422 0.003863 -0.001418 0.027342 -0.001566 -0.005200
# 5 0.009272 -0.003743 -0.003077 -0.001566 0.029986 0.002236
# 6 -0.006975 -0.003799 -0.000107 -0.005200 0.002236 0.026636
#
#
# Mechanical properties :
#
#
# Convention : Reuss Voigt Hill
#
# Bulk Modulus (GPa) = 48.21805 67.72805 57.97305
# Shear Modulus (GPa) = 34.76497 44.06144 39.41321
#
# Velocity S-wave (km/s) = 3.88000 4.36807 4.13125
# Velocity P-wave (km/s) = 6.39942 7.40058 6.91813
#
# Compressibility (1/GPa) = 0.02073912
#
# Stress axis : x y z
#
# Youngs Moduli (GPa) = 55.26158 91.50228 127.91063
#
# Poissons Ratio (x) = 0.32651 0.31319
# Poissons Ratio (y) = 0.19719 0.26028
# Poissons Ratio (z) = 0.13531 0.18619
#
# Static dielectric constant tensor:
#      x y z
#    x 1.971570 0.007470 0.142730 
#    y 0.007470 1.872350 0.001130 
#    z 0.142730 0.001130 2.169450 
# 
# From -- ./inp_files/48410.got.cif
#   From: 2010.05.17/outbox.cif.g08.bks.cpg/sg2_25_cif.got.tgz:48410.got - 2010.06.03 11:33:40.
