data_PCOD9065654
_publ_section_title
;
Structure prediction by ZEFSAII (Michael W. Deem and Ramdas Pophale) SiO2 
 PCOD9065654
Probable space group: P -1
;
_chemical_formula_sum "Si O2"
_cell_formula_units_Z 16
_cell_length_a 12.151890
_cell_length_b 15.798645
_cell_length_c 8.123551
_cell_angle_alpha 28.465501
_cell_angle_beta 98.482210
_cell_angle_gamma 116.032088
_cell_volume 554.971099
_symmetry_space_group_name_H-M "P -1"
_symmetry_group_IT_number 2
_symmetry_cell_setting 'triclinic'
loop_
_space_group_symop_operation_xyz
x,y,z
-x,-y,-z
loop_
_atom_site_type_symbol
_atom_site_label
_atom_site_fract_x
_atom_site_fract_y
_atom_site_fract_z
Si Si1 0.679299 0.251763 0.650955
Si Si2 0.308967 0.403375 0.155917
Si Si3 0.849114 0.400389 0.915408
Si Si4 0.025519 0.986494 0.260132
Si Si5 0.575953 0.643012 0.042937
Si Si6 0.416701 0.693846 0.151288
Si Si7 0.998658 0.271646 0.987844
Si Si8 0.170428 0.856366 0.332598
O O1 0.578457 0.161097 0.945682
O O2 0.711653 0.090039 0.864410
O O3 0.635777 0.353513 0.329677
O O4 0.838839 0.497185 0.318347
O O5 0.138242 0.243587 0.436672
O O6 0.419351 0.459877 0.226263
O O7 0.314047 0.265801 0.241439
O O8 0.719070 0.393610 0.844676
O O9 0.008803 0.633552 0.612910
O O10 0.887746 0.318032 0.906117
O O11 0.801370 0.233073 0.347334
O O12 0.053904 0.914585 0.560177
O O13 0.145933 0.032414 0.085100
O O14 0.015211 0.179273 0.982284
O O15 0.553148 0.794721 0.888047
O O16 0.606864 0.514764 0.395815
#
# Coordination Sequence:
#
# PCOD9065654 Si02
#       8
#     2   2   2   2   2   2   2   2
#     4   9  17  28  45  71  98 120 144 179 224 273
#     4   9  16  29  48  66  90 117 152 195 228 257
#     4   9  16  28  45  65  92 120 148 184 224 264
#     4   9  15  27  47  69  94 117 145 186 224 265
#     4   9  18  29  44  70  88 114 159 197 227 257
#     4  10  18  28  45  66  94 121 149 190 229 259
#     4   8  16  27  43  70  96 118 145 177 223 280
#     4   9  16  26  45  70  92 119 150 178 219 275
#
# _framework density 28.830331999999999
#
# number of rings (size 3 to 8) (size 9 to 14) (size 15 to 20)
#    0.000    3.000    0.000    3.750    0.000    2.000 
#    0.000    0.000    0.000    8.250    0.000   15.750 
#    0.000    0.000    0.000    0.000    0.000    0.000 
#
# Total GULP energy -89669.141229 kJ/mol
# GULP energy per Si atom -5604.321327 kJ/mol
# Density = 2.876471 g / cm^3
# Si number density = 28.830332 Si / 1000 Ang^3
#
#
#
# Elastic Constant Matrix: (Units=GPa)
#
#
# Indices 1 2 3 4 5 6 
#
# 1 218.2552 97.3401 38.7616 -0.8897 31.6051 -36.0989
# 2 97.3401 153.3552 70.2867 5.6109 21.4145 -11.3220
# 3 38.7616 70.2867 67.1219 19.6358 13.8377 9.2269
# 4 -0.8897 5.6109 19.6358 50.2285 9.8204 6.9392
# 5 31.6051 21.4145 13.8377 9.8204 34.7108 8.8194
# 6 -36.0989 -11.3220 9.2269 6.9392 8.8194 94.5016
#
#
#
# Elastic Compliance Matrix: (Units=1/GPa)
#
#
# Indices 1 2 3 4 5 6 
#
# 1 0.007606 -0.003944 0.000147 0.001223 -0.005621 0.002853
# 2 -0.003944 0.016923 -0.016667 0.004678 -0.002036 0.001995
# 3 0.000147 -0.016667 0.036296 -0.011718 0.000173 -0.004640
# 4 0.001223 0.004678 -0.011718 0.025166 -0.006689 0.000948
# 5 -0.005621 -0.002036 0.000173 -0.006689 0.038405 -0.005501
# 6 0.002853 0.001995 -0.004640 0.000948 -0.005501 0.012808
#
#
# Mechanical properties :
#
#
# Convention : Reuss Voigt Hill
#
# Bulk Modulus (GPa) = 50.25810 94.61212 72.43511
# Shear Modulus (GPa) = 27.06169 51.37777 39.21973
#
# Velocity S-wave (km/s) = 3.06707 4.22604 3.69231
# Velocity P-wave (km/s) = 5.47839 7.52998 6.58458
#
# Compressibility (1/GPa) = 0.01989729
#
# Stress axis : x y z
#
# Youngs Moduli (GPa) = 131.48151 59.09009 27.55125
#
# Poissons Ratio (x) = 0.23305 -0.00404
# Poissons Ratio (y) = 0.51856 0.45919
# Poissons Ratio (z) = -0.01929 0.98483
#
# Static dielectric constant tensor:
#      x y z
#    x 2.166370 -0.073590 0.029310 
#    y -0.073590 2.246920 -0.037310 
#    z 0.029310 -0.037310 2.241690 
# 
# From -- ./inp_files/251678.got.cif
#   From: 2010.05.17/outbox.cif.g08.bks.cpg/sg2_126_cif.got.tgz:251678.got - 2010.06.03 11:33:40.
