data_PCOD9065005
_publ_section_title
;
Structure prediction by ZEFSAII (Michael W. Deem and Ramdas Pophale) SiO2 
 PCOD9065005
Probable space group: P -1
;
_chemical_formula_sum "Si O2"
_cell_formula_units_Z 14
_cell_length_a 18.888943
_cell_length_b 13.235787
_cell_length_c 12.073194
_cell_angle_alpha 149.487945
_cell_angle_beta 26.196170
_cell_angle_gamma 153.551892
_cell_volume 566.918234
_symmetry_space_group_name_H-M "P -1"
_symmetry_group_IT_number 2
_symmetry_cell_setting 'triclinic'
loop_
_space_group_symop_operation_xyz
x,y,z
-x,-y,-z
loop_
_atom_site_type_symbol
_atom_site_label
_atom_site_fract_x
_atom_site_fract_y
_atom_site_fract_z
Si Si1 0.902485 0.219570 0.856225
Si Si2 0.233357 0.345725 0.658399
Si Si3 0.602173 0.850132 0.088525
Si Si4 0.462707 0.422221 0.737489
Si Si5 0.710406 0.049217 0.731891
Si Si6 0.842988 0.491029 0.854058
Si Si7 0.262617 0.919466 0.654690
O O1 0.852061 0.167612 0.749831
O O2 0.051072 0.183807 0.682310
O O3 0.000000 0.500000 0.000000
O O4 0.702465 0.042084 0.030752
O O5 0.391282 0.518956 0.511625
O O6 0.181472 0.461185 0.937569
O O7 0.304021 0.197693 0.483671
O O8 0.731475 0.971497 0.129635
O O9 0.402184 0.823180 0.370566
O O10 0.575778 0.605801 0.853779
O O11 0.316918 0.496099 0.974739
O O12 0.351674 0.149717 0.669778
O O13 0.800775 0.227624 0.670137
O O14 0.500000 0.000000 0.000000
O O15 0.050716 0.699286 0.720663
#
# Coordination Sequence:
#
# PCOD9065005 Si02
#       7
#     2   2   2   2   2   2   2
#     4  12  22  43  72 103 142 180 232 290 350 414
#     4  12  25  43  76 105 143 182 238 288 359 412
#     4  11  24  47  67 101 138 185 235 285 352 418
#     4  12  26  43  73 101 140 183 236 289 356 413
#     4  12  25  43  70 104 145 180 229 292 350 417
#     4  12  26  47  68 107 139 187 232 292 354 416
#     4  11  26  46  71  97 142 185 235 288 348 420
#
# _framework density 24.694918999999999
#
# number of rings (size 3 to 8) (size 9 to 14) (size 15 to 20)
#    0.000    0.286    5.714    2.571    0.000    4.000 
#    0.000    0.000    0.000    0.000    0.000    0.000 
#    0.000    0.000    0.000    0.000    0.000    0.000 
#
# Total GULP energy -78436.845603 kJ/mol
# GULP energy per Si atom -5602.631829 kJ/mol
# Density = 2.463871 g / cm^3
# Si number density = 24.694919 Si / 1000 Ang^3
#
#
#
# Elastic Constant Matrix: (Units=GPa)
#
#
# Indices 1 2 3 4 5 6 
#
# 1 80.4778 12.8429 18.5435 10.5217 -4.2259 9.7597
# 2 12.8429 150.0311 43.7131 -7.0793 16.4641 -17.5739
# 3 18.5435 43.7131 51.4855 -3.8350 -5.8247 -11.4106
# 4 10.5217 -7.0793 -3.8350 42.9190 2.1011 -4.5342
# 5 -4.2259 16.4641 -5.8247 2.1011 43.5539 2.4935
# 6 9.7597 -17.5739 -11.4106 -4.5342 2.4935 49.4513
#
#
#
# Elastic Compliance Matrix: (Units=1/GPa)
#
#
# Indices 1 2 3 4 5 6 
#
# 1 0.015365 -0.000386 -0.006591 -0.005034 0.001297 -0.005217
# 2 -0.000386 0.010016 -0.008371 0.001472 -0.005134 0.002098
# 3 -0.006591 -0.008371 0.031066 0.003286 0.006207 0.005483
# 4 -0.005034 0.001472 0.003286 0.025674 -0.002115 0.004736
# 5 0.001297 -0.005134 0.006207 -0.002115 0.026082 -0.002157
# 6 -0.005217 0.002098 0.005483 0.004736 -0.002157 0.023805
#
#
# Mechanical properties :
#
#
# Convention : Reuss Voigt Hill
#
# Bulk Modulus (GPa) = 38.83309 48.02149 43.42729
# Shear Modulus (GPa) = 29.19046 40.97783 35.08415
#
# Velocity S-wave (km/s) = 3.44182 4.07795 3.77331
# Velocity P-wave (km/s) = 5.61730 6.45453 6.05042
#
# Compressibility (1/GPa) = 0.02575123
#
# Stress axis : x y z
#
# Youngs Moduli (GPa) = 65.08296 99.84077 32.18912
#
# Poissons Ratio (x) = 0.03853 0.21216
# Poissons Ratio (y) = 0.02512 0.26946
# Poissons Ratio (z) = 0.42896 0.83579
#
# Static dielectric constant tensor:
#      x y z
#    x 1.954360 0.014750 0.021100 
#    y 0.014750 1.957350 0.056520 
#    z 0.021100 0.056520 1.987750 
# 
# From -- ./inp_files/403464.got.cif
#   From: 2010.05.17/outbox.cif.g08.bks.cpg/sg2_202_cif.got.tgz:403464.got - 2010.06.03 11:33:40.
