data_PCOD9065964
_publ_section_title
;
Structure prediction by ZEFSAII (Michael W. Deem and Ramdas Pophale) SiO2 
 PCOD9065964
Probable space group: P -1
;
_chemical_formula_sum "Si O2"
_cell_formula_units_Z 12
_cell_length_a 6.456958
_cell_length_b 10.940195
_cell_length_c 9.507759
_cell_angle_alpha 58.263825
_cell_angle_beta 86.354458
_cell_angle_gamma 76.040307
_cell_volume 552.705292
_symmetry_space_group_name_H-M "P -1"
_symmetry_group_IT_number 2
_symmetry_cell_setting 'triclinic'
loop_
_space_group_symop_operation_xyz
x,y,z
-x,-y,-z
loop_
_atom_site_type_symbol
_atom_site_label
_atom_site_fract_x
_atom_site_fract_y
_atom_site_fract_z
Si Si1 0.635235 0.359238 0.491011
Si Si2 0.857216 0.227795 0.839073
Si Si3 0.625771 0.865490 0.481162
Si Si4 0.709635 0.950383 0.114366
Si Si5 0.730504 0.435665 0.961256
Si Si6 0.986058 0.336528 0.264906
O O1 0.500000 0.500000 0.500000
O O2 0.769941 0.249482 0.671006
O O3 0.493231 0.267219 0.465742
O O4 0.803976 0.401852 0.349447
O O5 0.728092 0.363793 0.853449
O O6 0.114766 0.199656 0.845879
O O7 0.814996 0.086658 0.005368
O O8 0.654542 0.929563 0.288897
O O9 0.852507 0.800541 0.586237
O O10 0.500000 0.000000 0.500000
O O11 0.500000 0.000000 0.000000
O O12 0.862740 0.558281 0.853781
O O13 0.500000 0.500000 0.000000
O O14 0.862227 0.316422 0.139709
#
# Coordination Sequence:
#
# PCOD9065964 Si02
#       6
#     2   2   2   2   2   2
#     4  12  26  47  73 106 141 183 239 292 352 422
#     4  11  25  44  70 101 137 183 239 287 350 420
#     4  12  28  45  73 106 144 186 235 291 355 416
#     4  11  25  45  69 100 140 188 229 288 351 421
#     4  11  26  46  72 102 140 186 236 292 354 417
#     4  11  26  46  70 105 141 185 233 295 352 419
#
# _framework density 21.711390999999999
#
# number of rings (size 3 to 8) (size 9 to 14) (size 15 to 20)
#    0.000    0.667    3.333    3.000    9.333    3.333 
#    0.000    0.000    0.000    0.000    0.000    0.000 
#    0.000    0.000    0.000    0.000    0.000    0.000 
#
# Total GULP energy -67027.496388 kJ/mol
# GULP energy per Si atom -5585.624699 kJ/mol
# Density = 2.166197 g / cm^3
# Si number density = 21.711391 Si / 1000 Ang^3
#
#
#
# Elastic Constant Matrix: (Units=GPa)
#
#
# Indices 1 2 3 4 5 6 
#
# 1 100.1838 48.9740 47.5288 12.5042 -1.0817 -25.1598
# 2 48.9740 110.8033 24.2901 19.1300 2.2514 -23.8307
# 3 47.5288 24.2901 160.2450 7.9765 9.3249 -22.8478
# 4 12.5042 19.1300 7.9765 34.6023 -9.7129 -3.0351
# 5 -1.0817 2.2514 9.3249 -9.7129 50.6578 -0.2704
# 6 -25.1598 -23.8307 -22.8478 -3.0351 -0.2704 35.1018
#
#
#
# Elastic Compliance Matrix: (Units=1/GPa)
#
#
# Indices 1 2 3 4 5 6 
#
# 1 0.015308 -0.004619 -0.002988 -0.001555 0.000815 0.005762
# 2 -0.004619 0.013156 0.000551 -0.005775 -0.001863 0.005466
# 3 -0.002988 0.000551 0.007643 -0.001195 -0.001708 0.003090
# 4 -0.001555 -0.005775 -0.001195 0.034674 0.007077 -0.002760
# 5 0.000815 -0.001863 -0.001708 0.007077 0.021506 -0.001015
# 6 0.005762 0.005466 0.003090 -0.002760 -0.001015 0.038095
#
#
# Mechanical properties :
#
#
# Convention : Reuss Voigt Hill
#
# Bulk Modulus (GPa) = 45.46902 68.09086 56.77994
# Shear Modulus (GPa) = 32.93232 40.76833 36.85032
#
# Velocity S-wave (km/s) = 3.89887 4.33799 4.12428
# Velocity P-wave (km/s) = 6.42309 7.51803 6.99203
#
# Compressibility (1/GPa) = 0.02199300
#
# Stress axis : x y z
#
# Youngs Moduli (GPa) = 65.32688 76.00889 130.84281
#
# Poissons Ratio (x) = 0.35112 0.39102
# Poissons Ratio (y) = 0.30178 -0.07210
# Poissons Ratio (z) = 0.19523 -0.04188
#
# Static dielectric constant tensor:
#      x y z
#    x 1.813380 -0.017920 0.011460 
#    y -0.017920 1.710160 -0.015980 
#    z 0.011460 -0.015980 1.769850 
# 
# From -- ./inp_files/64856.got.cif
#   From: 2010.05.17/outbox.cif.g08.bks.cpg/sg2_33_cif.got.tgz:64856.got - 2010.06.03 11:33:40.
