data_PCOD9065881
_publ_section_title
;
Structure prediction by ZEFSAII (Michael W. Deem and Ramdas Pophale) SiO2 
 PCOD9065881
Probable space group: P -1
;
_chemical_formula_sum "Si O2"
_cell_formula_units_Z 15
_cell_length_a 6.029142
_cell_length_b 11.162527
_cell_length_c 11.460081
_cell_angle_alpha 66.459980
_cell_angle_beta 81.594658
_cell_angle_gamma 60.176973
_cell_volume 612.107172
_symmetry_space_group_name_H-M "P -1"
_symmetry_group_IT_number 2
_symmetry_cell_setting 'triclinic'
loop_
_space_group_symop_operation_xyz
x,y,z
-x,-y,-z
loop_
_atom_site_type_symbol
_atom_site_label
_atom_site_fract_x
_atom_site_fract_y
_atom_site_fract_z
Si Si1 0.830293 0.782518 0.631405
Si Si2 0.906381 0.086916 0.852036
Si Si3 0.087347 0.511613 0.338550
Si Si4 0.465774 0.217759 0.676860
Si Si5 0.312400 0.612941 0.114774
Si Si6 0.870821 0.408683 0.103256
Si Si7 0.500000 0.500000 0.500000
Si Si8 0.712215 0.983385 0.363611
O O1 0.946462 0.634325 0.599790
O O2 0.856324 0.904949 0.503026
O O3 0.973537 0.723418 0.766300
O O4 0.526554 0.855572 0.652700
O O5 0.642511 0.108671 0.808219
O O6 0.829529 0.252133 0.838698
O O7 0.112131 0.025541 0.755441
O O8 0.000000 0.000000 0.000000
O O9 0.219956 0.498062 0.209206
O O10 0.286099 0.505784 0.420464
O O11 0.812581 0.655761 0.308788
O O12 0.589483 0.319078 0.586068
O O13 0.420633 0.116123 0.627620
O O14 0.615201 0.535009 0.135915
O O15 0.228930 0.652228 0.972857
O O16 0.000000 0.500000 0.000000
#
# Coordination Sequence:
#
# PCOD9065881 Si02
#       8
#     2   2   2   2   2   2   1   2
#     4  11  26  48  74 106 152 203 235 308 378 448
#     4  12  29  46  75 107 149 199 253 310 373 449
#     4  12  24  44  76 109 147 187 253 311 369 440
#     4  12  25  45  74 109 143 194 243 313 367 442
#     4  11  25  44  68 112 138 193 253 302 371 434
#     4  11  25  43  73 103 149 187 246 308 366 440
#     4  12  24  40  76 112 142 180 246 308 372 436
#     4  11  27  51  69 109 154 194 253 297 387 449
#
# _framework density 24.505514000000002
#
# number of rings (size 3 to 8) (size 9 to 14) (size 15 to 20)
#    0.000    0.533    5.333    1.200    5.600    0.533 
#    0.000    1.333    0.000    0.000    0.000    0.000 
#    0.000    0.000    0.000    0.000    0.000    0.000 
#
# Total GULP energy -83633.599097 kJ/mol
# GULP energy per Si atom -5575.573273 kJ/mol
# Density = 2.444974 g / cm^3
# Si number density = 24.505514 Si / 1000 Ang^3
#
#
#
# Elastic Constant Matrix: (Units=GPa)
#
#
# Indices 1 2 3 4 5 6 
#
# 1 69.0811 20.3570 55.8136 1.6208 22.9032 -17.9330
# 2 20.3570 96.3883 37.4388 10.5611 3.6774 -28.3730
# 3 55.8136 37.4388 198.7309 -5.9290 34.9157 -44.0852
# 4 1.6208 10.5611 -5.9290 32.5781 -9.5095 -3.1787
# 5 22.9032 3.6774 34.9157 -9.5095 53.2496 -0.0966
# 6 -17.9330 -28.3730 -44.0852 -3.1787 -0.0966 46.3495
#
#
#
# Elastic Compliance Matrix: (Units=1/GPa)
#
#
# Indices 1 2 3 4 5 6 
#
# 1 0.021286 -0.001373 -0.003759 -0.003028 -0.007130 0.003597
# 2 -0.001373 0.013354 -0.000641 -0.003891 -0.000594 0.006766
# 3 -0.003759 -0.000641 0.008198 0.001472 -0.003440 0.006044
# 4 -0.003028 -0.003891 0.001472 0.034365 0.006743 0.000218
# 5 -0.007130 -0.000594 -0.003440 0.006743 0.025336 -0.005879
# 6 0.003597 0.006766 0.006044 0.000218 -0.005879 0.032860
#
#
# Mechanical properties :
#
#
# Convention : Reuss Voigt Hill
#
# Bulk Modulus (GPa) = 31.95709 65.71325 48.83517
# Shear Modulus (GPa) = 31.77092 43.14148 37.45620
#
# Velocity S-wave (km/s) = 3.60457 4.20036 3.91382
# Velocity P-wave (km/s) = 5.51299 7.09915 6.35574
#
# Compressibility (1/GPa) = 0.03129196
#
# Stress axis : x y z
#
# Youngs Moduli (GPa) = 46.97848 74.88280 121.98713
#
# Poissons Ratio (x) = 0.10279 0.45859
# Poissons Ratio (y) = 0.06449 0.07820
# Poissons Ratio (z) = 0.17661 0.04801
#
# Static dielectric constant tensor:
#      x y z
#    x 2.038710 0.024830 -0.044670 
#    y 0.024830 1.966900 -0.035290 
#    z -0.044670 -0.035290 2.109250 
# 
# From -- ./inp_files/363821.got.cif
#   From: 2010.05.17/outbox.cif.g08.bks.cpg/sg2_182_cif.got.tgz:363821.got - 2010.06.03 11:33:40.
