data_PCOD9065312
_publ_section_title
;
Structure prediction by ZEFSAII (Michael W. Deem and Ramdas Pophale) SiO2 
 PCOD9065312
Probable space group: P -1
;
_chemical_formula_sum "Si O2"
_cell_formula_units_Z 12
_cell_length_a 10.514050
_cell_length_b 8.629728
_cell_length_c 7.415401
_cell_angle_alpha 108.989021
_cell_angle_beta 103.905039
_cell_angle_gamma 123.371182
_cell_volume 450.230745
_symmetry_space_group_name_H-M "P -1"
_symmetry_group_IT_number 2
_symmetry_cell_setting 'triclinic'
loop_
_space_group_symop_operation_xyz
x,y,z
-x,-y,-z
loop_
_atom_site_type_symbol
_atom_site_label
_atom_site_fract_x
_atom_site_fract_y
_atom_site_fract_z
Si Si1 0.938005 0.295842 0.008652
Si Si2 0.694342 0.093910 0.155723
Si Si3 0.363527 0.202238 0.426939
Si Si4 0.809372 0.738142 0.330580
Si Si5 0.195495 0.183258 0.032644
Si Si6 0.747603 0.427948 0.517865
O O1 0.210620 0.310275 0.908543
O O2 0.808468 0.064652 0.764707
O O3 0.813914 0.267870 0.105951
O O4 0.000000 0.500000 0.000000
O O5 0.762955 0.246250 0.413300
O O6 0.500000 0.000000 0.000000
O O7 0.741926 0.941572 0.086291
O O8 0.338404 0.264316 0.634885
O O9 0.332679 0.306720 0.293021
O O10 0.546233 0.269171 0.466658
O O11 0.790621 0.571322 0.404095
O O12 0.000000 0.000000 0.500000
O O13 0.113561 0.390973 0.216767
O O14 0.000000 0.000000 0.000000
#
# Coordination Sequence:
#
# PCOD9065312 Si02
#       6
#     2   2   2   2   2   2
#     4  11  27  45  77 113 157 208 263 330 402 472
#     4  11  24  50  76 112 157 206 260 335 395 473
#     4  11  26  52  73 116 166 200 270 331 394 480
#     4  12  26  45  81 116 154 217 265 326 402 475
#     4  11  24  47  80 112 158 207 264 328 395 471
#     4  12  27  50  78 115 163 208 270 329 405 474
#
# _framework density 26.652999999999999
#
# number of rings (size 3 to 8) (size 9 to 14) (size 15 to 20)
#    0.000    0.667    5.000    3.000    4.667    2.667 
#    0.000    0.000    0.000    0.000    0.000    0.000 
#    0.000    0.000    0.000    0.000    0.000    0.000 
#
# Total GULP energy -66983.113607 kJ/mol
# GULP energy per Si atom -5581.926134 kJ/mol
# Density = 2.659234 g / cm^3
# Si number density = 26.653000 Si / 1000 Ang^3
#
#
#
# Elastic Constant Matrix: (Units=GPa)
#
#
# Indices 1 2 3 4 5 6 
#
# 1 93.5645 40.3985 19.0941 -2.6245 13.3410 21.5814
# 2 40.3985 144.1116 39.1162 -36.1123 22.9273 8.6994
# 3 19.0941 39.1162 129.1427 -17.0622 -1.3095 4.1407
# 4 -2.6245 -36.1123 -17.0622 53.9834 13.6874 -8.3332
# 5 13.3410 22.9273 -1.3095 13.6874 50.1719 6.8927
# 6 21.5814 8.6994 4.1407 -8.3332 6.8927 52.5547
#
#
#
# Elastic Compliance Matrix: (Units=1/GPa)
#
#
# Indices 1 2 3 4 5 6 
#
# 1 0.013826 -0.003985 -0.001076 -0.003088 -0.000302 -0.005383
# 2 -0.003985 0.011973 -0.001941 0.009413 -0.007341 0.002263
# 3 -0.001076 -0.001941 0.008646 0.001128 0.001074 0.000120
# 4 -0.003088 0.009413 0.001128 0.029009 -0.012164 0.005816
# 5 -0.000302 -0.007341 0.001074 -0.012164 0.027297 -0.004254
# 6 -0.005383 0.002263 0.000120 0.005816 -0.004254 0.022335
#
#
# Mechanical properties :
#
#
# Convention : Reuss Voigt Hill
#
# Bulk Modulus (GPa) = 48.91640 62.67072 55.79356
# Shear Modulus (GPa) = 37.34043 49.22265 43.28154
#
# Velocity S-wave (km/s) = 3.74703 4.30210 4.03412
# Velocity P-wave (km/s) = 6.09206 6.94565 6.53281
#
# Compressibility (1/GPa) = 0.02044304
#
# Stress axis : x y z
#
# Youngs Moduli (GPa) = 72.32816 83.52179 115.65532
#
# Poissons Ratio (x) = 0.33280 0.12441
# Poissons Ratio (y) = 0.28820 0.22446
# Poissons Ratio (z) = 0.07780 0.16209
#
# Static dielectric constant tensor:
#      x y z
#    x 1.909730 -0.089650 -0.071470 
#    y -0.089650 1.994580 0.100960 
#    z -0.071470 0.100960 2.111240 
# 
# From -- ./inp_files/250696.got.cif
#   From: 2010.05.17/outbox.cif.g08.bks.cpg/sg2_126_cif.got.tgz:250696.got - 2010.06.03 11:33:40.
