data_PCOD9065059
_publ_section_title
;
Structure prediction by ZEFSAII (Michael W. Deem and Ramdas Pophale) SiO2 
 PCOD9065059
Probable space group: P -1
;
_chemical_formula_sum "Si O2"
_cell_formula_units_Z 14
_cell_length_a 16.288940
_cell_length_b 8.999879
_cell_length_c 7.465223
_cell_angle_alpha 123.547005
_cell_angle_beta 62.846942
_cell_angle_gamma 145.605083
_cell_volume 515.239930
_symmetry_space_group_name_H-M "P -1"
_symmetry_group_IT_number 2
_symmetry_cell_setting 'triclinic'
loop_
_space_group_symop_operation_xyz
x,y,z
-x,-y,-z
loop_
_atom_site_type_symbol
_atom_site_label
_atom_site_fract_x
_atom_site_fract_y
_atom_site_fract_z
Si Si1 0.607095 0.010978 0.999142
Si Si2 0.937298 0.077583 0.017954
Si Si3 0.860575 0.447939 0.595854
Si Si4 0.700574 0.835179 0.326523
Si Si5 0.076918 0.434667 0.802895
Si Si6 0.644319 0.662119 0.628088
Si Si7 0.397774 0.698026 0.304342
O O1 0.661747 0.903640 0.788563
O O2 0.508394 0.786446 0.108637
O O3 0.500000 0.000000 0.000000
O O4 0.754865 0.317638 0.133638
O O5 0.026188 0.361425 0.230246
O O6 0.982347 0.150186 0.815928
O O7 0.770573 0.860843 0.094513
O O8 0.000000 0.000000 0.000000
O O9 0.921678 0.575409 0.420010
O O10 0.731385 0.392325 0.724341
O O11 0.781832 0.142033 0.472038
O O12 0.719044 0.733290 0.410515
O O13 0.530496 0.617930 0.366104
O O14 0.000000 0.500000 0.000000
O O15 0.679668 0.557033 0.658223
O O16 0.500000 0.000000 0.500000
#
# Coordination Sequence:
#
# PCOD9065059 Si02
#       7
#     2   2   2   2   2   2   2
#     4  12  27  47  78 109 151 198 251 311 381 445
#     4  12  30  47  73 109 151 196 252 308 378 455
#     4  12  26  51  76 106 149 202 249 312 378 453
#     4  11  24  47  70 106 145 190 248 302 377 441
#     4  12  27  48  79 110 151 200 253 307 380 450
#     4  11  26  42  76 106 146 191 247 313 367 445
#     4  12  24  45  71 107 143 186 249 305 367 442
#
# _framework density 27.171806
#
# number of rings (size 3 to 8) (size 9 to 14) (size 15 to 20)
#    0.000    0.286    4.286    3.429   10.000    1.714 
#    0.000    0.000    0.000    0.000    0.000    0.000 
#    0.000    0.000    0.000    0.000    0.000    0.000 
#
# Total GULP energy -78353.307659 kJ/mol
# GULP energy per Si atom -5596.664833 kJ/mol
# Density = 2.710996 g / cm^3
# Si number density = 27.171806 Si / 1000 Ang^3
#
#
#
# Elastic Constant Matrix: (Units=GPa)
#
#
# Indices 1 2 3 4 5 6 
#
# 1 94.9209 36.8629 -3.2315 0.5741 -5.1113 -3.1465
# 2 36.8629 171.6343 44.8612 -26.8764 17.2729 -6.8557
# 3 -3.2315 44.8612 87.9255 -22.7220 14.1235 -2.9725
# 4 0.5741 -26.8764 -22.7220 67.0444 -5.6851 4.7819
# 5 -5.1113 17.2729 14.1235 -5.6851 41.7658 -6.0585
# 6 -3.1465 -6.8557 -2.9725 4.7819 -6.0585 59.4403
#
#
#
# Elastic Compliance Matrix: (Units=1/GPa)
#
#
# Indices 1 2 3 4 5 6 
#
# 1 0.012029 -0.003324 0.001598 -0.000744 0.002296 0.000627
# 2 -0.003324 0.007938 -0.003313 0.001881 -0.002286 0.000190
# 3 0.001598 -0.003313 0.014438 0.003317 -0.002885 -0.000136
# 4 -0.000744 0.001881 0.003317 0.016885 0.000163 -0.000998
# 5 0.002296 -0.002286 -0.002885 0.000163 0.026516 0.002403
# 6 0.000627 0.000190 -0.000136 -0.000998 0.002403 0.017197
#
#
# Mechanical properties :
#
#
# Convention : Reuss Voigt Hill
#
# Bulk Modulus (GPa) = 41.10370 56.82953 48.96661
# Shear Modulus (GPa) = 44.17357 52.04931 48.11144
#
# Velocity S-wave (km/s) = 4.03639 4.38146 4.21246
# Velocity P-wave (km/s) = 6.07317 6.82324 6.45910
#
# Compressibility (1/GPa) = 0.02432871
#
# Stress axis : x y z
#
# Youngs Moduli (GPa) = 83.13088 125.97302 69.26092
#
# Poissons Ratio (x) = 0.41871 -0.11069
# Poissons Ratio (y) = 0.27631 0.22945
# Poissons Ratio (z) = -0.13285 0.41732
#
# Static dielectric constant tensor:
#      x y z
#    x 2.245170 -0.016160 0.077390 
#    y -0.016160 2.148120 0.111100 
#    z 0.077390 0.111100 2.277870 
# 
# From -- ./inp_files/308244.got.cif
#   From: 2010.05.17/outbox.cif.g08.bks.cpg/sg2_155_cif.got.tgz:308244.got - 2010.06.03 11:33:40.
