data_PCOD9065396
_publ_section_title
;
Structure prediction by ZEFSAII (Michael W. Deem and Ramdas Pophale) SiO2 
 PCOD9065396
Probable space group: P -1
;
_chemical_formula_sum "Si O2"
_cell_formula_units_Z 12
_cell_length_a 15.437956
_cell_length_b 14.968013
_cell_length_c 8.532331
_cell_angle_alpha 141.787257
_cell_angle_beta 31.207732
_cell_angle_gamma 151.493236
_cell_volume 482.896792
_symmetry_space_group_name_H-M "P -1"
_symmetry_group_IT_number 2
_symmetry_cell_setting 'triclinic'
loop_
_space_group_symop_operation_xyz
x,y,z
-x,-y,-z
loop_
_atom_site_type_symbol
_atom_site_label
_atom_site_fract_x
_atom_site_fract_y
_atom_site_fract_z
Si Si1 0.138272 0.630131 0.277985
Si Si2 0.158662 0.791771 0.777376
Si Si3 0.230670 0.087613 0.839501
Si Si4 0.809625 0.637056 0.612794
Si Si5 0.156035 0.976115 0.315813
Si Si6 0.532887 0.251371 0.324059
O O1 0.056541 0.418914 0.129679
O O2 0.923419 0.607824 0.536597
O O3 0.242618 0.732274 0.425209
O O4 0.293321 0.735417 0.033463
O O5 0.167902 0.944121 0.874867
O O6 0.248245 0.902127 0.955687
O O7 0.399388 0.115558 0.492383
O O8 0.321026 0.292634 0.036851
O O9 0.000000 0.000000 0.000000
O O10 0.667160 0.456981 0.473796
O O11 0.007278 0.812101 0.445950
O O12 0.341701 0.171841 0.384627
O O13 0.000000 0.000000 0.500000
#
# Coordination Sequence:
#
# PCOD9065396 Si02
#       6
#     2   2   2   2   2   2
#     4  11  26  49  76 110 155 190 246 307 368 449
#     4  11  24  48  72 107 154 189 240 315 364 419
#     4  12  23  50  75 104 150 196 251 305 360 438
#     4  12  25  50  76 110 150 193 247 308 365 445
#     4  12  25  47  76 107 154 186 252 313 355 435
#     4  12  27  47  79 110 143 207 244 292 388 437
#
# _framework density 24.850031000000001
#
# number of rings (size 3 to 8) (size 9 to 14) (size 15 to 20)
#    0.000    0.333    6.667    1.000    0.000    4.000 
#    9.000    0.000    0.000    0.000    0.000    0.000 
#    0.000    0.000    0.000    0.000    0.000    0.000 
#
# Total GULP energy -66978.996531 kJ/mol
# GULP energy per Si atom -5581.583044 kJ/mol
# Density = 2.479347 g / cm^3
# Si number density = 24.850031 Si / 1000 Ang^3
#
#
#
# Elastic Constant Matrix: (Units=GPa)
#
#
# Indices 1 2 3 4 5 6 
#
# 1 86.4156 35.0382 54.9885 -2.4083 13.1424 -10.5398
# 2 35.0382 115.9846 48.4353 10.5207 -0.2442 2.5466
# 3 54.9885 48.4353 125.0625 0.4039 34.4876 -2.5525
# 4 -2.4083 10.5207 0.4039 35.0147 1.8040 16.1601
# 5 13.1424 -0.2442 34.4876 1.8040 50.9124 3.5194
# 6 -10.5398 2.5466 -2.5525 16.1601 3.5194 55.1831
#
#
#
# Elastic Compliance Matrix: (Units=1/GPa)
#
#
# Indices 1 2 3 4 5 6 
#
# 1 0.017111 -0.002652 -0.006340 0.000723 -0.000362 0.002909
# 2 -0.002652 0.011604 -0.004393 -0.003618 0.003874 -0.000433
# 3 -0.006340 -0.004393 0.014808 0.001213 -0.008449 -0.000140
# 4 0.000723 -0.003618 0.001213 0.034168 -0.001577 -0.009544
# 5 -0.000362 0.003874 -0.008449 -0.001577 0.025658 -0.001813
# 6 0.002909 -0.000433 -0.000140 -0.009544 -0.001813 0.021601
#
#
# Mechanical properties :
#
#
# Convention : Reuss Voigt Hill
#
# Bulk Modulus (GPa) = 59.69174 67.15409 63.42292
# Shear Modulus (GPa) = 31.78536 40.82209 36.30372
#
# Velocity S-wave (km/s) = 3.58031 4.05747 3.82634
# Velocity P-wave (km/s) = 6.41595 7.00237 6.71556
#
# Compressibility (1/GPa) = 0.01675274
#
# Stress axis : x y z
#
# Youngs Moduli (GPa) = 58.44070 86.18067 67.53048
#
# Poissons Ratio (x) = 0.22855 0.42812
# Poissons Ratio (y) = 0.15498 0.29669
# Poissons Ratio (z) = 0.37050 0.37863
#
# Static dielectric constant tensor:
#      x y z
#    x 1.973600 0.027170 -0.004480 
#    y 0.027170 1.968090 0.018320 
#    z -0.004480 0.018320 2.100310 
# 
# From -- ./inp_files/316009.got.cif
#   From: 2010.05.17/outbox.cif.g08.bks.cpg/sg2_159_cif.got.tgz:316009.got - 2010.06.03 11:33:40.
