data_PCOD9065911
_publ_section_title
;
Structure prediction by ZEFSAII (Michael W. Deem and Ramdas Pophale) SiO2 
 PCOD9065911
Probable space group: P -1
;
_chemical_formula_sum "Si O2"
_cell_formula_units_Z 14
_cell_length_a 6.433722
_cell_length_b 10.127535
_cell_length_c 10.996784
_cell_angle_alpha 71.428316
_cell_angle_beta 103.923776
_cell_angle_gamma 74.371319
_cell_volume 610.852179
_symmetry_space_group_name_H-M "P -1"
_symmetry_group_IT_number 2
_symmetry_cell_setting 'triclinic'
loop_
_space_group_symop_operation_xyz
x,y,z
-x,-y,-z
loop_
_atom_site_type_symbol
_atom_site_label
_atom_site_fract_x
_atom_site_fract_y
_atom_site_fract_z
Si Si1 0.072646 0.972730 0.210573
Si Si2 0.752991 0.887362 0.030204
Si Si3 0.422382 0.188521 0.613060
Si Si4 0.201753 0.470088 0.637541
Si Si5 0.782519 0.072076 0.357183
Si Si6 0.548472 0.626792 0.654306
Si Si7 0.026390 0.450668 0.877381
O O1 0.301868 0.876770 0.342095
O O2 0.936409 0.875841 0.165361
O O3 0.893868 0.090601 0.239767
O O4 0.164392 0.042302 0.093272
O O5 0.794679 0.720553 0.046302
O O6 0.500000 0.000000 0.000000
O O7 0.347388 0.291173 0.692535
O O8 0.344683 0.300375 0.455689
O O9 0.330451 0.054001 0.634809
O O10 0.365403 0.559031 0.599698
O O11 0.125113 0.510849 0.755286
O O12 0.000000 0.500000 0.500000
O O13 0.593831 0.230066 0.324677
O O14 0.000000 0.000000 0.500000
O O15 0.759156 0.493815 0.786379
O O16 0.000000 0.500000 0.000000
#
# Coordination Sequence:
#
# PCOD9065911 Si02
#       7
#     2   2   2   2   2   2   2
#     4  11  25  43  78 102 145 193 258 303 376 442
#     4  11  26  50  74 106 145 202 257 306 366 467
#     4  12  25  46  77 108 147 197 257 316 374 454
#     4  12  26  47  78 109 148 197 255 312 379 455
#     4  12  26  43  74 112 149 191 246 310 384 444
#     4  12  28  46  75 113 156 194 252 318 389 446
#     4  12  30  47  75 108 160 199 248 312 395 445
#
# _framework density 22.918801999999999
#
# number of rings (size 3 to 8) (size 9 to 14) (size 15 to 20)
#    0.000    0.286    2.857    5.143    8.000    1.714 
#    0.000    0.000    0.000    0.000    0.000    0.000 
#    0.000    0.000    0.000    0.000    0.000    0.000 
#
# Total GULP energy -78227.209161 kJ/mol
# GULP energy per Si atom -5587.657797 kJ/mol
# Density = 2.286664 g / cm^3
# Si number density = 22.918802 Si / 1000 Ang^3
#
#
#
# Elastic Constant Matrix: (Units=GPa)
#
#
# Indices 1 2 3 4 5 6 
#
# 1 137.8875 69.8614 40.5316 8.4245 -11.1231 -18.4483
# 2 69.8614 135.2485 28.5369 1.8880 -4.8762 -20.9443
# 3 40.5316 28.5369 67.1059 10.6610 -1.1783 -9.6220
# 4 8.4245 1.8880 10.6610 32.7816 -11.8573 -6.5919
# 5 -11.1231 -4.8762 -1.1783 -11.8573 45.2190 9.7074
# 6 -18.4483 -20.9443 -9.6220 -6.5919 9.7074 49.7895
#
#
#
# Elastic Compliance Matrix: (Units=1/GPa)
#
#
# Indices 1 2 3 4 5 6 
#
# 1 0.011241 -0.004616 -0.004620 -0.000253 0.001881 0.000930
# 2 -0.004616 0.010484 -0.001539 0.001539 -0.000210 0.002647
# 3 -0.004620 -0.001539 0.019371 -0.005716 -0.002537 0.001122
# 4 -0.000253 0.001539 -0.005716 0.036051 0.008873 0.002492
# 5 0.001881 -0.000210 -0.002537 0.008873 0.025609 -0.003700
# 6 0.000930 0.002647 0.001122 0.002492 -0.003700 0.022811
#
#
# Mechanical properties :
#
#
# Convention : Reuss Voigt Hill
#
# Bulk Modulus (GPa) = 51.16108 68.67796 59.91952
# Shear Modulus (GPa) = 32.54552 38.97882 35.76217
#
# Velocity S-wave (km/s) = 3.77242 4.12847 3.95446
# Velocity P-wave (km/s) = 6.43010 7.26337 6.85940
#
# Compressibility (1/GPa) = 0.01954611
#
# Stress axis : x y z
#
# Youngs Moduli (GPa) = 88.96286 95.38560 51.62382
#
# Poissons Ratio (x) = 0.44031 0.23848
# Poissons Ratio (y) = 0.41067 0.07944
# Poissons Ratio (z) = 0.41098 0.14678
#
# Static dielectric constant tensor:
#      x y z
#    x 1.850120 -0.024640 -0.037320 
#    y -0.024640 1.895610 0.007010 
#    z -0.037320 0.007010 1.966630 
# 
# From -- ./inp_files/360209.got.cif
#   From: 2010.05.17/outbox.cif.g08.bks.cpg/sg2_181_cif.got.tgz:360209.got - 2010.06.03 11:33:40.
