data_PCOD9065937
_publ_section_title
;
Structure prediction by ZEFSAII (Michael W. Deem and Ramdas Pophale) SiO2 
 PCOD9065937
Probable space group: P -1
;
_chemical_formula_sum "Si O2"
_cell_formula_units_Z 16
_cell_length_a 11.269141
_cell_length_b 6.113297
_cell_length_c 15.952509
_cell_angle_alpha 50.318891
_cell_angle_beta 87.382479
_cell_angle_gamma 107.922560
_cell_volume 759.474585
_symmetry_space_group_name_H-M "P -1"
_symmetry_group_IT_number 2
_symmetry_cell_setting 'triclinic'
loop_
_space_group_symop_operation_xyz
x,y,z
-x,-y,-z
loop_
_atom_site_type_symbol
_atom_site_label
_atom_site_fract_x
_atom_site_fract_y
_atom_site_fract_z
Si Si1 0.965919 0.791873 0.435274
Si Si2 0.326685 0.086229 0.987690
Si Si3 0.451640 0.810342 0.185053
Si Si4 0.659946 0.258517 0.198995
Si Si5 0.775672 0.791083 0.575193
Si Si6 0.643169 0.217154 0.408542
Si Si7 0.171590 0.100369 0.738925
Si Si8 0.062507 0.828495 0.975146
O O1 0.831260 0.678019 0.521319
O O2 0.936791 0.914964 0.319189
O O3 0.000000 0.500000 0.500000
O O4 0.094552 0.063827 0.406681
O O5 0.440137 0.181861 0.888681
O O6 0.308146 0.401923 0.923494
O O7 0.187864 0.825224 0.020861
O O8 0.373465 0.972498 0.096846
O O9 0.347220 0.473076 0.306667
O O10 0.535118 0.012190 0.211439
O O11 0.634565 0.238667 0.303592
O O12 0.781866 0.172398 0.205586
O O13 0.737651 0.060713 0.474394
O O14 0.700497 0.568203 0.357631
O O15 0.500000 0.000000 0.500000
O O16 0.120945 0.090956 0.836255
O O17 0.000000 0.500000 0.000000
O O18 0.000000 0.000000 0.000000
#
# Coordination Sequence:
#
# PCOD9065937 Si02
#       8
#     2   2   2   2   2   2   2   2
#     4  11  25  45  69  99 147 187 238 297 372 449
#     4  11  25  48  70 106 142 189 245 309 374 442
#     4  11  26  45  72 100 146 188 243 306 375 445
#     4  12  22  45  72 100 146 189 245 304 373 440
#     4  11  25  44  68 107 141 190 243 299 375 452
#     4  12  25  41  73 109 143 184 245 302 373 451
#     4  12  25  45  72 104 143 193 241 313 370 447
#     4  12  28  48  77 110 148 196 259 310 380 449
#
# _framework density 21.067198000000001
#
# number of rings (size 3 to 8) (size 9 to 14) (size 15 to 20)
#    0.000    0.500    5.000    2.625    3.500    3.000 
#    0.000    0.000    0.000    0.000    0.000    0.000 
#    0.000    0.000    0.000    0.000    0.000    0.000 
#
# Total GULP energy -89358.954803 kJ/mol
# GULP energy per Si atom -5584.934675 kJ/mol
# Density = 2.101925 g / cm^3
# Si number density = 21.067198 Si / 1000 Ang^3
#
#
#
# Elastic Constant Matrix: (Units=GPa)
#
#
# Indices 1 2 3 4 5 6 
#
# 1 101.1349 28.1561 23.5572 4.6718 27.9031 -2.4469
# 2 28.1561 73.1129 19.0878 -3.5607 15.3169 5.0586
# 3 23.5572 19.0878 71.1179 2.1757 25.4569 3.8373
# 4 4.6718 -3.5607 2.1757 40.0416 7.0341 8.7176
# 5 27.9031 15.3169 25.4569 7.0341 51.4153 1.8837
# 6 -2.4469 5.0586 3.8373 8.7176 1.8837 46.4281
#
#
#
# Elastic Compliance Matrix: (Units=1/GPa)
#
#
# Indices 1 2 3 4 5 6 
#
# 1 0.012716 -0.003633 -0.001510 -0.001205 -0.004965 0.001618
# 2 -0.003633 0.016434 -0.002451 0.002860 -0.002020 -0.002234
# 3 -0.001510 -0.002451 0.017889 0.000512 -0.007338 -0.001090
# 4 -0.001205 0.002860 0.000512 0.027208 -0.003978 -0.005365
# 5 -0.004965 -0.002020 -0.007338 -0.003978 0.026915 0.000220
# 6 0.001618 -0.002234 -0.001090 -0.005365 0.000220 0.022956
#
#
# Mechanical properties :
#
#
# Convention : Reuss Voigt Hill
#
# Bulk Modulus (GPa) = 31.39762 42.99642 37.19702
# Shear Modulus (GPa) = 33.35070 39.21464 36.28267
#
# Velocity S-wave (km/s) = 3.98309 4.31908 4.15448
# Velocity P-wave (km/s) = 6.00743 6.73247 6.38026
#
# Compressibility (1/GPa) = 0.03184954
#
# Stress axis : x y z
#
# Youngs Moduli (GPa) = 78.64289 60.85114 55.90059
#
# Poissons Ratio (x) = 0.22108 0.08441
# Poissons Ratio (y) = 0.28572 0.13703
# Poissons Ratio (z) = 0.11875 0.14916
#
# Static dielectric constant tensor:
#      x y z
#    x 1.651040 -0.138420 0.047190 
#    y -0.138420 1.617640 0.143120 
#    z 0.047190 0.143120 1.581410 
# 
# From -- ./inp_files/76962.got.cif
#   From: 2010.05.17/outbox.cif.g08.bks.cpg/sg2_39_cif.got.tgz:76962.got - 2010.06.03 11:33:40.
