data_PCOD9065042
_publ_section_title
;
Structure prediction by ZEFSAII (Michael W. Deem and Ramdas Pophale) SiO2 
 PCOD9065042
Probable space group: P -1
;
_chemical_formula_sum "Si O2"
_cell_formula_units_Z 16
_cell_length_a 13.891211
_cell_length_b 8.485524
_cell_length_c 5.270674
_cell_angle_alpha 109.273319
_cell_angle_beta 98.368203
_cell_angle_gamma 84.357111
_cell_volume 579.371187
_symmetry_space_group_name_H-M "P -1"
_symmetry_group_IT_number 2
_symmetry_cell_setting 'triclinic'
loop_
_space_group_symop_operation_xyz
x,y,z
-x,-y,-z
loop_
_atom_site_type_symbol
_atom_site_label
_atom_site_fract_x
_atom_site_fract_y
_atom_site_fract_z
Si Si1 0.465130 0.738870 0.544587
Si Si2 0.305322 0.026349 0.519937
Si Si3 0.818017 0.168243 0.940519
Si Si4 0.897745 0.454771 0.839163
Si Si5 0.684719 0.413378 0.245600
Si Si6 0.984079 0.154209 0.378730
Si Si7 0.193023 0.285106 0.348470
Si Si8 0.596340 0.692170 0.063618
O O1 0.391069 0.607463 0.563394
O O2 0.528476 0.711169 0.300363
O O3 0.399193 0.905168 0.535472
O O4 0.537000 0.743967 0.817900
O O5 0.275226 0.136676 0.314969
O O6 0.319253 0.177459 0.796514
O O7 0.215119 0.909848 0.380549
O O8 0.724117 0.222367 0.103329
O O9 0.911483 0.095940 0.093413
O O10 0.845504 0.350926 0.969842
O O11 0.924589 0.320224 0.554621
O O12 0.841598 0.632646 0.880477
O O13 0.000000 0.500000 0.000000
O O14 0.759893 0.549750 0.432663
O O15 0.635905 0.500813 0.023993
O O16 0.091292 0.221094 0.388524
O O17 0.000000 0.000000 0.500000
#
# Coordination Sequence:
#
# PCOD9065042 Si02
#       8
#     2   2   2   2   2   2   2   2
#     4  12  25  51  79 112 153 198 253 325 396 465
#     4  11  27  45  75 113 148 199 253 316 383 458
#     4  12  26  48  72 109 156 197 256 313 379 453
#     4  12  24  44  73 101 144 203 254 307 370 447
#     4  11  25  46  78 112 146 194 258 316 376 460
#     4  12  27  46  73 106 155 203 247 309 383 455
#     4  11  24  47  69 109 149 195 258 305 377 450
#     4  11  27  51  79 111 152 200 255 318 399 466
#
# _framework density 27.616147999999999
#
# number of rings (size 3 to 8) (size 9 to 14) (size 15 to 20)
#    0.000    0.500    2.500    4.875    3.500    5.000 
#    2.250    0.000    0.000    0.000    0.000    0.000 
#    0.000    0.000    0.000    0.000    0.000    0.000 
#
# Total GULP energy -89359.120525 kJ/mol
# GULP energy per Si atom -5584.945033 kJ/mol
# Density = 2.755329 g / cm^3
# Si number density = 27.616148 Si / 1000 Ang^3
#
#
#
# Elastic Constant Matrix: (Units=GPa)
#
#
# Indices 1 2 3 4 5 6 
#
# 1 134.4076 58.5246 85.0152 -5.6120 11.2786 0.9718
# 2 58.5246 171.6165 46.4942 -30.3864 24.0163 -22.0378
# 3 85.0152 46.4942 136.8293 -19.3374 33.0057 -2.7295
# 4 -5.6120 -30.3864 -19.3374 55.5107 -2.0865 21.2256
# 5 11.2786 24.0163 33.0057 -2.0865 52.0548 -4.4856
# 6 0.9718 -22.0378 -2.7295 21.2256 -4.4856 65.9141
#
#
#
# Elastic Compliance Matrix: (Units=1/GPa)
#
#
# Indices 1 2 3 4 5 6 
#
# 1 0.014347 -0.003658 -0.009185 -0.003431 0.004229 -0.000422
# 2 -0.003658 0.008136 0.000840 0.003724 -0.003225 0.001390
# 3 -0.009185 0.000840 0.015350 0.004999 -0.008025 -0.001104
# 4 -0.003431 0.003724 0.004999 0.023754 -0.003744 -0.006402
# 5 0.004229 -0.003225 -0.008025 -0.003744 0.024843 0.001423
# 6 -0.000422 0.001390 -0.001104 -0.006402 0.001423 0.017755
#
#
# Mechanical properties :
#
#
# Convention : Reuss Voigt Hill
#
# Bulk Modulus (GPa) = 72.31834 91.43573 81.87704
# Shear Modulus (GPa) = 37.65077 51.55055 44.60066
#
# Velocity S-wave (km/s) = 3.69638 4.32520 4.02309
# Velocity P-wave (km/s) = 6.66794 7.62394 7.16191
#
# Compressibility (1/GPa) = 0.01382775
#
# Stress axis : x y z
#
# Youngs Moduli (GPa) = 69.70005 122.91254 65.14738
#
# Poissons Ratio (x) = 0.44960 0.59836
# Poissons Ratio (y) = 0.25495 -0.05472
# Poissons Ratio (z) = 0.64017 -0.10324
#
# Static dielectric constant tensor:
#      x y z
#    x 2.407320 -0.141180 -0.066370 
#    y -0.141180 2.295010 0.069760 
#    z -0.066370 0.069760 2.187890 
# 
# From -- ./inp_files/90796.got.cif
#   From: 2010.05.17/outbox.cif.g08.bks.cpg/sg2_46_cif.got.tgz:90796.got - 2010.06.03 11:33:40.
