data_PCOD9065796
_publ_section_title
;
Structure prediction by ZEFSAII (Michael W. Deem and Ramdas Pophale) SiO2 
 PCOD9065796
Probable space group: P -1
;
_chemical_formula_sum "Si O2"
_cell_formula_units_Z 14
_cell_length_a 4.980096
_cell_length_b 15.429993
_cell_length_c 8.304127
_cell_angle_alpha 100.666293
_cell_angle_beta 83.194247
_cell_angle_gamma 119.608982
_cell_volume 544.927289
_symmetry_space_group_name_H-M "P -1"
_symmetry_group_IT_number 2
_symmetry_cell_setting 'triclinic'
loop_
_space_group_symop_operation_xyz
x,y,z
-x,-y,-z
loop_
_atom_site_type_symbol
_atom_site_label
_atom_site_fract_x
_atom_site_fract_y
_atom_site_fract_z
Si Si1 0.369086 0.965679 0.817296
Si Si2 0.648816 0.441294 0.057005
Si Si3 0.569412 0.354096 0.373933
Si Si4 0.033222 0.714463 0.460069
Si Si5 0.661696 0.849228 0.848787
Si Si6 0.924969 0.089130 0.592733
Si Si7 0.512653 0.763137 0.168086
O O1 0.598605 0.039137 0.691846
O O2 0.202204 0.164514 0.714905
O O3 0.427585 0.870257 0.770895
O O4 0.500000 0.000000 0.000000
O O5 0.655000 0.433404 0.249606
O O6 0.500000 0.500000 0.000000
O O7 0.481540 0.331457 0.946754
O O8 0.000000 0.500000 0.000000
O O9 0.825106 0.333949 0.438348
O O10 0.363282 0.252007 0.253164
O O11 0.335991 0.355451 0.523975
O O12 0.087505 0.830478 0.502311
O O13 0.203956 0.720379 0.281572
O O14 0.012922 0.936403 0.832778
O O15 0.545418 0.830660 0.033681
O O16 0.000000 0.000000 0.500000
#
# Coordination Sequence:
#
# PCOD9065796 Si02
#       7
#     2   2   2   2   2   2   2
#     4  12  24  41  64  98 138 191 258 302 339 418
#     4  11  27  53  87 115 140 185 248 312 382 454
#     4  11  25  47  76 104 147 195 237 306 378 448
#     4  12  25  48  70 110 154 201 242 299 376 443
#     4  11  25  43  66  97 140 194 253 301 357 414
#     4  12  28  45  72 108 156 208 252 302 363 429
#     4  11  27  48  76 108 154 195 245 313 376 437
#
# _framework density 25.691500000000001
#
# number of rings (size 3 to 8) (size 9 to 14) (size 15 to 20)
#    0.000    0.571    2.857    3.857    6.000    2.857 
#    0.000    5.000    0.000    0.000    0.000    0.000 
#    0.000    0.000    0.000    0.000    0.000    0.000 
#
# Total GULP energy -78326.979460 kJ/mol
# GULP energy per Si atom -5594.784247 kJ/mol
# Density = 2.563303 g / cm^3
# Si number density = 25.691500 Si / 1000 Ang^3
#
#
#
# Elastic Constant Matrix: (Units=GPa)
#
#
# Indices 1 2 3 4 5 6 
#
# 1 130.9036 30.5738 37.9305 -23.1939 12.9450 -32.5229
# 2 30.5738 109.8130 34.7712 -16.7883 11.1279 -32.2386
# 3 37.9305 34.7712 147.0552 -44.0783 -1.9133 -20.3957
# 4 -23.1939 -16.7883 -44.0783 55.7582 -0.2219 11.5940
# 5 12.9450 11.1279 -1.9133 -0.2219 52.1202 -4.3767
# 6 -32.5229 -32.2386 -20.3957 11.5940 -4.3767 39.3694
#
#
#
# Elastic Compliance Matrix: (Units=1/GPa)
#
#
# Indices 1 2 3 4 5 6 
#
# 1 0.010266 0.000107 -0.001130 0.001904 -0.002001 0.007200
# 2 0.000107 0.012559 -0.001547 0.000694 -0.001994 0.009146
# 3 -0.001130 -0.001547 0.009522 0.006395 0.001069 0.000969
# 4 0.001904 0.000694 0.006395 0.024356 -0.000431 -0.001767
# 5 -0.002001 -0.001994 0.001069 -0.000431 0.020116 -0.000369
# 6 0.007200 0.009146 0.000969 -0.001767 -0.000369 0.039818
#
#
# Mechanical properties :
#
#
# Convention : Reuss Voigt Hill
#
# Bulk Modulus (GPa) = 36.75354 66.03587 51.39470
# Shear Modulus (GPa) = 38.21270 48.41598 43.31434
#
# Velocity S-wave (km/s) = 3.86082 4.34581 4.11048
# Velocity P-wave (km/s) = 5.84905 7.13727 6.52503
#
# Compressibility (1/GPa) = 0.02720827
#
# Stress axis : x y z
#
# Youngs Moduli (GPa) = 97.41262 79.62114 105.01556
#
# Poissons Ratio (x) = -0.00854 0.11866
# Poissons Ratio (y) = -0.01044 0.16245
# Poissons Ratio (z) = 0.11007 0.12317
#
# Static dielectric constant tensor:
#      x y z
#    x 1.974570 -0.063640 0.003320 
#    y -0.063640 2.147490 0.061910 
#    z 0.003320 0.061910 2.083000 
# 
# From -- ./inp_files/111690.got.cif
#   From: 2010.05.17/outbox.cif.g08.bks.cpg/sg2_56_cif.got.tgz:111690.got - 2010.06.03 11:33:40.
