data_PCOD9065676
_publ_section_title
;
Structure prediction by ZEFSAII (Michael W. Deem and Ramdas Pophale) SiO2 
 PCOD9065676
Probable space group: P -1
;
_chemical_formula_sum "Si O2"
_cell_formula_units_Z 13
_cell_length_a 11.366055
_cell_length_b 7.484295
_cell_length_c 10.056329
_cell_angle_alpha 78.874718
_cell_angle_beta 131.915627
_cell_angle_gamma 73.026391
_cell_volume 510.426156
_symmetry_space_group_name_H-M "P -1"
_symmetry_group_IT_number 2
_symmetry_cell_setting 'triclinic'
loop_
_space_group_symop_operation_xyz
x,y,z
-x,-y,-z
loop_
_atom_site_type_symbol
_atom_site_label
_atom_site_fract_x
_atom_site_fract_y
_atom_site_fract_z
Si Si1 0.938319 0.361595 0.618710
Si Si2 0.038806 0.680109 0.052634
Si Si3 0.560531 0.257030 0.210364
Si Si4 0.324237 0.261347 0.834521
Si Si5 0.599916 0.985136 0.716964
Si Si6 0.424201 0.603556 0.282315
Si Si7 0.000000 0.000000 0.500000
O O1 0.888773 0.361169 0.734606
O O2 0.794841 0.599234 0.405231
O O3 0.151276 0.308225 0.791530
O O4 0.968143 0.168121 0.574584
O O5 0.201395 0.678707 0.091850
O O6 0.000000 0.500000 0.000000
O O7 0.820014 0.894334 0.856533
O O8 0.465650 0.144406 0.228195
O O9 0.542996 0.423351 0.284229
O O10 0.417360 0.375392 0.959816
O O11 0.775412 0.077915 0.345732
O O12 0.549689 0.198615 0.730835
O O13 0.500000 0.000000 0.000000
O O14 0.500000 0.000000 0.500000
O O15 0.500000 0.500000 0.500000
#
# Coordination Sequence:
#
# PCOD9065676 Si02
#       7
#     2   2   2   2   2   2   1
#     4  11  26  48  78 117 158 208 270 329 407 493
#     4  12  24  50  82 119 159 208 271 336 412 486
#     4  12  26  52  77 117 165 208 282 327 410 489
#     4  11  24  50  77 111 160 214 262 331 404 482
#     4  12  26  48  80 119 164 215 265 340 408 487
#     4  12  25  49  77 120 164 210 267 335 414 483
#     4  12  28  50  78 116 162 216 270 336 408 480
#
# _framework density 25.468914000000002
#
# number of rings (size 3 to 8) (size 9 to 14) (size 15 to 20)
#    0.000    0.308    6.154    1.385    0.000    5.538 
#    2.769    0.000    0.000    0.000    0.000    0.000 
#    0.000    0.000    0.000    0.000    0.000    0.000 
#
# Total GULP energy -72517.228296 kJ/mol
# GULP energy per Si atom -5578.248330 kJ/mol
# Density = 2.541095 g / cm^3
# Si number density = 25.468914 Si / 1000 Ang^3
#
#
#
# Elastic Constant Matrix: (Units=GPa)
#
#
# Indices 1 2 3 4 5 6 
#
# 1 111.8918 43.4837 45.5109 -9.0128 36.0928 -23.3937
# 2 43.4837 190.2581 51.2109 22.4409 14.4184 -10.7091
# 3 45.5109 51.2109 155.5881 2.0824 21.7423 -12.9765
# 4 -9.0128 22.4409 2.0824 48.5310 -9.1274 24.6931
# 5 36.0928 14.4184 21.7423 -9.1274 53.7159 -1.5144
# 6 -23.3937 -10.7091 -12.9765 24.6931 -1.5144 59.0070
#
#
#
# Elastic Compliance Matrix: (Units=1/GPa)
#
#
# Indices 1 2 3 4 5 6 
#
# 1 0.013982 -0.001723 -0.001989 -0.000474 -0.008073 0.004784
# 2 -0.001723 0.006747 -0.001358 -0.004638 -0.000831 0.002162
# 3 -0.001989 -0.001358 0.007770 -0.000878 -0.001565 0.001001
# 4 -0.000474 -0.004638 -0.000878 0.031146 0.006814 -0.014082
# 5 -0.008073 -0.000831 -0.001565 0.006814 0.025889 -0.005882
# 6 0.004784 0.002162 0.001001 -0.014082 -0.005882 0.025198
#
#
# Mechanical properties :
#
#
# Convention : Reuss Voigt Hill
#
# Bulk Modulus (GPa) = 54.47262 82.01656 68.24459
# Shear Modulus (GPa) = 39.37199 53.41962 46.39580
#
# Velocity S-wave (km/s) = 3.93604 4.58475 4.27273
# Velocity P-wave (km/s) = 6.48775 7.76525 7.15507
#
# Compressibility (1/GPa) = 0.01835785
#
# Stress axis : x y z
#
# Youngs Moduli (GPa) = 71.52009 148.21031 128.69868
#
# Poissons Ratio (x) = 0.25541 0.25601
# Poissons Ratio (y) = 0.12325 0.17480
# Poissons Ratio (z) = 0.14227 0.20131
#
# Static dielectric constant tensor:
#      x y z
#    x 1.691730 -0.057880 -0.027400 
#    y -0.057880 2.176950 -0.046280 
#    z -0.027400 -0.046280 2.049130 
# 
# From -- ./inp_files/167745.got.cif
#   From: 2010.05.17/outbox.cif.g08.bks.cpg/sg2_84_cif.got.tgz:167745.got - 2010.06.03 11:33:40.
