data_PCOD9065747
_publ_section_title
;
Structure prediction by ZEFSAII (Michael W. Deem and Ramdas Pophale) SiO2 
 PCOD9065747
Probable space group: P -1
;
_chemical_formula_sum "Si O2"
_cell_formula_units_Z 16
_cell_length_a 13.207934
_cell_length_b 7.550281
_cell_length_c 22.496545
_cell_angle_alpha 133.978956
_cell_angle_beta 25.230146
_cell_angle_gamma 124.196492
_cell_volume 671.954719
_symmetry_space_group_name_H-M "P -1"
_symmetry_group_IT_number 2
_symmetry_cell_setting 'triclinic'
loop_
_space_group_symop_operation_xyz
x,y,z
-x,-y,-z
loop_
_atom_site_type_symbol
_atom_site_label
_atom_site_fract_x
_atom_site_fract_y
_atom_site_fract_z
Si Si1 0.605642 0.399125 0.288328
Si Si2 0.053630 0.894674 0.063342
Si Si3 0.063216 0.845051 0.518920
Si Si4 0.049389 0.434204 0.130886
Si Si5 0.707860 0.252354 0.838627
Si Si6 0.611145 0.865103 0.220424
Si Si7 0.931725 0.393537 0.413087
Si Si8 0.318839 0.049808 0.052598
O O1 0.345769 0.570382 0.451681
O O2 0.785621 0.520780 0.261424
O O3 0.570624 0.151658 0.285277
O O4 0.758822 0.282771 0.121717
O O5 0.789061 0.842868 0.177786
O O6 0.040126 0.189469 0.120731
O O7 0.159457 0.866676 0.066948
O O8 0.350496 0.805438 0.353084
O O9 0.012534 0.792963 0.603159
O O10 0.969093 0.652822 0.481880
O O11 0.907698 0.125837 0.655541
O O12 0.139365 0.656868 0.168116
O O13 0.239011 0.310471 0.950693
O O14 0.500000 0.500000 0.000000
O O15 0.522424 0.063551 0.898219
O O16 0.119960 0.291848 0.236808
O O17 0.500000 0.000000 0.000000
#
# Coordination Sequence:
#
# PCOD9065747 Si02
#       8
#     2   2   2   2   2   2   2   2
#     4   9  20  39  68  92 121 164 203 253 311 365
#     4   9  19  40  66  91 128 159 202 257 307 365
#     4  11  25  43  60  92 128 163 207 258 304 366
#     4   9  19  40  64  95 124 157 205 256 309 364
#     4  12  24  40  66  92 125 162 207 260 305 360
#     4   9  20  40  67  95 119 160 210 256 306 361
#     4  11  25  42  62  87 129 168 205 251 309 372
#     4  12  24  42  61  92 126 170 204 246 315 368
#
# _framework density 23.811126999999999
#
# number of rings (size 3 to 8) (size 9 to 14) (size 15 to 20)
#    0.000    1.750    2.500    3.000    5.250    1.500 
#    2.250    5.000    0.000    0.000    0.000    0.000 
#    0.000    0.000    0.000    0.000    0.000    0.000 
#
# Total GULP energy -89385.622195 kJ/mol
# GULP energy per Si atom -5586.601387 kJ/mol
# Density = 2.375693 g / cm^3
# Si number density = 23.811127 Si / 1000 Ang^3
#
#
#
# Elastic Constant Matrix: (Units=GPa)
#
#
# Indices 1 2 3 4 5 6 
#
# 1 91.1229 21.0536 34.5466 -2.0953 -18.4153 29.6461
# 2 21.0536 46.0187 20.8437 -8.0243 1.2746 16.5152
# 3 34.5466 20.8437 144.9755 -15.2609 -35.0476 19.5905
# 4 -2.0953 -8.0243 -15.2609 29.7182 6.6213 -6.5769
# 5 -18.4153 1.2746 -35.0476 6.6213 29.0046 -2.1365
# 6 29.6461 16.5152 19.5905 -6.5769 -2.1365 37.9207
#
#
#
# Elastic Compliance Matrix: (Units=1/GPa)
#
#
# Indices 1 2 3 4 5 6 
#
# 1 0.018739 -0.005663 0.000708 -0.005646 0.013350 -0.012777
# 2 -0.005663 0.029944 -0.004400 0.006858 -0.012223 -0.005840
# 3 0.000708 -0.004400 0.011261 0.000784 0.013811 -0.003541
# 4 -0.005646 0.006858 0.000784 0.039665 -0.011459 0.007256
# 5 0.013350 -0.012223 0.013811 -0.011459 0.062003 -0.010743
# 6 -0.012777 -0.005840 -0.003541 0.007256 -0.010743 0.041386
#
#
# Mechanical properties :
#
#
# Convention : Reuss Voigt Hill
#
# Bulk Modulus (GPa) = 24.25061 48.33388 36.29225
# Shear Modulus (GPa) = 21.23571 33.04024 27.13798
#
# Velocity S-wave (km/s) = 2.98961 3.72909 3.37963
# Velocity P-wave (km/s) = 4.70358 6.23573 5.52305
#
# Compressibility (1/GPa) = 0.04123607
#
# Stress axis : x y z
#
# Youngs Moduli (GPa) = 53.36459 33.39538 88.79997
#
# Poissons Ratio (x) = 0.18912 -0.06290
# Poissons Ratio (y) = 0.30220 0.39069
# Poissons Ratio (z) = -0.03780 0.14693
#
# Static dielectric constant tensor:
#      x y z
#    x 1.964120 -0.146270 -0.049940 
#    y -0.146270 1.962940 0.024160 
#    z -0.049940 0.024160 1.847510 
# 
# From -- ./inp_files/239563.got.cif
#   From: 2010.05.17/outbox.cif.g08.bks.cpg/sg2_120_cif.got.tgz:239563.got - 2010.06.03 11:33:40.
