data_PCOD9065686
_publ_section_title
;
Structure prediction by ZEFSAII (Michael W. Deem and Ramdas Pophale) SiO2 
 PCOD9065686
Probable space group: P -1
;
_chemical_formula_sum "Si O2"
_cell_formula_units_Z 14
_cell_length_a 7.932188
_cell_length_b 11.908307
_cell_length_c 9.472931
_cell_angle_alpha 121.162495
_cell_angle_beta 72.153144
_cell_angle_gamma 133.875875
_cell_volume 549.960628
_symmetry_space_group_name_H-M "P -1"
_symmetry_group_IT_number 2
_symmetry_cell_setting 'triclinic'
loop_
_space_group_symop_operation_xyz
x,y,z
-x,-y,-z
loop_
_atom_site_type_symbol
_atom_site_label
_atom_site_fract_x
_atom_site_fract_y
_atom_site_fract_z
Si Si1 0.486127 0.629993 0.001819
Si Si2 0.964327 0.645484 0.207888
Si Si3 0.408838 0.100311 0.624016
Si Si4 0.845845 0.216569 0.049915
Si Si5 0.152417 0.559026 0.356777
Si Si6 0.375420 0.159759 0.149840
Si Si7 0.888811 0.842877 0.533581
O O1 0.221950 0.524064 0.945978
O O2 0.627156 0.721703 0.882089
O O3 0.500000 0.500000 0.000000
O O4 0.550024 0.786398 0.179663
O O5 0.817423 0.687926 0.352088
O O6 0.078467 0.625200 0.294704
O O7 0.126513 0.778093 0.125983
O O8 0.570020 0.270895 0.585459
O O9 0.500000 0.000000 0.500000
O O10 0.133427 0.930925 0.604697
O O11 0.627727 0.208601 0.131435
O O12 0.066077 0.382117 0.188231
O O13 0.789000 0.039713 0.988479
O O14 0.000000 0.500000 0.500000
O O15 0.291516 0.180507 0.330696
O O16 0.000000 0.000000 0.500000
#
# Coordination Sequence:
#
# PCOD9065686 Si02
#       7
#     2   2   2   2   2   2   2
#     4  12  28  51  80 117 165 217 267 337 412 491
#     4  12  24  52  79 110 160 216 261 330 411 481
#     4  12  28  49  78 116 163 210 273 335 402 478
#     4  11  24  50  82 116 153 216 272 331 406 486
#     4  12  27  44  79 120 156 205 271 335 401 479
#     4  11  27  46  83 114 156 207 275 329 405 486
#     4  12  27  47  77 117 161 210 265 336 407 476
#
# _framework density 25.456365000000002
#
# number of rings (size 3 to 8) (size 9 to 14) (size 15 to 20)
#    0.000    0.286    5.714    2.143    4.000    2.286 
#    0.000    0.000    0.000    0.000    0.000    0.000 
#    0.000    0.000    0.000    0.000    0.000    0.000 
#
# Total GULP energy -78111.950222 kJ/mol
# GULP energy per Si atom -5579.425016 kJ/mol
# Density = 2.539842 g / cm^3
# Si number density = 25.456365 Si / 1000 Ang^3
#
#
#
# Elastic Constant Matrix: (Units=GPa)
#
#
# Indices 1 2 3 4 5 6 
#
# 1 79.4205 23.8223 42.6619 -11.6685 -10.3299 -10.2692
# 2 23.8223 131.9851 56.9901 -15.4366 3.0591 -11.9501
# 3 42.6619 56.9901 181.4678 -21.3545 -20.4421 1.9115
# 4 -11.6685 -15.4366 -21.3545 69.1253 10.6631 -2.9624
# 5 -10.3299 3.0591 -20.4421 10.6631 39.7203 -5.0795
# 6 -10.2692 -11.9501 1.9115 -2.9624 -5.0795 39.1788
#
#
#
# Elastic Compliance Matrix: (Units=1/GPa)
#
#
# Indices 1 2 3 4 5 6 
#
# 1 0.015596 -0.001089 -0.002901 0.001237 0.002873 0.004363
# 2 -0.001089 0.009476 -0.002854 0.001556 -0.002576 0.002528
# 3 -0.002901 -0.002854 0.007517 0.000673 0.002953 -0.001564
# 4 0.001237 0.001556 0.000673 0.015837 -0.003511 0.001508
# 5 0.002873 -0.002576 0.002953 -0.003511 0.029008 0.003319
# 6 0.004363 0.002528 -0.001564 0.001508 0.003319 0.028059
#
#
# Mechanical properties :
#
#
# Convention : Reuss Voigt Hill
#
# Bulk Modulus (GPa) = 52.90664 71.09132 61.99898
# Shear Modulus (GPa) = 39.84649 47.56482 43.70565
#
# Velocity S-wave (km/s) = 3.96066 4.32729 4.14803
# Velocity P-wave (km/s) = 6.46097 7.27699 6.88109
#
# Compressibility (1/GPa) = 0.01890122
#
# Stress axis : x y z
#
# Youngs Moduli (GPa) = 64.11957 105.53038 133.02854
#
# Poissons Ratio (x) = 0.11493 0.38595
# Poissons Ratio (y) = 0.06983 0.37961
# Poissons Ratio (z) = 0.18603 0.30114
#
# Static dielectric constant tensor:
#      x y z
#    x 2.309480 -0.000810 0.006490 
#    y -0.000810 2.103050 -0.030890 
#    z 0.006490 -0.030890 1.962530 
# 
# From -- ./inp_files/189952.got.cif
#   From: 2010.05.17/outbox.cif.g08.bks.cpg/sg2_95_cif.got.tgz:189952.got - 2010.06.03 11:33:40.
