data_PCOD9065558
_publ_section_title
;
Structure prediction by ZEFSAII (Michael W. Deem and Ramdas Pophale) SiO2 
 PCOD9065558
Probable space group: P -1
;
_chemical_formula_sum "Si O2"
_cell_formula_units_Z 14
_cell_length_a 9.130799
_cell_length_b 10.025349
_cell_length_c 8.304818
_cell_angle_alpha 108.830787
_cell_angle_beta 63.120557
_cell_angle_gamma 76.179235
_cell_volume 571.237879
_symmetry_space_group_name_H-M "P -1"
_symmetry_group_IT_number 2
_symmetry_cell_setting 'triclinic'
loop_
_space_group_symop_operation_xyz
x,y,z
-x,-y,-z
loop_
_atom_site_type_symbol
_atom_site_label
_atom_site_fract_x
_atom_site_fract_y
_atom_site_fract_z
Si Si1 0.845784 0.677239 0.650131
Si Si2 0.247849 0.923200 0.740856
Si Si3 0.061191 0.808338 0.394642
Si Si4 0.563327 0.256337 0.723906
Si Si5 0.545849 0.147236 0.051837
Si Si6 0.997827 0.228176 0.108129
Si Si7 0.167778 0.545274 0.963448
O O1 0.641376 0.703019 0.740673
O O2 0.000000 0.500000 0.500000
O O3 0.896851 0.784713 0.548639
O O4 0.868265 0.730708 0.837011
O O5 0.396934 0.853807 0.497923
O O6 0.319182 0.886988 0.876624
O O7 0.090856 0.864802 0.785741
O O8 0.133436 0.111481 0.861079
O O9 0.255048 0.716310 0.358603
O O10 0.112023 0.693975 0.168801
O O11 0.000000 0.000000 0.500000
O O12 0.362210 0.403353 0.863445
O O13 0.587521 0.181787 0.862975
O O14 0.500000 0.000000 0.000000
O O15 0.827020 0.381914 0.184146
O O16 0.000000 0.500000 0.000000
#
# Coordination Sequence:
#
# PCOD9065558 Si02
#       7
#     2   2   2   2   2   2   2
#     4  12  26  47  73 109 155 196 253 324 399 448
#     4  11  26  47  80 109 149 200 264 319 382 467
#     4  12  26  50  79 111 152 212 264 316 394 477
#     4  12  27  50  76 116 153 208 262 316 393 470
#     4  12  26  47  74 112 153 197 254 326 386 463
#     4  11  24  49  71 110 152 196 257 318 384 471
#     4  12  28  47  75 117 161 200 260 333 389 465
#
# _framework density 24.508177
#
# number of rings (size 3 to 8) (size 9 to 14) (size 15 to 20)
#    0.000    0.286    2.857    5.571    6.000    2.286 
#    0.000    0.000    0.000    0.000    0.000    0.000 
#    0.000    0.000    0.000    0.000    0.000    0.000 
#
# Total GULP energy -78169.226512 kJ/mol
# GULP energy per Si atom -5583.516179 kJ/mol
# Density = 2.445240 g / cm^3
# Si number density = 24.508177 Si / 1000 Ang^3
#
#
#
# Elastic Constant Matrix: (Units=GPa)
#
#
# Indices 1 2 3 4 5 6 
#
# 1 110.2031 20.9646 44.5464 21.3888 -3.2012 -33.3733
# 2 20.9646 82.4323 59.7410 14.8145 -0.8274 -26.5543
# 3 44.5464 59.7410 160.1161 15.0238 -5.4776 -18.5980
# 4 21.3888 14.8145 15.0238 42.3374 -3.0472 2.1542
# 5 -3.2012 -0.8274 -5.4776 -3.0472 36.9287 6.7461
# 6 -33.3733 -26.5543 -18.5980 2.1542 6.7461 47.8832
#
#
#
# Elastic Compliance Matrix: (Units=1/GPa)
#
#
# Indices 1 2 3 4 5 6 
#
# 1 0.014966 0.004184 -0.003600 -0.008506 -0.002041 0.012023
# 2 0.004184 0.021915 -0.007166 -0.008143 -0.003277 0.013115
# 3 -0.003600 -0.007166 0.009504 0.001225 0.001599 -0.003072
# 4 -0.008506 -0.008143 0.001225 0.031228 0.004020 -0.011940
# 5 -0.002041 -0.003277 0.001599 0.004020 0.028646 -0.006835
# 6 0.012023 0.013115 -0.003072 -0.011940 -0.006835 0.036844
#
#
# Mechanical properties :
#
#
# Convention : Reuss Voigt Hill
#
# Bulk Modulus (GPa) = 30.10070 67.02837 48.56454
# Shear Modulus (GPa) = 29.87911 40.59649 35.23780
#
# Velocity S-wave (km/s) = 3.49542 4.07436 3.79594
# Velocity P-wave (km/s) = 5.34782 7.03866 6.25067
#
# Compressibility (1/GPa) = 0.03322181
#
# Stress axis : x y z
#
# Youngs Moduli (GPa) = 66.81762 45.63005 105.22356
#
# Poissons Ratio (x) = -0.19092 0.37881
# Poissons Ratio (y) = -0.27958 0.75400
# Poissons Ratio (z) = 0.24055 0.32697
#
# Static dielectric constant tensor:
#      x y z
#    x 1.934360 0.022790 -0.023420 
#    y 0.022790 2.010380 0.030160 
#    z -0.023420 0.030160 1.898570 
# 
# From -- ./inp_files/189861.got.cif
#   From: 2010.05.17/outbox.cif.g08.bks.cpg/sg2_95_cif.got.tgz:189861.got - 2010.06.03 11:33:40.
