data_PCOD9065587
_publ_section_title
;
Structure prediction by ZEFSAII (Michael W. Deem and Ramdas Pophale) SiO2 
 PCOD9065587
Probable space group: P -1
;
_chemical_formula_sum "Si O2"
_cell_formula_units_Z 12
_cell_length_a 5.146225
_cell_length_b 12.092999
_cell_length_c 8.858894
_cell_angle_alpha 82.718787
_cell_angle_beta 71.872782
_cell_angle_gamma 76.827058
_cell_volume 509.238547
_symmetry_space_group_name_H-M "P -1"
_symmetry_group_IT_number 2
_symmetry_cell_setting 'triclinic'
loop_
_space_group_symop_operation_xyz
x,y,z
-x,-y,-z
loop_
_atom_site_type_symbol
_atom_site_label
_atom_site_fract_x
_atom_site_fract_y
_atom_site_fract_z
Si Si1 0.790677 0.921501 0.108630
Si Si2 0.815108 0.254668 0.426860
Si Si3 0.304994 0.128921 0.192984
Si Si4 0.444239 0.653200 0.829621
Si Si5 0.190747 0.268960 0.636608
Si Si6 0.904427 0.449643 0.870975
O O1 0.888674 0.837349 0.241720
O O2 0.503971 0.006441 0.190041
O O3 0.747963 0.850860 0.979130
O O4 0.000000 0.000000 0.000000
O O5 0.747035 0.342841 0.284384
O O6 0.515413 0.237571 0.539893
O O7 0.017752 0.145485 0.334123
O O8 0.990093 0.293537 0.524336
O O9 0.458632 0.227248 0.204570
O O10 0.704610 0.548723 0.798383
O O11 0.284809 0.635997 0.015013
O O12 0.139998 0.377099 0.737767
O O13 0.000000 0.500000 0.000000
#
# Coordination Sequence:
#
# PCOD9065587 Si02
#       6
#     2   2   2   2   2   2
#     4  11  26  46  80 104 144 194 252 298 352 440
#     4  12  27  48  71 108 158 186 236 306 367 442
#     4  11  24  49  74 106 146 195 240 305 361 428
#     4  11  24  49  74 106 146 195 240 305 361 428
#     4  12  29  46  75 110 146 194 242 298 375 428
#     4  11  26  46  80 104 144 194 252 298 352 440
#
# _framework density 23.564596000000002
#
# number of rings (size 3 to 8) (size 9 to 14) (size 15 to 20)
#    0.000    0.667    1.667    5.000   11.667    2.667 
#    0.000    0.000    0.000    0.000    0.000    0.000 
#    0.000    0.000    0.000    0.000    0.000    0.000 
#
# Total GULP energy -67211.828443 kJ/mol
# GULP energy per Si atom -5600.985704 kJ/mol
# Density = 2.351096 g / cm^3
# Si number density = 23.564596 Si / 1000 Ang^3
#
#
#
# Elastic Constant Matrix: (Units=GPa)
#
#
# Indices 1 2 3 4 5 6 
#
# 1 127.8215 39.6573 60.3469 18.6713 6.2730 -12.5757
# 2 39.6573 77.8301 65.5305 26.7651 4.0043 -18.0622
# 3 60.3469 65.5305 123.0601 24.0476 9.5522 -11.1877
# 4 18.6713 26.7651 24.0476 30.6807 -15.4459 -8.6074
# 5 6.2730 4.0043 9.5522 -15.4459 53.1713 -0.4259
# 6 -12.5757 -18.0622 -11.1877 -8.6074 -0.4259 34.0046
#
#
#
# Elastic Compliance Matrix: (Units=1/GPa)
#
#
# Indices 1 2 3 4 5 6 
#
# 1 0.010563 -0.000453 -0.004092 -0.003083 -0.001360 0.001522
# 2 -0.000453 0.031486 -0.011778 -0.018514 -0.005517 0.007926
# 3 -0.004092 -0.011778 0.016795 -0.002400 -0.002368 -0.002880
# 4 -0.003083 -0.018514 -0.002400 0.064385 0.020931 0.004796
# 5 -0.001360 -0.005517 -0.002368 0.020931 0.025900 0.001410
# 6 0.001522 0.007926 -0.002880 0.004796 0.001410 0.034465
#
#
# Mechanical properties :
#
#
# Convention : Reuss Voigt Hill
#
# Bulk Modulus (GPa) = 38.17046 73.30901 55.73973
# Shear Modulus (GPa) = 22.22500 34.44980 28.33740
#
# Velocity S-wave (km/s) = 3.07441 3.82767 3.47153
# Velocity P-wave (km/s) = 5.36992 7.12124 6.30667
#
# Compressibility (1/GPa) = 0.02619827
#
# Stress axis : x y z
#
# Youngs Moduli (GPa) = 94.67158 31.76026 59.54090
#
# Poissons Ratio (x) = 0.01440 0.24364
# Poissons Ratio (y) = 0.04292 0.70124
# Poissons Ratio (z) = 0.38739 0.37406
#
# Static dielectric constant tensor:
#      x y z
#    x 1.952390 0.025440 -0.013930 
#    y 0.025440 1.877350 0.005180 
#    z -0.013930 0.005180 1.890820 
# 
# From -- ./inp_files/24349.got.cif
#   From: 2010.05.17/outbox.cif.g08.bks.cpg/sg2_13_cif.got.tgz:24349.got - 2010.06.03 11:33:40.
