data_PCOD9065673
_publ_section_title
;
Structure prediction by ZEFSAII (Michael W. Deem and Ramdas Pophale) SiO2 
 PCOD9065673
Probable space group: P -1
;
_chemical_formula_sum "Si O2"
_cell_formula_units_Z 15
_cell_length_a 6.092775
_cell_length_b 11.367783
_cell_length_c 12.585290
_cell_angle_alpha 122.641420
_cell_angle_beta 54.551380
_cell_angle_gamma 107.339317
_cell_volume 597.807131
_symmetry_space_group_name_H-M "P -1"
_symmetry_group_IT_number 2
_symmetry_cell_setting 'triclinic'
loop_
_space_group_symop_operation_xyz
x,y,z
-x,-y,-z
loop_
_atom_site_type_symbol
_atom_site_label
_atom_site_fract_x
_atom_site_fract_y
_atom_site_fract_z
Si Si1 0.259326 0.213227 0.883678
Si Si2 0.340033 0.613093 0.529740
Si Si3 0.800013 0.808203 0.506836
Si Si4 0.978556 0.949648 0.306139
Si Si5 0.216440 0.614428 0.209612
Si Si6 0.285075 0.412665 0.257744
Si Si7 0.516828 0.863342 0.001535
Si Si8 0.000000 0.500000 0.000000
O O1 0.551554 0.274462 0.804674
O O2 0.255657 0.160873 0.981910
O O3 0.069995 0.346891 0.971438
O O4 0.216705 0.081957 0.752698
O O5 0.500000 0.500000 0.500000
O O6 0.495422 0.757101 0.570195
O O7 0.367855 0.540580 0.371218
O O8 0.025409 0.621369 0.650740
O O9 0.855343 0.885601 0.417110
O O10 0.986463 0.668987 0.380807
O O11 0.916216 0.899401 0.614274
O O12 0.248445 0.873883 0.151295
O O13 0.342354 0.472055 0.153145
O O14 0.071223 0.585582 0.127411
O O15 0.455663 0.270439 0.148234
O O16 0.500000 0.000000 0.000000
#
# Coordination Sequence:
#
# PCOD9065673 Si02
#       8
#     2   2   2   2   2   2   2   1
#     4  12  25  47  77 120 150 206 259 323 392 458
#     4  11  25  48  79 114 153 201 260 331 392 459
#     4  11  24  50  76 113 158 202 261 329 385 468
#     4  11  27  50  75 111 159 209 264 312 393 467
#     4  12  24  44  79 119 152 194 258 334 393 454
#     4  11  27  47  78 118 152 207 258 319 403 462
#     4  12  29  52  74 111 165 210 261 314 389 479
#     4  12  24  42  78 116 158 184 262 326 392 454
#
# _framework density 25.091705999999999
#
# number of rings (size 3 to 8) (size 9 to 14) (size 15 to 20)
#    0.000    0.533    5.333    1.200    3.733    2.133 
#    4.800    0.000    0.000    0.000    0.000    0.000 
#    0.000    0.000    0.000    0.000    0.000    0.000 
#
# Total GULP energy -83686.863683 kJ/mol
# GULP energy per Si atom -5579.124246 kJ/mol
# Density = 2.503460 g / cm^3
# Si number density = 25.091706 Si / 1000 Ang^3
#
#
#
# Elastic Constant Matrix: (Units=GPa)
#
#
# Indices 1 2 3 4 5 6 
#
# 1 95.0643 67.6126 45.3843 5.9069 32.0340 10.0205
# 2 67.6126 155.3293 42.4890 8.1093 16.3008 8.6509
# 3 45.3843 42.4890 95.9130 23.4640 16.7371 20.9771
# 4 5.9069 8.1093 23.4640 37.1198 4.3132 14.9629
# 5 32.0340 16.3008 16.7371 4.3132 52.3397 1.6412
# 6 10.0205 8.6509 20.9771 14.9629 1.6412 58.5415
#
#
#
# Elastic Compliance Matrix: (Units=1/GPa)
#
#
# Indices 1 2 3 4 5 6 
#
# 1 0.021181 -0.006721 -0.006042 0.003422 -0.009186 -0.001084
# 2 -0.006721 0.009555 -0.001262 -0.000515 0.001575 0.000278
# 3 -0.006042 -0.001262 0.016462 -0.008070 -0.000427 -0.002604
# 4 0.003422 -0.000515 -0.008070 0.034402 -0.001989 -0.006355
# 5 -0.009186 0.001575 -0.000427 -0.001989 0.024497 0.001314
# 6 -0.001084 0.000278 -0.002604 -0.006355 0.001314 0.019747
#
#
# Mechanical properties :
#
#
# Convention : Reuss Voigt Hill
#
# Bulk Modulus (GPa) = 52.22537 73.03092 62.62815
# Shear Modulus (GPa) = 31.19590 42.32157 36.75873
#
# Velocity S-wave (km/s) = 3.52984 4.11137 3.83165
# Velocity P-wave (km/s) = 6.12144 7.19073 6.67752
#
# Compressibility (1/GPa) = 0.01914778
#
# Stress axis : x y z
#
# Youngs Moduli (GPa) = 47.21118 104.65732 60.74527
#
# Poissons Ratio (x) = 0.70345 0.36702
# Poissons Ratio (y) = 0.31733 0.07666
# Poissons Ratio (z) = 0.28525 0.13208
#
# Static dielectric constant tensor:
#      x y z
#    x 2.000040 0.009470 0.022360 
#    y 0.009470 2.084780 0.032950 
#    z 0.022360 0.032950 2.016580 
# 
# From -- ./inp_files/365158.got.cif
#   From: 2010.05.17/outbox.cif.g08.bks.cpg/sg2_183_cif.got.tgz:365158.got - 2010.06.03 11:33:40.
