data_PCOD9065273
_publ_section_title
;
Structure prediction by ZEFSAII (Michael W. Deem and Ramdas Pophale) SiO2 
 PCOD9065273
Probable space group: P -1
;
_chemical_formula_sum "Si O2"
_cell_formula_units_Z 16
_cell_length_a 11.846562
_cell_length_b 15.113146
_cell_length_c 17.534795
_cell_angle_alpha 149.739270
_cell_angle_beta 150.528153
_cell_angle_gamma 52.242338
_cell_volume 643.156589
_symmetry_space_group_name_H-M "P -1"
_symmetry_group_IT_number 2
_symmetry_cell_setting 'triclinic'
loop_
_space_group_symop_operation_xyz
x,y,z
-x,-y,-z
loop_
_atom_site_type_symbol
_atom_site_label
_atom_site_fract_x
_atom_site_fract_y
_atom_site_fract_z
Si Si1 0.092689 0.179070 0.485004
Si Si2 0.498554 0.720152 0.604928
Si Si3 0.588180 0.090465 0.869239
Si Si4 0.803662 0.763920 0.243143
Si Si5 0.412590 0.299612 0.189798
Si Si6 0.602428 0.303880 0.778681
Si Si7 0.856081 0.119136 0.891170
Si Si8 0.187627 0.679102 0.683073
O O1 0.996407 0.299321 0.468525
O O2 0.074640 0.226033 0.595926
O O3 0.397204 0.259483 0.695841
O O4 0.878203 0.927207 0.158088
O O5 0.381737 0.491108 0.329347
O O6 0.431837 0.700151 0.641265
O O7 0.403885 0.835278 0.577926
O O8 0.836751 0.831466 0.887805
O O9 0.463862 0.229942 0.894471
O O10 0.792608 0.154240 0.966308
O O11 0.681220 0.121332 0.035195
O O12 0.725844 0.541285 0.997285
O O13 0.000000 0.000000 0.500000
O O14 0.588604 0.333383 0.242434
O O15 0.816355 0.257568 0.908110
O O16 0.390465 0.121618 0.458207
O O17 0.000000 0.500000 0.500000
#
# Coordination Sequence:
#
# PCOD9065273 Si02
#       8
#     2   2   2   2   2   2   2   2
#     4  12  24  48  74 108 150 197 247 314 376 450
#     4  11  25  43  73 107 152 195 247 311 373 444
#     4  12  25  45  69 114 143 192 255 307 371 451
#     4  12  29  46  73 109 155 199 254 304 380 451
#     4  11  25  46  72 108 149 196 248 308 380 443
#     4  11  25  48  75 106 147 201 250 305 381 450
#     4  11  24  47  77 109 149 196 254 309 381 446
#     4  12  26  43  74 108 148 194 250 310 377 440
#
# _framework density 24.877302
#
# number of rings (size 3 to 8) (size 9 to 14) (size 15 to 20)
#    0.000    0.500    3.750    3.375    5.250    4.000 
#    0.000    1.250    0.000    0.000    0.000    0.000 
#    0.000    0.000    0.000    0.000    0.000    0.000 
#
# Total GULP energy -89454.694290 kJ/mol
# GULP energy per Si atom -5590.918393 kJ/mol
# Density = 2.482068 g / cm^3
# Si number density = 24.877302 Si / 1000 Ang^3
#
#
#
# Elastic Constant Matrix: (Units=GPa)
#
#
# Indices 1 2 3 4 5 6 
#
# 1 135.3249 18.8012 28.1811 -0.1212 11.8356 6.2408
# 2 18.8012 137.1860 45.4554 23.8846 -0.3711 4.7980
# 3 28.1811 45.4554 118.3797 24.5640 7.8046 -6.9274
# 4 -0.1212 23.8846 24.5640 38.2116 2.1582 -1.6610
# 5 11.8356 -0.3711 7.8046 2.1582 22.9399 0.3755
# 6 6.2408 4.7980 -6.9274 -1.6610 0.3755 34.5379
#
#
#
# Elastic Compliance Matrix: (Units=1/GPa)
#
#
# Indices 1 2 3 4 5 6 
#
# 1 0.008307 -0.000786 -0.001914 0.001891 -0.003799 -0.001643
# 2 -0.000786 0.009074 -0.002671 -0.004145 0.001882 -0.001874
# 3 -0.001914 -0.002671 0.011370 -0.005387 -0.002463 0.002765
# 4 0.001891 -0.004145 -0.005387 0.032390 -0.002269 0.000736
# 5 -0.003799 0.001882 -0.002463 -0.002269 0.046645 -0.000685
# 6 -0.001643 -0.001874 0.002765 0.000736 -0.000685 0.030108
#
#
# Mechanical properties :
#
#
# Convention : Reuss Voigt Hill
#
# Bulk Modulus (GPa) = 55.52429 63.97399 59.74914
# Shear Modulus (GPa) = 32.33291 39.03473 35.68382
#
# Velocity S-wave (km/s) = 3.60904 3.96547 3.79145
# Velocity P-wave (km/s) = 6.30354 6.83654 6.57544
#
# Compressibility (1/GPa) = 0.01801014
#
# Stress axis : x y z
#
# Youngs Moduli (GPa) = 120.37836 110.19948 87.94742
#
# Poissons Ratio (x) = 0.08667 0.16831
# Poissons Ratio (y) = 0.09467 0.23488
# Poissons Ratio (z) = 0.23038 0.29431
#
# Static dielectric constant tensor:
#      x y z
#    x 1.927700 0.117460 0.154530 
#    y 0.117460 1.707810 -0.356660 
#    z 0.154530 -0.356660 1.702480 
# 
# From -- ./inp_files/569993.got.cif
#   From: 2010.05.17/outbox.cif.g08.bks.cpg/sg2_285_cif.got.tgz:569993.got - 2010.06.03 11:33:40.
