data_PCOD9065627
_publ_section_title
;
Structure prediction by ZEFSAII (Michael W. Deem and Ramdas Pophale) SiO2 
 PCOD9065627
Probable space group: P -1
;
_chemical_formula_sum "Si O2"
_cell_formula_units_Z 10
_cell_length_a 14.215471
_cell_length_b 7.305943
_cell_length_c 5.037632
_cell_angle_alpha 116.347321
_cell_angle_beta 93.545318
_cell_angle_gamma 120.669898
_cell_volume 374.008367
_symmetry_space_group_name_H-M "P -1"
_symmetry_group_IT_number 2
_symmetry_cell_setting 'triclinic'
loop_
_space_group_symop_operation_xyz
x,y,z
-x,-y,-z
loop_
_atom_site_type_symbol
_atom_site_label
_atom_site_fract_x
_atom_site_fract_y
_atom_site_fract_z
Si Si1 0.382283 0.364181 0.650856
Si Si2 0.584342 0.916217 0.926645
Si Si3 0.824134 0.343017 0.538862
Si Si4 0.026287 0.834191 0.569833
Si Si5 0.762661 0.678352 0.903723
O O1 0.508329 0.638618 0.875244
O O2 0.395795 0.149462 0.408508
O O3 0.320643 0.397208 0.409668
O O4 0.297494 0.308683 0.839255
O O5 0.500000 0.000000 0.000000
O O6 0.709575 0.121215 0.214682
O O7 0.898500 0.250739 0.607436
O O8 0.786027 0.469560 0.816276
O O9 0.912528 0.580244 0.510782
O O10 0.000000 0.000000 0.500000
O O11 0.116922 0.039614 0.938750
#
# Coordination Sequence:
#
# PCOD9065627 Si02
#       5
#     2   2   2   2   2
#     4  11  27  48  77 116 161 208 256 336 400 471
#     4  11  24  49  78 114 159 208 262 325 401 480
#     4  11  25  50  80 116 158 211 270 324 403 479
#     4  11  26  50  79 114 162 207 269 333 398 470
#     4  12  25  51  78 114 160 207 266 331 399 474
#
# _framework density 26.737373999999999
#
# number of rings (size 3 to 8) (size 9 to 14) (size 15 to 20)
#    0.000    0.800    4.000    1.800    0.000    6.400 
#    0.000    0.000    0.000    0.000    0.000    0.000 
#    0.000    0.000    0.000    0.000    0.000    0.000 
#
# Total GULP energy -56117.952346 kJ/mol
# GULP energy per Si atom -5611.795235 kJ/mol
# Density = 2.667652 g / cm^3
# Si number density = 26.737374 Si / 1000 Ang^3
#
#
#
# Elastic Constant Matrix: (Units=GPa)
#
#
# Indices 1 2 3 4 5 6 
#
# 1 244.5947 79.6914 82.7071 11.1972 -39.5452 -17.2192
# 2 79.6914 146.8184 76.0995 20.8210 3.5847 8.4253
# 3 82.7071 76.0995 151.4088 32.1446 -24.4270 27.0845
# 4 11.1972 20.8210 32.1446 55.2625 13.6265 2.7370
# 5 -39.5452 3.5847 -24.4270 13.6265 57.3761 15.1765
# 6 -17.2192 8.4253 27.0845 2.7370 15.1765 61.2525
#
#
#
# Elastic Compliance Matrix: (Units=1/GPa)
#
#
# Indices 1 2 3 4 5 6 
#
# 1 0.006256 -0.002521 -0.002097 0.000060 0.002954 0.002298
# 2 -0.002521 0.010901 -0.005367 0.000752 -0.005262 0.001435
# 3 -0.002097 -0.005367 0.015369 -0.008464 0.009740 -0.008682
# 4 0.000060 0.000752 -0.008464 0.025170 -0.010976 0.005251
# 5 0.002954 -0.005262 0.009740 -0.010976 0.029049 -0.009460
# 6 0.002298 0.001435 -0.008682 0.005251 -0.009460 0.022723
#
#
# Mechanical properties :
#
#
# Convention : Reuss Voigt Hill
#
# Bulk Modulus (GPa) = 79.64872 113.31309 96.48091
# Shear Modulus (GPa) = 37.41874 55.06647 46.24261
#
# Velocity S-wave (km/s) = 3.74504 4.54313 4.16325
# Velocity P-wave (km/s) = 6.96810 8.36613 7.69891
#
# Compressibility (1/GPa) = 0.01255513
#
# Stress axis : x y z
#
# Youngs Moduli (GPa) = 159.85859 91.73668 65.06447
#
# Poissons Ratio (x) = 0.23125 0.13647
# Poissons Ratio (y) = 0.40298 0.34920
# Poissons Ratio (z) = 0.33528 0.49236
#
# Static dielectric constant tensor:
#      x y z
#    x 2.146340 -0.030400 0.002790 
#    y -0.030400 2.108400 -0.026760 
#    z 0.002790 -0.026760 2.111140 
# 
# From -- ./inp_files/86875.got.cif
#   From: 2010.05.17/outbox.cif.g08.bks.cpg/sg2_44_cif.got.tgz:86875.got - 2010.06.03 11:33:40.
