data_PCOD9065650
_publ_section_title
;
Structure prediction by ZEFSAII (Michael W. Deem and Ramdas Pophale) SiO2 
 PCOD9065650
Probable space group: P -1
;
_chemical_formula_sum "Si O2"
_cell_formula_units_Z 12
_cell_length_a 11.363407
_cell_length_b 12.289198
_cell_length_c 11.718865
_cell_angle_alpha 144.364436
_cell_angle_beta 146.376928
_cell_angle_gamma 36.348891
_cell_volume 484.165355
_symmetry_space_group_name_H-M "P -1"
_symmetry_group_IT_number 2
_symmetry_cell_setting 'triclinic'
loop_
_space_group_symop_operation_xyz
x,y,z
-x,-y,-z
loop_
_atom_site_type_symbol
_atom_site_label
_atom_site_fract_x
_atom_site_fract_y
_atom_site_fract_z
Si Si1 0.214082 0.277984 0.472360
Si Si2 0.623115 0.359145 0.328299
Si Si3 0.472772 0.807932 0.673357
Si Si4 0.073478 0.168626 0.038770
Si Si5 0.121112 0.126295 0.494223
Si Si6 0.437393 0.538253 0.113713
O O1 0.145263 0.147532 0.212300
O O2 0.256252 0.188529 0.557149
O O3 0.435354 0.308750 0.627028
O O4 0.000000 0.500000 0.500000
O O5 0.475410 0.592397 0.445378
O O6 0.572677 0.206598 0.241745
O O7 0.552677 0.352124 0.134218
O O8 0.894818 0.314956 0.516855
O O9 0.719035 0.811255 0.846067
O O10 0.276816 0.993772 0.608345
O O11 0.834803 0.367684 0.010191
O O12 0.999952 0.000748 0.780501
O O13 0.500000 0.500000 0.000000
#
# Coordination Sequence:
#
# PCOD9065650 Si02
#       6
#     2   2   2   2   2   2
#     4  12  23  44  70 104 142 182 233 293 348 413
#     4  11  24  50  71 101 143 187 237 289 347 412
#     4  11  26  48  72 100 144 189 235 291 342 419
#     4  12  24  44  67 108 143 184 232 289 355 410
#     4  12  25  45  72 105 143 183 236 288 353 418
#     4  12  24  44  73 105 134 181 236 285 350 415
#
# _framework density 24.784922000000002
#
# number of rings (size 3 to 8) (size 9 to 14) (size 15 to 20)
#    0.000    0.333    6.667    1.000    0.000    6.667 
#    0.000    0.000    0.000    0.000    0.000    0.000 
#    0.000    0.000    0.000    0.000    0.000    0.000 
#
# Total GULP energy -67244.790353 kJ/mol
# GULP energy per Si atom -5603.732529 kJ/mol
# Density = 2.472851 g / cm^3
# Si number density = 24.784922 Si / 1000 Ang^3
#
#
#
# Elastic Constant Matrix: (Units=GPa)
#
#
# Indices 1 2 3 4 5 6 
#
# 1 161.8441 59.5514 26.2174 -32.8107 -0.4200 41.1202
# 2 59.5514 132.1371 19.5837 -47.1423 -14.0782 22.0764
# 3 26.2174 19.5837 85.2685 -11.2785 1.1867 7.3031
# 4 -32.8107 -47.1423 -11.2785 46.6162 -3.6754 -2.3346
# 5 -0.4200 -14.0782 1.1867 -3.6754 30.1292 -7.6368
# 6 41.1202 22.0764 7.3031 -2.3346 -7.6368 54.4821
#
#
#
# Elastic Compliance Matrix: (Units=1/GPa)
#
#
# Indices 1 2 3 4 5 6 
#
# 1 0.009483 -0.001705 -0.001408 0.004158 -0.001709 -0.006339
# 2 -0.001705 0.014795 -0.000882 0.014028 0.007905 -0.002881
# 3 -0.001408 -0.000882 0.012545 0.001066 -0.000882 -0.000340
# 4 0.004158 0.014028 0.001066 0.039306 0.009871 -0.005898
# 5 -0.001709 0.007905 -0.000882 0.009871 0.039142 0.004114
# 6 -0.006339 -0.002881 -0.000340 -0.005898 0.004114 0.024676
#
#
# Mechanical properties :
#
#
# Convention : Reuss Voigt Hill
#
# Bulk Modulus (GPa) = 34.67903 65.55052 50.11477
# Shear Modulus (GPa) = 31.73651 44.50532 38.12092
#
# Velocity S-wave (km/s) = 3.58226 4.24212 3.92608
# Velocity P-wave (km/s) = 5.57965 7.10628 6.38873
#
# Compressibility (1/GPa) = 0.02883587
#
# Stress axis : x y z
#
# Youngs Moduli (GPa) = 105.44919 67.58979 79.71070
#
# Poissons Ratio (x) = 0.11522 0.11220
# Poissons Ratio (y) = 0.17976 0.07028
# Poissons Ratio (z) = 0.14843 0.05959
#
# Static dielectric constant tensor:
#      x y z
#    x 1.975440 -0.052480 -0.068860 
#    y -0.052480 1.998420 0.058950 
#    z -0.068860 0.058950 2.010680 
# 
# From -- ./inp_files/89644.got.cif
#   From: 2010.05.17/outbox.cif.g08.bks.cpg/sg2_45_cif.got.tgz:89644.got - 2010.06.03 11:33:40.
