data_PCOD9065082
_publ_section_title
;
Structure prediction by ZEFSAII (Michael W. Deem and Ramdas Pophale) SiO2 
 PCOD9065082
Probable space group: P -1
;
_chemical_formula_sum "Si O2"
_cell_formula_units_Z 16
_cell_length_a 4.987708
_cell_length_b 13.678865
_cell_length_c 11.263797
_cell_angle_alpha 108.253640
_cell_angle_beta 86.408523
_cell_angle_gamma 60.830879
_cell_volume 615.409102
_symmetry_space_group_name_H-M "P -1"
_symmetry_group_IT_number 2
_symmetry_cell_setting 'triclinic'
loop_
_space_group_symop_operation_xyz
x,y,z
-x,-y,-z
loop_
_atom_site_type_symbol
_atom_site_label
_atom_site_fract_x
_atom_site_fract_y
_atom_site_fract_z
Si Si1 0.252336 0.448246 0.081274
Si Si2 0.954515 0.884870 0.884789
Si Si3 0.800021 0.226606 0.573284
Si Si4 0.495637 0.090667 0.438143
Si Si5 0.665225 0.729947 0.786571
Si Si6 0.634798 0.586522 0.517309
Si Si7 0.593419 0.925559 0.155806
Si Si8 0.856165 0.303586 0.844501
O O1 0.199822 0.378225 0.161244
O O2 0.211860 0.574101 0.172728
O O3 0.599179 0.356547 0.978213
O O4 0.000000 0.500000 0.000000
O O5 0.894383 0.781522 0.793265
O O6 0.318148 0.835938 0.878513
O O7 0.771939 0.001704 0.848400
O O8 0.784587 0.912420 0.026780
O O9 0.742058 0.125796 0.485004
O O10 0.495472 0.350030 0.580754
O O11 0.808152 0.228838 0.715633
O O12 0.127937 0.203818 0.500609
O O13 0.500000 0.000000 0.500000
O O14 0.588725 0.018658 0.285882
O O15 0.565596 0.690589 0.654527
O O16 0.500000 0.500000 0.500000
O O17 0.000000 0.500000 0.500000
O O18 0.786869 0.789036 0.152365
#
# Coordination Sequence:
#
# PCOD9065082 Si02
#       8
#     2   2   2   2   2   2   2   2
#     4  11  26  43  73 103 139 189 232 296 347 412
#     4  11  26  45  73 103 136 188 222 298 344 419
#     4  12  27  47  71 104 142 186 234 289 350 419
#     4  12  26  45  71 104 140 184 229 287 354 418
#     4  12  25  48  72 101 143 179 241 281 353 411
#     4  12  26  45  72 102 139 188 235 288 344 414
#     4  11  24  47  71 104 144 177 239 282 359 414
#     4  11  25  46  69 104 142 183 236 288 354 414
#
# _framework density 25.998964999999998
#
# number of rings (size 3 to 8) (size 9 to 14) (size 15 to 20)
#    0.000    0.500    2.500    4.875    5.250    4.000 
#    2.250    0.000    0.000    0.000    0.000    0.000 
#    0.000    0.000    0.000    0.000    0.000    0.000 
#
# Total GULP energy -89651.318285 kJ/mol
# GULP energy per Si atom -5603.207393 kJ/mol
# Density = 2.593979 g / cm^3
# Si number density = 25.998965 Si / 1000 Ang^3
#
#
#
# Elastic Constant Matrix: (Units=GPa)
#
#
# Indices 1 2 3 4 5 6 
#
# 1 122.6677 26.6054 8.2120 8.5220 10.8297 -7.3940
# 2 26.6054 159.6519 6.7925 -11.4488 -0.4574 -24.4065
# 3 8.2120 6.7925 100.4543 5.6175 22.4354 5.0975
# 4 8.5220 -11.4488 5.6175 43.1858 -2.7674 3.4216
# 5 10.8297 -0.4574 22.4354 -2.7674 41.8205 11.1880
# 6 -7.3940 -24.4065 5.0975 3.4216 11.1880 39.3443
#
#
#
# Elastic Compliance Matrix: (Units=1/GPa)
#
#
# Indices 1 2 3 4 5 6 
#
# 1 0.009011 -0.001403 0.000088 -0.002509 -0.003071 0.001903
# 2 -0.001403 0.007314 -0.000657 0.001951 -0.000212 0.004249
# 3 0.000088 -0.000657 0.011530 -0.002110 -0.006386 0.000114
# 4 -0.002509 0.001951 -0.002110 0.024886 0.004067 -0.002309
# 5 -0.003071 -0.000212 -0.006386 0.004067 0.030806 -0.008995
# 6 0.001903 0.004249 0.000114 -0.002309 -0.008995 0.031154
#
#
# Mechanical properties :
#
#
# Convention : Reuss Voigt Hill
#
# Bulk Modulus (GPa) = 41.82301 51.77707 46.80004
# Shear Modulus (GPa) = 39.48921 47.61438 43.55179
#
# Velocity S-wave (km/s) = 3.90150 4.28412 4.09728
# Velocity P-wave (km/s) = 6.03465 6.66558 6.35794
#
# Compressibility (1/GPa) = 0.02391028
#
# Stress axis : x y z
#
# Youngs Moduli (GPa) = 110.97918 136.71765 86.72709
#
# Poissons Ratio (x) = 0.19183 -0.00762
# Poissons Ratio (y) = 0.15572 0.05701
# Poissons Ratio (z) = -0.00975 0.08987
#
# Static dielectric constant tensor:
#      x y z
#    x 2.003800 0.009110 -0.025300 
#    y 0.009110 2.095100 0.074610 
#    z -0.025300 0.074610 2.058760 
# 
# From -- ./inp_files/367859.got.cif
#   From: 2010.05.17/outbox.cif.g08.bks.cpg/sg2_184_cif.got.tgz:367859.got - 2010.06.03 11:33:40.
