data_PCOD9065900
_publ_section_title
;
Structure prediction by ZEFSAII (Michael W. Deem and Ramdas Pophale) SiO2 
 PCOD9065900
Probable space group: P -1
;
_chemical_formula_sum "Si O2"
_cell_formula_units_Z 12
_cell_length_a 15.252248
_cell_length_b 10.348106
_cell_length_c 15.263502
_cell_angle_alpha 135.746345
_cell_angle_beta 18.720324
_cell_angle_gamma 138.576978
_cell_volume 511.341304
_symmetry_space_group_name_H-M "P -1"
_symmetry_group_IT_number 2
_symmetry_cell_setting 'triclinic'
loop_
_space_group_symop_operation_xyz
x,y,z
-x,-y,-z
loop_
_atom_site_type_symbol
_atom_site_label
_atom_site_fract_x
_atom_site_fract_y
_atom_site_fract_z
Si Si1 0.983234 0.418910 0.226940
Si Si2 0.484987 0.109661 0.839275
Si Si3 0.586564 0.606404 0.324210
Si Si4 0.789311 0.124369 0.740723
Si Si5 0.978877 0.687670 0.664411
Si Si6 0.693661 0.324238 0.200223
O O1 0.094309 0.653916 0.227833
O O2 0.642992 0.364515 0.512083
O O3 0.071676 0.360318 0.208636
O O4 0.112070 0.328687 0.980433
O O5 0.703494 0.143160 0.730380
O O6 0.705625 0.153173 0.570154
O O7 0.277576 0.887680 0.935995
O O8 0.281121 0.244236 0.093650
O O9 0.540140 0.382303 0.289448
O O10 0.510796 0.684540 0.526484
O O11 0.000000 0.000000 0.500000
O O12 0.500000 0.000000 0.000000
O O13 0.000000 0.500000 0.500000
O O14 0.000000 0.500000 0.000000
#
# Coordination Sequence:
#
# PCOD9065900 Si02
#       6
#     2   2   2   2   2   2
#     4  12  24  45  69 101 144 183 236 292 354 411
#     4  12  27  45  74 105 140 192 244 279 363 430
#     4  11  25  43  75 102 139 183 231 295 360 414
#     4  12  25  40  69 107 142 173 236 299 362 423
#     4  12  27  48  71 101 148 198 233 291 349 427
#     4  11  25  48  76 103 146 183 235 295 369 411
#
# _framework density 23.467690999999999
#
# number of rings (size 3 to 8) (size 9 to 14) (size 15 to 20)
#    0.000    0.333    3.333    5.500    7.000    0.000 
#    0.000    5.000    0.000    0.000    0.000    0.000 
#    0.000    0.000    0.000    0.000    0.000    0.000 
#
# Total GULP energy -67101.966305 kJ/mol
# GULP energy per Si atom -5591.830525 kJ/mol
# Density = 2.341428 g / cm^3
# Si number density = 23.467691 Si / 1000 Ang^3
#
#
#
# Elastic Constant Matrix: (Units=GPa)
#
#
# Indices 1 2 3 4 5 6 
#
# 1 99.8492 7.3880 40.8815 24.9151 -5.2394 -31.4481
# 2 7.3880 67.5463 36.2785 12.4252 -13.0680 -12.8994
# 3 40.8815 36.2785 159.1627 15.3088 -18.9098 -19.5162
# 4 24.9151 12.4252 15.3088 41.2003 -9.8735 -9.8128
# 5 -5.2394 -13.0680 -18.9098 -9.8735 44.5611 0.8061
# 6 -31.4481 -12.8994 -19.5162 -9.8128 0.8061 34.6926
#
#
#
# Elastic Compliance Matrix: (Units=1/GPa)
#
#
# Indices 1 2 3 4 5 6 
#
# 1 0.016723 0.003436 -0.002827 -0.007042 -0.000019 0.012855
# 2 0.003436 0.019095 -0.003580 -0.004011 0.003469 0.006985
# 3 -0.002827 -0.003580 0.008130 0.000467 0.002157 0.000761
# 4 -0.007042 -0.004011 0.000467 0.031025 0.005049 0.001046
# 5 -0.000019 0.003469 0.002157 0.005049 0.025430 0.003324
# 6 0.012855 0.006985 0.000761 0.001046 0.003324 0.043722
#
#
# Mechanical properties :
#
#
# Convention : Reuss Voigt Hill
#
# Bulk Modulus (GPa) = 26.31250 55.07268 40.69259
# Shear Modulus (GPa) = 30.72438 40.22482 35.47460
#
# Velocity S-wave (km/s) = 3.62224 4.14460 3.89219
# Velocity P-wave (km/s) = 5.36011 6.81337 6.12996
#
# Compressibility (1/GPa) = 0.03800476
#
# Stress axis : x y z
#
# Youngs Moduli (GPa) = 59.79674 52.37009 123.00273
#
# Poissons Ratio (x) = -0.17994 0.34776
# Poissons Ratio (y) = -0.20546 0.44040
# Poissons Ratio (z) = 0.16906 0.18751
#
# Static dielectric constant tensor:
#      x y z
#    x 1.930390 0.014150 0.030700 
#    y 0.014150 1.905460 -0.013430 
#    z 0.030700 -0.013430 1.868680 
# 
# From -- ./inp_files/311962.got.cif
#   From: 2010.05.17/outbox.cif.g08.bks.cpg/sg2_156_cif.got.tgz:311962.got - 2010.06.03 11:33:40.
