data_PCOD9065761
_publ_section_title
;
Structure prediction by ZEFSAII (Michael W. Deem and Ramdas Pophale) SiO2 
 PCOD9065761
Probable space group: P -1
;
_chemical_formula_sum "Si O2"
_cell_formula_units_Z 14
_cell_length_a 5.501492
_cell_length_b 18.759821
_cell_length_c 7.937874
_cell_angle_alpha 45.772674
_cell_angle_beta 106.168939
_cell_angle_gamma 112.412303
_cell_volume 542.611783
_symmetry_space_group_name_H-M "P -1"
_symmetry_group_IT_number 2
_symmetry_cell_setting 'triclinic'
loop_
_space_group_symop_operation_xyz
x,y,z
-x,-y,-z
loop_
_atom_site_type_symbol
_atom_site_label
_atom_site_fract_x
_atom_site_fract_y
_atom_site_fract_z
Si Si1 0.538023 0.834436 0.139861
Si Si2 0.671100 0.728045 0.849467
Si Si3 0.721542 0.523946 0.358603
Si Si4 0.688143 0.649342 0.600528
Si Si5 0.209506 0.770718 0.518668
Si Si6 0.922426 0.026455 0.735596
Si Si7 0.836916 0.089697 0.265740
O O1 0.633024 0.731870 0.320496
O O2 0.392588 0.820348 0.314968
O O3 0.338119 0.838668 0.947010
O O4 0.762738 0.940910 0.976210
O O5 0.696759 0.688831 0.728572
O O6 0.383379 0.747935 0.743907
O O7 0.876175 0.834372 0.766036
O O8 0.742486 0.641087 0.119163
O O9 0.500000 0.500000 0.500000
O O10 0.553660 0.450899 0.300089
O O11 0.000000 0.500000 0.500000
O O12 0.997788 0.663046 0.604656
O O13 0.061974 0.858424 0.389434
O O14 0.766830 0.027720 0.526975
O O15 0.157462 0.985796 0.767699
#
# Coordination Sequence:
#
# PCOD9065761 Si02
#       7
#     2   2   2   2   2   2   2
#     4  11  25  42  72 100 154 192 260 306 370 438
#     4  11  27  48  75 106 152 193 247 314 379 456
#     4  12  31  52  87 117 147 194 253 319 393 458
#     4  11  26  50  74 108 151 193 247 310 382 458
#     4  11  26  45  71 108 149 202 246 307 378 448
#     4  11  25  42  68 104 151 201 252 305 365 445
#     4  11  25  42  69 104 146 199 255 306 369 440
#
# _framework density 25.801138000000002
#
# number of rings (size 3 to 8) (size 9 to 14) (size 15 to 20)
#    0.000    0.857    1.429    3.000   16.000    2.857 
#    0.000    0.000    0.000    0.000    0.000    0.000 
#    0.000    0.000    0.000    0.000    0.000    0.000 
#
# Total GULP energy -78220.216799 kJ/mol
# GULP energy per Si atom -5587.158343 kJ/mol
# Density = 2.574241 g / cm^3
# Si number density = 25.801138 Si / 1000 Ang^3
#
#
#
# Elastic Constant Matrix: (Units=GPa)
#
#
# Indices 1 2 3 4 5 6 
#
# 1 76.6126 32.0052 31.9760 6.8568 11.5243 13.6749
# 2 32.0052 101.1070 9.0766 -14.4412 -0.4596 9.8515
# 3 31.9760 9.0766 139.8188 -0.0945 24.2168 -3.1964
# 4 6.8568 -14.4412 -0.0945 41.2129 7.6035 -8.6283
# 5 11.5243 -0.4596 24.2168 7.6035 47.3502 17.8247
# 6 13.6749 9.8515 -3.1964 -8.6283 17.8247 48.0246
#
#
#
# Elastic Compliance Matrix: (Units=1/GPa)
#
#
# Indices 1 2 3 4 5 6 
#
# 1 0.018809 -0.005943 -0.004191 -0.006600 0.000786 -0.005893
# 2 -0.005943 0.012492 0.000459 0.005251 0.000524 -0.000091
# 3 -0.004191 0.000459 0.009183 0.002859 -0.005775 0.004368
# 4 -0.006600 0.005251 0.002859 0.030769 -0.008370 0.009627
# 5 0.000786 0.000524 -0.005775 -0.008370 0.030300 -0.013465
# 6 -0.005893 -0.000091 0.004368 0.009627 -0.013465 0.029538
#
#
# Mechanical properties :
#
#
# Convention : Reuss Voigt Hill
#
# Bulk Modulus (GPa) = 47.31763 51.51710 49.41736
# Shear Modulus (GPa) = 31.74938 43.61627 37.68282
#
# Velocity S-wave (km/s) = 3.51171 4.11600 3.82581
# Velocity P-wave (km/s) = 5.90102 6.52679 6.22178
#
# Compressibility (1/GPa) = 0.02113377
#
# Stress axis : x y z
#
# Youngs Moduli (GPa) = 53.16659 80.05328 108.89811
#
# Poissons Ratio (x) = 0.47572 0.45641
# Poissons Ratio (y) = 0.31594 -0.04997
# Poissons Ratio (z) = 0.22283 -0.03673
#
# Static dielectric constant tensor:
#      x y z
#    x 2.197250 0.008020 -0.020710 
#    y 0.008020 2.179170 0.028940 
#    z -0.020710 0.028940 1.988310 
# 
# From -- ./inp_files/141056.got.cif
#   From: 2010.05.17/outbox.cif.g08.bks.cpg/sg2_71_cif.got.tgz:141056.got - 2010.06.03 11:33:40.
