data_PCOD9065371
_publ_section_title
;
Structure prediction by ZEFSAII (Michael W. Deem and Ramdas Pophale) SiO2 
 PCOD9065371
Probable space group: P -1
;
_chemical_formula_sum "Si O2"
_cell_formula_units_Z 14
_cell_length_a 18.566310
_cell_length_b 9.653086
_cell_length_c 15.137986
_cell_angle_alpha 36.665957
_cell_angle_beta 157.740262
_cell_angle_gamma 141.840053
_cell_volume 602.016389
_symmetry_space_group_name_H-M "P -1"
_symmetry_group_IT_number 2
_symmetry_cell_setting 'triclinic'
loop_
_space_group_symop_operation_xyz
x,y,z
-x,-y,-z
loop_
_atom_site_type_symbol
_atom_site_label
_atom_site_fract_x
_atom_site_fract_y
_atom_site_fract_z
Si Si1 0.726275 0.116845 0.702682
Si Si2 0.621082 0.809094 0.990124
Si Si3 0.229196 0.446554 0.343259
Si Si4 0.778654 0.414630 0.432314
Si Si5 0.810420 0.314457 0.995108
Si Si6 0.419547 0.728703 0.075705
Si Si7 0.810408 0.662985 0.101457
O O1 0.764574 0.294926 0.737958
O O2 0.774719 0.275183 0.590265
O O3 0.500000 0.000000 0.500000
O O4 0.831009 0.895035 0.943998
O O5 0.718541 0.668568 0.246637
O O6 0.735113 0.754082 0.060275
O O7 0.660795 0.081831 0.916091
O O8 0.395482 0.716187 0.761485
O O9 0.411253 0.352914 0.634434
O O10 0.028594 0.291710 0.230154
O O11 0.225502 0.475767 0.218144
O O12 0.986479 0.420382 0.622666
O O13 0.768588 0.327430 0.044376
O O14 0.352767 0.550609 0.010594
O O15 0.500000 0.000000 0.000000
#
# Coordination Sequence:
#
# PCOD9065371 Si02
#       7
#     2   2   2   2   2   2   2
#     4  12  21  45  72 100 136 180 231 283 333 403
#     4  11  25  46  70 101 139 179 228 282 340 407
#     4  11  24  48  71  99 141 183 229 281 344 408
#     4  11  25  40  72 101 137 174 228 286 339 392
#     4  11  26  46  70 101 139 187 225 278 347 412
#     4  12  29  44  70 105 142 178 227 286 346 409
#     4  12  25  47  70 102 134 181 235 276 338 409
#
# _framework density 23.255182000000001
#
# number of rings (size 3 to 8) (size 9 to 14) (size 15 to 20)
#    0.000    0.571    4.286    2.143    8.000    1.714 
#    0.000    0.000    0.000    0.000    0.000    0.000 
#    0.000    0.000    0.000    0.000    0.000    0.000 
#
# Total GULP energy -78363.820266 kJ/mol
# GULP energy per Si atom -5597.415733 kJ/mol
# Density = 2.320225 g / cm^3
# Si number density = 23.255182 Si / 1000 Ang^3
#
#
#
# Elastic Constant Matrix: (Units=GPa)
#
#
# Indices 1 2 3 4 5 6 
#
# 1 93.6774 11.8062 12.4364 -10.4510 -5.9168 19.7036
# 2 11.8062 69.8571 13.1746 -16.5078 -5.2501 12.1899
# 3 12.4364 13.1746 105.2967 -7.3295 4.0198 23.2536
# 4 -10.4510 -16.5078 -7.3295 36.5537 8.9959 -1.2868
# 5 -5.9168 -5.2501 4.0198 8.9959 21.9085 -0.7711
# 6 19.7036 12.1899 23.2536 -1.2868 -0.7711 37.6062
#
#
#
# Elastic Compliance Matrix: (Units=1/GPa)
#
#
# Indices 1 2 3 4 5 6 
#
# 1 0.012465 -0.000205 0.000083 0.002788 0.001933 -0.006381
# 2 -0.000205 0.017054 -0.000599 0.007093 0.001060 -0.004785
# 3 0.000083 -0.000599 0.011404 0.002672 -0.003553 -0.006882
# 4 0.002788 0.007093 0.002672 0.034809 -0.012488 -0.004477
# 5 0.001933 0.001060 -0.003553 -0.012488 0.052252 0.001485
# 6 -0.006381 -0.004785 -0.006882 -0.004477 0.001485 0.035618
#
#
# Mechanical properties :
#
#
# Convention : Reuss Voigt Hill
#
# Bulk Modulus (GPa) = 25.32993 38.18508 31.75750
# Shear Modulus (GPa) = 28.05770 34.64129 31.34949
#
# Velocity S-wave (km/s) = 3.47726 3.86374 3.67558
# Velocity P-wave (km/s) = 5.19977 6.02995 5.63018
#
# Compressibility (1/GPa) = 0.03947899
#
# Stress axis : x y z
#
# Youngs Moduli (GPa) = 80.22511 58.63894 87.69178
#
# Poissons Ratio (x) = 0.01201 -0.00726
# Poissons Ratio (y) = 0.01643 0.05257
# Poissons Ratio (z) = -0.00664 0.03515
#
# Static dielectric constant tensor:
#      x y z
#    x 1.935190 0.042360 -0.023500 
#    y 0.042360 1.860660 -0.022010 
#    z -0.023500 -0.022010 1.856390 
# 
# From -- ./inp_files/577935.got.cif
#   From: 2010.05.17/outbox.cif.g08.bks.cpg/sg2_289_cif.got.tgz:577935.got - 2010.06.03 11:33:40.
