data_PCOD9065515
_publ_section_title
;
Structure prediction by ZEFSAII (Michael W. Deem and Ramdas Pophale) SiO2 
 PCOD9065515
Probable space group: P -1
;
_chemical_formula_sum "Si O2"
_cell_formula_units_Z 14
_cell_length_a 8.256288
_cell_length_b 8.012356
_cell_length_c 14.131097
_cell_angle_alpha 103.281893
_cell_angle_beta 128.812678
_cell_angle_gamma 48.076913
_cell_volume 512.343999
_symmetry_space_group_name_H-M "P -1"
_symmetry_group_IT_number 2
_symmetry_cell_setting 'triclinic'
loop_
_space_group_symop_operation_xyz
x,y,z
-x,-y,-z
loop_
_atom_site_type_symbol
_atom_site_label
_atom_site_fract_x
_atom_site_fract_y
_atom_site_fract_z
Si Si1 0.615747 0.644572 0.620040
Si Si2 0.739381 0.267260 0.994843
Si Si3 0.543990 0.987082 0.902704
Si Si4 0.116115 0.298914 0.622301
Si Si5 0.624008 0.574664 0.819475
Si Si6 0.319367 0.992168 0.286727
Si Si7 0.056587 0.064718 0.401885
O O1 0.704728 0.493871 0.728576
O O2 0.619058 0.840542 0.680279
O O3 0.822167 0.532331 0.590484
O O4 0.282893 0.794273 0.490962
O O5 0.663025 0.110387 0.946018
O O6 0.732271 0.370882 0.905778
O O7 0.500000 0.500000 0.000000
O O8 0.040747 0.112839 0.138566
O O9 0.265589 0.143032 0.752793
O O10 0.710645 0.718385 0.900592
O O11 0.500000 0.000000 0.000000
O O12 0.052281 0.212998 0.499617
O O13 0.380158 0.263710 0.671458
O O14 0.274408 0.779003 0.722219
O O15 0.223559 0.019176 0.362082
#
# Coordination Sequence:
#
# PCOD9065515 Si02
#       7
#     2   2   2   2   2   2   2
#     4  11  25  47  80 114 164 216 262 335 410 478
#     4  12  25  48  83 123 159 211 272 328 415 477
#     4  12  25  48  81 118 162 212 268 332 401 486
#     4  11  26  46  78 118 158 213 272 323 412 479
#     4  12  26  52  82 117 168 208 268 344 398 484
#     4  11  24  48  79 116 160 209 269 342 394 486
#     4  11  24  48  81 116 159 213 269 338 402 479
#
# _framework density 27.325389999999999
#
# number of rings (size 3 to 8) (size 9 to 14) (size 15 to 20)
#    0.000    0.571    5.714    3.000    0.000    5.143 
#    0.000    0.000    0.000    0.000    0.000    0.000 
#    0.000    0.000    0.000    0.000    0.000    0.000 
#
# Total GULP energy -78410.880244 kJ/mol
# GULP energy per Si atom -5600.777160 kJ/mol
# Density = 2.726320 g / cm^3
# Si number density = 27.325390 Si / 1000 Ang^3
#
#
#
# Elastic Constant Matrix: (Units=GPa)
#
#
# Indices 1 2 3 4 5 6 
#
# 1 186.0909 78.6778 94.7388 -0.2885 -35.1358 -10.2224
# 2 78.6778 144.4747 82.4237 -10.0253 7.6676 -24.4652
# 3 94.7388 82.4237 174.2695 -11.1808 -20.4585 7.4803
# 4 -0.2885 -10.0253 -11.1808 36.4790 -4.9600 -3.6123
# 5 -35.1358 7.6676 -20.4585 -4.9600 82.2006 6.0830
# 6 -10.2224 -24.4652 7.4803 -3.6123 6.0830 72.3206
#
#
#
# Elastic Compliance Matrix: (Units=1/GPa)
#
#
# Indices 1 2 3 4 5 6 
#
# 1 0.008963 -0.003475 -0.002923 -0.001321 0.003345 0.000047
# 2 -0.003475 0.012588 -0.004616 0.001932 -0.004038 0.004681
# 3 -0.002923 -0.004616 0.009990 0.001736 0.002001 -0.003090
# 4 -0.001321 0.001932 0.001736 0.028803 0.001306 0.001616
# 5 0.003345 -0.004038 0.002001 0.001306 0.014717 -0.002273
# 6 0.000047 0.004681 -0.003090 0.001616 -0.002273 0.016009
#
#
# Mechanical properties :
#
#
# Convention : Reuss Voigt Hill
#
# Bulk Modulus (GPa) = 105.11847 112.94617 109.03232
# Shear Modulus (GPa) = 43.00403 54.79968 48.90186
#
# Velocity S-wave (km/s) = 3.97139 4.48308 4.23497
# Velocity P-wave (km/s) = 7.71893 8.25959 7.99383
#
# Compressibility (1/GPa) = 0.00951308
#
# Stress axis : x y z
#
# Youngs Moduli (GPa) = 111.56996 79.43921 100.10447
#
# Poissons Ratio (x) = 0.27601 0.29264
# Poissons Ratio (y) = 0.38765 0.46208
# Poissons Ratio (z) = 0.32616 0.36669
#
# Static dielectric constant tensor:
#      x y z
#    x 2.151660 0.012100 0.039410 
#    y 0.012100 2.162100 0.000240 
#    z 0.039410 0.000240 2.128800 
# 
# From -- ./inp_files/493489.got.cif
#   From: 2010.05.17/outbox.cif.g08.bks.cpg/sg2_247_cif.got.tgz:493489.got - 2010.06.03 11:33:40.
