data_PCOD9065189
_publ_section_title
;
Structure prediction by ZEFSAII (Michael W. Deem and Ramdas Pophale) SiO2 
 PCOD9065189
Probable space group: P -1
;
_chemical_formula_sum "Si O2"
_cell_formula_units_Z 14
_cell_length_a 11.831896
_cell_length_b 8.925694
_cell_length_c 24.328574
_cell_angle_alpha 153.435550
_cell_angle_beta 148.300558
_cell_angle_gamma 40.703540
_cell_volume 603.709727
_symmetry_space_group_name_H-M "P -1"
_symmetry_group_IT_number 2
_symmetry_cell_setting 'triclinic'
loop_
_space_group_symop_operation_xyz
x,y,z
-x,-y,-z
loop_
_atom_site_type_symbol
_atom_site_label
_atom_site_fract_x
_atom_site_fract_y
_atom_site_fract_z
Si Si1 0.063164 0.597460 0.996335
Si Si2 0.793276 0.711389 0.465067
Si Si3 0.467472 0.245549 0.013366
Si Si4 0.595404 0.751349 0.809238
Si Si5 0.626921 0.385705 0.599694
Si Si6 0.779593 0.744230 0.675054
Si Si7 0.150838 0.322842 0.652430
O O1 0.218532 0.345457 0.946834
O O2 0.203297 0.927188 0.174183
O O3 0.000000 0.500000 0.000000
O O4 0.840736 0.679303 0.902379
O O5 0.577617 0.533109 0.338757
O O6 0.795935 0.700315 0.396829
O O7 0.000000 0.500000 0.500000
O O8 0.770283 0.107379 0.598010
O O9 0.626570 0.569884 0.190792
O O10 0.500000 0.000000 0.000000
O O11 0.524206 0.062345 0.919518
O O12 0.594589 0.716567 0.731522
O O13 0.721413 0.465545 0.605019
O O14 0.393423 0.236060 0.438365
O O15 0.003363 0.643745 0.708254
O O16 0.000000 0.000000 0.500000
#
# Coordination Sequence:
#
# PCOD9065189 Si02
#       7
#     2   2   2   2   2   2   2
#     4  12  24  44  77 103 144 197 247 308 374 447
#     4  12  26  45  75 111 151 193 253 311 374 447
#     4  12  24  45  73 109 147 194 252 303 375 445
#     4  12  26  46  73 107 148 189 251 316 367 442
#     4  11  26  46  71 107 148 199 248 304 381 441
#     4  11  24  47  74 102 150 195 248 307 372 455
#     4  12  23  45  76 110 152 199 252 302 375 457
#
# _framework density 23.189952999999999
#
# number of rings (size 3 to 8) (size 9 to 14) (size 15 to 20)
#    0.000    0.286    5.714    3.000    4.000    0.571 
#    0.000    0.714    0.000    0.000    0.000    0.000 
#    0.000    0.000    0.000    0.000    0.000    0.000 
#
# Total GULP energy -78222.787955 kJ/mol
# GULP energy per Si atom -5587.341997 kJ/mol
# Density = 2.313717 g / cm^3
# Si number density = 23.189953 Si / 1000 Ang^3
#
#
#
# Elastic Constant Matrix: (Units=GPa)
#
#
# Indices 1 2 3 4 5 6 
#
# 1 118.8525 32.8687 32.5348 -4.0691 -22.8601 -37.4519
# 2 32.8687 106.5698 42.0463 -7.0266 -2.7468 -36.5893
# 3 32.5348 42.0463 104.7906 -9.4428 -10.1409 -7.4868
# 4 -4.0691 -7.0266 -9.4428 29.3002 -9.2303 7.4252
# 5 -22.8601 -2.7468 -10.1409 -9.2303 35.9346 3.3812
# 6 -37.4519 -36.5893 -7.4868 7.4252 3.3812 49.0865
#
#
#
# Elastic Compliance Matrix: (Units=1/GPa)
#
#
# Indices 1 2 3 4 5 6 
#
# 1 0.013509 0.000555 -0.002963 0.000848 0.007110 0.009651
# 2 0.000555 0.015187 -0.005746 -0.001452 -0.001533 0.011193
# 3 -0.002963 -0.005746 0.013113 0.004813 0.003129 -0.005487
# 4 0.000848 -0.001452 0.004813 0.041292 0.013037 -0.006845
# 5 0.007110 -0.001533 0.003129 0.013037 0.036440 0.000277
# 6 0.009651 0.011193 -0.005487 -0.006845 0.000277 0.036258
#
#
# Mechanical properties :
#
#
# Convention : Reuss Voigt Hill
#
# Bulk Modulus (GPa) = 39.21278 60.56808 49.89043
# Shear Modulus (GPa) = 27.68459 37.71513 32.69986
#
# Velocity S-wave (km/s) = 3.45892 4.03719 3.75919
# Velocity P-wave (km/s) = 5.73570 6.92147 6.35630
#
# Compressibility (1/GPa) = 0.02550189
#
# Stress axis : x y z
#
# Youngs Moduli (GPa) = 74.02436 65.84667 76.26289
#
# Poissons Ratio (x) = -0.03656 0.22596
# Poissons Ratio (y) = -0.04110 0.43817
# Poissons Ratio (z) = 0.21933 0.37832
#
# Static dielectric constant tensor:
#      x y z
#    x 1.862390 -0.003120 0.044210 
#    y -0.003120 1.935940 0.026000 
#    z 0.044210 0.026000 1.865590 
# 
# From -- ./inp_files/609973.got.cif
#   From: 2010.05.17/outbox.cif.g08.bks.cpg/sg2_305_cif.got.tgz:609973.got - 2010.06.03 11:33:40.
