data_PCOD9065043
_publ_section_title
;
Structure prediction by ZEFSAII (Michael W. Deem and Ramdas Pophale) SiO2 
 PCOD9065043
Probable space group: P -1
;
_chemical_formula_sum "Si O2"
_cell_formula_units_Z 16
_cell_length_a 6.788253
_cell_length_b 28.339987
_cell_length_c 25.904191
_cell_angle_alpha 9.748520
_cell_angle_beta 119.799170
_cell_angle_gamma 120.953904
_cell_volume 721.934300
_symmetry_space_group_name_H-M "P -1"
_symmetry_group_IT_number 2
_symmetry_cell_setting 'triclinic'
loop_
_space_group_symop_operation_xyz
x,y,z
-x,-y,-z
loop_
_atom_site_type_symbol
_atom_site_label
_atom_site_fract_x
_atom_site_fract_y
_atom_site_fract_z
Si Si1 0.353093 0.688909 0.809903
Si Si2 0.834661 0.664443 0.733596
Si Si3 0.300274 0.734945 0.948739
Si Si4 0.486368 0.990072 0.865020
Si Si5 0.147914 0.619467 0.265761
Si Si6 0.164314 0.410240 0.377821
Si Si7 0.154557 0.290774 0.720201
Si Si8 0.260939 0.101705 0.108200
O O1 0.108973 0.696741 0.742101
O O2 0.500000 0.000000 0.500000
O O3 0.500000 0.500000 0.000000
O O4 0.287689 0.536936 0.020015
O O5 0.765834 0.973309 0.394542
O O6 0.757470 0.512748 0.833230
O O7 0.570563 0.799878 0.928849
O O8 0.151925 0.637164 0.086608
O O9 0.393848 0.287867 0.524455
O O10 0.578463 0.965046 0.845492
O O11 0.302562 0.922668 0.963449
O O12 0.663653 0.806553 0.112789
O O13 0.205485 0.563176 0.274079
O O14 0.224007 0.423089 0.530597
O O15 0.884507 0.657930 0.189421
O O16 0.935198 0.170268 0.610118
O O17 0.000000 0.500000 0.500000
O O18 0.000000 0.000000 0.000000
#
# Coordination Sequence:
#
# PCOD9065043 Si02
#       8
#     2   2   2   2   2   2   2   2
#     4  11  24  49  80 110 153 196 235 296 350 404
#     4  11  27  47  73 115 149 191 246 289 347 418
#     4  12  26  47  71 106 154 191 241 299 346 428
#     4  11  24  47  69  97 140 183 241 311 382 436
#     4  11  25  45  69  99 133 187 242 299 375 446
#     4  11  27  43  71 102 140 195 243 300 367 446
#     4  12  27  44  72 101 132 180 242 310 379 454
#     4  11  25  45  69  97 144 191 238 300 371 434
#
# _framework density 22.162680000000002
#
# number of rings (size 3 to 8) (size 9 to 14) (size 15 to 20)
#    0.000    0.750    2.500    3.375   10.500    5.500 
#    0.000    0.000    0.000    0.000    0.000    0.000 
#    0.000    0.000    0.000    0.000    0.000    0.000 
#
# Total GULP energy -89117.166806 kJ/mol
# GULP energy per Si atom -5569.822925 kJ/mol
# Density = 2.211224 g / cm^3
# Si number density = 22.162680 Si / 1000 Ang^3
#
#
#
# Elastic Constant Matrix: (Units=GPa)
#
#
# Indices 1 2 3 4 5 6 
#
# 1 102.6500 43.9042 26.1750 -20.3654 4.6571 2.7262
# 2 43.9042 209.9314 54.8617 -83.1305 4.0850 3.7129
# 3 26.1750 54.8617 101.9422 -30.0423 -0.5847 14.2188
# 4 -20.3654 -83.1305 -30.0423 84.7819 -9.8544 3.8477
# 5 4.6571 4.0850 -0.5847 -9.8544 52.6833 -8.5937
# 6 2.7262 3.7129 14.2188 3.8477 -8.5937 34.4567
#
#
#
# Elastic Compliance Matrix: (Units=1/GPa)
#
#
# Indices 1 2 3 4 5 6 
#
# 1 0.011030 -0.001723 -0.001820 0.000225 -0.000848 -0.000173
# 2 -0.001723 0.008550 -0.001877 0.007421 0.000750 -0.000652
# 3 -0.001820 -0.001877 0.012739 0.002479 0.000068 -0.005170
# 4 0.000225 0.007421 0.002479 0.020475 0.002699 -0.003454
# 5 -0.000848 0.000750 0.000068 0.002699 0.020272 0.004713
# 6 -0.000173 -0.000652 -0.005170 -0.003454 0.004713 0.032801
#
#
# Mechanical properties :
#
#
# Convention : Reuss Voigt Hill
#
# Bulk Modulus (GPa) = 46.55183 73.82281 60.18732
# Shear Modulus (GPa) = 40.36655 53.68988 47.02821
#
# Velocity S-wave (km/s) = 4.27239 4.92727 4.61147
# Velocity P-wave (km/s) = 6.73706 8.10879 7.45454
#
# Compressibility (1/GPa) = 0.02148143
#
# Stress axis : x y z
#
# Youngs Moduli (GPa) = 90.65930 116.96110 78.50012
#
# Poissons Ratio (x) = 0.20149 0.14283
# Poissons Ratio (y) = 0.15618 0.14731
# Poissons Ratio (z) = 0.16496 0.21948
#
# Static dielectric constant tensor:
#      x y z
#    x 1.560270 -0.390180 -0.200110 
#    y -0.390180 1.169410 -0.261340 
#    z -0.200110 -0.261340 1.816940 
# 
# From -- ./inp_files/125735.got.cif
#   From: 2010.05.17/outbox.cif.g08.bks.cpg/sg2_63_cif.got.tgz:125735.got - 2010.06.03 11:33:40.
