data_PCOD9065957
_publ_section_title
;
Structure prediction by ZEFSAII (Michael W. Deem and Ramdas Pophale) SiO2 
 PCOD9065957
Probable space group: P -1
;
_chemical_formula_sum "Si O2"
_cell_formula_units_Z 14
_cell_length_a 8.663928
_cell_length_b 5.250568
_cell_length_c 13.343751
_cell_angle_alpha 84.345353
_cell_angle_beta 94.230174
_cell_angle_gamma 88.890426
_cell_volume 602.198113
_symmetry_space_group_name_H-M "P -1"
_symmetry_group_IT_number 2
_symmetry_cell_setting 'triclinic'
loop_
_space_group_symop_operation_xyz
x,y,z
-x,-y,-z
loop_
_atom_site_type_symbol
_atom_site_label
_atom_site_fract_x
_atom_site_fract_y
_atom_site_fract_z
Si Si1 0.477564 0.878864 0.243345
Si Si2 0.092231 0.780717 0.913852
Si Si3 0.825924 0.959947 0.286211
Si Si4 0.592976 0.239653 0.535356
Si Si5 0.229324 0.079737 0.071337
Si Si6 0.120218 0.592282 0.585038
Si Si7 0.619888 0.590608 0.085432
O O1 0.639110 0.016666 0.270802
O O2 0.396141 0.794268 0.343945
O O3 0.535604 0.646688 0.183242
O O4 0.351846 0.033994 0.165865
O O5 0.224654 0.581274 0.891333
O O6 0.909754 0.725568 0.911213
O O7 0.105702 0.008175 0.823049
O O8 0.138197 0.844916 0.028340
O O9 0.839151 0.672040 0.342699
O O10 0.912554 0.175250 0.347470
O O11 0.500000 0.500000 0.500000
O O12 0.748157 0.278967 0.480625
O O13 0.500000 0.000000 0.500000
O O14 0.324783 0.152783 0.974582
O O15 0.000000 0.500000 0.500000
O O16 0.500000 0.500000 0.000000
#
# Coordination Sequence:
#
# PCOD9065957 Si02
#       7
#     2   2   2   2   2   2   2
#     4  12  24  46  76 107 149 198 262 302 394 448
#     4  11  25  45  69 104 154 188 253 307 384 448
#     4  12  25  47  78 108 147 203 251 316 385 465
#     4  12  26  49  77 113 153 197 261 327 382 460
#     4  11  25  44  69 106 146 195 246 316 372 458
#     4  12  27  51  76 109 153 198 254 321 394 456
#     4  12  23  44  71 105 147 203 250 310 377 461
#
# _framework density 23.248165
#
# number of rings (size 3 to 8) (size 9 to 14) (size 15 to 20)
#    0.000    0.286    5.714    3.000    2.000    1.143 
#    2.571    0.000    0.000    0.000    0.000    0.000 
#    0.000    0.000    0.000    0.000    0.000    0.000 
#
# Total GULP energy -78206.188478 kJ/mol
# GULP energy per Si atom -5586.156320 kJ/mol
# Density = 2.319525 g / cm^3
# Si number density = 23.248165 Si / 1000 Ang^3
#
#
#
# Elastic Constant Matrix: (Units=GPa)
#
#
# Indices 1 2 3 4 5 6 
#
# 1 72.4410 35.5921 19.7720 8.7163 5.2517 2.6525
# 2 35.5921 124.6138 52.0711 2.2151 7.3457 12.6364
# 3 19.7720 52.0711 155.2277 5.7135 -7.8533 10.4571
# 4 8.7163 2.2151 5.7135 39.7920 5.2647 -0.6789
# 5 5.2517 7.3457 -7.8533 5.2647 47.8752 0.3205
# 6 2.6525 12.6364 10.4571 -0.6789 0.3205 36.8994
#
#
#
# Elastic Compliance Matrix: (Units=1/GPa)
#
#
# Indices 1 2 3 4 5 6 
#
# 1 0.016567 -0.004424 -0.000584 -0.003174 -0.000888 0.000439
# 2 -0.004424 0.010906 -0.003052 0.000993 -0.001781 -0.002518
# 3 -0.000584 -0.003052 0.007756 -0.001091 0.001932 -0.001148
# 4 -0.003174 0.000993 -0.001091 0.026321 -0.002882 0.000707
# 5 -0.000888 -0.001781 0.001932 -0.002882 0.021893 -0.000117
# 6 0.000439 -0.002518 -0.001148 0.000707 -0.000117 0.028271
#
#
# Mechanical properties :
#
#
# Convention : Reuss Voigt Hill
#
# Bulk Modulus (GPa) = 52.32909 63.01698 57.67303
# Shear Modulus (GPa) = 37.25689 41.23646 39.24668
#
# Velocity S-wave (km/s) = 4.00756 4.21616 4.11318
# Velocity P-wave (km/s) = 6.63112 7.13207 6.88615
#
# Compressibility (1/GPa) = 0.01910983
#
# Stress axis : x y z
#
# Youngs Moduli (GPa) = 60.35937 91.68999 128.93956
#
# Poissons Ratio (x) = 0.40560 0.07530
# Poissons Ratio (y) = 0.26701 0.39353
# Poissons Ratio (z) = 0.03525 0.27984
#
# Static dielectric constant tensor:
#      x y z
#    x 1.913880 0.038520 0.036230 
#    y 0.038520 1.969240 0.021720 
#    z 0.036230 0.021720 1.881440 
# 
# From -- ./inp_files/372983.got.cif
#   From: 2010.05.17/outbox.cif.g08.bks.cpg/sg2_187_cif.got.tgz:372983.got - 2010.06.03 11:33:40.
