data_PCOD9065974
_publ_section_title
;
Structure prediction by ZEFSAII (Michael W. Deem and Ramdas Pophale) SiO2 
 PCOD9065974
Probable space group: P -1
;
_chemical_formula_sum "Si O2"
_cell_formula_units_Z 16
_cell_length_a 9.176341
_cell_length_b 23.229212
_cell_length_c 9.046892
_cell_angle_alpha 56.184389
_cell_angle_beta 131.457354
_cell_angle_gamma 150.318238
_cell_volume 714.759620
_symmetry_space_group_name_H-M "P -1"
_symmetry_group_IT_number 2
_symmetry_cell_setting 'triclinic'
loop_
_space_group_symop_operation_xyz
x,y,z
-x,-y,-z
loop_
_atom_site_type_symbol
_atom_site_label
_atom_site_fract_x
_atom_site_fract_y
_atom_site_fract_z
Si Si1 0.710538 0.326627 0.134819
Si Si2 0.863097 0.132016 0.530357
Si Si3 0.398637 0.483285 0.289588
Si Si4 0.885863 0.734431 0.204907
Si Si5 0.285219 0.781895 0.180971
Si Si6 0.722887 0.880792 0.072979
Si Si7 0.760122 0.372560 0.444750
Si Si8 0.828483 0.707849 0.755927
O O1 0.813407 0.361284 0.327709
O O2 0.060498 0.430658 0.136623
O O3 0.402838 0.291372 0.964827
O O4 0.551518 0.215541 0.098150
O O5 0.959150 0.215911 0.599101
O O6 0.117131 0.143181 0.719519
O O7 0.920983 0.177852 0.340583
O O8 0.500000 0.000000 0.500000
O O9 0.500000 0.500000 0.500000
O O10 0.684477 0.606760 0.226998
O O11 0.373633 0.399203 0.332779
O O12 0.191735 0.817077 0.180478
O O13 0.586282 0.878639 0.132058
O O14 0.287812 0.708889 0.368304
O O15 0.989517 0.699991 0.985052
O O16 0.000000 0.000000 0.000000
O O17 0.408888 0.309103 0.294988
O O18 0.000000 0.500000 0.500000
#
# Coordination Sequence:
#
# PCOD9065974 Si02
#       8
#     2   2   2   2   2   2   2   2
#     4  11  25  45  68 101 143 187 237 286 348 425
#     4  11  25  47  72 101 139 180 235 297 349 419
#     4  12  23  40  70  99 141 189 231 280 350 423
#     4  11  25  44  70 105 140 187 232 286 356 417
#     4  12  25  46  70 104 140 182 235 287 348 418
#     4  11  25  49  75 100 135 189 240 290 356 420
#     4  12  27  43  67 105 147 184 234 288 349 418
#     4  12  24  45  67 102 144 182 230 289 349 410
#
# _framework density 22.385148000000001
#
# number of rings (size 3 to 8) (size 9 to 14) (size 15 to 20)
#    0.000    0.500    5.000    3.375    1.750    1.000 
#    2.250    3.125    0.000    0.000    0.000    0.000 
#    0.000    0.000    0.000    0.000    0.000    0.000 
#
# Total GULP energy -89237.117169 kJ/mol
# GULP energy per Si atom -5577.319823 kJ/mol
# Density = 2.233420 g / cm^3
# Si number density = 22.385148 Si / 1000 Ang^3
#
#
#
# Elastic Constant Matrix: (Units=GPa)
#
#
# Indices 1 2 3 4 5 6 
#
# 1 131.0772 27.2963 7.9814 -3.6098 1.3717 36.3924
# 2 27.2963 78.4836 2.6695 0.6470 -7.2560 21.4209
# 3 7.9814 2.6695 72.4987 2.8163 -1.2434 2.9043
# 4 -3.6098 0.6470 2.8163 30.6684 0.9749 -0.7693
# 5 1.3717 -7.2560 -1.2434 0.9749 39.0521 -1.1645
# 6 36.3924 21.4209 2.9043 -0.7693 -1.1645 29.6150
#
#
#
# Elastic Compliance Matrix: (Units=1/GPa)
#
#
# Indices 1 2 3 4 5 6 
#
# 1 0.011688 -0.000291 -0.000772 0.001129 -0.000937 -0.014084
# 2 -0.000291 0.016169 -0.000038 -0.000740 0.002696 -0.011248
# 3 -0.000772 -0.000038 0.013959 -0.001398 0.000487 -0.000410
# 4 0.001129 -0.000740 -0.001398 0.032919 -0.001040 0.000099
# 5 -0.000937 0.002696 0.000487 -0.001040 0.026187 0.000156
# 6 -0.014084 -0.011248 -0.000410 0.000099 0.000156 0.059259
#
#
# Mechanical properties :
#
#
# Convention : Reuss Voigt Hill
#
# Bulk Modulus (GPa) = 25.24267 39.77267 32.50767
# Shear Modulus (GPa) = 28.47605 36.14125 32.30865
#
# Velocity S-wave (km/s) = 3.57051 4.02247 3.80321
# Velocity P-wave (km/s) = 5.31969 6.27532 5.81716
#
# Compressibility (1/GPa) = 0.03961546
#
# Stress axis : x y z
#
# Youngs Moduli (GPa) = 85.55864 61.84617 71.63948
#
# Poissons Ratio (x) = 0.01797 0.05529
# Poissons Ratio (y) = 0.02487 0.00271
# Poissons Ratio (z) = 0.06603 0.00234
#
# Static dielectric constant tensor:
#      x y z
#    x 2.198730 0.025010 -0.066170 
#    y 0.025010 1.828970 0.002240 
#    z -0.066170 0.002240 1.872950 
# 
# From -- ./inp_files/206736.got.cif
#   From: 2010.05.17/outbox.cif.g08.bks.cpg/sg2_104_cif.got.tgz:206736.got - 2010.06.03 11:33:40.
