data_PCOD9065803
_publ_section_title
;
Structure prediction by ZEFSAII (Michael W. Deem and Ramdas Pophale) SiO2 
 PCOD9065803
Probable space group: P -1
;
_chemical_formula_sum "Si O2"
_cell_formula_units_Z 16
_cell_length_a 17.710251
_cell_length_b 11.834684
_cell_length_c 21.144574
_cell_angle_alpha 138.453318
_cell_angle_beta 161.937180
_cell_angle_gamma 32.662882
_cell_volume 704.955802
_symmetry_space_group_name_H-M "P -1"
_symmetry_group_IT_number 2
_symmetry_cell_setting 'triclinic'
loop_
_space_group_symop_operation_xyz
x,y,z
-x,-y,-z
loop_
_atom_site_type_symbol
_atom_site_label
_atom_site_fract_x
_atom_site_fract_y
_atom_site_fract_z
Si Si1 0.797138 0.542991 0.024852
Si Si2 0.908905 0.861931 0.838564
Si Si3 0.304218 0.611878 0.456109
Si Si4 0.037749 0.425607 0.571772
Si Si5 0.221906 0.129431 0.406370
Si Si6 0.919756 0.357248 0.910228
Si Si7 0.162206 0.877618 0.707270
Si Si8 0.699315 0.127805 0.043437
O O1 0.831731 0.395862 0.048789
O O2 0.023979 0.602699 0.235742
O O3 0.922699 0.382816 0.997697
O O4 0.437516 0.763408 0.826431
O O5 0.845198 0.909767 0.733509
O O6 0.575052 0.937433 0.629668
O O7 0.000000 0.000000 0.000000
O O8 0.500000 0.500000 0.500000
O O9 0.563810 0.468269 0.655717
O O10 0.139997 0.868679 0.436328
O O11 0.000000 0.500000 0.500000
O O12 0.813692 0.650977 0.527506
O O13 0.948475 0.268300 0.439325
O O14 0.382605 0.300584 0.824352
O O15 0.955377 0.162275 0.250105
O O16 0.148896 0.112267 0.963260
O O17 0.000000 0.500000 0.000000
O O18 0.326046 0.867159 0.898930
#
# Coordination Sequence:
#
# PCOD9065803 Si02
#       8
#     2   2   2   2   2   2   2   2
#     4  12  27  44  73 104 145 181 234 303 360 415
#     4  11  25  44  71 102 150 187 241 292 362 417
#     4  12  25  48  76 102 139 184 242 293 357 430
#     4  12  27  41  70 102 147 187 239 290 355 420
#     4  11  25  43  67 105 140 196 241 290 348 433
#     4  12  25  44  73 105 134 184 242 292 354 431
#     4  12  27  47  72 109 144 187 235 301 364 419
#     4  12  25  43  73 101 144 191 245 287 355 434
#
# _framework density 22.696458
#
# number of rings (size 3 to 8) (size 9 to 14) (size 15 to 20)
#    0.000    0.250    3.750    4.500    5.250    4.500 
#    0.000    0.000    0.000    0.000    0.000    0.000 
#    0.000    0.000    0.000    0.000    0.000    0.000 
#
# Total GULP energy -89595.280598 kJ/mol
# GULP energy per Si atom -5599.705037 kJ/mol
# Density = 2.264480 g / cm^3
# Si number density = 22.696458 Si / 1000 Ang^3
#
#
#
# Elastic Constant Matrix: (Units=GPa)
#
#
# Indices 1 2 3 4 5 6 
#
# 1 34.2951 -2.2199 1.5815 8.4317 -4.4365 -10.2704
# 2 -2.2199 123.0883 -2.8110 -0.1240 4.0545 -16.8336
# 3 1.5815 -2.8110 61.0224 -1.0662 -2.0247 -7.4153
# 4 8.4317 -0.1240 -1.0662 46.9532 0.3561 -0.4613
# 5 -4.4365 4.0545 -2.0247 0.3561 41.4397 5.3546
# 6 -10.2704 -16.8336 -7.4153 -0.4613 5.3546 31.9926
#
#
#
# Elastic Compliance Matrix: (Units=1/GPa)
#
#
# Indices 1 2 3 4 5 6 
#
# 1 0.034625 0.002206 0.000622 -0.006095 0.002024 0.011994
# 2 0.002206 0.009043 0.001030 -0.000280 -0.001362 0.005929
# 3 0.000622 0.001030 0.016996 0.000321 0.000192 0.004654
# 4 -0.006095 -0.000280 0.000321 0.022388 -0.000594 -0.001608
# 5 0.002024 -0.001362 0.000192 -0.000594 0.025041 -0.004222
# 6 0.011994 0.005929 0.004654 -0.001608 -0.004222 0.039989
#
#
# Mechanical properties :
#
#
# Convention : Reuss Voigt Hill
#
# Bulk Modulus (GPa) = 14.62395 23.50078 19.06237
# Shear Modulus (GPa) = 30.64484 38.86746 34.75615
#
# Velocity S-wave (km/s) = 3.67850 4.14271 3.91749
# Velocity P-wave (km/s) = 4.94965 5.76712 5.37395
#
# Compressibility (1/GPa) = 0.06838096
#
# Stress axis : x y z
#
# Youngs Moduli (GPa) = 28.88084 110.58293 58.83663
#
# Poissons Ratio (x) = -0.24396 -0.03662
# Poissons Ratio (y) = -0.06372 -0.06059
# Poissons Ratio (z) = -0.01798 -0.11388
#
# Static dielectric constant tensor:
#      x y z
#    x 1.914610 -0.004620 -0.013750 
#    y -0.004620 1.939770 -0.025600 
#    z -0.013750 -0.025600 1.821590 
# 
# From -- ./inp_files/499723.got.cif
#   From: 2010.05.17/outbox.cif.g08.bks.cpg/sg2_250_cif.got.tgz:499723.got - 2010.06.03 11:33:40.
