data_PCOD9065859
_publ_section_title
;
Structure prediction by ZEFSAII (Michael W. Deem and Ramdas Pophale) SiO2 
 PCOD9065859
Probable space group: P -1
;
_chemical_formula_sum "Si O2"
_cell_formula_units_Z 14
_cell_length_a 8.345181
_cell_length_b 10.150713
_cell_length_c 12.235269
_cell_angle_alpha 89.088691
_cell_angle_beta 146.573293
_cell_angle_gamma 86.754948
_cell_volume 566.260406
_symmetry_space_group_name_H-M "P -1"
_symmetry_group_IT_number 2
_symmetry_cell_setting 'triclinic'
loop_
_space_group_symop_operation_xyz
x,y,z
-x,-y,-z
loop_
_atom_site_type_symbol
_atom_site_label
_atom_site_fract_x
_atom_site_fract_y
_atom_site_fract_z
Si Si1 0.406682 0.504400 0.572531
Si Si2 0.776283 0.887041 0.799150
Si Si3 0.178628 0.339485 0.803184
Si Si4 0.065624 0.114114 0.454812
Si Si5 0.419520 0.742403 0.172668
Si Si6 0.504617 0.714302 0.802866
Si Si7 0.169506 0.909376 0.331839
O O1 0.500000 0.500000 0.500000
O O2 0.537802 0.372764 0.711078
O O3 0.507784 0.622683 0.700179
O O4 0.054587 0.539377 0.370661
O O5 0.505119 0.868773 0.562212
O O6 0.157883 0.965131 0.201028
O O7 0.946265 0.957676 0.667006
O O8 0.919260 0.207026 0.040396
O O9 0.421711 0.305160 0.849727
O O10 0.009017 0.210042 0.733120
O O11 0.317097 0.364052 0.998171
O O12 0.818665 0.236957 0.335924
O O13 0.378766 0.152668 0.665740
O O14 0.000000 0.000000 0.500000
O O15 0.357661 0.155177 0.161353
#
# Coordination Sequence:
#
# PCOD9065859 Si02
#       7
#     2   2   2   2   2   2   2
#     4  12  28  53  76 108 152 196 261 314 368 444
#     4  11  25  43  71 115 149 198 244 300 383 436
#     4  12  26  51  76 110 151 202 249 309 377 444
#     4  12  23  47  74 109 150 194 247 304 373 447
#     4  12  27  46  79 110 149 203 253 307 375 445
#     4  12  27  49  76 111 154 200 251 308 378 443
#     4  11  25  46  75 108 161 191 248 312 370 459
#
# _framework density 24.723610000000001
#
# number of rings (size 3 to 8) (size 9 to 14) (size 15 to 20)
#    0.000    0.286    5.714    2.143    4.000    7.429 
#    0.000    0.000    0.000    0.000    0.000    0.000 
#    0.000    0.000    0.000    0.000    0.000    0.000 
#
# Total GULP energy -78416.409303 kJ/mol
# GULP energy per Si atom -5601.172093 kJ/mol
# Density = 2.466734 g / cm^3
# Si number density = 24.723610 Si / 1000 Ang^3
#
#
#
# Elastic Constant Matrix: (Units=GPa)
#
#
# Indices 1 2 3 4 5 6 
#
# 1 160.6371 36.1899 65.2881 -10.0500 9.4449 -9.1804
# 2 36.1899 92.8244 47.6942 -12.6531 -1.4134 1.1011
# 3 65.2881 47.6942 151.7204 -31.2080 1.9900 -3.4082
# 4 -10.0500 -12.6531 -31.2080 51.2545 -3.6648 -14.8091
# 5 9.4449 -1.4134 1.9900 -3.6648 55.3094 -6.5231
# 6 -9.1804 1.1011 -3.4082 -14.8091 -6.5231 40.6694
#
#
#
# Elastic Compliance Matrix: (Units=1/GPa)
#
#
# Indices 1 2 3 4 5 6 
#
# 1 0.007900 -0.001669 -0.002902 -0.000345 -0.001160 0.001274
# 2 -0.001669 0.013250 -0.003303 0.000811 0.000725 -0.000601
# 3 -0.002902 -0.003303 0.010048 0.005471 0.000693 0.002380
# 4 -0.000345 0.000811 0.005471 0.026165 0.002836 0.010341
# 5 -0.001160 0.000725 0.000693 0.002836 0.018913 0.003843
# 6 0.001274 -0.000601 0.002380 0.010341 0.003843 0.029474
#
#
# Mechanical properties :
#
#
# Convention : Reuss Voigt Hill
#
# Bulk Modulus (GPa) = 64.72722 78.16958 71.44840
# Shear Modulus (GPa) = 39.48000 46.51395 42.99698
#
# Velocity S-wave (km/s) = 4.00040 4.34217 4.17478
# Velocity P-wave (km/s) = 6.89745 7.53825 7.22496
#
# Compressibility (1/GPa) = 0.01544945
#
# Stress axis : x y z
#
# Youngs Moduli (GPa) = 126.58121 75.47430 99.52304
#
# Poissons Ratio (x) = 0.12594 0.28883
# Poissons Ratio (y) = 0.21122 0.32875
# Poissons Ratio (z) = 0.36735 0.24931
#
# Static dielectric constant tensor:
#      x y z
#    x 2.019330 0.001280 0.013700 
#    y 0.001280 2.048650 0.090770 
#    z 0.013700 0.090770 2.018170 
# 
# From -- ./inp_files/387454.got.cif
#   From: 2010.05.17/outbox.cif.g08.bks.cpg/sg2_194_cif.got.tgz:387454.got - 2010.06.03 11:33:40.
