data_PCOD9065511
_publ_section_title
;
Structure prediction by ZEFSAII (Michael W. Deem and Ramdas Pophale) SiO2 
 PCOD9065511
Probable space group: P -1
;
_chemical_formula_sum "Si O2"
_cell_formula_units_Z 10
_cell_length_a 9.679611
_cell_length_b 15.051763
_cell_length_c 15.236143
_cell_angle_alpha 20.743298
_cell_angle_beta 144.280073
_cell_angle_gamma 133.762715
_cell_volume 433.811113
_symmetry_space_group_name_H-M "P -1"
_symmetry_group_IT_number 2
_symmetry_cell_setting 'triclinic'
loop_
_space_group_symop_operation_xyz
x,y,z
-x,-y,-z
loop_
_atom_site_type_symbol
_atom_site_label
_atom_site_fract_x
_atom_site_fract_y
_atom_site_fract_z
Si Si1 0.794663 0.826984 0.834496
Si Si2 0.066786 0.606998 0.843040
Si Si3 0.128684 0.222073 0.873855
Si Si4 0.648487 0.216483 0.881728
Si Si5 0.363176 0.873688 0.855034
O O1 0.500000 0.000000 0.500000
O O2 0.845941 0.594707 0.004027
O O3 0.819274 0.748310 0.023040
O O4 0.054845 0.903621 0.882275
O O5 0.270300 0.746918 0.841924
O O6 0.826115 0.847302 0.472120
O O7 0.000000 0.500000 0.000000
O O8 0.000000 0.500000 0.500000
O O9 0.383029 0.094827 0.070571
O O10 0.000000 0.000000 0.000000
O O11 0.500000 0.500000 0.500000
O O12 0.629478 0.302379 0.894449
O O13 0.500000 0.000000 0.000000
#
# Coordination Sequence:
#
# PCOD9065511 Si02
#       5
#     2   2   2   2   2
#     4  12  28  51  86 122 159 212 276 345 401 477
#     4  11  24  48  79 113 153 202 269 335 394 469
#     4  12  30  53  78 119 169 212 261 337 417 482
#     4  12  26  50  79 113 158 215 267 321 404 492
#     4  11  26  47  78 109 156 209 265 325 396 484
#
# _framework density 23.051507000000001
#
# number of rings (size 3 to 8) (size 9 to 14) (size 15 to 20)
#    0.000    0.400    2.000    4.800    8.400    2.400 
#    0.000    0.000    0.000    0.000    0.000    0.000 
#    0.000    0.000    0.000    0.000    0.000    0.000 
#
# Total GULP energy -55822.294017 kJ/mol
# GULP energy per Si atom -5582.229402 kJ/mol
# Density = 2.299904 g / cm^3
# Si number density = 23.051507 Si / 1000 Ang^3
#
#
#
# Elastic Constant Matrix: (Units=GPa)
#
#
# Indices 1 2 3 4 5 6 
#
# 1 254.9089 19.7375 181.2642 18.0529 122.2607 3.5838
# 2 19.7375 161.4916 71.4678 16.4347 -58.7768 -1.8473
# 3 181.2642 71.4678 247.3301 -4.6146 120.7813 7.1329
# 4 18.0529 16.4347 -4.6146 38.3787 -15.4333 5.0137
# 5 122.2607 -58.7768 120.7813 -15.4333 218.6720 18.8710
# 6 3.5838 -1.8473 7.1329 5.0137 18.8710 72.0428
#
#
#
# Elastic Compliance Matrix: (Units=1/GPa)
#
#
# Indices 1 2 3 4 5 6 
#
# 1 0.010677 0.002436 -0.007932 -0.007828 -0.001597 0.001280
# 2 0.002436 0.012602 -0.008684 -0.004934 0.006499 -0.000297
# 3 -0.007932 -0.008684 0.015372 0.006976 -0.005872 -0.000297
# 4 -0.007828 -0.004934 0.006976 0.033870 0.001871 -0.003275
# 5 -0.001597 0.006499 -0.005872 0.001871 0.010771 -0.002124
# 6 0.001280 -0.000297 -0.000297 -0.003275 -0.002124 0.014623
#
#
# Mechanical properties :
#
#
# Convention : Reuss Voigt Hill
#
# Bulk Modulus (GPa) = 97.17988 134.29664 115.73826
# Shear Modulus (GPa) = 38.54895 91.90276 65.22585
#
# Velocity S-wave (km/s) = 4.09381 6.32100 5.32514
# Velocity P-wave (km/s) = 8.03710 10.56689 9.38760
#
# Compressibility (1/GPa) = 0.01029020
#
# Stress axis : x y z
#
# Youngs Moduli (GPa) = 93.65899 79.35428 65.05454
#
# Poissons Ratio (x) = -0.19327 0.51601
# Poissons Ratio (y) = -0.22811 0.56491
# Poissons Ratio (z) = 0.74290 0.68908
#
# Static dielectric constant tensor:
#      x y z
#    x 1.965680 -0.258440 -0.322170 
#    y -0.258440 2.485180 0.607390 
#    z -0.322170 0.607390 2.421970 
# 
# From -- ./inp_files/15270.got.cif
#   From: 2010.05.17/outbox.cif.g08.bks.cpg/sg2_8_cif.got.tgz:15270.got - 2010.06.03 11:33:40.
