data_PCOD9065548
_publ_section_title
;
Structure prediction by ZEFSAII (Michael W. Deem and Ramdas Pophale) SiO2 
 PCOD9065548
Probable space group: P -1
;
_chemical_formula_sum "Si O2"
_cell_formula_units_Z 16
_cell_length_a 9.336270
_cell_length_b 8.794813
_cell_length_c 11.877813
_cell_angle_alpha 133.505744
_cell_angle_beta 89.257372
_cell_angle_gamma 81.658806
_cell_volume 691.199790
_symmetry_space_group_name_H-M "P -1"
_symmetry_group_IT_number 2
_symmetry_cell_setting 'triclinic'
loop_
_space_group_symop_operation_xyz
x,y,z
-x,-y,-z
loop_
_atom_site_type_symbol
_atom_site_label
_atom_site_fract_x
_atom_site_fract_y
_atom_site_fract_z
Si Si1 0.381806 0.860076 0.905837
Si Si2 0.010511 0.940720 0.600151
Si Si3 0.080891 0.564303 0.921942
Si Si4 0.586407 0.409594 0.654289
Si Si5 0.425234 0.351897 0.844371
Si Si6 0.895325 0.525649 0.692884
Si Si7 0.692818 0.043191 0.287743
Si Si8 0.853217 0.005363 0.843268
O O1 0.460526 0.620525 0.751116
O O2 0.286340 0.932499 0.832942
O O3 0.500000 0.000000 0.000000
O O4 0.293439 0.891235 0.037829
O O5 0.864452 0.018403 0.714437
O O6 0.053013 0.684482 0.491040
O O7 0.149306 0.025153 0.689480
O O8 0.000000 0.000000 0.500000
O O9 0.255625 0.469239 0.879438
O O10 0.007751 0.485629 0.774111
O O11 0.000000 0.500000 0.000000
O O12 0.050036 0.822537 0.037228
O O13 0.528478 0.300432 0.707125
O O14 0.734439 0.497805 0.720054
O O15 0.615353 0.255571 0.466916
O O16 0.405916 0.131547 0.787812
O O17 0.500000 0.500000 0.000000
O O18 0.890575 0.758310 0.757541
#
# Coordination Sequence:
#
# PCOD9065548 Si02
#       8
#     2   2   2   2   2   2   2   2
#     4  12  25  48  71 111 145 192 250 310 371 443
#     4  11  26  51  73 107 151 196 244 308 379 451
#     4  12  26  44  69 107 145 192 244 311 370 440
#     4  11  24  49  70 105 146 198 242 309 369 443
#     4  12  25  44  71 107 145 199 251 299 370 442
#     4  11  25  46  73 106 146 191 251 303 375 440
#     4  11  27  46  75 105 152 190 249 309 369 448
#     4  12  26  44  77 105 144 193 248 311 372 438
#
# _framework density 23.148154999999999
#
# number of rings (size 3 to 8) (size 9 to 14) (size 15 to 20)
#    0.000    0.500    2.500    5.250    5.250    1.000 
#    4.500    0.000    0.000    0.000    0.000    0.000 
#    0.000    0.000    0.000    0.000    0.000    0.000 
#
# Total GULP energy -89409.559586 kJ/mol
# GULP energy per Si atom -5588.097474 kJ/mol
# Density = 2.309547 g / cm^3
# Si number density = 23.148155 Si / 1000 Ang^3
#
#
#
# Elastic Constant Matrix: (Units=GPa)
#
#
# Indices 1 2 3 4 5 6 
#
# 1 133.3860 59.3293 67.7276 -19.3325 -5.6476 12.2421
# 2 59.3293 78.3585 33.8590 7.2830 -5.2063 13.2156
# 3 67.7276 33.8590 111.2796 0.1242 -15.0460 13.3404
# 4 -19.3325 7.2830 0.1242 50.7601 13.6602 6.9310
# 5 -5.6476 -5.2063 -15.0460 13.6602 50.4255 -4.8957
# 6 12.2421 13.2156 13.3404 6.9310 -4.8957 39.3314
#
#
#
# Elastic Compliance Matrix: (Units=1/GPa)
#
#
# Indices 1 2 3 4 5 6 
#
# 1 0.017717 -0.010962 -0.007866 0.009675 -0.004251 -0.001397
# 2 -0.010962 0.022129 0.000669 -0.007860 0.003146 -0.002474
# 3 -0.007866 0.000669 0.014340 -0.004141 0.004457 -0.001356
# 4 0.009675 -0.007860 -0.004141 0.027598 -0.008919 -0.004939
# 5 -0.004251 0.003146 0.004457 -0.008919 0.023745 0.003282
# 6 -0.001397 -0.002474 -0.001356 -0.004939 0.003282 0.028430
#
#
# Mechanical properties :
#
#
# Convention : Reuss Voigt Hill
#
# Bulk Modulus (GPa) = 55.96190 71.65066 63.80628
# Shear Modulus (GPa) = 28.37168 38.91061 33.64115
#
# Velocity S-wave (km/s) = 3.50474 4.10437 3.81635
# Velocity P-wave (km/s) = 6.37225 7.31310 6.85883
#
# Compressibility (1/GPa) = 0.01786930
#
# Stress axis : x y z
#
# Youngs Moduli (GPa) = 56.44270 45.18911 69.73525
#
# Poissons Ratio (x) = 0.49535 0.54852
# Poissons Ratio (y) = 0.61870 -0.04665
# Poissons Ratio (z) = 0.44397 -0.03023
#
# Static dielectric constant tensor:
#      x y z
#    x 1.875510 -0.007250 -0.018860 
#    y -0.007250 1.925700 0.047460 
#    z -0.018860 0.047460 1.913150 
# 
# From -- ./inp_files/383534.got.cif
#   From: 2010.05.17/outbox.cif.g08.bks.cpg/sg2_192_cif.got.tgz:383534.got - 2010.06.03 11:33:40.
