data_PCOD9065775
_publ_section_title
;
Structure prediction by ZEFSAII (Michael W. Deem and Ramdas Pophale) SiO2 
 PCOD9065775
Probable space group: P -1
;
_chemical_formula_sum "Si O2"
_cell_formula_units_Z 14
_cell_length_a 11.393668
_cell_length_b 21.422355
_cell_length_c 14.913598
_cell_angle_alpha 158.224705
_cell_angle_beta 29.548892
_cell_angle_gamma 151.692378
_cell_volume 611.344883
_symmetry_space_group_name_H-M "P -1"
_symmetry_group_IT_number 2
_symmetry_cell_setting 'triclinic'
loop_
_space_group_symop_operation_xyz
x,y,z
-x,-y,-z
loop_
_atom_site_type_symbol
_atom_site_label
_atom_site_fract_x
_atom_site_fract_y
_atom_site_fract_z
Si Si1 0.343956 0.133002 0.979502
Si Si2 0.635424 0.823266 0.190170
Si Si3 0.000230 0.661312 0.819161
Si Si4 0.075255 0.790046 0.531055
Si Si5 0.098842 0.198229 0.746267
Si Si6 0.682429 0.257962 0.459331
Si Si7 0.117061 0.575168 0.926703
O O1 0.596575 0.273607 0.049396
O O2 0.093356 0.162057 0.219434
O O3 0.381068 0.174649 0.904299
O O4 0.320090 0.932176 0.756420
O O5 0.348876 0.777590 0.356167
O O6 0.824086 0.033976 0.368411
O O7 0.769253 0.694804 0.965457
O O8 0.892896 0.441985 0.610115
O O9 0.235711 0.724968 0.677504
O O10 0.046743 0.774708 0.031469
O O11 0.896068 0.599581 0.353211
O O12 0.395233 0.252288 0.650164
O O13 0.000000 0.000000 0.500000
O O14 0.061398 0.336465 0.884598
O O15 0.000000 0.500000 0.000000
#
# Coordination Sequence:
#
# PCOD9065775 Si02
#       7
#     2   2   2   2   2   2   2
#     4  12  25  46  72 108 141 186 241 290 354 418
#     4  11  25  43  75 105 143 183 237 297 344 425
#     4  11  27  48  73 108 144 188 237 294 358 423
#     4  11  25  42  72 105 141 185 234 289 355 411
#     4  12  28  48  73 102 146 192 234 295 358 423
#     4  11  26  47  74 108 144 186 240 292 356 429
#     4  12  27  50  71 102 144 188 241 291 352 428
#
# _framework density 22.90033
#
# number of rings (size 3 to 8) (size 9 to 14) (size 15 to 20)
#    0.000    0.571    4.286    2.143    8.000    1.714 
#    2.571    0.000    0.000    0.000    0.000    0.000 
#    0.000    0.000    0.000    0.000    0.000    0.000 
#
# Total GULP energy -78424.079586 kJ/mol
# GULP energy per Si atom -5601.719970 kJ/mol
# Density = 2.284821 g / cm^3
# Si number density = 22.900330 Si / 1000 Ang^3
#
#
#
# Elastic Constant Matrix: (Units=GPa)
#
#
# Indices 1 2 3 4 5 6 
#
# 1 75.6899 26.2960 40.9757 15.7278 2.6233 -12.0480
# 2 26.2960 104.9008 50.5063 7.5765 6.9729 -2.7024
# 3 40.9757 50.5063 135.6580 13.3735 17.9896 -12.4698
# 4 15.7278 7.5765 13.3735 56.9228 4.7380 6.5626
# 5 2.6233 6.9729 17.9896 4.7380 53.3067 -1.9135
# 6 -12.0480 -2.7024 -12.4698 6.5626 -1.9135 43.2850
#
#
#
# Elastic Compliance Matrix: (Units=1/GPa)
#
#
# Indices 1 2 3 4 5 6 
#
# 1 0.017598 -0.002230 -0.003830 -0.004273 0.001254 0.004359
# 2 -0.002230 0.011922 -0.003837 0.000062 -0.000196 -0.001000
# 3 -0.003830 -0.003837 0.010568 -0.000889 -0.002734 0.001753
# 4 -0.004273 0.000062 -0.000889 0.019581 -0.001399 -0.004472
# 5 0.001254 -0.000196 -0.002734 -0.001399 0.019793 0.000636
# 6 0.004359 -0.001000 0.001753 -0.004472 0.000636 0.025465
#
#
# Mechanical properties :
#
#
# Convention : Reuss Voigt Hill
#
# Bulk Modulus (GPa) = 49.27432 61.31163 55.29298
# Shear Modulus (GPa) = 38.02710 43.93429 40.98070
#
# Velocity S-wave (km/s) = 4.07940 4.38482 4.23487
# Velocity P-wave (km/s) = 6.61455 7.24340 6.93611
#
# Compressibility (1/GPa) = 0.02029455
#
# Stress axis : x y z
#
# Youngs Moduli (GPa) = 56.82457 83.87825 94.62417
#
# Poissons Ratio (x) = 0.18705 0.36238
# Poissons Ratio (y) = 0.12672 0.36308
# Poissons Ratio (z) = 0.21762 0.32185
#
# Static dielectric constant tensor:
#      x y z
#    x 1.922920 0.001600 0.055100 
#    y 0.001600 1.843020 0.023640 
#    z 0.055100 0.023640 1.855600 
# 
# From -- ./inp_files/524127.got.cif
#   From: 2010.05.17/outbox.cif.g08.bks.cpg/sg2_263_cif.got.tgz:524127.got - 2010.06.03 11:33:40.
