data_PCOD9065706
_publ_section_title
;
Structure prediction by ZEFSAII (Michael W. Deem and Ramdas Pophale) SiO2 
 PCOD9065706
Probable space group: P -1
;
_chemical_formula_sum "Si O2"
_cell_formula_units_Z 11
_cell_length_a 14.165538
_cell_length_b 6.027932
_cell_length_c 6.124601
_cell_angle_alpha 105.495389
_cell_angle_beta 116.440389
_cell_angle_gamma 87.717022
_cell_volume 449.347100
_symmetry_space_group_name_H-M "P -1"
_symmetry_group_IT_number 2
_symmetry_cell_setting 'triclinic'
loop_
_space_group_symop_operation_xyz
x,y,z
-x,-y,-z
loop_
_atom_site_type_symbol
_atom_site_label
_atom_site_fract_x
_atom_site_fract_y
_atom_site_fract_z
Si Si1 0.396871 0.841956 0.781800
Si Si2 0.046904 0.845839 0.322470
Si Si3 0.500000 0.500000 0.500000
Si Si4 0.252841 0.161957 0.509746
Si Si5 0.149151 0.442551 0.169724
Si Si6 0.700630 0.420156 0.999766
O O1 0.438642 0.614138 0.667858
O O2 0.321187 0.780326 0.894433
O O3 0.338641 0.980924 0.574380
O O4 0.500000 0.000000 0.000000
O O5 0.108509 0.613029 0.357806
O O6 0.138059 0.024097 0.367077
O O7 0.000000 0.000000 0.500000
O O8 0.948388 0.735774 0.049809
O O9 0.594493 0.429331 0.751690
O O10 0.244983 0.305862 0.319240
O O11 0.274496 0.340629 0.777735
O O12 0.197369 0.591874 0.054410
#
# Coordination Sequence:
#
# PCOD9065706 Si02
#       6
#     2   2   1   2   2   2
#     4  12  29  52  75 111 155 203 254 319 383 449
#     4  11  24  51  79 115 154 200 253 313 384 454
#     4  12  26  50  78 108 146 204 258 310 376 452
#     4  12  25  50  77 111 156 201 251 316 384 447
#     4  11  27  50  79 115 152 204 253 314 378 460
#     4  12  26  48  77 112 154 196 263 314 372 460
#
# _framework density 24.479960999999999
#
# number of rings (size 3 to 8) (size 9 to 14) (size 15 to 20)
#    0.000    0.364    3.636    4.364    2.545    4.364 
#   16.364    0.000    0.000    0.000    0.000    0.000 
#    0.000    0.000    0.000    0.000    0.000    0.000 
#
# Total GULP energy -61277.220400 kJ/mol
# GULP energy per Si atom -5570.656400 kJ/mol
# Density = 2.442424 g / cm^3
# Si number density = 24.479961 Si / 1000 Ang^3
#
#
#
# Elastic Constant Matrix: (Units=GPa)
#
#
# Indices 1 2 3 4 5 6 
#
# 1 109.4612 52.0479 34.7224 8.6013 6.3385 -0.0114
# 2 52.0479 87.1436 41.3475 4.2999 6.9524 -4.5634
# 3 34.7224 41.3475 109.9859 8.1072 19.9212 8.7918
# 4 8.6013 4.2999 8.1072 46.2854 -7.8784 11.7541
# 5 6.3385 6.9524 19.9212 -7.8784 41.0628 12.1325
# 6 -0.0114 -4.5634 8.7918 11.7541 12.1325 36.8974
#
#
#
# Elastic Compliance Matrix: (Units=1/GPa)
#
#
# Indices 1 2 3 4 5 6 
#
# 1 0.013060 -0.007070 -0.001247 -0.001691 -0.000585 0.000158
# 2 -0.007070 0.018256 -0.004707 -0.000734 -0.001023 0.003948
# 3 -0.001247 -0.004707 0.012424 -0.002061 -0.005073 -0.001218
# 4 -0.001691 -0.000734 -0.002061 0.026949 0.009940 -0.011454
# 5 -0.000585 -0.001023 -0.005073 0.009940 0.032786 -0.012865
# 6 0.000158 0.003948 -0.001218 -0.011454 -0.012865 0.035760
#
#
# Mechanical properties :
#
#
# Convention : Reuss Voigt Hill
#
# Bulk Modulus (GPa) = 56.52650 62.53626 59.53138
# Shear Modulus (GPa) = 29.20907 36.74733 32.97820
#
# Velocity S-wave (km/s) = 3.45800 3.87863 3.67434
# Velocity P-wave (km/s) = 6.25178 6.75720 6.50939
#
# Compressibility (1/GPa) = 0.01769082
#
# Stress axis : x y z
#
# Youngs Moduli (GPa) = 76.57089 54.77633 80.49226
#
# Poissons Ratio (x) = 0.38727 0.10038
# Poissons Ratio (y) = 0.54136 0.37889
# Poissons Ratio (z) = 0.09549 0.25784
#
# Static dielectric constant tensor:
#      x y z
#    x 1.885950 0.009850 0.000320 
#    y 0.009850 2.000820 -0.020940 
#    z 0.000320 -0.020940 1.938120 
# 
# From -- ./inp_files/2198.got.cif
#   From: 2010.05.17/outbox.cif.g08.bks.cpg/sg2_2_cif.got.tgz:2198.got - 2010.06.03 11:33:40.
