data_PCOD9065107
_publ_section_title
;
Structure prediction by ZEFSAII (Michael W. Deem and Ramdas Pophale) SiO2 
 PCOD9065107
Probable space group: P -1
;
_chemical_formula_sum "Si O2"
_cell_formula_units_Z 14
_cell_length_a 10.266630
_cell_length_b 15.071143
_cell_length_c 6.772351
_cell_angle_alpha 83.998576
_cell_angle_beta 49.934749
_cell_angle_gamma 114.814664
_cell_volume 612.944781
_symmetry_space_group_name_H-M "P -1"
_symmetry_group_IT_number 2
_symmetry_cell_setting 'triclinic'
loop_
_space_group_symop_operation_xyz
x,y,z
-x,-y,-z
loop_
_atom_site_type_symbol
_atom_site_label
_atom_site_fract_x
_atom_site_fract_y
_atom_site_fract_z
Si Si1 0.293303 0.167514 0.692763
Si Si2 0.450615 0.790529 0.210803
Si Si3 0.399938 0.554067 0.681184
Si Si4 0.540556 0.938265 0.725395
Si Si5 0.069937 0.648434 0.948470
Si Si6 0.757002 0.405120 0.843545
Si Si7 0.127938 0.864286 0.894204
O O1 0.333994 0.142977 0.877552
O O2 0.439020 0.307450 0.529008
O O3 0.385511 0.124119 0.462450
O O4 0.047229 0.117422 0.894635
O O5 0.240111 0.715539 0.583027
O O6 0.407555 0.691956 0.132212
O O7 0.479760 0.883531 0.013718
O O8 0.500000 0.500000 0.500000
O O9 0.339963 0.538094 0.976050
O O10 0.155941 0.480867 0.839301
O O11 0.327633 0.914637 0.841101
O O12 0.749250 0.072103 0.447139
O O13 0.005174 0.728707 0.037257
O O14 0.194447 0.649240 0.014908
O O15 0.000000 0.500000 0.500000
#
# Coordination Sequence:
#
# PCOD9065107 Si02
#       7
#     2   2   2   2   2   2   2
#     4  12  24  46  69 102 141 178 230 296 348 408
#     4  12  22  42  73  99 137 186 232 282 351 411
#     4  12  23  40  68 100 142 180 224 290 348 408
#     4  11  25  48  71  98 136 190 232 284 353 411
#     4  12  23  44  69 101 142 184 228 288 346 412
#     4  12  23  42  71  98 138 191 232 273 350 425
#     4  11  24  47  71  99 141 179 235 293 340 414
#
# _framework density 22.840557
#
# number of rings (size 3 to 8) (size 9 to 14) (size 15 to 20)
#    0.000    0.286    8.571    1.714    0.000    1.143 
#    2.571    5.714    0.000    0.000    0.000    0.000 
#    0.000    0.000    0.000    0.000    0.000    0.000 
#
# Total GULP energy -78207.243630 kJ/mol
# GULP energy per Si atom -5586.231688 kJ/mol
# Density = 2.278857 g / cm^3
# Si number density = 22.840557 Si / 1000 Ang^3
#
#
#
# Elastic Constant Matrix: (Units=GPa)
#
#
# Indices 1 2 3 4 5 6 
#
# 1 133.4861 29.4350 71.3395 17.1378 -19.9432 -11.2246
# 2 29.4350 101.6475 28.4861 9.7827 -6.4184 -15.3140
# 3 71.3395 28.4861 123.2548 1.1914 10.3589 -14.4006
# 4 17.1378 9.7827 1.1914 51.0639 -2.8102 -5.8138
# 5 -19.9432 -6.4184 10.3589 -2.8102 43.8923 1.2799
# 6 -11.2246 -15.3140 -14.4006 -5.8138 1.2799 31.0225
#
#
#
# Elastic Compliance Matrix: (Units=1/GPa)
#
#
# Indices 1 2 3 4 5 6 
#
# 1 0.013887 -0.000812 -0.008528 -0.003913 0.007965 -0.000397
# 2 -0.000812 0.011433 -0.001796 -0.001313 0.001520 0.004207
# 3 -0.008528 -0.001796 0.014485 0.002866 -0.007478 0.003598
# 4 -0.003913 -0.001313 0.002866 0.021385 -0.001374 0.003331
# 5 0.007965 0.001520 -0.007478 -0.001374 0.028338 -0.001266
# 6 -0.000397 0.004207 0.003598 0.003331 -0.001266 0.036515
#
#
# Mechanical properties :
#
#
# Convention : Reuss Voigt Hill
#
# Bulk Modulus (GPa) = 57.03337 68.54551 62.78944
# Shear Modulus (GPa) = 32.43412 40.47093 36.45252
#
# Velocity S-wave (km/s) = 3.77241 4.21395 3.99928
# Velocity P-wave (km/s) = 6.63319 7.33158 6.99111
#
# Compressibility (1/GPa) = 0.01753359
#
# Stress axis : x y z
#
# Youngs Moduli (GPa) = 72.00893 87.46987 69.03457
#
# Poissons Ratio (x) = 0.07100 0.58874
# Poissons Ratio (y) = 0.05845 0.12398
# Poissons Ratio (z) = 0.61411 0.15709
#
# Static dielectric constant tensor:
#      x y z
#    x 1.843310 -0.029020 -0.013100 
#    y -0.029020 1.935110 0.000210 
#    z -0.013100 0.000210 1.904350 
# 
# From -- ./inp_files/46994.got.cif
#   From: 2010.05.17/outbox.cif.g08.bks.cpg/sg2_24_cif.got.tgz:46994.got - 2010.06.03 11:33:40.
