data_PCOD9065486
_publ_section_title
;
Structure prediction by ZEFSAII (Michael W. Deem and Ramdas Pophale) SiO2 
 PCOD9065486
Probable space group: P -1
;
_chemical_formula_sum "Si O2"
_cell_formula_units_Z 14
_cell_length_a 13.510270
_cell_length_b 17.924496
_cell_length_c 8.296067
_cell_angle_alpha 139.641385
_cell_angle_beta 43.982637
_cell_angle_gamma 153.724010
_cell_volume 571.305940
_symmetry_space_group_name_H-M "P -1"
_symmetry_group_IT_number 2
_symmetry_cell_setting 'triclinic'
loop_
_space_group_symop_operation_xyz
x,y,z
-x,-y,-z
loop_
_atom_site_type_symbol
_atom_site_label
_atom_site_fract_x
_atom_site_fract_y
_atom_site_fract_z
Si Si1 0.213593 0.281826 0.709381
Si Si2 0.225399 0.062982 0.141455
Si Si3 0.298295 0.124987 0.783471
Si Si4 0.284925 0.388348 0.217149
Si Si5 0.995679 0.254578 0.645335
Si Si6 0.780392 0.426353 0.571182
Si Si7 0.615663 0.175949 0.053939
O O1 0.261230 0.217204 0.406937
O O2 0.247815 0.228030 0.986079
O O3 0.446004 0.430449 0.778571
O O4 0.003307 0.113174 0.787354
O O5 0.872451 0.663878 0.205142
O O6 0.427074 0.114396 0.063030
O O7 0.563925 0.274560 0.689623
O O8 0.160735 0.957977 0.546151
O O9 0.232082 0.053251 0.925700
O O10 0.191966 0.420588 0.247147
O O11 0.169556 0.358052 0.467304
O O12 0.823294 0.252072 0.838347
O O13 0.000000 0.500000 0.500000
O O14 0.706727 0.323542 0.319515
O O15 0.500000 0.000000 0.000000
#
# Coordination Sequence:
#
# PCOD9065486 Si02
#       7
#     2   2   2   2   2   2   2
#     4  11  24  48  76 111 149 198 247 305 373 448
#     4  11  25  45  83 109 150 198 252 306 375 449
#     4  12  28  49  76 115 150 194 257 312 369 445
#     4  12  28  48  78 112 151 191 252 316 374 435
#     4  12  27  49  79 112 151 201 253 301 376 452
#     4  12  30  52  73 113 153 196 250 312 380 437
#     4  12  25  51  78 104 153 205 247 300 374 456
#
# _framework density 24.505258999999999
#
# number of rings (size 3 to 8) (size 9 to 14) (size 15 to 20)
#    0.000    0.286    5.714    1.286    6.000    3.429 
#    0.000    0.000    0.000    0.000    0.000    0.000 
#    0.000    0.000    0.000    0.000    0.000    0.000 
#
# Total GULP energy -78544.011391 kJ/mol
# GULP energy per Si atom -5610.286528 kJ/mol
# Density = 2.444948 g / cm^3
# Si number density = 24.505259 Si / 1000 Ang^3
#
#
#
# Elastic Constant Matrix: (Units=GPa)
#
#
# Indices 1 2 3 4 5 6 
#
# 1 179.0562 67.5464 36.0638 -26.9880 -14.8723 38.3186
# 2 67.5464 103.1001 39.8646 -32.6185 -14.2001 17.5506
# 3 36.0638 39.8646 125.2397 -22.3839 -13.5039 13.6071
# 4 -26.9880 -32.6185 -22.3839 59.5110 7.3754 -1.4697
# 5 -14.8723 -14.2001 -13.5039 7.3754 44.0630 -8.6710
# 6 38.3186 17.5506 13.6071 -1.4697 -8.6710 41.1148
#
#
#
# Elastic Compliance Matrix: (Units=1/GPa)
#
#
# Indices 1 2 3 4 5 6 
#
# 1 0.008745 -0.004090 -0.000268 0.001459 0.000078 -0.006247
# 2 -0.004090 0.015545 -0.002448 0.005502 0.001670 -0.001465
# 3 -0.000268 -0.002448 0.009494 0.001895 0.001422 -0.001479
# 4 0.001459 0.005502 0.001895 0.021281 -0.001481 -0.003887
# 5 0.000078 0.001670 0.001422 -0.001481 0.024711 0.003903
# 6 -0.006247 -0.001465 -0.001479 -0.003887 0.003903 0.031943
#
#
# Mechanical properties :
#
#
# Convention : Reuss Voigt Hill
#
# Bulk Modulus (GPa) = 49.57353 77.14954 63.36153
# Shear Modulus (GPa) = 37.86280 46.53252 42.19766
#
# Velocity S-wave (km/s) = 3.93503 4.36234 4.15418
# Velocity P-wave (km/s) = 6.39684 7.54484 6.99443
#
# Compressibility (1/GPa) = 0.02017206
#
# Stress axis : x y z
#
# Youngs Moduli (GPa) = 114.35124 64.32808 105.33136
#
# Poissons Ratio (x) = 0.26308 0.02828
# Poissons Ratio (y) = 0.46766 0.25784
# Poissons Ratio (z) = 0.03070 0.15747
#
# Static dielectric constant tensor:
#      x y z
#    x 1.922370 0.005410 0.028940 
#    y 0.005410 1.969000 0.052510 
#    z 0.028940 0.052510 1.991830 
# 
# From -- ./inp_files/319083.got.cif
#   From: 2010.05.17/outbox.cif.g08.bks.cpg/sg2_160_cif.got.tgz:319083.got - 2010.06.03 11:33:40.
