data_PCOD9065559
_publ_section_title
;
Structure prediction by ZEFSAII (Michael W. Deem and Ramdas Pophale) SiO2 
 PCOD9065559
Probable space group: P -1
;
_chemical_formula_sum "Si O2"
_cell_formula_units_Z 16
_cell_length_a 20.772312
_cell_length_b 12.161746
_cell_length_c 14.711056
_cell_angle_alpha 28.639151
_cell_angle_beta 151.546846
_cell_angle_gamma 150.520648
_cell_volume 764.948603
_symmetry_space_group_name_H-M "P -1"
_symmetry_group_IT_number 2
_symmetry_cell_setting 'triclinic'
loop_
_space_group_symop_operation_xyz
x,y,z
-x,-y,-z
loop_
_atom_site_type_symbol
_atom_site_label
_atom_site_fract_x
_atom_site_fract_y
_atom_site_fract_z
Si Si1 0.081822 0.906987 0.871114
Si Si2 0.062969 0.804729 0.253097
Si Si3 0.338024 0.993117 0.798034
Si Si4 0.093272 0.780129 0.523260
Si Si5 0.598555 0.903555 0.580156
Si Si6 0.842646 0.353642 0.012215
Si Si7 0.409128 0.227462 0.133068
Si Si8 0.571786 0.458460 0.525932
O O1 0.976866 0.636696 0.985427
O O2 0.108821 0.815123 0.872439
O O3 0.990356 0.076896 0.631558
O O4 0.239526 0.075131 0.995169
O O5 0.065883 0.806987 0.364221
O O6 0.967153 0.515592 0.314566
O O7 0.230481 0.894000 0.361189
O O8 0.000000 0.000000 0.000000
O O9 0.355920 0.275378 0.630893
O O10 0.267013 0.913718 0.667978
O O11 0.500000 0.000000 0.000000
O O12 0.224019 0.793295 0.871205
O O13 0.586891 0.744263 0.773041
O O14 0.551368 0.735998 0.552640
O O15 0.492718 0.047767 0.350002
O O16 0.704004 0.381351 0.771110
O O17 0.500000 0.500000 0.000000
O O18 0.500000 0.500000 0.500000
#
# Coordination Sequence:
#
# PCOD9065559 Si02
#       8
#     2   2   2   2   2   2   2   2
#     4  11  24  49  71  99 148 183 237 297 357 426
#     4  11  26  46  72 102 141 186 234 298 360 426
#     4  12  27  43  73 104 138 192 235 296 361 420
#     4  11  26  45  69 107 139 181 242 291 355 435
#     4  11  26  43  72 103 137 188 235 290 362 424
#     4  11  26  46  71 104 142 190 233 298 359 425
#     4  11  25  47  72 102 141 184 236 295 356 430
#     4  12  24  47  72 105 146 182 244 297 352 433
#
# _framework density 20.916436999999998
#
# number of rings (size 3 to 8) (size 9 to 14) (size 15 to 20)
#    0.000    0.750    3.750    2.250    7.000    1.500 
#    0.000    0.000    0.000    0.000    0.000    0.000 
#    0.000    0.000    0.000    0.000    0.000    0.000 
#
# Total GULP energy -89503.679931 kJ/mol
# GULP energy per Si atom -5593.979996 kJ/mol
# Density = 2.086883 g / cm^3
# Si number density = 20.916437 Si / 1000 Ang^3
#
#
#
# Elastic Constant Matrix: (Units=GPa)
#
#
# Indices 1 2 3 4 5 6 
#
# 1 91.8316 38.8377 28.6205 -9.7128 -0.6843 -1.6505
# 2 38.8377 122.0449 48.3203 8.1390 -12.7795 2.2091
# 3 28.6205 48.3203 112.1982 -1.3509 -0.1237 -4.0503
# 4 -9.7128 8.1390 -1.3509 39.7108 9.3653 -1.2734
# 5 -0.6843 -12.7795 -0.1237 9.3653 32.1645 -3.6608
# 6 -1.6505 2.2091 -4.0503 -1.2734 -3.6608 35.0482
#
#
#
# Elastic Compliance Matrix: (Units=1/GPa)
#
#
# Indices 1 2 3 4 5 6 
#
# 1 0.013734 -0.004396 -0.001531 0.004892 -0.002813 0.000631
# 2 -0.004396 0.012297 -0.004268 -0.005232 0.006183 -0.001020
# 3 -0.001531 -0.004268 0.011204 0.001380 -0.001935 0.001340
# 4 0.004892 -0.005232 0.001380 0.030028 -0.010633 0.000700
# 5 -0.002813 0.006183 -0.001935 -0.010633 0.036885 0.002721
# 6 0.000631 -0.001020 0.001340 0.000700 0.002721 0.029091
#
#
# Mechanical properties :
#
#
# Convention : Reuss Voigt Hill
#
# Bulk Modulus (GPa) = 59.36604 61.95908 60.66256
# Shear Modulus (GPa) = 31.39832 35.40444 33.40138
#
# Velocity S-wave (km/s) = 3.87865 4.11866 4.00045
# Velocity P-wave (km/s) = 6.96438 7.23217 7.09954
#
# Compressibility (1/GPa) = 0.01684465
#
# Stress axis : x y z
#
# Youngs Moduli (GPa) = 72.81277 81.31966 89.25233
#
# Poissons Ratio (x) = 0.35751 0.13668
# Poissons Ratio (y) = 0.32011 0.38089
# Poissons Ratio (z) = 0.11151 0.34703
#
# Static dielectric constant tensor:
#      x y z
#    x 1.764620 0.001900 -0.030190 
#    y 0.001900 1.739850 0.005620 
#    z -0.030190 0.005620 1.748740 
# 
# From -- ./inp_files/541066.got.cif
#   From: 2010.05.17/outbox.cif.g08.bks.cpg/sg2_271_cif.got.tgz:541066.got - 2010.06.03 11:33:40.
