data_PCOD9065636
_publ_section_title
;
Structure prediction by ZEFSAII (Michael W. Deem and Ramdas Pophale) SiO2 
 PCOD9065636
Probable space group: P -1
;
_chemical_formula_sum "Si O2"
_cell_formula_units_Z 10
_cell_length_a 7.463691
_cell_length_b 9.835966
_cell_length_c 9.485436
_cell_angle_alpha 133.570626
_cell_angle_beta 66.975049
_cell_angle_gamma 133.506463
_cell_volume 361.294627
_symmetry_space_group_name_H-M "P -1"
_symmetry_group_IT_number 2
_symmetry_cell_setting 'triclinic'
loop_
_space_group_symop_operation_xyz
x,y,z
-x,-y,-z
loop_
_atom_site_type_symbol
_atom_site_label
_atom_site_fract_x
_atom_site_fract_y
_atom_site_fract_z
Si Si1 0.708911 0.834811 0.339133
Si Si2 0.765952 0.734728 0.635629
Si Si3 0.285252 0.562848 0.045530
Si Si4 0.028200 0.787642 0.849999
Si Si5 0.419609 0.024205 0.238179
O O1 0.545809 0.759672 0.192704
O O2 0.604944 0.879770 0.537799
O O3 0.702507 0.603918 0.185741
O O4 0.986819 0.085068 0.407507
O O5 0.500000 0.500000 0.500000
O O6 0.688454 0.907297 0.802554
O O7 0.857745 0.649118 0.665495
O O8 0.109589 0.387859 0.100835
O O9 0.249587 0.736509 0.102338
O O10 0.298374 0.863693 0.797370
O O11 0.000000 0.000000 0.000000
#
# Coordination Sequence:
#
# PCOD9065636 Si02
#       5
#     2   2   2   2   2
#     4  11  24  51  75 117 156 204 260 324 388 464
#     4  12  28  48  79 120 159 202 267 325 384 477
#     4  11  24  49  85 107 159 204 265 322 385 473
#     4  12  26  53  77 117 160 204 262 322 392 472
#     4  12  28  49  84 114 155 214 256 322 405 453
#
# _framework density 27.678241
#
# number of rings (size 3 to 8) (size 9 to 14) (size 15 to 20)
#    0.000    0.400    4.000    3.600    2.800    3.200 
#    0.000    0.000    0.000    0.000    0.000    0.000 
#    0.000    0.000    0.000    0.000    0.000    0.000 
#
# Total GULP energy -56065.300930 kJ/mol
# GULP energy per Si atom -5606.530093 kJ/mol
# Density = 2.761524 g / cm^3
# Si number density = 27.678241 Si / 1000 Ang^3
#
#
#
# Elastic Constant Matrix: (Units=GPa)
#
#
# Indices 1 2 3 4 5 6 
#
# 1 184.4046 96.1276 28.1472 -19.6477 -14.3751 3.7718
# 2 96.1276 202.3263 89.2950 9.0494 -20.2467 30.1797
# 3 28.1472 89.2950 161.0012 -17.9174 -21.0838 13.5078
# 4 -19.6477 9.0494 -17.9174 52.6286 -0.3040 -11.9396
# 5 -14.3751 -20.2467 -21.0838 -0.3040 45.8831 14.3858
# 6 3.7718 30.1797 13.5078 -11.9396 14.3858 67.9250
#
#
#
# Elastic Compliance Matrix: (Units=1/GPa)
#
#
# Indices 1 2 3 4 5 6 
#
# 1 0.008542 -0.005503 0.002012 0.005372 0.000450 0.002419
# 2 -0.005503 0.011252 -0.005283 -0.006997 0.002458 -0.005394
# 3 0.002012 -0.005283 0.009635 0.005108 0.002548 0.000678
# 4 0.005372 -0.006997 0.005108 0.025408 -0.000913 0.006454
# 5 0.000450 0.002458 0.002548 -0.000913 0.026504 -0.007398
# 6 0.002419 -0.005394 0.000678 0.006454 -0.007398 0.019551
#
#
# Mechanical properties :
#
#
# Convention : Reuss Voigt Hill
#
# Bulk Modulus (GPa) = 84.15974 108.31908 96.23941
# Shear Modulus (GPa) = 40.85024 55.56484 48.20754
#
# Velocity S-wave (km/s) = 3.84591 4.48541 4.17791
# Velocity P-wave (km/s) = 7.08476 8.12682 7.62362
#
# Compressibility (1/GPa) = 0.01188217
#
# Stress axis : x y z
#
# Youngs Moduli (GPa) = 117.06731 88.87372 103.79322
#
# Poissons Ratio (x) = 0.48904 -0.20886
# Poissons Ratio (y) = 0.64418 0.54832
# Poissons Ratio (z) = -0.23557 0.46950
#
# Static dielectric constant tensor:
#      x y z
#    x 2.268430 -0.020710 0.141760 
#    y -0.020710 2.120090 0.008980 
#    z 0.141760 0.008980 2.439890 
# 
# From -- ./inp_files/388511.got.cif
#   From: 2010.05.17/outbox.cif.g08.bks.cpg/sg2_195_cif.got.tgz:388511.got - 2010.06.03 11:33:40.
