data_PCOD9065140
_publ_section_title
;
Structure prediction by ZEFSAII (Michael W. Deem and Ramdas Pophale) SiO2 
 PCOD9065140
Probable space group: P -1
;
_chemical_formula_sum "Si O2"
_cell_formula_units_Z 14
_cell_length_a 9.693634
_cell_length_b 5.527471
_cell_length_c 17.705975
_cell_angle_alpha 78.060901
_cell_angle_beta 140.820897
_cell_angle_gamma 104.464545
_cell_volume 580.209719
_symmetry_space_group_name_H-M "P -1"
_symmetry_group_IT_number 2
_symmetry_cell_setting 'triclinic'
loop_
_space_group_symop_operation_xyz
x,y,z
-x,-y,-z
loop_
_atom_site_type_symbol
_atom_site_label
_atom_site_fract_x
_atom_site_fract_y
_atom_site_fract_z
Si Si1 0.233298 0.256364 0.615589
Si Si2 0.597141 0.246392 0.251438
Si Si3 0.110670 0.317982 0.236712
Si Si4 0.094240 0.241995 0.070251
Si Si5 0.405244 0.539032 0.538729
Si Si6 0.731612 0.517339 0.142902
Si Si7 0.044508 0.893781 0.355255
O O1 0.280344 0.532619 0.657192
O O2 0.241747 0.329669 0.526822
O O3 0.030567 0.127207 0.588195
O O4 0.390096 0.040806 0.703488
O O5 0.347576 0.291377 0.150266
O O6 0.687032 0.297872 0.201219
O O7 0.045831 0.173377 0.141765
O O8 0.363816 0.432013 0.319475
O O9 0.928126 0.490925 0.169159
O O10 0.108139 0.147710 0.320497
O O11 0.000000 0.500000 0.000000
O O12 0.000000 0.000000 0.000000
O O13 0.500000 0.500000 0.500000
O O14 0.263500 0.762231 0.455099
O O15 0.838157 0.748673 0.226944
O O16 0.500000 0.500000 0.000000
#
# Coordination Sequence:
#
# PCOD9065140 Si02
#       7
#     2   2   2   2   2   2   2
#     4  11  25  49  74 107 151 196 245 308 376 457
#     4  11  24  47  72 108 149 197 248 303 381 448
#     4  12  26  48  75 112 148 196 255 315 376 447
#     4  12  28  46  75 108 153 200 254 312 380 446
#     4  12  26  47  80 111 149 196 253 320 379 451
#     4  11  25  46  73 106 151 198 249 310 371 454
#     4  11  26  48  73 110 148 200 251 308 385 450
#
# _framework density 24.129206
#
# number of rings (size 3 to 8) (size 9 to 14) (size 15 to 20)
#    0.000    0.571    4.286    2.571    6.000    2.857 
#    0.000    2.857    0.000    0.000    0.000    0.000 
#    0.000    0.000    0.000    0.000    0.000    0.000 
#
# Total GULP energy -78179.361250 kJ/mol
# GULP energy per Si atom -5584.240089 kJ/mol
# Density = 2.407429 g / cm^3
# Si number density = 24.129206 Si / 1000 Ang^3
#
#
#
# Elastic Constant Matrix: (Units=GPa)
#
#
# Indices 1 2 3 4 5 6 
#
# 1 179.4921 34.8184 42.2452 1.5404 -9.9132 -7.5795
# 2 34.8184 97.9900 42.1393 -1.1870 -2.0361 -2.7420
# 3 42.2452 42.1393 95.1906 0.2491 10.2771 -9.4064
# 4 1.5404 -1.1870 0.2491 43.3012 -9.5100 8.9304
# 5 -9.9132 -2.0361 10.2771 -9.5100 56.9393 -6.9616
# 6 -7.5795 -2.7420 -9.4064 8.9304 -6.9616 37.0853
#
#
#
# Elastic Compliance Matrix: (Units=1/GPa)
#
#
# Indices 1 2 3 4 5 6 
#
# 1 0.006510 -0.001206 -0.002437 -0.000088 0.001632 0.000951
# 2 -0.001206 0.012982 -0.005415 0.000842 0.001297 -0.000620
# 3 -0.002437 -0.005415 0.014580 -0.001364 -0.003168 0.002533
# 4 -0.000088 0.000842 -0.001364 0.025119 0.003766 -0.005644
# 5 0.001632 0.001297 -0.003168 0.003766 0.019382 0.002357
# 6 0.000951 -0.000620 0.002533 -0.005644 0.002357 0.029557
#
#
# Mechanical properties :
#
#
# Convention : Reuss Voigt Hill
#
# Bulk Modulus (GPa) = 62.67420 67.89762 65.28591
# Shear Modulus (GPa) = 38.00382 44.36314 41.18348
#
# Velocity S-wave (km/s) = 3.97295 4.29250 4.13581
# Velocity P-wave (km/s) = 6.86124 7.26414 7.06556
#
# Compressibility (1/GPa) = 0.01595553
#
# Stress axis : x y z
#
# Youngs Moduli (GPa) = 153.61464 77.02911 68.58651
#
# Poissons Ratio (x) = 0.09286 0.16717
# Poissons Ratio (y) = 0.18518 0.37142
# Poissons Ratio (z) = 0.37441 0.41714
#
# Static dielectric constant tensor:
#      x y z
#    x 1.879060 -0.028930 -0.000730 
#    y -0.028930 1.859600 0.099590 
#    z -0.000730 0.099590 1.918340 
# 
# From -- ./inp_files/52542.got.cif
#   From: 2010.05.17/outbox.cif.g08.bks.cpg/sg2_27_cif.got.tgz:52542.got - 2010.06.03 11:33:40.
