data_PCOD9065256
_publ_section_title
;
Structure prediction by ZEFSAII (Michael W. Deem and Ramdas Pophale) SiO2 
 PCOD9065256
Probable space group: P -1
;
_chemical_formula_sum "Si O2"
_cell_formula_units_Z 13
_cell_length_a 9.118972
_cell_length_b 12.029646
_cell_length_c 11.036157
_cell_angle_alpha 143.864626
_cell_angle_beta 63.788669
_cell_angle_gamma 93.106228
_cell_volume 525.451438
_symmetry_space_group_name_H-M "P -1"
_symmetry_group_IT_number 2
_symmetry_cell_setting 'triclinic'
loop_
_space_group_symop_operation_xyz
x,y,z
-x,-y,-z
loop_
_atom_site_type_symbol
_atom_site_label
_atom_site_fract_x
_atom_site_fract_y
_atom_site_fract_z
Si Si1 0.111714 0.235507 0.545251
Si Si2 0.789624 0.089699 0.217018
Si Si3 0.858261 0.606796 0.760198
Si Si4 0.799560 0.430833 0.135784
Si Si5 0.500000 0.500000 0.500000
Si Si6 0.169578 0.918565 0.526283
Si Si7 0.573871 0.251690 0.941762
O O1 0.189771 0.353994 0.705579
O O2 0.951558 0.175371 0.573579
O O3 0.995685 0.434485 0.663973
O O4 0.304782 0.978611 0.220875
O O5 0.623384 0.283649 0.360039
O O6 0.783074 0.159437 0.420793
O O7 0.782036 0.869000 0.033827
O O8 0.000000 0.000000 0.000000
O O9 0.655464 0.623245 0.837643
O O10 0.000000 0.500000 0.500000
O O11 0.711739 0.439322 0.308213
O O12 0.654623 0.403722 0.079657
O O13 0.016635 0.193843 0.831766
O O14 0.356227 0.835229 0.297560
#
# Coordination Sequence:
#
# PCOD9065256 Si02
#       7
#     2   2   2   2   1   2   2
#     4  11  24  49  75 113 150 205 251 314 379 456
#     4  12  25  51  75 110 153 195 258 318 377 453
#     4  12  28  48  77 113 151 204 261 315 383 461
#     4  11  24  47  76 111 151 202 252 316 376 451
#     4  12  26  44  80 106 146 206 246 316 384 436
#     4  11  25  50  75 109 159 197 256 317 378 461
#     4  11  29  48  73 115 156 202 255 314 383 459
#
# _framework density 24.740631
#
# number of rings (size 3 to 8) (size 9 to 14) (size 15 to 20)
#    0.000    0.615    3.077    3.692    8.615    4.308 
#    2.769    0.000    0.000    0.000    0.000    0.000 
#    0.000    0.000    0.000    0.000    0.000    0.000 
#
# Total GULP energy -72476.041767 kJ/mol
# GULP energy per Si atom -5575.080136 kJ/mol
# Density = 2.468432 g / cm^3
# Si number density = 24.740631 Si / 1000 Ang^3
#
#
#
# Elastic Constant Matrix: (Units=GPa)
#
#
# Indices 1 2 3 4 5 6 
#
# 1 128.8625 40.6019 73.4445 9.0980 6.5658 8.6995
# 2 40.6019 122.1983 64.9603 11.3645 -14.5266 7.9791
# 3 73.4445 64.9603 130.3269 13.5039 -12.3716 0.7162
# 4 9.0980 11.3645 13.5039 41.5658 8.1968 -19.9384
# 5 6.5658 -14.5266 -12.3716 8.1968 55.6150 9.5968
# 6 8.6995 7.9791 0.7162 -19.9384 9.5968 31.9605
#
#
#
# Elastic Compliance Matrix: (Units=1/GPa)
#
#
# Indices 1 2 3 4 5 6 
#
# 1 0.012137 -0.000377 -0.006680 -0.001568 -0.002204 -0.003377
# 2 -0.000377 0.012694 -0.004894 -0.006926 0.004797 -0.008717
# 3 -0.006680 -0.004894 0.014391 -0.002265 0.002974 0.000412
# 4 -0.001568 -0.006926 -0.002265 0.047608 -0.015451 0.036546
# 5 -0.002204 0.004797 0.002974 -0.015451 0.025533 -0.017970
# 6 -0.003377 -0.008717 0.000412 0.036546 -0.017970 0.062570
#
#
# Mechanical properties :
#
#
# Convention : Reuss Voigt Hill
#
# Bulk Modulus (GPa) = 65.27129 82.15568 73.71349
# Shear Modulus (GPa) = 24.51675 39.32035 31.91855
#
# Velocity S-wave (km/s) = 3.15135 3.99093 3.59573
# Velocity P-wave (km/s) = 6.29927 7.38347 6.86281
#
# Compressibility (1/GPa) = 0.01532067
#
# Stress axis : x y z
#
# Youngs Moduli (GPa) = 82.39125 78.77913 69.48657
#
# Poissons Ratio (x) = 0.02973 0.46416
# Poissons Ratio (y) = 0.03109 0.34004
# Poissons Ratio (z) = 0.55036 0.38551
#
# Static dielectric constant tensor:
#      x y z
#    x 2.076060 -0.021470 0.029920 
#    y -0.021470 2.011050 -0.022590 
#    z 0.029920 -0.022590 1.988480 
# 
# From -- ./inp_files/502312.got.cif
#   From: 2010.05.17/outbox.cif.g08.bks.cpg/sg2_252_cif.got.tgz:502312.got - 2010.06.03 11:33:40.
