data_PCOD9065341
_publ_section_title
;
Structure prediction by ZEFSAII (Michael W. Deem and Ramdas Pophale) SiO2 
 PCOD9065341
Probable space group: P -1
;
_chemical_formula_sum "Si O2"
_cell_formula_units_Z 14
_cell_length_a 7.992951
_cell_length_b 11.546299
_cell_length_c 8.951677
_cell_angle_alpha 86.641457
_cell_angle_beta 122.269998
_cell_angle_gamma 115.996080
_cell_volume 610.904817
_symmetry_space_group_name_H-M "P -1"
_symmetry_group_IT_number 2
_symmetry_cell_setting 'triclinic'
loop_
_space_group_symop_operation_xyz
x,y,z
-x,-y,-z
loop_
_atom_site_type_symbol
_atom_site_label
_atom_site_fract_x
_atom_site_fract_y
_atom_site_fract_z
Si Si1 0.541360 0.278488 0.775674
Si Si2 0.479940 0.910852 0.709987
Si Si3 0.223793 0.617198 0.667475
Si Si4 0.890520 0.267757 0.110678
Si Si5 0.259858 0.058992 0.461577
Si Si6 0.591282 0.552526 0.707074
Si Si7 0.751053 0.968576 0.138459
O O1 0.393798 0.211608 0.563088
O O2 0.593603 0.427900 0.798018
O O3 0.397830 0.176690 0.845675
O O4 0.771785 0.270188 0.898536
O O5 0.299669 0.758256 0.616038
O O6 0.640983 0.960654 0.641537
O O7 0.336187 0.989564 0.632411
O O8 0.648756 0.931479 0.924332
O O9 0.161819 0.642424 0.804150
O O10 0.429060 0.588813 0.725819
O O11 0.000000 0.500000 0.500000
O O12 0.155173 0.327884 0.202818
O O13 0.775661 0.118730 0.134390
O O14 0.999321 0.003870 0.311444
O O15 0.500000 0.500000 0.500000
#
# Coordination Sequence:
#
# PCOD9065341 Si02
#       7
#     2   2   2   2   2   2   2
#     4  12  25  47  73 111 150 202 254 311 385 453
#     4  11  24  48  69 115 151 194 254 318 372 454
#     4  12  26  45  76 104 151 199 251 309 375 450
#     4  12  25  49  77 107 153 199 249 319 377 448
#     4  11  25  41  77 110 149 198 255 309 386 449
#     4  12  27  48  73 108 151 202 253 306 383 456
#     4  12  24  47  80 107 151 198 254 319 379 446
#
# _framework density 22.916826
#
# number of rings (size 3 to 8) (size 9 to 14) (size 15 to 20)
#    0.000    0.286    4.286    5.143    2.000    0.571 
#    0.000    0.000    0.000    0.000    0.000    0.000 
#    0.000    0.000    0.000    0.000    0.000    0.000 
#
# Total GULP energy -78109.398291 kJ/mol
# GULP energy per Si atom -5579.242735 kJ/mol
# Density = 2.286467 g / cm^3
# Si number density = 22.916826 Si / 1000 Ang^3
#
#
#
# Elastic Constant Matrix: (Units=GPa)
#
#
# Indices 1 2 3 4 5 6 
#
# 1 89.1214 8.7609 9.4202 -0.6865 7.8294 8.3019
# 2 8.7609 112.0955 11.7800 -7.6062 -6.0677 -9.4299
# 3 9.4202 11.7800 98.0064 4.7688 7.7499 12.1131
# 4 -0.6865 -7.6062 4.7688 43.1002 3.3448 8.6192
# 5 7.8294 -6.0677 7.7499 3.3448 26.9275 5.2333
# 6 8.3019 -9.4299 12.1131 8.6192 5.2333 23.1714
#
#
#
# Elastic Compliance Matrix: (Units=1/GPa)
#
#
# Indices 1 2 3 4 5 6 
#
# 1 0.012075 -0.001382 -0.000256 0.001108 -0.003014 -0.004486
# 2 -0.001382 0.009782 -0.001825 0.000812 0.002127 0.004648
# 3 -0.000256 -0.001825 0.011388 -0.000202 -0.002427 -0.005981
# 4 0.001108 0.000812 -0.000202 0.025307 -0.001467 -0.009043
# 5 -0.003014 0.002127 -0.002427 -0.001467 0.040417 -0.005368
# 6 -0.004486 0.004648 -0.005981 -0.009043 -0.005368 0.054359
#
#
# Mechanical properties :
#
#
# Convention : Reuss Voigt Hill
#
# Bulk Modulus (GPa) = 37.99469 39.90507 38.94988
# Shear Modulus (GPa) = 29.58115 36.59063 33.08589
#
# Velocity S-wave (km/s) = 3.59667 4.00017 3.80378
# Velocity P-wave (km/s) = 5.81923 6.22784 6.02700
#
# Compressibility (1/GPa) = 0.02631947
#
# Stress axis : x y z
#
# Youngs Moduli (GPa) = 82.81708 102.22847 87.80910
#
# Poissons Ratio (x) = 0.14131 0.02244
# Poissons Ratio (y) = 0.11448 0.16026
# Poissons Ratio (z) = 0.02116 0.18657
#
# Static dielectric constant tensor:
#      x y z
#    x 1.948580 -0.019300 -0.042030 
#    y -0.019300 1.832110 -0.020080 
#    z -0.042030 -0.020080 1.892550 
# 
# From -- ./inp_files/187133.got.cif
#   From: 2010.05.17/outbox.cif.g08.bks.cpg/sg2_94_cif.got.tgz:187133.got - 2010.06.03 11:33:40.
