data_PCOD9065880
_publ_section_title
;
Structure prediction by ZEFSAII (Michael W. Deem and Ramdas Pophale) SiO2 
 PCOD9065880
Probable space group: P -1
;
_chemical_formula_sum "Si O2"
_cell_formula_units_Z 16
_cell_length_a 9.015160
_cell_length_b 7.340034
_cell_length_c 12.105991
_cell_angle_alpha 84.011485
_cell_angle_beta 123.690369
_cell_angle_gamma 88.831504
_cell_volume 659.921461
_symmetry_space_group_name_H-M "P -1"
_symmetry_group_IT_number 2
_symmetry_cell_setting 'triclinic'
loop_
_space_group_symop_operation_xyz
x,y,z
-x,-y,-z
loop_
_atom_site_type_symbol
_atom_site_label
_atom_site_fract_x
_atom_site_fract_y
_atom_site_fract_z
Si Si1 0.429232 0.757139 0.171097
Si Si2 0.368823 0.677303 0.906706
Si Si3 0.519741 0.142698 0.286075
Si Si4 0.059842 0.416699 0.781726
Si Si5 0.817760 0.632998 0.387489
Si Si6 0.147739 0.039657 0.467642
Si Si7 0.830657 0.721934 0.737845
Si Si8 0.970322 0.221143 0.965368
O O1 0.606095 0.612293 0.273124
O O2 0.237976 0.707492 0.139026
O O3 0.463503 0.944831 0.235433
O O4 0.387532 0.792003 0.020329
O O5 0.425765 0.770378 0.812547
O O6 0.182905 0.587855 0.815516
O O7 0.500000 0.500000 0.000000
O O8 0.361567 0.239826 0.287708
O O9 0.692810 0.117155 0.438069
O O10 0.114131 0.291926 0.706426
O O11 0.865699 0.530306 0.698159
O O12 0.083196 0.293654 0.907180
O O13 0.793556 0.773061 0.467960
O O14 0.000000 0.500000 0.500000
O O15 0.120992 0.101480 0.326275
O O16 0.000000 0.000000 0.500000
O O17 0.961846 0.700863 0.898097
O O18 0.000000 0.000000 0.000000
#
# Coordination Sequence:
#
# PCOD9065880 Si02
#       8
#     2   2   2   2   2   2   2   2
#     4  11  25  43  73 103 147 184 242 288 368 416
#     4  12  24  42  71 107 144 185 240 292 357 427
#     4  11  26  44  71 105 147 189 242 297 354 427
#     4  12  26  44  72 106 144 189 236 298 361 429
#     4  11  25  48  70 101 144 183 244 294 352 427
#     4  11  26  46  74 101 139 196 244 290 354 432
#     4  12  24  45  70 103 147 186 237 292 363 427
#     4  12  27  45  71 107 149 185 235 302 367 427
#
# _framework density 24.245308000000001
#
# number of rings (size 3 to 8) (size 9 to 14) (size 15 to 20)
#    0.000    0.500    5.000    2.625    3.500    1.000 
#    0.000    0.625    0.000    0.000    0.000    0.000 
#    0.000    0.000    0.000    0.000    0.000    0.000 
#
# Total GULP energy -89272.287828 kJ/mol
# GULP energy per Si atom -5579.517989 kJ/mol
# Density = 2.419012 g / cm^3
# Si number density = 24.245308 Si / 1000 Ang^3
#
#
#
# Elastic Constant Matrix: (Units=GPa)
#
#
# Indices 1 2 3 4 5 6 
#
# 1 144.1172 17.4170 41.8180 -25.2496 8.5803 0.5273
# 2 17.4170 23.5794 1.9953 -4.8343 11.3990 -9.3837
# 3 41.8180 1.9953 102.2204 -26.5599 -4.8464 18.8712
# 4 -25.2496 -4.8343 -26.5599 29.7628 -6.9140 -6.2734
# 5 8.5803 11.3990 -4.8464 -6.9140 49.5472 -10.1083
# 6 0.5273 -9.3837 18.8712 -6.2734 -10.1083 43.0776
#
#
#
# Elastic Compliance Matrix: (Units=1/GPa)
#
#
# Indices 1 2 3 4 5 6 
#
# 1 0.009145 -0.005444 -0.002468 0.004834 0.000211 0.000537
# 2 -0.005444 0.056111 -0.000123 0.004556 -0.009126 0.010865
# 3 -0.002468 -0.000123 0.014395 0.010416 0.002459 -0.004209
# 4 0.004834 0.004556 0.010416 0.050581 0.007304 0.005450
# 5 0.000211 -0.009126 0.002459 0.007304 0.024258 0.003688
# 6 0.000537 0.010865 -0.004209 0.005450 0.003688 0.029077
#
#
# Mechanical properties :
#
#
# Convention : Reuss Voigt Hill
#
# Bulk Modulus (GPa) = 15.72786 43.59753 29.66269
# Shear Modulus (GPa) = 22.64183 38.38995 30.51589
#
# Velocity S-wave (km/s) = 3.05924 3.98351 3.55157
# Velocity P-wave (km/s) = 4.35656 6.25929 5.39251
#
# Compressibility (1/GPa) = 0.06358143
#
# Stress axis : x y z
#
# Youngs Moduli (GPa) = 109.34660 17.82179 69.46945
#
# Poissons Ratio (x) = 0.09702 0.17146
# Poissons Ratio (y) = 0.59525 0.00855
# Poissons Ratio (z) = 0.26988 0.00219
#
# Static dielectric constant tensor:
#      x y z
#    x -5.954310 1.421830 -1.026530 
#    y 1.421830 1.765840 0.225970 
#    z -1.026530 0.225970 1.871580 
# 
# From -- ./inp_files/378870.got.cif
#   From: 2010.05.17/outbox.cif.g08.bks.cpg/sg2_190_cif.got.tgz:378870.got - 2010.06.03 11:33:40.
