data_PCOD9065782
_publ_section_title
;
Structure prediction by ZEFSAII (Michael W. Deem and Ramdas Pophale) SiO2 
 PCOD9065782
Probable space group: P -1
;
_chemical_formula_sum "Si O2"
_cell_formula_units_Z 15
_cell_length_a 22.850837
_cell_length_b 13.972418
_cell_length_c 8.413058
_cell_angle_alpha 30.421562
_cell_angle_beta 44.971352
_cell_angle_gamma 26.243532
_cell_volume 574.735999
_symmetry_space_group_name_H-M "P -1"
_symmetry_group_IT_number 2
_symmetry_cell_setting 'triclinic'
loop_
_space_group_symop_operation_xyz
x,y,z
-x,-y,-z
loop_
_atom_site_type_symbol
_atom_site_label
_atom_site_fract_x
_atom_site_fract_y
_atom_site_fract_z
Si Si1 0.000000 0.500000 0.000000
Si Si2 0.627984 0.521943 0.156264
Si Si3 0.929284 0.755760 0.408276
Si Si4 0.150467 0.625357 0.139231
Si Si5 0.795815 0.579765 0.310707
Si Si6 0.545416 0.831562 0.320703
Si Si7 0.319057 0.975729 0.626879
Si Si8 0.622186 0.235880 0.827425
O O1 0.980245 0.590384 0.718418
O O2 0.059128 0.612141 0.758555
O O3 0.635869 0.416551 0.467256
O O4 0.534791 0.546802 0.201318
O O5 0.783346 0.293934 0.140633
O O6 0.533032 0.883766 0.812144
O O7 0.990932 0.852933 0.117535
O O8 0.232802 0.985139 0.676464
O O9 0.000000 0.500000 0.500000
O O10 0.201595 0.482665 0.421639
O O11 0.228754 0.335063 0.286161
O O12 0.706645 0.582917 0.390151
O O13 0.713377 0.934015 0.966673
O O14 0.472505 0.763498 0.586178
O O15 0.500000 0.000000 0.000000
O O16 0.322323 0.897125 0.913557
#
# Coordination Sequence:
#
# PCOD9065782 Si02
#       8
#     1   2   2   2   2   2   2   2
#     4  10  18  30  50  74  98 126 166 208 242 290
#     4   9  17  30  48  70  96 127 165 201 243 298
#     4   9  17  29  47  72  99 129 163 203 249 290
#     4   8  15  28  47  68  90 121 163 203 238 286
#     4   9  17  29  48  72  94 123 160 201 248 289
#     4  10  18  28  45  70  96 123 160 204 246 291
#     4   9  16  28  46  68  96 124 159 205 245 288
#     4   9  17  30  49  71  95 127 164 203 248 297
#
# _framework density 26.098938
#
# number of rings (size 3 to 8) (size 9 to 14) (size 15 to 20)
#    0.000    2.933    0.000    2.400    0.000    3.200 
#    0.000    1.333    0.000    4.800    0.000    0.000 
#    0.000    0.000    0.000    0.000    0.000    0.000 
#
# Total GULP energy -83602.180638 kJ/mol
# GULP energy per Si atom -5573.478709 kJ/mol
# Density = 2.603954 g / cm^3
# Si number density = 26.098938 Si / 1000 Ang^3
#
#
#
# Elastic Constant Matrix: (Units=GPa)
#
#
# Indices 1 2 3 4 5 6 
#
# 1 134.2379 20.9903 55.2938 21.0471 -5.1152 -47.8084
# 2 20.9903 48.1804 41.2531 11.8612 -8.1787 -9.4299
# 3 55.2938 41.2531 97.6509 36.4545 -9.6511 -25.5996
# 4 21.0471 11.8612 36.4545 46.8551 -7.6484 -24.0863
# 5 -5.1152 -8.1787 -9.6511 -7.6484 45.4848 4.8509
# 6 -47.8084 -9.4299 -25.5996 -24.0863 4.8509 53.6427
#
#
#
# Elastic Compliance Matrix: (Units=1/GPa)
#
#
# Indices 1 2 3 4 5 6 
#
# 1 0.013216 0.001047 -0.006847 0.004651 -0.000147 0.010798
# 2 0.001047 0.033517 -0.015804 0.004384 0.003428 0.000942
# 3 -0.006847 -0.015804 0.025248 -0.014268 -0.000311 -0.003210
# 4 0.004651 0.004384 -0.014268 0.037209 0.002990 0.014544
# 5 -0.000147 0.003428 -0.000311 0.002990 0.023067 -0.000421
# 6 0.010798 0.000942 -0.003210 0.014544 -0.000421 0.033468
#
#
# Mechanical properties :
#
#
# Convention : Reuss Voigt Hill
#
# Bulk Modulus (GPa) = 34.75054 57.23819 45.99436
# Shear Modulus (GPa) = 22.88096 40.03201 31.45648
#
# Velocity S-wave (km/s) = 2.96413 3.92070 3.47548
# Velocity P-wave (km/s) = 5.00585 6.51726 5.81090
#
# Compressibility (1/GPa) = 0.02877653
#
# Stress axis : x y z
#
# Youngs Moduli (GPa) = 75.66302 29.83530 39.60706
#
# Poissons Ratio (x) = -0.03125 0.27117
# Poissons Ratio (y) = -0.07925 0.62593
# Poissons Ratio (z) = 0.51803 0.47150
#
# Static dielectric constant tensor:
#      x y z
#    x 2.058060 0.088820 -0.135940 
#    y 0.088820 2.026060 0.141310 
#    z -0.135940 0.141310 1.882840 
# 
# From -- ./inp_files/354621.got.cif
#   From: 2010.05.17/outbox.cif.g08.bks.cpg/sg2_178_cif.got.tgz:354621.got - 2010.06.03 11:33:40.
