data_PCOD9065986
_publ_section_title
;
Structure prediction by ZEFSAII (Michael W. Deem and Ramdas Pophale) SiO2 
 PCOD9065986
Probable space group: P -1
;
_chemical_formula_sum "Si O2"
_cell_formula_units_Z 13
_cell_length_a 13.953840
_cell_length_b 8.100533
_cell_length_c 9.228447
_cell_angle_alpha 33.890732
_cell_angle_beta 117.167400
_cell_angle_gamma 115.176956
_cell_volume 515.218495
_symmetry_space_group_name_H-M "P -1"
_symmetry_group_IT_number 2
_symmetry_cell_setting 'triclinic'
loop_
_space_group_symop_operation_xyz
x,y,z
-x,-y,-z
loop_
_atom_site_type_symbol
_atom_site_label
_atom_site_fract_x
_atom_site_fract_y
_atom_site_fract_z
Si Si1 0.000000 0.000000 0.500000
Si Si2 0.268738 0.680520 0.884486
Si Si3 0.021589 0.085364 0.780449
Si Si4 0.648666 0.248514 0.641215
Si Si5 0.486610 0.352393 0.938618
Si Si6 0.813937 0.430926 0.394577
Si Si7 0.194138 0.336226 0.354852
O O1 0.987585 0.092440 0.248251
O O2 0.925446 0.682059 0.649969
O O3 0.254100 0.548002 0.811809
O O4 0.211847 0.985589 0.626790
O O5 0.395672 0.732886 0.965666
O O6 0.208464 0.452496 0.118535
O O7 0.143647 0.248455 0.748234
O O8 0.923568 0.290212 0.536681
O O9 0.000000 0.000000 0.000000
O O10 0.557088 0.416472 0.372820
O O11 0.740217 0.221486 0.602982
O O12 0.712690 0.467326 0.639491
O O13 0.595925 0.942192 0.892565
O O14 0.500000 0.500000 0.000000
#
# Coordination Sequence:
#
# PCOD9065986 Si02
#       7
#     1   2   2   2   2   2   2
#     4  12  24  48  74 114 150 206 256 310 384 468
#     4  12  27  48  75 106 151 199 250 319 377 451
#     4  11  25  46  73 108 153 201 255 316 379 471
#     4  12  27  47  76 109 150 195 248 320 372 453
#     4  12  27  46  78 110 143 196 259 306 382 457
#     4  11  25  44  70 110 146 195 252 312 381 447
#     4  12  28  48  74 111 153 196 251 314 383 453
#
# _framework density 25.232012000000001
#
# number of rings (size 3 to 8) (size 9 to 14) (size 15 to 20)
#    0.000    0.308    4.615    3.231    4.308    5.538 
#    0.000    0.000    0.000    0.000    0.000    0.000 
#    0.000    0.000    0.000    0.000    0.000    0.000 
#
# Total GULP energy -72520.820382 kJ/mol
# GULP energy per Si atom -5578.524645 kJ/mol
# Density = 2.517458 g / cm^3
# Si number density = 25.232012 Si / 1000 Ang^3
#
#
#
# Elastic Constant Matrix: (Units=GPa)
#
#
# Indices 1 2 3 4 5 6 
#
# 1 17.2845 -5.4768 111.9456 62.5010 -65.3195 9.9687
# 2 -5.4768 128.7942 19.1400 33.8491 -16.0878 5.6233
# 3 111.9456 19.1400 4.8218 -70.8681 32.6969 1.1801
# 4 62.5010 33.8491 -70.8681 -28.6324 35.6454 -3.0694
# 5 -65.3195 -16.0878 32.6969 35.6454 18.6668 -5.8224
# 6 9.9687 5.6233 1.1801 -3.0694 -5.8224 38.4091
#
#
#
# Elastic Compliance Matrix: (Units=1/GPa)
#
#
# Indices 1 2 3 4 5 6 
#
# 1 0.008078 -0.002938 0.001022 0.012215 0.000413 -0.000659
# 2 -0.002938 0.008022 0.001838 -0.002941 -0.001250 -0.000893
# 3 0.001022 0.001838 0.008447 -0.008481 0.006401 -0.000501
# 4 0.012215 -0.002941 -0.008481 0.023127 0.011237 0.001072
# 5 0.000413 -0.001250 0.006401 0.011237 0.022578 0.004200
# 6 -0.000659 -0.000893 -0.000501 0.001072 0.004200 0.027075
#
#
# Mechanical properties :
#
#
# Convention : Reuss Voigt Hill
#
# Bulk Modulus (GPa) = 41.00025 44.67979 42.84002
# Shear Modulus (GPa) = 47.34272 7.37482 27.35877
#
# Velocity S-wave (km/s) = 4.33632 1.71148 3.29643
# Velocity P-wave (km/s) = 6.43088 4.65312 5.61283
#
# Compressibility (1/GPa) = 0.02439009
#
# Stress axis : x y z
#
# Youngs Moduli (GPa) = 123.79669 124.65639 118.38589
#
# Poissons Ratio (x) = 0.36628 -0.12093
# Poissons Ratio (y) = 0.36376 -0.21765
# Poissons Ratio (z) = -0.12646 -0.22918
#
# Static dielectric constant tensor:
#      x y z
#    x 2.605850 0.230610 0.343330 
#    y 0.230610 2.108500 0.071930 
#    z 0.343330 0.071930 1.873160 
# 
# From -- ./inp_files/23759.got.cif
#   From: 2010.05.17/outbox.cif.g08.bks.cpg/sg2_12_cif.got.tgz:23759.got - 2010.06.03 11:33:40.
