data_PCOD9065739
_publ_section_title
;
Structure prediction by ZEFSAII (Michael W. Deem and Ramdas Pophale) SiO2 
 PCOD9065739
Probable space group: P -1
;
_chemical_formula_sum "Si O2"
_cell_formula_units_Z 16
_cell_length_a 5.653960
_cell_length_b 9.915782
_cell_length_c 29.077228
_cell_angle_alpha 33.401587
_cell_angle_beta 123.789548
_cell_angle_gamma 106.251426
_cell_volume 682.542576
_symmetry_space_group_name_H-M "P -1"
_symmetry_group_IT_number 2
_symmetry_cell_setting 'triclinic'
loop_
_space_group_symop_operation_xyz
x,y,z
-x,-y,-z
loop_
_atom_site_type_symbol
_atom_site_label
_atom_site_fract_x
_atom_site_fract_y
_atom_site_fract_z
Si Si1 0.334369 0.463480 0.283458
Si Si2 0.260475 0.628145 0.791123
Si Si3 0.586181 0.390503 0.429810
Si Si4 0.023669 0.631802 0.917233
Si Si5 0.339084 0.802561 0.109128
Si Si6 0.294714 0.098324 0.553062
Si Si7 0.559306 0.922605 0.322313
Si Si8 0.476157 0.263703 0.006401
O O1 0.356369 0.484243 0.334360
O O2 0.340029 0.720838 0.185261
O O3 0.038649 0.418917 0.244138
O O4 0.622400 0.196182 0.374280
O O5 0.519304 0.471602 0.825617
O O6 0.408708 0.476817 0.897457
O O7 0.195641 0.939765 0.697766
O O8 0.429146 0.246624 0.488210
O O9 0.624563 0.635822 0.390134
O O10 0.930771 0.224765 0.492619
O O11 0.159017 0.388922 0.965300
O O12 0.271943 0.752443 0.923850
O O13 0.735851 0.864327 0.796869
O O14 0.000000 0.500000 0.000000
O O15 0.542130 0.975920 0.074865
O O16 0.000000 0.000000 0.000000
O O17 0.474180 0.082704 0.625036
#
# Coordination Sequence:
#
# PCOD9065739 Si02
#       8
#     2   2   2   2   2   2   2   2
#     4  12  28  47  80 111 153 203 252 325 398 459
#     4  12  25  46  73 111 153 204 251 307 387 468
#     4  12  31  50  84 115 154 198 271 337 388 461
#     4  11  25  44  69 109 153 194 241 313 380 457
#     4  12  26  43  72 112 150 199 256 300 379 474
#     4  12  27  56  77 116 151 206 264 333 396 459
#     4  12  26  49  81 109 152 203 259 313 400 465
#     4  11  25  41  70 105 157 200 247 306 364 464
#
# _framework density 23.441759999999999
#
# number of rings (size 3 to 8) (size 9 to 14) (size 15 to 20)
#    0.000    0.250    3.750    4.125    5.250    2.000 
#    0.000    0.000    0.000    0.000    0.000    0.000 
#    0.000    0.000    0.000    0.000    0.000    0.000 
#
# Total GULP energy -89498.280139 kJ/mol
# GULP energy per Si atom -5593.642509 kJ/mol
# Density = 2.338841 g / cm^3
# Si number density = 23.441760 Si / 1000 Ang^3
#
#
#
# Elastic Constant Matrix: (Units=GPa)
#
#
# Indices 1 2 3 4 5 6 
#
# 1 87.6092 3.7655 43.1629 11.5382 -13.1326 -8.1755
# 2 3.7655 99.9828 26.1943 10.3961 -14.5166 -3.7489
# 3 43.1629 26.1943 111.9353 18.7429 -30.1812 -13.5637
# 4 11.5382 10.3961 18.7429 50.7901 -0.8450 -12.9728
# 5 -13.1326 -14.5166 -30.1812 -0.8450 48.3405 11.2309
# 6 -8.1755 -3.7489 -13.5637 -12.9728 11.2309 35.7502
#
#
#
# Elastic Compliance Matrix: (Units=1/GPa)
#
#
# Indices 1 2 3 4 5 6 
#
# 1 0.014317 0.001117 -0.005271 -0.001354 0.000756 0.000662
# 2 0.001117 0.011042 -0.002140 -0.001903 0.002450 -0.000858
# 3 -0.005271 -0.002140 0.013784 -0.003177 0.006322 0.000661
# 4 -0.001354 -0.001903 -0.003177 0.023588 -0.004424 0.008235
# 5 0.000756 0.002450 0.006322 -0.004424 0.027199 -0.007321
# 6 0.000662 -0.000858 0.000661 0.008235 -0.007321 0.033572
#
#
# Mechanical properties :
#
#
# Convention : Reuss Voigt Hill
#
# Bulk Modulus (GPa) = 37.65760 49.53032 43.59396
# Shear Modulus (GPa) = 34.49712 42.06978 38.28345
#
# Velocity S-wave (km/s) = 3.84032 4.24093 4.04559
# Velocity P-wave (km/s) = 5.98024 6.71979 6.36077
#
# Compressibility (1/GPa) = 0.02655507
#
# Stress axis : x y z
#
# Youngs Moduli (GPa) = 69.84800 90.56729 72.54920
#
# Poissons Ratio (x) = -0.10119 0.38242
# Poissons Ratio (y) = -0.07804 0.15523
# Poissons Ratio (z) = 0.36818 0.19378
#
# Static dielectric constant tensor:
#      x y z
#    x 1.993130 0.051170 0.041150 
#    y 0.051170 1.940840 0.025400 
#    z 0.041150 0.025400 1.895020 
# 
# From -- ./inp_files/615238.got.cif
#   From: 2010.05.17/outbox.cif.g08.bks.cpg/sg2_308_cif.got.tgz:615238.got - 2010.06.03 11:33:40.
