data_PCOD9065266
_publ_section_title
;
Structure prediction by ZEFSAII (Michael W. Deem and Ramdas Pophale) SiO2 
 PCOD9065266
Probable space group: P -1
;
_chemical_formula_sum "Si O2"
_cell_formula_units_Z 12
_cell_length_a 14.325325
_cell_length_b 8.084011
_cell_length_c 9.393459
_cell_angle_alpha 76.022183
_cell_angle_beta 28.487014
_cell_angle_gamma 74.870182
_cell_volume 500.687069
_symmetry_space_group_name_H-M "P -1"
_symmetry_group_IT_number 2
_symmetry_cell_setting 'triclinic'
loop_
_space_group_symop_operation_xyz
x,y,z
-x,-y,-z
loop_
_atom_site_type_symbol
_atom_site_label
_atom_site_fract_x
_atom_site_fract_y
_atom_site_fract_z
Si Si1 0.891512 0.473190 0.799893
Si Si2 0.516001 0.693542 0.203584
Si Si3 0.988560 0.918743 0.188351
Si Si4 0.643483 0.989808 0.171422
Si Si5 0.145133 0.549826 0.675198
Si Si6 0.599663 0.770516 0.748797
O O1 0.000000 0.500000 0.500000
O O2 0.930298 0.282206 0.852436
O O3 0.999328 0.600237 0.730744
O O4 0.660770 0.525623 0.084808
O O5 0.286694 0.675533 0.527980
O O6 0.454579 0.277284 0.009835
O O7 0.591832 0.834628 0.174573
O O8 0.757112 0.910212 0.528153
O O9 0.132618 0.015157 0.074969
O O10 0.000000 0.000000 0.000000
O O11 0.581656 0.152611 0.119272
O O12 0.500000 0.000000 0.500000
O O13 0.290138 0.390993 0.449885
O O14 0.000000 0.500000 0.000000
#
# Coordination Sequence:
#
# PCOD9065266 Si02
#       6
#     2   2   2   2   2   2
#     4  11  25  48  79 112 144 201 253 311 372 444
#     4  12  27  48  76 112 149 195 256 309 376 443
#     4  11  24  47  77 105 155 193 247 307 378 437
#     4  12  28  44  74 106 152 202 245 306 378 446
#     4  11  27  45  77 108 151 190 251 317 375 439
#     4  11  25  49  73 108 149 197 246 312 374 445
#
# _framework density 23.967065999999999
#
# number of rings (size 3 to 8) (size 9 to 14) (size 15 to 20)
#    0.000    0.667    5.000    2.000    9.333    2.667 
#    0.000    0.000    0.000    0.000    0.000    0.000 
#    0.000    0.000    0.000    0.000    0.000    0.000 
#
# Total GULP energy -67149.733423 kJ/mol
# GULP energy per Si atom -5595.811119 kJ/mol
# Density = 2.391252 g / cm^3
# Si number density = 23.967066 Si / 1000 Ang^3
#
#
#
# Elastic Constant Matrix: (Units=GPa)
#
#
# Indices 1 2 3 4 5 6 
#
# 1 195.6670 51.0191 40.8251 -3.2127 -19.3019 -0.4222
# 2 51.0191 112.5179 22.0615 -5.5777 5.5908 8.0923
# 3 40.8251 22.0615 83.3266 -12.0541 -7.7868 -0.7961
# 4 -3.2127 -5.5777 -12.0541 29.0680 18.8621 0.9061
# 5 -19.3019 5.5908 -7.7868 18.8621 47.4897 -14.1429
# 6 -0.4222 8.0923 -0.7961 0.9061 -14.1429 48.0029
#
#
#
# Elastic Compliance Matrix: (Units=1/GPa)
#
#
# Indices 1 2 3 4 5 6 
#
# 1 0.006962 -0.003262 -0.002679 -0.004385 0.005162 0.002170
# 2 -0.003262 0.011478 -0.001268 0.005482 -0.006231 -0.003924
# 3 -0.002679 -0.001268 0.014438 0.006083 -0.000981 0.000026
# 4 -0.004385 0.005482 0.006083 0.054647 -0.025978 -0.009547
# 5 0.005162 -0.006231 -0.000981 -0.025978 0.037833 0.012717
# 6 0.002170 -0.003924 0.000026 -0.009547 0.012717 0.025440
#
#
# Mechanical properties :
#
#
# Convention : Reuss Voigt Hill
#
# Bulk Modulus (GPa) = 54.16475 68.81367 61.48921
# Shear Modulus (GPa) = 29.17703 43.41916 36.29809
#
# Velocity S-wave (km/s) = 3.49288 4.26093 3.89588
# Velocity P-wave (km/s) = 6.23824 7.27883 6.77854
#
# Compressibility (1/GPa) = 0.01846219
#
# Stress axis : x y z
#
# Youngs Moduli (GPa) = 143.63790 87.11962 69.26358
#
# Poissons Ratio (x) = 0.28414 0.18553
# Poissons Ratio (y) = 0.46848 0.08781
# Poissons Ratio (z) = 0.38474 0.11045
#
# Static dielectric constant tensor:
#      x y z
#    x 1.879840 -0.021480 -0.052280 
#    y -0.021480 2.041000 -0.008440 
#    z -0.052280 -0.008440 1.860510 
# 
# From -- ./inp_files/243794.got.cif
#   From: 2010.05.17/outbox.cif.g08.bks.cpg/sg2_122_cif.got.tgz:243794.got - 2010.06.03 11:33:40.
