data_PCOD9065879
_publ_section_title
;
Structure prediction by ZEFSAII (Michael W. Deem and Ramdas Pophale) SiO2 
 PCOD9065879
Probable space group: P -1
;
_chemical_formula_sum "Si O2"
_cell_formula_units_Z 12
_cell_length_a 5.143814
_cell_length_b 20.325495
_cell_length_c 5.170228
_cell_angle_alpha 74.419985
_cell_angle_beta 83.950488
_cell_angle_gamma 50.645862
_cell_volume 401.085393
_symmetry_space_group_name_H-M "P -1"
_symmetry_group_IT_number 2
_symmetry_cell_setting 'triclinic'
loop_
_space_group_symop_operation_xyz
x,y,z
-x,-y,-z
loop_
_atom_site_type_symbol
_atom_site_label
_atom_site_fract_x
_atom_site_fract_y
_atom_site_fract_z
Si Si1 0.235918 0.890363 0.188207
Si Si2 0.844493 0.208560 0.032780
Si Si3 0.320815 0.611330 0.323540
Si Si4 0.658018 0.709023 0.598049
Si Si5 0.640350 0.555628 0.832787
Si Si6 0.486481 0.921721 0.631742
O O1 0.516291 0.785050 0.324595
O O2 0.275195 0.921955 0.422840
O O3 0.990348 0.875236 0.090812
O O4 0.313740 0.931494 0.912399
O O5 0.497934 0.238050 0.171604
O O6 0.123726 0.166948 0.276681
O O7 0.754619 0.295814 0.823048
O O8 0.641934 0.538438 0.545036
O O9 0.032540 0.638401 0.528164
O O10 0.376114 0.573128 0.066422
O O11 0.529874 0.653193 0.701177
O O12 0.000000 0.500000 0.000000
O O13 0.500000 0.000000 0.500000
#
# Coordination Sequence:
#
# PCOD9065879 Si02
#       6
#     2   2   2   2   2   2
#     4  12  25  47  74 106 144 194 251 300 373 446
#     4  11  26  47  77 107 150 192 258 311 361 449
#     4  11  25  43  73 102 144 196 245 305 362 440
#     4  11  25  44  73 109 137 199 254 293 366 446
#     4  11  26  45  70 109 149 188 244 309 370 431
#     4  12  29  48  74 112 150 191 247 314 378 437
#
# _framework density 29.918816
#
# number of rings (size 3 to 8) (size 9 to 14) (size 15 to 20)
#    0.000    0.667    5.000    1.000    9.333    2.667 
#    0.000    0.000    0.000    0.000    0.000    0.000 
#    0.000    0.000    0.000    0.000    0.000    0.000 
#
# Total GULP energy -67040.376777 kJ/mol
# GULP energy per Si atom -5586.698065 kJ/mol
# Density = 2.985072 g / cm^3
# Si number density = 29.918816 Si / 1000 Ang^3
#
#
#
# Elastic Constant Matrix: (Units=GPa)
#
#
# Indices 1 2 3 4 5 6 
#
# 1 53.8020 28.8221 53.6477 31.1366 5.5589 -19.3245
# 2 28.8221 105.7043 77.6265 12.0164 14.1865 -0.0591
# 3 53.6477 77.6265 301.9001 14.5104 4.2939 3.5355
# 4 31.1366 12.0164 14.5104 84.2191 7.0608 1.7332
# 5 5.5589 14.1865 4.2939 7.0608 66.0430 6.2620
# 6 -19.3245 -0.0591 3.5355 1.7332 6.2620 57.4519
#
#
#
# Elastic Compliance Matrix: (Units=1/GPa)
#
#
# Indices 1 2 3 4 5 6 
#
# 1 0.039341 -0.005199 -0.005167 -0.013052 -0.001804 0.014136
# 2 -0.005199 0.012811 -0.002358 0.000705 -0.002105 -0.001382
# 3 -0.005167 -0.002358 0.004785 0.001409 0.000684 -0.002152
# 4 -0.013052 0.000705 0.001409 0.016494 -0.000441 -0.004926
# 5 -0.001804 -0.002105 0.000684 -0.000441 0.015974 -0.002379
# 6 0.014136 -0.001382 -0.002152 -0.004926 -0.002379 0.022699
#
#
# Mechanical properties :
#
#
# Convention : Reuss Voigt Hill
#
# Bulk Modulus (GPa) = 31.75668 86.84431 59.30050
# Shear Modulus (GPa) = 33.77278 61.63013 47.70145
#
# Velocity S-wave (km/s) = 3.36343 4.54355 3.99728
# Velocity P-wave (km/s) = 5.07157 7.52428 6.41622
#
# Compressibility (1/GPa) = 0.03148943
#
# Stress axis : x y z
#
# Youngs Moduli (GPa) = 25.41874 78.05662 209.00748
#
# Poissons Ratio (x) = 0.40582 1.07987
# Poissons Ratio (y) = 0.13215 0.49284
# Poissons Ratio (z) = 0.13133 0.18406
#
# Static dielectric constant tensor:
#      x y z
#    x 2.619630 0.096970 0.178560 
#    y 0.096970 2.698900 0.188090 
#    z 0.178560 0.188090 2.309090 
# 
# From -- ./inp_files/12944.got.cif
#   From: 2010.05.17/outbox.cif.g08.bks.cpg/sg2_7_cif.got.tgz:12944.got - 2010.06.03 11:33:40.
