data_PCOD9065211
_publ_section_title
;
Structure prediction by ZEFSAII (Michael W. Deem and Ramdas Pophale) SiO2 
 PCOD9065211
Probable space group: P -1
;
_chemical_formula_sum "Si O2"
_cell_formula_units_Z 12
_cell_length_a 5.680831
_cell_length_b 14.888686
_cell_length_c 6.315220
_cell_angle_alpha 97.114906
_cell_angle_beta 75.477622
_cell_angle_gamma 91.083749
_cell_volume 513.053413
_symmetry_space_group_name_H-M "P -1"
_symmetry_group_IT_number 2
_symmetry_cell_setting 'triclinic'
loop_
_space_group_symop_operation_xyz
x,y,z
-x,-y,-z
loop_
_atom_site_type_symbol
_atom_site_label
_atom_site_fract_x
_atom_site_fract_y
_atom_site_fract_z
Si Si1 0.602771 0.488321 0.225381
Si Si2 0.435053 0.815603 0.187291
Si Si3 0.230218 0.319736 0.757837
Si Si4 0.986312 0.814130 0.549825
Si Si5 0.755932 0.947565 0.972899
Si Si6 0.217940 0.716790 0.853437
O O1 0.500000 0.500000 0.500000
O O2 0.786135 0.572528 0.218272
O O3 0.673631 0.383375 0.189856
O O4 0.500000 0.500000 0.000000
O O5 0.509147 0.717131 0.234062
O O6 0.189215 0.853562 0.356838
O O7 0.664864 0.880578 0.161696
O O8 0.381187 0.791431 0.950661
O O9 0.178280 0.261153 0.545459
O O10 0.030625 0.289352 0.960989
O O11 0.147451 0.755322 0.657163
O O12 0.838799 0.889415 0.733282
O O13 0.500000 0.000000 0.000000
O O14 0.000000 0.000000 0.000000
#
# Coordination Sequence:
#
# PCOD9065211 Si02
#       6
#     2   2   2   2   2   2
#     4  12  27  44  73 115 160 215 274 329 395 482
#     4  11  25  48  76 108 151 201 263 318 412 485
#     4  11  25  45  75 108 150 208 259 324 396 483
#     4  11  27  46  80 108 148 212 255 333 407 487
#     4  12  29  51  78 114 155 201 265 343 415 503
#     4  11  24  47  74 108 156 205 263 321 393 480
#
# _framework density 23.389378000000001
#
# number of rings (size 3 to 8) (size 9 to 14) (size 15 to 20)
#    0.000    0.667    3.333    2.500   14.000    2.000 
#    0.000    0.000    0.000    0.000    0.000    0.000 
#    0.000    0.000    0.000    0.000    0.000    0.000 
#
# Total GULP energy -66877.831578 kJ/mol
# GULP energy per Si atom -5573.152632 kJ/mol
# Density = 2.333614 g / cm^3
# Si number density = 23.389378 Si / 1000 Ang^3
#
#
#
# Elastic Constant Matrix: (Units=GPa)
#
#
# Indices 1 2 3 4 5 6 
#
# 1 95.2652 54.6603 50.1520 17.4039 -9.4907 8.3589
# 2 54.6603 117.8624 43.1143 20.0329 -13.6823 4.0276
# 3 50.1520 43.1143 133.0254 31.5990 -0.1454 -2.8508
# 4 17.4039 20.0329 31.5990 35.3447 -8.2058 0.0145
# 5 -9.4907 -13.6823 -0.1454 -8.2058 45.7404 -0.5526
# 6 8.3589 4.0276 -2.8508 0.0145 -0.5526 60.3306
#
#
#
# Elastic Compliance Matrix: (Units=1/GPa)
#
#
# Indices 1 2 3 4 5 6 
#
# 1 0.016474 -0.005720 -0.004226 -0.000735 0.001537 -0.002086
# 2 -0.005720 0.012251 -0.001198 -0.002590 0.002009 -0.000063
# 3 -0.004226 -0.001198 0.011441 -0.008081 -0.002634 0.001184
# 4 -0.000735 -0.002590 -0.008081 0.038739 0.005996 -0.000062
# 5 0.001537 0.002009 -0.002634 0.005996 0.023846 -0.000254
# 6 -0.002086 -0.000063 0.001184 -0.000062 -0.000254 0.016922
#
#
# Mechanical properties :
#
#
# Convention : Reuss Voigt Hill
#
# Bulk Modulus (GPa) = 55.93323 71.33404 63.63364
# Shear Modulus (GPa) = 33.80240 41.49824 37.65032
#
# Velocity S-wave (km/s) = 3.80571 4.21674 4.01648
# Velocity P-wave (km/s) = 6.57853 7.36699 6.98389
#
# Compressibility (1/GPa) = 0.01787846
#
# Stress axis : x y z
#
# Youngs Moduli (GPa) = 60.70321 81.62716 87.40711
#
# Poissons Ratio (x) = 0.46688 0.36934
# Poissons Ratio (y) = 0.34720 0.10473
# Poissons Ratio (z) = 0.25650 0.09781
#
# Static dielectric constant tensor:
#      x y z
#    x 2.026070 0.036400 0.024080 
#    y 0.036400 1.977020 -0.048170 
#    z 0.024080 -0.048170 1.940610 
# 
# From -- ./inp_files/3346.got.cif
#   From: 2010.05.17/outbox.cif.g08.bks.cpg/sg2_2_cif.got.tgz:3346.got - 2010.06.03 11:33:40.
