data_PCOD9065822
_publ_section_title
;
Structure prediction by ZEFSAII (Michael W. Deem and Ramdas Pophale) SiO2 
 PCOD9065822
Probable space group: P -1
;
_chemical_formula_sum "Si O2"
_cell_formula_units_Z 14
_cell_length_a 6.700376
_cell_length_b 14.394482
_cell_length_c 14.299691
_cell_angle_alpha 28.451316
_cell_angle_beta 73.326794
_cell_angle_gamma 86.462037
_cell_volume 571.945646
_symmetry_space_group_name_H-M "P -1"
_symmetry_group_IT_number 2
_symmetry_cell_setting 'triclinic'
loop_
_space_group_symop_operation_xyz
x,y,z
-x,-y,-z
loop_
_atom_site_type_symbol
_atom_site_label
_atom_site_fract_x
_atom_site_fract_y
_atom_site_fract_z
Si Si1 0.700109 0.531521 0.714836
Si Si2 0.208714 0.769565 0.159573
Si Si3 0.378121 0.127408 0.672138
Si Si4 0.618455 0.025108 0.562706
Si Si5 0.307114 0.580027 0.487157
Si Si6 0.965797 0.514429 0.866703
Si Si7 0.267902 0.363295 0.053057
O O1 0.652014 0.348726 0.806935
O O2 0.769777 0.756902 0.454842
O O3 0.889100 0.516869 0.770391
O O4 0.483740 0.490724 0.845596
O O5 0.280848 0.762160 0.263384
O O6 0.939885 0.617457 0.316451
O O7 0.265338 0.984553 0.903984
O O8 0.444042 0.004780 0.689320
O O9 0.609243 0.318383 0.512334
O O10 0.825216 0.259080 0.338054
O O11 0.500000 0.000000 0.500000
O O12 0.718651 0.849983 0.723020
O O13 0.500000 0.500000 0.500000
O O14 0.761282 0.506513 0.969142
O O15 0.049190 0.333212 0.044898
#
# Coordination Sequence:
#
# PCOD9065822 Si02
#       7
#     2   2   2   2   2   2   2
#     4  12  24  46  69 107 142 187 248 295 357 440
#     4  11  26  47  77 106 145 186 240 301 370 437
#     4  12  25  48  76 107 148 194 239 301 366 427
#     4  12  26  45  69 106 148 191 246 292 353 431
#     4  11  25  52  76 108 144 184 242 303 369 441
#     4  11  26  43  69 100 142 203 241 292 364 411
#     4  11  25  43  69  95 146 191 239 302 343 418
#
# _framework density 24.477851000000001
#
# number of rings (size 3 to 8) (size 9 to 14) (size 15 to 20)
#    0.000    0.571    4.286    3.000    4.000    1.714 
#    5.143    0.000    0.000    0.000    0.000    0.000 
#    0.000    0.000    0.000    0.000    0.000    0.000 
#
# Total GULP energy -78432.954344 kJ/mol
# GULP energy per Si atom -5602.353882 kJ/mol
# Density = 2.442214 g / cm^3
# Si number density = 24.477851 Si / 1000 Ang^3
#
#
#
# Elastic Constant Matrix: (Units=GPa)
#
#
# Indices 1 2 3 4 5 6 
#
# 1 117.7582 48.1609 45.2335 9.8071 34.3054 12.7437
# 2 48.1609 84.1029 2.2787 10.0586 16.5798 19.1688
# 3 45.2335 2.2787 115.9246 11.6766 29.7271 0.4037
# 4 9.8071 10.0586 11.6766 27.8083 -0.8732 6.1317
# 5 34.3054 16.5798 29.7271 -0.8732 65.7889 7.0943
# 6 12.7437 19.1688 0.4037 6.1317 7.0943 39.9011
#
#
#
# Elastic Compliance Matrix: (Units=1/GPa)
#
#
# Indices 1 2 3 4 5 6 
#
# 1 0.014277 -0.007200 -0.004445 -0.000605 -0.003595 -0.000324
# 2 -0.007200 0.018016 0.003357 -0.004247 -0.001774 -0.005421
# 3 -0.004445 0.003357 0.011839 -0.005006 -0.004071 0.001180
# 4 -0.000605 -0.004247 -0.005006 0.041032 0.004717 -0.004860
# 5 -0.003595 -0.001774 -0.004071 0.004717 0.019659 -0.002178
# 6 -0.000324 -0.005421 0.001180 -0.004860 -0.002178 0.028892
#
#
# Mechanical properties :
#
#
# Convention : Reuss Voigt Hill
#
# Bulk Modulus (GPa) = 36.29176 56.57019 46.43097
# Shear Modulus (GPa) = 31.35259 41.50717 36.42988
#
# Velocity S-wave (km/s) = 3.58279 4.12236 3.86201
# Velocity P-wave (km/s) = 5.65453 6.76900 6.23671
#
# Compressibility (1/GPa) = 0.02755446
#
# Stress axis : x y z
#
# Youngs Moduli (GPa) = 70.04278 55.50678 84.46645
#
# Poissons Ratio (x) = 0.39967 0.37549
# Poissons Ratio (y) = 0.50434 -0.28357
# Poissons Ratio (z) = 0.31137 -0.18634
#
# Static dielectric constant tensor:
#      x y z
#    x 1.954980 -0.019880 -0.014670 
#    y -0.019880 1.942570 0.019340 
#    z -0.014670 0.019340 1.984380 
# 
# From -- ./inp_files/484096.got.cif
#   From: 2010.05.17/outbox.cif.g08.bks.cpg/sg2_243_cif.got.tgz:484096.got - 2010.06.03 11:33:40.
