data_PCOD9065049
_publ_section_title
;
Structure prediction by ZEFSAII (Michael W. Deem and Ramdas Pophale) SiO2 
 PCOD9065049
Probable space group: P -1
;
_chemical_formula_sum "Si O2"
_cell_formula_units_Z 16
_cell_length_a 23.909098
_cell_length_b 9.382510
_cell_length_c 8.517981
_cell_angle_alpha 82.852340
_cell_angle_beta 125.807764
_cell_angle_gamma 140.520424
_cell_volume 761.546305
_symmetry_space_group_name_H-M "P -1"
_symmetry_group_IT_number 2
_symmetry_cell_setting 'triclinic'
loop_
_space_group_symop_operation_xyz
x,y,z
-x,-y,-z
loop_
_atom_site_type_symbol
_atom_site_label
_atom_site_fract_x
_atom_site_fract_y
_atom_site_fract_z
Si Si1 0.768010 0.733352 0.444578
Si Si2 0.224468 0.664412 0.184783
Si Si3 0.767582 0.663168 0.803054
Si Si4 0.170452 0.666887 0.449629
Si Si5 0.508448 0.349599 0.584525
Si Si6 0.958582 0.840105 0.607368
Si Si7 0.974502 0.349320 0.627928
Si Si8 0.485984 0.318028 0.924304
O O1 0.788653 0.783585 0.657268
O O2 0.839901 0.716940 0.514167
O O3 0.849516 0.007595 0.449271
O O4 0.604255 0.437281 0.183884
O O5 0.250242 0.540107 0.229119
O O6 0.173525 0.611843 0.284937
O O7 0.367575 0.011285 0.351901
O O8 0.109546 0.509035 0.891491
O O9 0.638067 0.500491 0.701338
O O10 0.906618 0.930023 0.095258
O O11 0.102487 0.426444 0.484341
O O12 0.080279 0.646416 0.323259
O O13 0.327152 0.980578 0.720562
O O14 0.500000 0.500000 0.500000
O O15 0.519756 0.374604 0.787678
O O16 0.000000 0.000000 0.500000
O O17 0.000000 0.500000 0.500000
O O18 0.500000 0.500000 0.000000
#
# Coordination Sequence:
#
# PCOD9065049 Si02
#       8
#     2   2   2   2   2   2   2   2
#     4  12  24  45  73  99 140 187 229 283 357 414
#     4  11  25  48  70 101 143 186 231 283 353 421
#     4  12  25  48  72 100 144 186 228 289 352 424
#     4  11  25  45  71 103 137 184 236 281 348 415
#     4  11  27  44  73 106 136 185 236 289 347 415
#     4  12  25  45  70 104 139 179 236 289 346 414
#     4  12  26  42  72 105 138 183 235 291 345 410
#     4  11  24  47  70 100 142 180 231 288 347 412
#
# _framework density 21.009884
#
# number of rings (size 3 to 8) (size 9 to 14) (size 15 to 20)
#    0.000    0.500    3.750    4.125    5.250    1.500 
#    2.250    0.000    0.000    0.000    0.000    0.000 
#    0.000    0.000    0.000    0.000    0.000    0.000 
#
# Total GULP energy -89536.667898 kJ/mol
# GULP energy per Si atom -5596.041744 kJ/mol
# Density = 2.096206 g / cm^3
# Si number density = 21.009884 Si / 1000 Ang^3
#
#
#
# Elastic Constant Matrix: (Units=GPa)
#
#
# Indices 1 2 3 4 5 6 
#
# 1 122.5880 18.4044 32.7603 9.8225 23.6738 -15.2971
# 2 18.4044 101.7511 39.4736 -2.0130 -0.4205 -23.3701
# 3 32.7603 39.4736 123.3529 -6.6266 6.0559 6.6284
# 4 9.8225 -2.0130 -6.6266 24.3115 -3.0103 -7.6244
# 5 23.6738 -0.4205 6.0559 -3.0103 36.7576 -1.0470
# 6 -15.2971 -23.3701 6.6284 -7.6244 -1.0470 23.3503
#
#
#
# Elastic Compliance Matrix: (Units=1/GPa)
#
#
# Indices 1 2 3 4 5 6 
#
# 1 0.011694 0.001154 -0.003789 -0.003924 -0.006979 0.008298
# 2 0.001154 0.017584 -0.006885 0.006378 0.001754 0.022471
# 3 -0.003789 -0.006885 0.012010 0.000258 0.000042 -0.012696
# 4 -0.003924 0.006378 0.000258 0.050685 0.007296 0.020616
# 5 -0.006979 0.001754 0.000042 0.007296 0.032339 0.001004
# 6 0.008298 0.022471 -0.012696 0.020616 0.001004 0.081132
#
#
# Mechanical properties :
#
#
# Convention : Reuss Voigt Hill
#
# Bulk Modulus (GPa) = 44.94446 58.77431 51.85939
# Shear Modulus (GPa) = 21.56080 34.02078 27.79079
#
# Velocity S-wave (km/s) = 3.20694 4.02839 3.64091
# Velocity P-wave (km/s) = 5.92884 7.04787 6.51244
#
# Compressibility (1/GPa) = 0.02224968
#
# Stress axis : x y z
#
# Youngs Moduli (GPa) = 85.51085 56.86831 83.26210
#
# Poissons Ratio (x) = -0.06563 0.31549
# Poissons Ratio (y) = -0.09868 0.57323
# Poissons Ratio (z) = 0.32401 0.39152
#
# Static dielectric constant tensor:
#      x y z
#    x 1.924660 0.024280 -0.114860 
#    y 0.024280 1.746420 -0.002300 
#    z -0.114860 -0.002300 1.772020 
# 
# From -- ./inp_files/244984.got.cif
#   From: 2010.05.17/outbox.cif.g08.bks.cpg/sg2_123_cif.got.tgz:244984.got - 2010.06.03 11:33:40.
