data_PCOD9065323
_publ_section_title
;
Structure prediction by ZEFSAII (Michael W. Deem and Ramdas Pophale) SiO2 
 PCOD9065323
Probable space group: P -1
;
_chemical_formula_sum "Si O2"
_cell_formula_units_Z 10
_cell_length_a 6.560485
_cell_length_b 15.557936
_cell_length_c 4.908878
_cell_angle_alpha 91.701665
_cell_angle_beta 48.507934
_cell_angle_gamma 101.414033
_cell_volume 364.352274
_symmetry_space_group_name_H-M "P -1"
_symmetry_group_IT_number 2
_symmetry_cell_setting 'triclinic'
loop_
_space_group_symop_operation_xyz
x,y,z
-x,-y,-z
loop_
_atom_site_type_symbol
_atom_site_label
_atom_site_fract_x
_atom_site_fract_y
_atom_site_fract_z
Si Si1 0.213815 0.979215 0.595268
Si Si2 0.838948 0.846666 0.594854
Si Si3 0.222011 0.736409 0.047013
Si Si4 0.500000 0.500000 0.000000
Si Si5 0.911995 0.387019 0.346711
Si Si6 0.500000 0.500000 0.500000
O O1 0.087987 0.880243 0.595848
O O2 0.500000 0.000000 0.500000
O O3 0.241894 0.058817 0.362390
O O4 0.000000 0.000000 0.000000
O O5 0.016680 0.803783 0.220377
O O6 0.535426 0.781283 0.876711
O O7 0.090600 0.661637 0.374536
O O8 0.207358 0.687943 0.768850
O O9 0.524921 0.573899 0.734357
O O10 0.773111 0.557091 0.002429
O O11 0.716311 0.458169 0.546679
#
# Coordination Sequence:
#
# PCOD9065323 Si02
#       6
#     2   2   2   1   2   1
#     4  11  24  47  84 113 153 220 258 317 380 491
#     4  11  28  50  74 120 162 206 268 318 400 472
#     4  12  30  50  82 120 165 208 259 346 400 471
#     4  12  26  52  78 112 148 208 266 338 388 502
#     4  12  30  51  82 115 157 212 275 331 416 466
#     4  12  26  52  78 112 148 208 266 338 388 502
#
# _framework density 27.445967
#
# number of rings (size 3 to 8) (size 9 to 14) (size 15 to 20)
#    0.000    0.400    0.000    6.000   16.800    3.200 
#    0.000    0.000    0.000    0.000    0.000    0.000 
#    0.000    0.000    0.000    0.000    0.000    0.000 
#
# Total GULP energy -55713.766016 kJ/mol
# GULP energy per Si atom -5571.376602 kJ/mol
# Density = 2.738350 g / cm^3
# Si number density = 27.445967 Si / 1000 Ang^3
#
#
#
# Elastic Constant Matrix: (Units=GPa)
#
#
# Indices 1 2 3 4 5 6 
#
# 1 155.1982 46.9386 88.4391 -10.3945 -4.0233 18.8148
# 2 46.9386 122.9109 39.0307 -2.9892 -19.7996 27.0968
# 3 88.4391 39.0307 123.2525 -5.0337 -21.6712 27.4881
# 4 -10.3945 -2.9892 -5.0337 55.6235 13.2972 -12.8541
# 5 -4.0233 -19.7996 -21.6712 13.2972 107.7733 -10.5129
# 6 18.8148 27.0968 27.4881 -12.8541 -10.5129 56.3166
#
#
#
# Elastic Compliance Matrix: (Units=1/GPa)
#
#
# Indices 1 2 3 4 5 6 
#
# 1 0.011794 -0.002433 -0.008230 0.002075 -0.001782 0.001389
# 2 -0.002433 0.010273 -0.000422 -0.001200 0.001477 -0.003922
# 3 -0.008230 -0.000422 0.015542 -0.001814 0.002518 -0.004578
# 4 0.002075 -0.001200 -0.001814 0.019849 -0.002485 0.004836
# 5 -0.001782 0.001477 0.002518 -0.002485 0.010298 0.000011
# 6 0.001389 -0.003922 -0.004578 0.004836 0.000011 0.022520
#
#
# Mechanical properties :
#
#
# Convention : Reuss Voigt Hill
#
# Bulk Modulus (GPa) = 64.77556 83.35317 74.06437
# Shear Modulus (GPa) = 42.52021 59.07291 50.79656
#
# Velocity S-wave (km/s) = 3.94030 4.64436 4.30674
# Velocity P-wave (km/s) = 6.65985 7.69389 7.19547
#
# Compressibility (1/GPa) = 0.01543792
#
# Stress axis : x y z
#
# Youngs Moduli (GPa) = 84.79074 97.34726 64.34128
#
# Poissons Ratio (x) = 0.23686 0.52955
# Poissons Ratio (y) = 0.20631 0.02713
# Poissons Ratio (z) = 0.69786 0.04105
#
# Static dielectric constant tensor:
#      x y z
#    x 4.110190 -0.182980 2.483970 
#    y -0.182980 2.471100 -0.294570 
#    z 2.483970 -0.294570 6.073030 
# 
# From -- ./inp_files/4500.got.cif
#   From: 2010.05.17/outbox.cif.g08.bks.cpg/sg2_3_cif.got.tgz:4500.got - 2010.06.03 11:33:40.
