data_PCOD9065428
_publ_section_title
;
Structure prediction by ZEFSAII (Michael W. Deem and Ramdas Pophale) SiO2 
 PCOD9065428
Probable space group: P -1
;
_chemical_formula_sum "Si O2"
_cell_formula_units_Z 16
_cell_length_a 19.930216
_cell_length_b 11.714589
_cell_length_c 5.787971
_cell_angle_alpha 107.973271
_cell_angle_beta 111.943414
_cell_angle_gamma 32.276155
_cell_volume 669.264575
_symmetry_space_group_name_H-M "P -1"
_symmetry_group_IT_number 2
_symmetry_cell_setting 'triclinic'
loop_
_space_group_symop_operation_xyz
x,y,z
-x,-y,-z
loop_
_atom_site_type_symbol
_atom_site_label
_atom_site_fract_x
_atom_site_fract_y
_atom_site_fract_z
Si Si1 0.194147 0.469559 0.059286
Si Si2 0.424208 0.315109 0.071559
Si Si3 0.797724 0.017525 0.422375
Si Si4 0.410287 0.797168 0.390005
Si Si5 0.944345 0.945972 0.936184
Si Si6 0.336607 0.668925 0.944078
Si Si7 0.398672 0.056772 0.274723
Si Si8 0.072419 0.393777 0.777410
O O1 0.294639 0.419104 0.027571
O O2 0.273593 0.313081 0.281452
O O3 0.166117 0.378888 0.856010
O O4 0.056600 0.720058 0.070635
O O5 0.474973 0.318288 0.363501
O O6 0.394681 0.458077 0.932303
O O7 0.534413 0.074790 0.964868
O O8 0.914094 0.924904 0.639970
O O9 0.854125 0.832261 0.232952
O O10 0.710844 0.068080 0.525052
O O11 0.704043 0.236146 0.304559
O O12 0.419167 0.662582 0.166704
O O13 0.375259 0.961740 0.301642
O O14 0.805591 0.139416 0.999218
O O15 0.000000 0.000000 0.000000
O O16 0.500000 0.000000 0.500000
O O17 0.000000 0.500000 0.500000
O O18 0.000000 0.500000 0.000000
#
# Coordination Sequence:
#
# PCOD9065428 Si02
#       8
#     2   2   2   2   2   2   2   2
#     4  12  25  47  76 108 154 195 253 321 388 468
#     4  12  26  47  73 110 148 195 251 318 386 464
#     4  11  26  47  74 108 151 198 257 320 381 473
#     4  11  25  48  74 106 145 194 253 312 386 466
#     4  11  24  48  73 110 151 194 248 309 391 462
#     4  11  25  47  77 107 146 196 250 317 385 468
#     4  12  28  46  74 106 147 197 252 313 395 459
#     4  12  27  47  78 115 158 211 264 324 396 471
#
# _framework density 23.906841
#
# number of rings (size 3 to 8) (size 9 to 14) (size 15 to 20)
#    0.000    0.500    3.750    3.750    5.250    5.500 
#    2.250    0.000    0.000    0.000    0.000    0.000 
#    0.000    0.000    0.000    0.000    0.000    0.000 
#
# Total GULP energy -89450.227100 kJ/mol
# GULP energy per Si atom -5590.639194 kJ/mol
# Density = 2.385243 g / cm^3
# Si number density = 23.906841 Si / 1000 Ang^3
#
#
#
# Elastic Constant Matrix: (Units=GPa)
#
#
# Indices 1 2 3 4 5 6 
#
# 1 187.7578 32.2139 44.6002 -6.1329 21.0299 13.3741
# 2 32.2139 142.9133 32.1623 -11.8995 3.5251 20.5172
# 3 44.6002 32.1623 85.1496 -2.0260 16.0175 -8.7248
# 4 -6.1329 -11.8995 -2.0260 45.9706 -4.5749 1.1561
# 5 21.0299 3.5251 16.0175 -4.5749 47.5373 -9.6190
# 6 13.3741 20.5172 -8.7248 1.1561 -9.6190 41.3286
#
#
#
# Elastic Compliance Matrix: (Units=1/GPa)
#
#
# Indices 1 2 3 4 5 6 
#
# 1 0.006671 -0.000175 -0.003297 0.000540 -0.002454 -0.003354
# 2 -0.000175 0.008797 -0.003678 0.002205 -0.000174 -0.005189
# 3 -0.003297 -0.003678 0.015902 -0.001091 -0.002582 0.005679
# 4 0.000540 0.002205 -0.001091 0.022569 0.001791 -0.001714
# 5 -0.002454 -0.000174 -0.002582 0.001791 0.024383 0.005960
# 6 -0.003354 -0.005189 0.005679 -0.001714 0.005960 0.030492
#
#
# Mechanical properties :
#
#
# Convention : Reuss Voigt Hill
#
# Bulk Modulus (GPa) = 58.58152 70.41930 64.50041
# Shear Modulus (GPa) = 38.81874 47.42360 43.12117
#
# Velocity S-wave (km/s) = 4.03395 4.45869 4.25163
# Velocity P-wave (km/s) = 6.80105 7.48506 7.15124
#
# Compressibility (1/GPa) = 0.01707023
#
# Stress axis : x y z
#
# Youngs Moduli (GPa) = 149.91158 113.67243 62.88464
#
# Poissons Ratio (x) = 0.01984 0.20735
# Poissons Ratio (y) = 0.02617 0.23129
# Poissons Ratio (z) = 0.49430 0.41809
#
# Static dielectric constant tensor:
#      x y z
#    x 1.870880 -0.023330 -0.049450 
#    y -0.023330 2.032710 -0.062650 
#    z -0.049450 -0.062650 2.032580 
# 
# From -- ./inp_files/118344.got.cif
#   From: 2010.05.17/outbox.cif.g08.bks.cpg/sg2_60_cif.got.tgz:118344.got - 2010.06.03 11:33:40.
