data_PCOD9065606
_publ_section_title
;
Structure prediction by ZEFSAII (Michael W. Deem and Ramdas Pophale) SiO2 
 PCOD9065606
Probable space group: P -1
;
_chemical_formula_sum "Si O2"
_cell_formula_units_Z 14
_cell_length_a 22.909747
_cell_length_b 5.090538
_cell_length_c 11.977205
_cell_angle_alpha 47.882650
_cell_angle_beta 29.913604
_cell_angle_gamma 51.777076
_cell_volume 514.056690
_symmetry_space_group_name_H-M "P -1"
_symmetry_group_IT_number 2
_symmetry_cell_setting 'triclinic'
loop_
_space_group_symop_operation_xyz
x,y,z
-x,-y,-z
loop_
_atom_site_type_symbol
_atom_site_label
_atom_site_fract_x
_atom_site_fract_y
_atom_site_fract_z
Si Si1 0.500000 0.500000 0.000000
Si Si2 0.479275 0.478097 0.780546
Si Si3 0.000000 0.500000 0.500000
Si Si4 0.342806 0.250710 0.740857
Si Si5 0.252587 0.248172 0.129552
Si Si6 0.862826 0.653145 0.111186
Si Si7 0.231716 0.458155 0.454424
Si Si8 0.004184 0.269031 0.789223
O O1 0.524469 0.450780 0.838179
O O2 0.630768 0.652922 0.755603
O O3 0.577950 0.464814 0.524952
O O4 0.415813 0.878619 0.756812
O O5 0.378722 0.223501 0.991494
O O6 0.142508 0.494131 0.287613
O O7 0.023494 0.434927 0.344695
O O8 0.247308 0.187825 0.824271
O O9 0.284040 0.371931 0.919263
O O10 0.213671 0.854026 0.319629
O O11 0.811260 0.542190 0.346136
O O12 0.931830 0.374202 0.991066
O O13 0.956446 0.933251 0.903099
O O14 0.141522 0.234970 0.601549
#
# Coordination Sequence:
#
# PCOD9065606 Si02
#       8
#     1   2   1   2   2   2   2   2
#     4  12  24  48  70 114 158 196 256 318 402 462
#     4  11  25  47  76 111 154 207 260 328 390 479
#     4  12  26  46  78 116 150 204 254 330 388 466
#     4  11  24  49  76 113 152 202 271 318 399 471
#     4  12  26  49  77 112 154 202 264 327 397 472
#     4  12  27  53  81 114 156 212 263 330 399 471
#     4  12  28  50  75 117 157 206 262 329 397 476
#     4  12  28  49  82 113 159 205 269 325 398 474
#
# _framework density 27.234349999999999
#
# number of rings (size 3 to 8) (size 9 to 14) (size 15 to 20)
#    0.000    0.286    4.286    3.857    2.000    4.000 
#    2.571    0.000    0.000    0.000    0.000    0.000 
#    0.000    0.000    0.000    0.000    0.000    0.000 
#
# Total GULP energy -78082.476330 kJ/mol
# GULP energy per Si atom -5577.319738 kJ/mol
# Density = 2.717236 g / cm^3
# Si number density = 27.234350 Si / 1000 Ang^3
#
#
#
# Elastic Constant Matrix: (Units=GPa)
#
#
# Indices 1 2 3 4 5 6 
#
# 1 195.4427 13.9458 71.4951 3.3685 10.6847 19.3506
# 2 13.9458 58.8125 44.2023 -14.3519 7.3380 10.9476
# 3 71.4951 44.2023 196.0289 7.7835 -17.2707 5.9126
# 4 3.3685 -14.3519 7.7835 39.1606 9.5320 -1.5198
# 5 10.6847 7.3380 -17.2707 9.5320 43.5536 -2.6378
# 6 19.3506 10.9476 5.9126 -1.5198 -2.6378 30.7004
#
#
#
# Elastic Compliance Matrix: (Units=1/GPa)
#
#
# Indices 1 2 3 4 5 6 
#
# 1 0.006874 0.002952 -0.003483 0.002039 -0.004313 -0.004984
# 2 0.002952 0.031487 -0.009714 0.016205 -0.014132 -0.011630
# 3 -0.003483 -0.009714 0.009414 -0.006914 0.007991 0.004191
# 4 0.002039 0.016205 -0.006914 0.035916 -0.014146 -0.005170
# 5 -0.004313 -0.014132 0.007991 -0.014146 0.033171 0.008369
# 6 -0.004984 -0.011630 0.004191 -0.005170 0.008369 0.039518
#
#
# Mechanical properties :
#
#
# Convention : Reuss Voigt Hill
#
# Bulk Modulus (GPa) = 36.65221 78.84117 57.74669
# Shear Modulus (GPa) = 26.88660 44.05898 35.47279
#
# Velocity S-wave (km/s) = 3.14543 4.02652 3.61293
# Velocity P-wave (km/s) = 5.16517 7.11542 6.21724
#
# Compressibility (1/GPa) = 0.02728349
#
# Stress axis : x y z
#
# Youngs Moduli (GPa) = 145.46761 31.75954 106.22094
#
# Poissons Ratio (x) = -0.09374 0.37001
# Poissons Ratio (y) = -0.42935 1.03184
# Poissons Ratio (z) = 0.50672 0.30851
#
# Static dielectric constant tensor:
#      x y z
#    x 2.058910 0.090910 -0.028710 
#    y 0.090910 0.989810 -0.031380 
#    z -0.028710 -0.031380 2.114390 
# 
# From -- ./inp_files/468274.got.cif
#   From: 2010.05.17/outbox.cif.g08.bks.cpg/sg2_235_cif.got.tgz:468274.got - 2010.06.03 11:33:40.
