data_PCOD9065464
_publ_section_title
;
Structure prediction by ZEFSAII (Michael W. Deem and Ramdas Pophale) SiO2 
 PCOD9065464
Probable space group: P -1
;
_chemical_formula_sum "Si O2"
_cell_formula_units_Z 16
_cell_length_a 19.318062
_cell_length_b 14.917823
_cell_length_c 5.304539
_cell_angle_alpha 101.609815
_cell_angle_beta 84.423087
_cell_angle_gamma 152.476478
_cell_volume 680.721003
_symmetry_space_group_name_H-M "P -1"
_symmetry_group_IT_number 2
_symmetry_cell_setting 'triclinic'
loop_
_space_group_symop_operation_xyz
x,y,z
-x,-y,-z
loop_
_atom_site_type_symbol
_atom_site_label
_atom_site_fract_x
_atom_site_fract_y
_atom_site_fract_z
Si Si1 0.826522 0.810039 0.549368
Si Si2 0.205369 0.925293 0.778914
Si Si3 0.316334 0.264948 0.937891
Si Si4 0.316238 0.552542 0.550476
Si Si5 0.635229 0.164292 0.746283
Si Si6 0.163954 0.722285 0.978349
Si Si7 0.875169 0.497696 0.472869
Si Si8 0.479876 0.788582 0.101829
O O1 0.743820 0.757427 0.307216
O O2 0.774257 0.646660 0.534469
O O3 0.772355 0.801699 0.817087
O O4 0.000000 0.000000 0.500000
O O5 0.155072 0.821052 0.003066
O O6 0.055125 0.726664 0.558449
O O7 0.268831 0.101722 0.847038
O O8 0.349891 0.027511 0.757713
O O9 0.500000 0.500000 0.000000
O O10 0.204179 0.506544 0.622577
O O11 0.384436 0.649339 0.303883
O O12 0.438589 0.684204 0.807145
O O13 0.791613 0.391056 0.711835
O O14 0.563380 0.159450 0.938210
O O15 0.500000 0.000000 0.500000
O O16 0.694512 0.139229 0.820379
O O17 0.173048 0.656491 0.713613
O O18 0.000000 0.500000 0.000000
#
# Coordination Sequence:
#
# PCOD9065464 Si02
#       8
#     2   2   2   2   2   2   2   2
#     4  12  26  48  79 111 149 199 262 331 396 461
#     4  12  27  45  74 107 148 205 249 315 387 459
#     4  12  28  52  76 116 158 202 265 331 396 469
#     4  11  24  48  75 104 147 195 250 317 384 451
#     4  11  25  45  67 102 149 195 245 308 361 452
#     4  12  26  44  72 107 152 195 249 306 379 457
#     4  11  25  46  65 107 148 190 250 304 373 459
#     4  11  26  45  72 107 143 195 252 302 378 455
#
# _framework density 23.504489
#
# number of rings (size 3 to 8) (size 9 to 14) (size 15 to 20)
#    0.000    0.500    2.500    4.875    5.250    6.000 
#    0.000    0.000    0.000    0.000    0.000    0.000 
#    0.000    0.000    0.000    0.000    0.000    0.000 
#
# Total GULP energy -89230.463633 kJ/mol
# GULP energy per Si atom -5576.903977 kJ/mol
# Density = 2.345099 g / cm^3
# Si number density = 23.504489 Si / 1000 Ang^3
#
#
#
# Elastic Constant Matrix: (Units=GPa)
#
#
# Indices 1 2 3 4 5 6 
#
# 1 127.1309 49.4181 37.1729 15.1342 24.1661 -10.9763
# 2 49.4181 115.4010 21.5426 9.8542 15.0386 -8.9106
# 3 37.1729 21.5426 93.0184 -0.9141 20.2667 0.8911
# 4 15.1342 9.8542 -0.9141 43.4233 5.8250 -3.3072
# 5 24.1661 15.0386 20.2667 5.8250 40.7846 12.3445
# 6 -10.9763 -8.9106 0.8911 -3.3072 12.3445 41.9054
#
#
#
# Elastic Compliance Matrix: (Units=1/GPa)
#
#
# Indices 1 2 3 4 5 6 
#
# 1 0.011505 -0.003266 -0.002814 -0.002381 -0.004981 0.003658
# 2 -0.003266 0.010707 -0.000739 -0.000870 -0.002125 0.001994
# 3 -0.002814 -0.000739 0.013164 0.002140 -0.005053 0.000483
# 4 -0.002381 -0.000870 0.002140 0.024735 -0.003510 0.002132
# 5 -0.004981 -0.002125 -0.005053 -0.003510 0.034967 -0.012227
# 6 0.003658 0.001994 0.000483 0.002132 -0.012227 0.029005
#
#
# Mechanical properties :
#
#
# Convention : Reuss Voigt Hill
#
# Bulk Modulus (GPa) = 46.00627 61.31305 53.65966
# Shear Modulus (GPa) = 34.49047 40.38379 37.43713
#
# Velocity S-wave (km/s) = 3.83482 4.14953 3.99528
# Velocity P-wave (km/s) = 6.26288 7.00717 6.64545
#
# Compressibility (1/GPa) = 0.02173617
#
# Stress axis : x y z
#
# Youngs Moduli (GPa) = 86.92158 93.39392 75.96589
#
# Poissons Ratio (x) = 0.30506 0.21379
# Poissons Ratio (y) = 0.28392 0.05615
# Poissons Ratio (z) = 0.24462 0.06903
#
# Static dielectric constant tensor:
#      x y z
#    x 1.937200 -0.021050 -0.029990 
#    y -0.021050 2.016700 -0.136230 
#    z -0.029990 -0.136230 2.116410 
# 
# From -- ./inp_files/110954.got.cif
#   From: 2010.05.17/outbox.cif.g08.bks.cpg/sg2_56_cif.got.tgz:110954.got - 2010.06.03 11:33:40.
