data_PCOD9065069
_publ_section_title
;
Structure prediction by ZEFSAII (Michael W. Deem and Ramdas Pophale) SiO2 
 PCOD9065069
Probable space group: P -1
;
_chemical_formula_sum "Si O2"
_cell_formula_units_Z 14
_cell_length_a 12.464119
_cell_length_b 6.559976
_cell_length_c 7.872601
_cell_angle_alpha 95.050821
_cell_angle_beta 107.014538
_cell_angle_gamma 70.901014
_cell_volume 581.620750
_symmetry_space_group_name_H-M "P -1"
_symmetry_group_IT_number 2
_symmetry_cell_setting 'triclinic'
loop_
_space_group_symop_operation_xyz
x,y,z
-x,-y,-z
loop_
_atom_site_type_symbol
_atom_site_label
_atom_site_fract_x
_atom_site_fract_y
_atom_site_fract_z
Si Si1 0.537130 0.745650 0.998164
Si Si2 0.610106 0.542024 0.647361
Si Si3 0.307654 0.653209 0.852254
Si Si4 0.885607 0.982571 0.051063
Si Si5 0.779865 0.165311 0.523621
Si Si6 0.793412 0.767150 0.700259
Si Si7 0.982432 0.360714 0.643205
O O1 0.573082 0.647486 0.820538
O O2 0.417479 0.701271 0.997652
O O3 0.649262 0.606319 0.151706
O O4 0.500000 0.000000 0.000000
O O5 0.500000 0.500000 0.500000
O O6 0.712604 0.311035 0.661463
O O7 0.675456 0.703262 0.610617
O O8 0.301191 0.755032 0.671058
O O9 0.186582 0.780049 0.896640
O O10 0.920148 0.812430 0.211258
O O11 0.802355 0.896064 0.883604
O O12 0.000000 0.000000 0.000000
O O13 0.896189 0.226058 0.539952
O O14 0.807584 0.919039 0.565326
O O15 0.903392 0.549113 0.743431
O O16 0.000000 0.500000 0.500000
#
# Coordination Sequence:
#
# PCOD9065069 Si02
#       7
#     2   2   2   2   2   2   2
#     4  11  25  48  74 107 146 199 257 321 390 458
#     4  11  24  47  74 107 148 194 257 320 385 461
#     4  11  26  45  72 103 152 194 254 319 385 453
#     4  12  25  47  76 109 158 209 252 321 385 466
#     4  11  24  47  70 112 151 199 252 320 379 471
#     4  11  25  44  73 107 150 200 258 307 391 457
#     4  11  26  44  73 110 150 200 258 311 382 454
#
# _framework density 24.070665999999999
#
# number of rings (size 3 to 8) (size 9 to 14) (size 15 to 20)
#    0.000    0.857    2.857    3.000    4.000    7.429 
#    0.000    0.000    0.000    0.000    0.000    0.000 
#    0.000    0.000    0.000    0.000    0.000    0.000 
#
# Total GULP energy -78236.757368 kJ/mol
# GULP energy per Si atom -5588.339812 kJ/mol
# Density = 2.401588 g / cm^3
# Si number density = 24.070666 Si / 1000 Ang^3
#
#
#
# Elastic Constant Matrix: (Units=GPa)
#
#
# Indices 1 2 3 4 5 6 
#
# 1 113.9030 58.1107 28.6202 -12.7497 -9.8749 2.0431
# 2 58.1107 162.3400 51.0330 -31.4384 3.1420 -9.7819
# 3 28.6202 51.0330 106.5555 -24.3800 5.1423 -3.9687
# 4 -12.7497 -31.4384 -24.3800 47.2589 -4.9339 -3.8592
# 5 -9.8749 3.1420 5.1423 -4.9339 32.1782 6.5043
# 6 2.0431 -9.7819 -3.9687 -3.8592 6.5043 57.9772
#
#
#
# Elastic Compliance Matrix: (Units=1/GPa)
#
#
# Indices 1 2 3 4 5 6 
#
# 1 0.011544 -0.003816 -0.001524 0.000126 0.004512 -0.001653
# 2 -0.003816 0.009152 -0.002331 0.003859 -0.001493 0.001943
# 3 -0.001524 -0.002331 0.011969 0.004111 -0.001713 0.000946
# 4 0.000126 0.003859 0.004111 0.026345 0.002560 0.002394
# 5 0.004512 -0.001493 -0.001713 0.002560 0.034120 -0.004186
# 6 -0.001653 0.001943 0.000946 0.002394 -0.004186 0.018328
#
#
# Mechanical properties :
#
#
# Convention : Reuss Voigt Hill
#
# Bulk Modulus (GPa) = 57.72242 73.14738 65.43490
# Shear Modulus (GPa) = 37.71518 43.81849 40.76683
#
# Velocity S-wave (km/s) = 3.96264 4.27126 4.11984
# Velocity P-wave (km/s) = 6.70591 7.40131 7.06217
#
# Compressibility (1/GPa) = 0.01732429
#
# Stress axis : x y z
#
# Youngs Moduli (GPa) = 86.62610 109.26756 83.54996
#
# Poissons Ratio (x) = 0.41694 0.12730
# Poissons Ratio (y) = 0.33054 0.19474
# Poissons Ratio (z) = 0.13198 0.25468
#
# Static dielectric constant tensor:
#      x y z
#    x 1.965790 -0.031070 0.006330 
#    y -0.031070 1.967240 -0.047150 
#    z 0.006330 -0.047150 2.030140 
# 
# From -- ./inp_files/229628.got.cif
#   From: 2010.05.17/outbox.cif.g08.bks.cpg/sg2_115_cif.got.tgz:229628.got - 2010.06.03 11:33:40.
