data_PCOD9065557
_publ_section_title
;
Structure prediction by ZEFSAII (Michael W. Deem and Ramdas Pophale) SiO2 
 PCOD9065557
Probable space group: P -1
;
_chemical_formula_sum "Si O2"
_cell_formula_units_Z 16
_cell_length_a 6.058680
_cell_length_b 24.087148
_cell_length_c 5.982636
_cell_angle_alpha 48.397180
_cell_angle_beta 100.928933
_cell_angle_gamma 105.249391
_cell_volume 629.739398
_symmetry_space_group_name_H-M "P -1"
_symmetry_group_IT_number 2
_symmetry_cell_setting 'triclinic'
loop_
_space_group_symop_operation_xyz
x,y,z
-x,-y,-z
loop_
_atom_site_type_symbol
_atom_site_label
_atom_site_fract_x
_atom_site_fract_y
_atom_site_fract_z
Si Si1 0.377035 0.304874 0.691489
Si Si2 0.936315 0.824981 0.769604
Si Si3 0.351123 0.404161 0.798653
Si Si4 0.192779 0.528393 0.147926
Si Si5 0.324060 0.957721 0.397335
Si Si6 0.294652 0.774729 0.256995
Si Si7 0.006444 0.325101 0.237321
Si Si8 0.382754 0.104504 0.756961
O O1 0.476626 0.367282 0.724684
O O2 0.564579 0.290349 0.591832
O O3 0.173113 0.337487 0.450210
O O4 0.265535 0.221243 0.987834
O O5 0.795609 0.841132 0.481316
O O6 0.095921 0.909301 0.595845
O O7 0.136202 0.779525 0.999158
O O8 0.211217 0.464475 0.507426
O O9 0.531320 0.444240 0.910470
O O10 0.178511 0.330974 0.050301
O O11 0.117468 0.605292 0.002399
O O12 0.000000 0.500000 0.000000
O O13 0.463994 0.908676 0.394848
O O14 0.500000 0.000000 0.500000
O O15 0.268497 0.023252 0.047490
O O16 0.157379 0.751486 0.522676
O O17 0.454587 0.852985 0.133973
#
# Coordination Sequence:
#
# PCOD9065557 Si02
#       8
#     2   2   2   2   2   2   2   2
#     4  11  26  47  71 110 146 190 250 306 363 439
#     4  11  25  44  74 101 145 195 239 299 365 428
#     4  11  26  48  75 109 144 195 246 301 367 439
#     4  11  24  49  75 109 149 192 242 304 367 438
#     4  11  24  49  71 109 148 187 249 306 356 437
#     4  11  26  50  70 108 152 188 247 307 361 439
#     4  11  25  47  74 105 146 195 241 304 365 435
#     4  11  26  46  75 104 144 198 240 299 372 432
#
# _framework density 25.407333000000001
#
# number of rings (size 3 to 8) (size 9 to 14) (size 15 to 20)
#    0.000    1.000    2.500    2.250    5.250    4.000 
#    6.750    0.000    0.000    0.000    0.000    0.000 
#    0.000    0.000    0.000    0.000    0.000    0.000 
#
# Total GULP energy -89253.792197 kJ/mol
# GULP energy per Si atom -5578.362012 kJ/mol
# Density = 2.534950 g / cm^3
# Si number density = 25.407333 Si / 1000 Ang^3
#
#
#
# Elastic Constant Matrix: (Units=GPa)
#
#
# Indices 1 2 3 4 5 6 
#
# 1 80.6065 37.6893 63.1472 -2.4908 28.1666 21.3159
# 2 37.6893 87.5003 27.0708 7.7544 19.2845 11.9408
# 3 63.1472 27.0708 144.0635 -24.7704 17.6951 12.7721
# 4 -2.4908 7.7544 -24.7704 37.1653 11.4920 8.4783
# 5 28.1666 19.2845 17.6951 11.4920 46.6871 -1.1128
# 6 21.3159 11.9408 12.7721 8.4783 -1.1128 42.8572
#
#
#
# Elastic Compliance Matrix: (Units=1/GPa)
#
#
# Indices 1 2 3 4 5 6 
#
# 1 0.030001 -0.006032 -0.008454 0.004650 -0.013834 -0.012000
# 2 -0.006032 0.014855 -0.000490 -0.003275 -0.001514 -0.000384
# 3 -0.008454 -0.000490 0.012521 0.008634 -0.001595 -0.001139
# 4 0.004650 -0.003275 0.008634 0.041201 -0.015165 -0.012518
# 5 -0.013834 -0.001514 -0.001595 -0.015165 0.035007 0.011687
# 6 -0.012000 -0.000384 -0.001139 -0.012518 0.011687 0.032528
#
#
# Mechanical properties :
#
#
# Convention : Reuss Voigt Hill
#
# Bulk Modulus (GPa) = 36.46586 63.10944 49.78765
# Shear Modulus (GPa) = 24.36582 37.62611 30.99597
#
# Velocity S-wave (km/s) = 3.10014 3.85244 3.49658
# Velocity P-wave (km/s) = 5.21519 6.68441 5.99498
#
# Compressibility (1/GPa) = 0.02742291
#
# Stress axis : x y z
#
# Youngs Moduli (GPa) = 33.33275 67.31850 79.86899
#
# Poissons Ratio (x) = 0.40608 0.67520
# Poissons Ratio (y) = 0.20107 0.03916
# Poissons Ratio (z) = 0.28179 0.03301
#
# Static dielectric constant tensor:
#      x y z
#    x 2.053670 -0.001310 -0.032030 
#    y -0.001310 1.978660 -0.011790 
#    z -0.032030 -0.011790 2.014450 
# 
# From -- ./inp_files/14319.got.cif
#   From: 2010.05.17/outbox.cif.g08.bks.cpg/sg2_8_cif.got.tgz:14319.got - 2010.06.03 11:33:40.
