data_PCOD9065062
_publ_section_title
;
Structure prediction by ZEFSAII (Michael W. Deem and Ramdas Pophale) SiO2 
 PCOD9065062
Probable space group: P -1
;
_chemical_formula_sum "Si O2"
_cell_formula_units_Z 15
_cell_length_a 6.572533
_cell_length_b 14.056774
_cell_length_c 9.209687
_cell_angle_alpha 66.499937
_cell_angle_beta 90.155469
_cell_angle_gamma 119.457784
_cell_volume 659.194095
_symmetry_space_group_name_H-M "P -1"
_symmetry_group_IT_number 2
_symmetry_cell_setting 'triclinic'
loop_
_space_group_symop_operation_xyz
x,y,z
-x,-y,-z
loop_
_atom_site_type_symbol
_atom_site_label
_atom_site_fract_x
_atom_site_fract_y
_atom_site_fract_z
Si Si1 0.066906 0.585088 0.800505
Si Si2 0.794730 0.799208 0.067711
Si Si3 0.381284 0.958493 0.370059
Si Si4 0.539974 0.632366 0.417226
Si Si5 0.878508 0.751749 0.607118
Si Si6 0.688208 0.988407 0.103586
Si Si7 0.585504 0.793835 0.790803
Si Si8 0.000000 0.500000 0.500000
O O1 0.338532 0.700517 0.765472
O O2 0.044567 0.528053 0.671797
O O3 0.909602 0.648411 0.746189
O O4 0.000000 0.500000 0.000000
O O5 0.735910 0.701880 0.249840
O O6 0.748257 0.895727 0.088797
O O7 0.610665 0.736553 0.973853
O O8 0.067618 0.878723 0.964735
O O9 0.117263 0.841326 0.461083
O O10 0.500000 0.000000 0.500000
O O11 0.553943 0.936429 0.286067
O O12 0.384421 0.077961 0.242725
O O13 0.500000 0.500000 0.500000
O O14 0.660357 0.693862 0.530228
O O15 0.278183 0.609369 0.405457
O O16 0.815078 0.823202 0.678010
O O17 0.500000 0.000000 0.000000
#
# Coordination Sequence:
#
# PCOD9065062 Si02
#       8
#     2   2   2   2   2   2   2   1
#     4  12  28  51  78 114 151 205 261 321 387 461
#     4  11  27  44  74 110 147 199 252 315 383 460
#     4  12  25  45  74 108 152 198 243 309 385 458
#     4  12  27  47  73 106 144 198 254 311 381 452
#     4  12  27  47  74 111 152 196 253 312 386 460
#     4  11  24  47  70 107 151 195 249 305 382 457
#     4  12  26  48  73 111 149 198 254 317 387 461
#     4  12  26  52  76 108 152 200 260 320 380 450
#
# _framework density 22.755061000000001
#
# number of rings (size 3 to 8) (size 9 to 14) (size 15 to 20)
#    0.000    0.267    5.333    2.800    5.600    2.667 
#    0.000    0.000    0.000    0.000    0.000    0.000 
#    0.000    0.000    0.000    0.000    0.000    0.000 
#
# Total GULP energy -83558.031581 kJ/mol
# GULP energy per Si atom -5570.535439 kJ/mol
# Density = 2.270327 g / cm^3
# Si number density = 22.755061 Si / 1000 Ang^3
#
#
#
# Elastic Constant Matrix: (Units=GPa)
#
#
# Indices 1 2 3 4 5 6 
#
# 1 78.3817 33.8157 24.5214 3.7772 -12.8755 24.5610
# 2 33.8157 87.9643 39.4232 5.4338 3.6702 25.2025
# 3 24.5214 39.4232 105.2497 8.4120 -6.8913 6.5369
# 4 3.7772 5.4338 8.4120 46.6176 2.5147 4.0860
# 5 -12.8755 3.6702 -6.8913 2.5147 42.8260 2.8753
# 6 24.5610 25.2025 6.5369 4.0860 2.8753 36.2076
#
#
#
# Elastic Compliance Matrix: (Units=1/GPa)
#
#
# Indices 1 2 3 4 5 6 
#
# 1 0.019463 -0.003775 -0.002009 -0.000191 0.006582 -0.010713
# 2 -0.003775 0.017878 -0.005484 0.000132 -0.002975 -0.008672
# 3 -0.002009 -0.005484 0.012084 -0.001739 0.001707 0.003059
# 4 -0.000191 0.000132 -0.001739 0.022023 -0.001506 -0.002014
# 5 0.006582 -0.002975 0.001707 -0.001506 0.026257 -0.004617
# 6 -0.010713 -0.008672 0.003059 -0.002014 -0.004617 0.040963
#
#
# Mechanical properties :
#
#
# Convention : Reuss Voigt Hill
#
# Bulk Modulus (GPa) = 37.18991 51.90182 44.54587
# Shear Modulus (GPa) = 29.38318 36.71927 33.05123
#
# Velocity S-wave (km/s) = 3.59734 4.02142 3.81527
# Velocity P-wave (km/s) = 5.79944 6.66489 6.24717
#
# Compressibility (1/GPa) = 0.02688901
#
# Stress axis : x y z
#
# Youngs Moduli (GPa) = 51.38082 55.93615 82.75391
#
# Poissons Ratio (x) = 0.21116 0.16624
# Poissons Ratio (y) = 0.19397 0.45379
# Poissons Ratio (z) = 0.10322 0.30673
#
# Static dielectric constant tensor:
#      x y z
#    x 1.854100 -0.052780 0.062500 
#    y -0.052780 1.826230 0.017200 
#    z 0.062500 0.017200 1.916150 
# 
# From -- ./inp_files/135006.got.cif
#   From: 2010.05.17/outbox.cif.g08.bks.cpg/sg2_68_cif.got.tgz:135006.got - 2010.06.03 11:33:40.
