data_PCOD9065953
_publ_section_title
;
Structure prediction by ZEFSAII (Michael W. Deem and Ramdas Pophale) SiO2 
 PCOD9065953
Probable space group: P -1
;
_chemical_formula_sum "Si O2"
_cell_formula_units_Z 11
_cell_length_a 5.234274
_cell_length_b 13.183015
_cell_length_c 11.759406
_cell_angle_alpha 31.473524
_cell_angle_beta 90.441352
_cell_angle_gamma 87.575852
_cell_volume 421.784316
_symmetry_space_group_name_H-M "P -1"
_symmetry_group_IT_number 2
_symmetry_cell_setting 'triclinic'
loop_
_space_group_symop_operation_xyz
x,y,z
-x,-y,-z
loop_
_atom_site_type_symbol
_atom_site_label
_atom_site_fract_x
_atom_site_fract_y
_atom_site_fract_z
Si Si1 0.737234 0.611646 0.851212
Si Si2 0.768491 0.850122 0.418766
Si Si3 0.239604 0.355760 0.782422
Si Si4 0.757781 0.904872 0.757917
Si Si5 0.095468 0.752257 0.312032
Si Si6 0.500000 0.000000 0.000000
O O1 0.749515 0.652550 0.678040
O O2 0.725082 0.821598 0.711870
O O3 0.500000 0.500000 0.000000
O O4 0.000000 0.500000 0.000000
O O5 0.826541 0.819222 0.314478
O O6 0.505182 0.977422 0.317685
O O7 0.007687 0.962404 0.355997
O O8 0.253090 0.587099 0.546570
O O9 0.989782 0.328897 0.730137
O O10 0.468881 0.219973 0.853954
O O11 0.203238 0.281244 0.980212
O O12 0.248357 0.939036 0.125021
#
# Coordination Sequence:
#
# PCOD9065953 Si02
#       6
#     2   2   2   2   2   1
#     4  12  26  50  76 110 148 188 248 308 368 440
#     4  12  26  48  75 107 147 196 248 299 370 441
#     4  11  25  44  69 105 147 193 245 297 367 432
#     4  12  26  46  77 106 146 197 246 302 368 443
#     4  11  26  44  70 107 148 197 244 305 361 438
#     4  12  22  46  68 104 148 194 248 300 368 428
#
# _framework density 26.07968
#
# number of rings (size 3 to 8) (size 9 to 14) (size 15 to 20)
#    0.000    0.364    1.818    6.545    2.545    0.000 
#    3.273    0.000    0.000    0.000    0.000    0.000 
#    0.000    0.000    0.000    0.000    0.000    0.000 
#
# Total GULP energy -61543.727422 kJ/mol
# GULP energy per Si atom -5594.884311 kJ/mol
# Density = 2.602032 g / cm^3
# Si number density = 26.079680 Si / 1000 Ang^3
#
#
#
# Elastic Constant Matrix: (Units=GPa)
#
#
# Indices 1 2 3 4 5 6 
#
# 1 171.3118 20.3227 47.3679 -1.2241 -24.3671 -10.9070
# 2 20.3227 80.5921 0.7471 6.3019 -2.6410 -6.6727
# 3 47.3679 0.7471 167.9389 12.9189 -15.1404 -11.3181
# 4 -1.2241 6.3019 12.9189 47.0087 -9.0843 5.7486
# 5 -24.3671 -2.6410 -15.1404 -9.0843 46.0383 -11.9312
# 6 -10.9070 -6.6727 -11.3181 5.7486 -11.9312 42.4993
#
#
#
# Elastic Compliance Matrix: (Units=1/GPa)
#
#
# Indices 1 2 3 4 5 6 
#
# 1 0.007187 -0.001599 -0.001624 0.001362 0.003990 0.002097
# 2 -0.001599 0.013174 0.000741 -0.002229 0.000294 0.002239
# 3 -0.001624 0.000741 0.006861 -0.001988 0.001631 0.002254
# 4 0.001362 -0.002229 -0.001988 0.023214 0.003849 -0.002589
# 5 0.003990 0.000294 0.001631 0.003849 0.027394 0.008675
# 6 0.002097 0.002239 0.002254 -0.002589 0.008675 0.027805
#
#
# Mechanical properties :
#
#
# Convention : Reuss Voigt Hill
#
# Bulk Modulus (GPa) = 44.92722 61.85758 53.39240
# Shear Modulus (GPa) = 42.36660 50.53626 46.45143
#
# Velocity S-wave (km/s) = 4.03489 4.40678 4.22493
# Velocity P-wave (km/s) = 6.24271 7.04721 6.65712
#
# Compressibility (1/GPa) = 0.02225822
#
# Stress axis : x y z
#
# Youngs Moduli (GPa) = 139.14361 75.90776 145.74963
#
# Poissons Ratio (x) = 0.12141 0.23665
# Poissons Ratio (y) = 0.22255 -0.10805
# Poissons Ratio (z) = 0.22593 -0.05627
#
# Static dielectric constant tensor:
#      x y z
#    x 1.117580 0.058590 -0.550850 
#    y 0.058590 2.013730 0.071500 
#    z -0.550850 0.071500 1.635280 
# 
# From -- ./inp_files/365957.got.cif
#   From: 2010.05.17/outbox.cif.g08.bks.cpg/sg2_183_cif.got.tgz:365957.got - 2010.06.03 11:33:40.
