data_PCOD9065599
_publ_section_title
;
Structure prediction by ZEFSAII (Michael W. Deem and Ramdas Pophale) SiO2 
 PCOD9065599
Probable space group: P -1
;
_chemical_formula_sum "Si O2"
_cell_formula_units_Z 10
_cell_length_a 4.850031
_cell_length_b 7.007426
_cell_length_c 11.991705
_cell_angle_alpha 79.805725
_cell_angle_beta 107.099942
_cell_angle_gamma 110.673073
_cell_volume 363.231703
_symmetry_space_group_name_H-M "P -1"
_symmetry_group_IT_number 2
_symmetry_cell_setting 'triclinic'
loop_
_space_group_symop_operation_xyz
x,y,z
-x,-y,-z
loop_
_atom_site_type_symbol
_atom_site_label
_atom_site_fract_x
_atom_site_fract_y
_atom_site_fract_z
Si Si1 0.938837 0.676205 0.780936
Si Si2 0.778445 0.930012 0.375567
Si Si3 0.073807 0.786114 0.035133
Si Si4 0.377466 0.363088 0.807624
Si Si5 0.763241 0.403523 0.578366
O O1 0.577451 0.597210 0.779784
O O2 0.911296 0.505083 0.701215
O O3 0.115005 0.878503 0.714051
O O4 0.072822 0.707095 0.917652
O O5 0.796179 0.750415 0.311424
O O6 0.438603 0.833495 0.397008
O O7 0.000000 0.000000 0.500000
O O8 0.384062 0.765596 0.126063
O O9 0.808288 0.656822 0.099054
O O10 0.000000 0.000000 0.000000
O O11 0.500000 0.500000 0.500000
O O12 0.000000 0.500000 0.500000
#
# Coordination Sequence:
#
# PCOD9065599 Si02
#       5
#     2   2   2   2   2
#     4  11  25  47  79 109 152 200 248 313 379 444
#     4  11  24  49  75 113 150 200 253 305 376 448
#     4  12  25  50  77 111 151 196 254 311 379 449
#     4  11  27  49  74 112 152 197 251 314 374 451
#     4  11  26  49  70 108 150 195 249 307 367 445
#
# _framework density 27.530638
#
# number of rings (size 3 to 8) (size 9 to 14) (size 15 to 20)
#    0.000    0.800    4.000    1.800    0.000    8.800 
#    3.600    0.000    0.000    0.000    0.000    0.000 
#    0.000    0.000    0.000    0.000    0.000    0.000 
#
# Total GULP energy -55915.013222 kJ/mol
# GULP energy per Si atom -5591.501322 kJ/mol
# Density = 2.746798 g / cm^3
# Si number density = 27.530638 Si / 1000 Ang^3
#
#
#
# Elastic Constant Matrix: (Units=GPa)
#
#
# Indices 1 2 3 4 5 6 
#
# 1 140.3497 70.1983 75.3370 -18.8509 -35.7846 24.2770
# 2 70.1983 234.4799 115.3166 -28.7319 -12.7099 45.6654
# 3 75.3370 115.3166 287.5039 -21.8984 -26.1982 28.0956
# 4 -18.8509 -28.7319 -21.8984 67.2839 11.0326 -16.4997
# 5 -35.7846 -12.7099 -26.1982 11.0326 44.2686 -0.2943
# 6 24.2770 45.6654 28.0956 -16.4997 -0.2943 63.9880
#
#
#
# Elastic Compliance Matrix: (Units=1/GPa)
#
#
# Indices 1 2 3 4 5 6 
#
# 1 0.011063 -0.001832 -0.001236 0.000101 0.007645 -0.002286
# 2 -0.001832 0.006307 -0.001791 0.001092 -0.001021 -0.002742
# 3 -0.001236 -0.001791 0.004667 0.000146 0.001210 -0.000259
# 4 0.000101 0.001092 0.000146 0.016856 -0.003697 0.003448
# 5 0.007645 -0.001021 0.001210 -0.003697 0.030090 -0.003518
# 6 -0.002286 -0.002742 -0.000259 0.003448 -0.003518 0.019439
#
#
# Mechanical properties :
#
#
# Convention : Reuss Voigt Hill
#
# Bulk Modulus (GPa) = 81.18522 131.55968 106.37245
# Shear Modulus (GPa) = 48.90052 61.87354 55.38703
#
# Velocity S-wave (km/s) = 4.21910 4.74586 4.49021
# Velocity P-wave (km/s) = 7.29982 8.82731 8.09965
#
# Compressibility (1/GPa) = 0.01231751
#
# Stress axis : x y z
#
# Youngs Moduli (GPa) = 90.38912 158.55912 214.25186
#
# Poissons Ratio (x) = 0.29050 0.26492
# Poissons Ratio (y) = 0.16560 0.38381
# Poissons Ratio (z) = 0.11176 0.28404
#
# Static dielectric constant tensor:
#      x y z
#    x 2.755360 -0.067500 0.072050 
#    y -0.067500 2.200130 -0.017760 
#    z 0.072050 -0.017760 2.026000 
# 
# From -- ./inp_files/359612.got.cif
#   From: 2010.05.17/outbox.cif.g08.bks.cpg/sg2_180_cif.got.tgz:359612.got - 2010.06.03 11:33:40.
