data_PCOD9065818
_publ_section_title
;
Structure prediction by ZEFSAII (Michael W. Deem and Ramdas Pophale) SiO2 
 PCOD9065818
Probable space group: P -1
;
_chemical_formula_sum "Si O2"
_cell_formula_units_Z 16
_cell_length_a 11.263612
_cell_length_b 11.299646
_cell_length_c 12.146245
_cell_angle_alpha 125.588982
_cell_angle_beta 102.500623
_cell_angle_gamma 119.509150
_cell_volume 769.474511
_symmetry_space_group_name_H-M "P -1"
_symmetry_group_IT_number 2
_symmetry_cell_setting 'triclinic'
loop_
_space_group_symop_operation_xyz
x,y,z
-x,-y,-z
loop_
_atom_site_type_symbol
_atom_site_label
_atom_site_fract_x
_atom_site_fract_y
_atom_site_fract_z
Si Si1 0.149664 0.507571 0.839090
Si Si2 0.726191 0.180097 0.159220
Si Si3 0.686121 0.259262 0.422753
Si Si4 0.024443 0.216544 0.209587
Si Si5 0.256021 0.881830 0.197271
Si Si6 0.727543 0.074765 0.522648
Si Si7 0.057402 0.167749 0.938415
Si Si8 0.579876 0.424859 0.925716
O O1 0.174896 0.601930 0.775803
O O2 0.951679 0.232935 0.654244
O O3 0.141611 0.636123 0.992745
O O4 0.331382 0.585698 0.961298
O O5 0.753355 0.218265 0.315536
O O6 0.824215 0.121288 0.109349
O O7 0.500000 0.000000 0.000000
O O8 0.726094 0.215935 0.521965
O O9 0.811039 0.519954 0.575420
O O10 0.456440 0.075908 0.274701
O O11 0.995577 0.051726 0.192785
O O12 0.089775 0.229631 0.107808
O O13 0.315041 0.922752 0.358768
O O14 0.121191 0.896496 0.166776
O O15 0.580921 0.821654 0.303563
O O16 0.243274 0.378950 0.016581
O O17 0.500000 0.500000 0.000000
#
# Coordination Sequence:
#
# PCOD9065818 Si02
#       8
#     2   2   2   2   2   2   2   2
#     4  12  25  44  77 104 141 183 238 295 343 415
#     4  12  23  43  68 102 136 181 232 287 344 410
#     4  12  24  41  74 104 137 180 238 292 347 412
#     4  11  25  43  69 102 140 188 232 283 357 415
#     4  12  23  45  72 108 141 180 242 289 349 421
#     4  12  25  44  76 106 136 186 238 293 351 414
#     4  11  25  46  67  98 147 187 226 294 350 415
#     4  12  29  49  70 103 145 188 234 291 360 417
#
# _framework density 20.793410999999999
#
# number of rings (size 3 to 8) (size 9 to 14) (size 15 to 20)
#    0.000    0.250    6.250    1.875    5.250    1.000 
#    2.250    0.000    0.000    0.000    0.000    0.000 
#    0.000    0.000    0.000    0.000    0.000    0.000 
#
# Total GULP energy -89477.998010 kJ/mol
# GULP energy per Si atom -5592.374876 kJ/mol
# Density = 2.074608 g / cm^3
# Si number density = 20.793411 Si / 1000 Ang^3
#
#
#
# Elastic Constant Matrix: (Units=GPa)
#
#
# Indices 1 2 3 4 5 6 
#
# 1 117.6352 46.4765 32.3836 11.5573 7.3237 -2.0023
# 2 46.4765 87.9614 25.6757 -0.1862 1.3806 -3.9376
# 3 32.3836 25.6757 88.1853 16.1425 13.7574 -0.9906
# 4 11.5573 -0.1862 16.1425 38.5624 0.2002 0.4451
# 5 7.3237 1.3806 13.7574 0.2002 25.4425 1.8495
# 6 -2.0023 -3.9376 -0.9906 0.4451 1.8495 42.1214
#
#
#
# Elastic Compliance Matrix: (Units=1/GPa)
#
#
# Indices 1 2 3 4 5 6 
#
# 1 0.011598 -0.005566 -0.001819 -0.002732 -0.002039 0.000107
# 2 -0.005566 0.015301 -0.003362 0.003126 0.002497 0.000944
# 3 -0.001819 -0.003362 0.015225 -0.005809 -0.007506 0.000348
# 4 -0.002732 0.003126 -0.005809 0.029184 0.003560 -0.000439
# 5 -0.002039 0.002497 -0.007506 0.003560 0.043932 -0.002007
# 6 0.000107 0.000944 0.000348 -0.000439 -0.002007 0.023935
#
#
# Mechanical properties :
#
#
# Convention : Reuss Voigt Hill
#
# Bulk Modulus (GPa) = 48.47431 55.87261 52.17346
# Shear Modulus (GPa) = 29.84260 33.84166 31.84213
#
# Velocity S-wave (km/s) = 3.79251 4.03863 3.91750
# Velocity P-wave (km/s) = 6.52230 6.97682 6.75339
#
# Compressibility (1/GPa) = 0.02062948
#
# Stress axis : x y z
#
# Youngs Moduli (GPa) = 86.22266 65.35688 65.68184
#
# Poissons Ratio (x) = 0.36378 0.11947
# Poissons Ratio (y) = 0.47992 0.22082
# Poissons Ratio (z) = 0.15684 0.21972
#
# Static dielectric constant tensor:
#      x y z
#    x 1.748860 0.016340 0.023430 
#    y 0.016340 1.742010 -0.003010 
#    z 0.023430 -0.003010 1.763490 
# 
# From -- ./inp_files/428949.got.cif
#   From: 2010.05.17/outbox.cif.g08.bks.cpg/sg2_215_cif.got.tgz:428949.got - 2010.06.03 11:33:40.
