data_PCOD9065873
_publ_section_title
;
Structure prediction by ZEFSAII (Michael W. Deem and Ramdas Pophale) SiO2 
 PCOD9065873
Probable space group: P -1
;
_chemical_formula_sum "Si O2"
_cell_formula_units_Z 14
_cell_length_a 9.836840
_cell_length_b 5.199794
_cell_length_c 12.180134
_cell_angle_alpha 72.513235
_cell_angle_beta 83.841494
_cell_angle_gamma 88.901452
_cell_volume 590.731469
_symmetry_space_group_name_H-M "P -1"
_symmetry_group_IT_number 2
_symmetry_cell_setting 'triclinic'
loop_
_space_group_symop_operation_xyz
x,y,z
-x,-y,-z
loop_
_atom_site_type_symbol
_atom_site_label
_atom_site_fract_x
_atom_site_fract_y
_atom_site_fract_z
Si Si1 0.361144 0.007683 0.943850
Si Si2 0.336204 0.081109 0.595222
Si Si3 0.186947 0.908437 0.181959
Si Si4 0.132492 0.511826 0.560811
Si Si5 0.002046 0.377026 0.227228
Si Si6 0.706973 0.410358 0.183530
Si Si7 0.361973 0.860976 0.386571
O O1 0.352422 0.292804 0.846705
O O2 0.346523 0.759490 0.893941
O O3 0.500000 0.000000 0.000000
O O4 0.243653 0.988180 0.048248
O O5 0.201347 0.234168 0.628926
O O6 0.479036 0.207178 0.609744
O O7 0.334929 0.779061 0.685323
O O8 0.341373 0.073650 0.462287
O O9 0.108604 0.620842 0.212240
O O10 0.309114 0.922238 0.260789
O O11 0.079780 0.124501 0.206221
O O12 0.255697 0.635536 0.464949
O O13 0.000000 0.500000 0.500000
O O14 0.074943 0.682940 0.644062
O O15 0.871406 0.446136 0.155298
#
# Coordination Sequence:
#
# PCOD9065873 Si02
#       7
#     2   2   2   2   2   2   2
#     4  12  28  51  77 105 144 197 248 302 369 437
#     4  11  25  45  70 112 148 193 250 302 373 437
#     4  12  27  47  72 110 146 190 247 305 361 446
#     4  12  23  43  72 107 153 196 243 299 372 445
#     4  12  26  44  74 110 146 189 243 302 377 427
#     4  12  26  48  78 105 148 194 242 309 363 439
#     4  11  25  43  72 107 150 195 242 308 368 438
#
# _framework density 23.699432000000002
#
# number of rings (size 3 to 8) (size 9 to 14) (size 15 to 20)
#    0.000    0.286    2.857    6.000    0.000    5.714 
#    2.571    0.000    0.000    0.000    0.000    0.000 
#    0.000    0.000    0.000    0.000    0.000    0.000 
#
# Total GULP energy -78335.326543 kJ/mol
# GULP energy per Si atom -5595.380467 kJ/mol
# Density = 2.364549 g / cm^3
# Si number density = 23.699432 Si / 1000 Ang^3
#
#
#
# Elastic Constant Matrix: (Units=GPa)
#
#
# Indices 1 2 3 4 5 6 
#
# 1 142.0872 33.4582 14.4232 0.2058 21.7789 22.9497
# 2 33.4582 68.3002 4.7975 6.4646 -6.0840 11.2120
# 3 14.4232 4.7975 72.5295 11.5374 -13.8480 15.2939
# 4 0.2058 6.4646 11.5374 43.0106 5.6662 3.2696
# 5 21.7789 -6.0840 -13.8480 5.6662 48.8113 11.2935
# 6 22.9497 11.2120 15.2939 3.2696 11.2935 36.5593
#
#
#
# Elastic Compliance Matrix: (Units=1/GPa)
#
#
# Indices 1 2 3 4 5 6 
#
# 1 0.009597 -0.004891 -0.002558 0.002240 -0.005419 -0.001980
# 2 -0.004891 0.018809 0.002977 -0.004109 0.007190 -0.005797
# 3 -0.002558 0.002977 0.019013 -0.006094 0.009874 -0.009766
# 4 0.002240 -0.004109 -0.006094 0.026221 -0.006782 0.002153
# 5 -0.005419 0.007190 0.009874 -0.006782 0.030078 -0.011618
# 6 -0.001980 -0.005797 -0.009766 0.002153 -0.011618 0.037856
#
#
# Mechanical properties :
#
#
# Convention : Reuss Voigt Hill
#
# Bulk Modulus (GPa) = 25.99130 43.14163 34.56647
# Shear Modulus (GPa) = 30.61051 41.02543 35.81797
#
# Velocity S-wave (km/s) = 3.59780 4.16513 3.89182
# Velocity P-wave (km/s) = 5.31505 6.43228 5.90017
#
# Compressibility (1/GPa) = 0.03847441
#
# Stress axis : x y z
#
# Youngs Moduli (GPa) = 104.20371 53.16597 52.59530
#
# Poissons Ratio (x) = 0.26004 0.13455
# Poissons Ratio (y) = 0.50966 -0.15658
# Poissons Ratio (z) = 0.26658 -0.15828
#
# Static dielectric constant tensor:
#      x y z
#    x 1.910230 0.038410 0.029300 
#    y 0.038410 1.965150 -0.031630 
#    z 0.029300 -0.031630 1.943510 
# 
# From -- ./inp_files/360630.got.cif
#   From: 2010.05.17/outbox.cif.g08.bks.cpg/sg2_181_cif.got.tgz:360630.got - 2010.06.03 11:33:40.
