data_PCOD9065343
_publ_section_title
;
Structure prediction by ZEFSAII (Michael W. Deem and Ramdas Pophale) SiO2 
 PCOD9065343
Probable space group: P -1
;
_chemical_formula_sum "Si O2"
_cell_formula_units_Z 16
_cell_length_a 14.316334
_cell_length_b 14.478553
_cell_length_c 9.104299
_cell_angle_alpha 100.692144
_cell_angle_beta 83.167890
_cell_angle_gamma 29.321968
_cell_volume 737.584279
_symmetry_space_group_name_H-M "P -1"
_symmetry_group_IT_number 2
_symmetry_cell_setting 'triclinic'
loop_
_space_group_symop_operation_xyz
x,y,z
-x,-y,-z
loop_
_atom_site_type_symbol
_atom_site_label
_atom_site_fract_x
_atom_site_fract_y
_atom_site_fract_z
Si Si1 0.337722 0.788511 0.665373
Si Si2 0.872633 0.484871 0.724681
Si Si3 0.683006 0.603226 0.111513
Si Si4 0.088460 0.128821 0.060537
Si Si5 0.142605 0.768233 0.599248
Si Si6 0.419398 0.991452 0.902766
Si Si7 0.276097 0.228516 0.709718
Si Si8 0.803764 0.986228 0.534676
O O1 0.196584 0.823714 0.658151
O O2 0.607494 0.511724 0.548740
O O3 0.296020 0.901438 0.575658
O O4 0.244401 0.917089 0.870629
O O5 0.658973 0.716958 0.734034
O O6 0.040064 0.416721 0.724448
O O7 0.045094 0.247817 0.559760
O O8 0.747923 0.558821 0.916631
O O9 0.718331 0.669804 0.208253
O O10 0.862164 0.365213 0.077121
O O11 0.417832 0.815955 0.257396
O O12 0.998412 0.160055 0.230115
O O13 0.241615 0.082530 0.040731
O O14 0.983423 0.902820 0.525121
O O15 0.297261 0.145389 0.827299
O O16 0.500000 0.000000 0.000000
O O17 0.500000 0.000000 0.500000
#
# Coordination Sequence:
#
# PCOD9065343 Si02
#       8
#     2   2   2   2   2   2   2   2
#     4  11  24  48  69  99 135 177 220 275 346 395
#     4  12  24  44  68  95 137 180 223 275 329 398
#     4  12  23  42  68  95 136 179 218 276 329 389
#     4  12  24  45  72  96 138 181 220 273 342 395
#     4  11  26  44  72 101 134 170 225 285 328 404
#     4  12  25  42  69  99 133 179 223 273 329 389
#     4  12  25  43  64  97 136 179 224 272 328 390
#     4  12  24  43  69 101 131 175 224 272 340 394
#
# _framework density 21.692437000000002
#
# number of rings (size 3 to 8) (size 9 to 14) (size 15 to 20)
#    0.000    0.250    6.250    3.375    0.000    1.500 
#    0.000    0.625    0.000    0.000    0.000    0.000 
#    0.000    0.000    0.000    0.000    0.000    0.000 
#
# Total GULP energy -89639.432069 kJ/mol
# GULP energy per Si atom -5602.464504 kJ/mol
# Density = 2.164306 g / cm^3
# Si number density = 21.692437 Si / 1000 Ang^3
#
#
#
# Elastic Constant Matrix: (Units=GPa)
#
#
# Indices 1 2 3 4 5 6 
#
# 1 83.3723 28.9263 25.1778 22.8189 -2.6035 -16.2232
# 2 28.9263 43.7324 6.2312 14.2874 -8.1573 -4.9642
# 3 25.1778 6.2312 102.6190 19.5537 -3.4170 -1.2243
# 4 22.8189 14.2874 19.5537 27.6871 -0.8634 -2.7649
# 5 -2.6035 -8.1573 -3.4170 -0.8634 31.8663 8.0751
# 6 -16.2232 -4.9642 -1.2243 -2.7649 8.0751 34.9040
#
#
#
# Elastic Compliance Matrix: (Units=1/GPa)
#
#
# Indices 1 2 3 4 5 6 
#
# 1 0.020039 -0.009678 -0.002637 -0.008974 -0.003372 0.007914
# 2 -0.009678 0.033924 0.002750 -0.011452 0.008499 -0.002450
# 3 -0.002637 0.002750 0.011721 -0.007611 0.001911 -0.001468
# 4 -0.008974 -0.011452 -0.007611 0.054603 -0.002720 -0.001112
# 5 -0.003372 0.008499 0.001911 -0.002720 0.035630 -0.008750
# 6 0.007914 -0.002450 -0.001468 -0.001112 -0.008750 0.033865
#
#
# Mechanical properties :
#
#
# Convention : Reuss Voigt Hill
#
# Bulk Modulus (GPa) = 21.47936 38.93271 30.20603
# Shear Modulus (GPa) = 22.27870 30.18405 26.23137
#
# Velocity S-wave (km/s) = 3.20820 3.73427 3.48119
# Velocity P-wave (km/s) = 4.86278 6.04810 5.48754
#
# Compressibility (1/GPa) = 0.04655633
#
# Stress axis : x y z
#
# Youngs Moduli (GPa) = 49.90150 29.47750 85.31622
#
# Poissons Ratio (x) = 0.28528 0.22497
# Poissons Ratio (y) = 0.48293 -0.23465
# Poissons Ratio (z) = 0.13158 -0.08107
#
# Static dielectric constant tensor:
#      x y z
#    x 1.786590 -0.008290 0.009840 
#    y -0.008290 1.786960 0.000170 
#    z 0.009840 0.000170 1.755590 
# 
# From -- ./inp_files/315446.got.cif
#   From: 2010.05.17/outbox.cif.g08.bks.cpg/sg2_158_cif.got.tgz:315446.got - 2010.06.03 11:33:40.
