data_PCOD9065313
_publ_section_title
;
Structure prediction by ZEFSAII (Michael W. Deem and Ramdas Pophale) SiO2 
 PCOD9065313
Probable space group: P -1
;
_chemical_formula_sum "Si O2"
_cell_formula_units_Z 14
_cell_length_a 25.044806
_cell_length_b 24.945051
_cell_length_c 6.301269
_cell_angle_alpha 50.965108
_cell_angle_beta 128.931659
_cell_angle_gamma 168.625515
_cell_volume 601.526666
_symmetry_space_group_name_H-M "P -1"
_symmetry_group_IT_number 2
_symmetry_cell_setting 'triclinic'
loop_
_space_group_symop_operation_xyz
x,y,z
-x,-y,-z
loop_
_atom_site_type_symbol
_atom_site_label
_atom_site_fract_x
_atom_site_fract_y
_atom_site_fract_z
Si Si1 0.424119 0.117323 0.041249
Si Si2 0.042430 0.435052 0.766026
Si Si3 0.970000 0.047073 0.403378
Si Si4 0.760218 0.262653 0.156189
Si Si5 0.470356 0.546694 0.712296
Si Si6 0.559347 0.340142 0.442276
Si Si7 0.938851 0.159743 0.820002
O O1 0.194034 0.845041 0.034225
O O2 0.227005 0.964244 0.097567
O O3 0.688596 0.334355 0.252440
O O4 0.582060 0.323689 0.764001
O O5 0.196953 0.628756 0.854532
O O6 0.852854 0.293060 0.479266
O O7 0.218981 0.303018 0.538115
O O8 0.959642 0.099238 0.082210
O O9 0.000000 0.000000 0.500000
O O10 0.717766 0.804147 0.535626
O O11 0.000000 0.500000 0.000000
O O12 0.500000 0.000000 0.000000
O O13 0.432853 0.570072 0.730747
O O14 0.500000 0.500000 0.000000
O O15 0.774692 0.533448 0.313534
O O16 0.259612 0.028507 0.403611
#
# Coordination Sequence:
#
# PCOD9065313 Si02
#       7
#     2   2   2   2   2   2   2
#     4  12  26  47  72 106 158 194 248 302 372 444
#     4  11  26  46  76 112 152 200 240 306 366 436
#     4  12  24  43  69 100 139 182 245 314 373 439
#     4  11  24  47  80 114 151 191 249 299 360 436
#     4  12  24  43  69 100 139 182 245 314 373 439
#     4  12  26  45  71 102 142 194 247 304 374 442
#     4  12  26  45  71 102 142 194 247 304 374 442
#
# _framework density 23.274113
#
# number of rings (size 3 to 8) (size 9 to 14) (size 15 to 20)
#    0.000    0.286    1.429    7.714    2.000    6.857 
#    0.000    0.000    0.000    0.000    0.000    0.000 
#    0.000    0.000    0.000    0.000    0.000    0.000 
#
# Total GULP energy -78159.046573 kJ/mol
# GULP energy per Si atom -5582.789041 kJ/mol
# Density = 2.322114 g / cm^3
# Si number density = 23.274113 Si / 1000 Ang^3
#
#
#
# Elastic Constant Matrix: (Units=GPa)
#
#
# Indices 1 2 3 4 5 6 
#
# 1 128.2039 46.4040 37.0027 -2.6711 -2.7778 9.3585
# 2 46.4040 186.0089 34.2598 3.5681 2.4761 9.1895
# 3 37.0027 34.2598 72.0814 -7.3510 -4.6436 -6.7767
# 4 -2.6711 3.5681 -7.3510 43.9422 0.0388 -11.4556
# 5 -2.7778 2.4761 -4.6436 0.0388 26.1152 -4.3066
# 6 9.3585 9.1895 -6.7767 -11.4556 -4.3066 35.7629
#
#
#
# Elastic Compliance Matrix: (Units=1/GPa)
#
#
# Indices 1 2 3 4 5 6 
#
# 1 0.009946 -0.001380 -0.004904 -0.001026 -0.000265 -0.003538
# 2 -0.001380 0.006438 -0.002887 -0.001769 -0.001698 -0.002611
# 3 -0.004904 -0.002887 0.019327 0.005225 0.004484 0.007901
# 4 -0.001026 -0.001769 0.005225 0.026450 0.002681 0.010508
# 5 -0.000265 -0.001698 0.004484 0.002681 0.040385 0.007078
# 6 -0.003538 -0.002611 0.007901 0.010508 0.007078 0.035274
#
#
# Mechanical properties :
#
#
# Convention : Reuss Voigt Hill
#
# Bulk Modulus (GPa) = 57.57250 69.06967 63.32109
# Shear Modulus (GPa) = 30.87342 39.07259 34.97300
#
# Velocity S-wave (km/s) = 3.64608 4.10176 3.88062
# Velocity P-wave (km/s) = 6.52040 7.22313 6.88074
#
# Compressibility (1/GPa) = 0.01736940
#
# Stress axis : x y z
#
# Youngs Moduli (GPa) = 100.54082 155.33850 51.74023
#
# Poissons Ratio (x) = 0.21437 0.25375
# Poissons Ratio (y) = 0.13875 0.14935
# Poissons Ratio (z) = 0.49308 0.44840
#
# Static dielectric constant tensor:
#      x y z
#    x 1.880100 0.048000 0.215120 
#    y 0.048000 1.757180 -0.071360 
#    z 0.215120 -0.071360 1.824420 
# 
# From -- ./inp_files/127700.got.cif
#   From: 2010.05.17/outbox.cif.g08.bks.cpg/sg2_64_cif.got.tgz:127700.got - 2010.06.03 11:33:40.
