data_PCOD9065352
_publ_section_title
;
Structure prediction by ZEFSAII (Michael W. Deem and Ramdas Pophale) SiO2 
 PCOD9065352
Probable space group: P -1
;
_chemical_formula_sum "Si O2"
_cell_formula_units_Z 16
_cell_length_a 10.431997
_cell_length_b 19.923740
_cell_length_c 12.998491
_cell_angle_alpha 154.479006
_cell_angle_beta 139.706758
_cell_angle_gamma 39.704911
_cell_volume 720.221729
_symmetry_space_group_name_H-M "P -1"
_symmetry_group_IT_number 2
_symmetry_cell_setting 'triclinic'
loop_
_space_group_symop_operation_xyz
x,y,z
-x,-y,-z
loop_
_atom_site_type_symbol
_atom_site_label
_atom_site_fract_x
_atom_site_fract_y
_atom_site_fract_z
Si Si1 0.075705 0.917816 0.271569
Si Si2 0.946396 0.185836 0.260212
Si Si3 0.871859 0.372224 0.258404
Si Si4 0.335030 0.958328 0.674419
Si Si5 0.489167 0.341970 0.511773
Si Si6 0.520609 0.727786 0.825198
Si Si7 0.756964 0.538353 0.896440
Si Si8 0.719140 0.861937 0.431774
O O1 0.237824 0.883036 0.417021
O O2 0.136313 0.058630 0.439665
O O3 0.094115 0.765371 0.997622
O O4 0.849237 0.974756 0.263103
O O5 0.921268 0.290145 0.286063
O O6 0.724291 0.235673 0.251459
O O7 0.140408 0.195337 0.460644
O O8 0.000000 0.000000 0.000000
O O9 0.641497 0.491793 0.286836
O O10 0.000000 0.500000 0.500000
O O11 0.506833 0.815649 0.638773
O O12 0.418423 0.105026 0.889854
O O13 0.423018 0.322045 0.327116
O O14 0.709217 0.376581 0.683511
O O15 0.653833 0.589532 0.792283
O O16 0.671120 0.705342 0.137962
O O17 0.000000 0.500000 0.000000
O O18 0.500000 0.000000 0.500000
#
# Coordination Sequence:
#
# PCOD9065352 Si02
#       8
#     2   2   2   2   2   2   2   2
#     4  11  24  48  70 107 147 187 249 292 357 442
#     4  12  26  45  77 104 143 191 242 297 355 433
#     4  12  28  46  70 108 149 187 233 303 369 424
#     4  11  26  45  78 100 143 199 236 300 359 429
#     4  12  27  45  70 109 147 184 239 302 360 423
#     4  12  25  48  74 109 143 193 250 290 359 439
#     4  12  25  42  71 106 143 184 235 299 359 410
#     4  12  25  46  75 105 144 190 244 294 354 436
#
# _framework density 22.215382000000002
#
# number of rings (size 3 to 8) (size 9 to 14) (size 15 to 20)
#    0.000    0.250    3.750    5.250    5.250    1.500 
#    0.000    0.000    0.000    0.000    0.000    0.000 
#    0.000    0.000    0.000    0.000    0.000    0.000 
#
# Total GULP energy -89569.028930 kJ/mol
# GULP energy per Si atom -5598.064308 kJ/mol
# Density = 2.216482 g / cm^3
# Si number density = 22.215382 Si / 1000 Ang^3
#
#
#
# Elastic Constant Matrix: (Units=GPa)
#
#
# Indices 1 2 3 4 5 6 
#
# 1 78.1577 33.7775 32.4210 2.9449 -0.3467 2.4761
# 2 33.7775 99.1897 16.0014 7.9256 -9.7253 -6.1124
# 3 32.4210 16.0014 115.4063 2.8506 -6.7857 8.9775
# 4 2.9449 7.9256 2.8506 35.2276 6.5871 8.3251
# 5 -0.3467 -9.7253 -6.7857 6.5871 49.4837 -0.7931
# 6 2.4761 -6.1124 8.9775 8.3251 -0.7931 33.0899
#
#
#
# Elastic Compliance Matrix: (Units=1/GPa)
#
#
# Indices 1 2 3 4 5 6 
#
# 1 0.016774 -0.005376 -0.003971 0.000760 -0.001607 -0.001401
# 2 -0.005376 0.012808 -0.000295 -0.003895 0.003020 0.003900
# 3 -0.003971 -0.000295 0.010088 -0.000078 0.001269 -0.002444
# 4 0.000760 -0.003895 -0.000078 0.032310 -0.005216 -0.009009
# 5 -0.001607 0.003020 0.001269 -0.005216 0.021694 0.002166
# 6 -0.001401 0.003900 -0.002444 -0.009009 0.002166 0.034028
#
#
# Mechanical properties :
#
#
# Convention : Reuss Voigt Hill
#
# Bulk Modulus (GPa) = 49.05576 50.79482 49.92529
# Shear Modulus (GPa) = 32.51360 37.59718 35.05539
#
# Velocity S-wave (km/s) = 3.82980 4.11833 3.97669
# Velocity P-wave (km/s) = 6.45650 6.74749 6.60360
#
# Compressibility (1/GPa) = 0.02038497
#
# Stress axis : x y z
#
# Youngs Moduli (GPa) = 59.61621 78.07793 99.12510
#
# Poissons Ratio (x) = 0.41976 0.39365
# Poissons Ratio (y) = 0.32050 0.02926
# Poissons Ratio (z) = 0.23675 0.02305
#
# Static dielectric constant tensor:
#      x y z
#    x 2.027740 -0.145370 -0.094930 
#    y -0.145370 1.937730 0.136670 
#    z -0.094930 0.136670 1.925410 
# 
# From -- ./inp_files/403631.got.cif
#   From: 2010.05.17/outbox.cif.g08.bks.cpg/sg2_202_cif.got.tgz:403631.got - 2010.06.03 11:33:40.
