data_PCOD9065774
_publ_section_title
;
Structure prediction by ZEFSAII (Michael W. Deem and Ramdas Pophale) SiO2 
 PCOD9065774
Probable space group: P -1
;
_chemical_formula_sum "Si O2"
_cell_formula_units_Z 14
_cell_length_a 9.248465
_cell_length_b 8.597453
_cell_length_c 22.171036
_cell_angle_alpha 131.688431
_cell_angle_beta 150.339817
_cell_angle_gamma 59.949297
_cell_volume 637.102331
_symmetry_space_group_name_H-M "P -1"
_symmetry_group_IT_number 2
_symmetry_cell_setting 'triclinic'
loop_
_space_group_symop_operation_xyz
x,y,z
-x,-y,-z
loop_
_atom_site_type_symbol
_atom_site_label
_atom_site_fract_x
_atom_site_fract_y
_atom_site_fract_z
Si Si1 0.422173 0.241021 0.906431
Si Si2 0.094738 0.260006 0.149170
Si Si3 0.165016 0.445523 0.343626
Si Si4 0.796775 0.685478 0.356850
Si Si5 0.168356 0.028186 0.876983
Si Si6 0.343732 0.969075 0.689155
Si Si7 0.812393 0.635840 0.929175
O O1 0.195936 0.160327 0.858597
O O2 0.309024 0.116124 0.771944
O O3 0.500000 0.500000 0.000000
O O4 0.743595 0.173337 0.013766
O O5 0.164155 0.449374 0.271907
O O6 0.358303 0.127908 0.220139
O O7 0.095672 0.321412 0.095388
O O8 0.500000 0.500000 0.500000
O O9 0.972100 0.595757 0.343366
O O10 0.038802 0.203754 0.257539
O O11 0.532572 0.490193 0.229516
O O12 0.048979 0.783331 0.522707
O O13 0.650746 0.875987 0.326837
O O14 0.115920 0.158181 0.949897
O O15 0.500000 0.000000 0.000000
O O16 0.000000 0.500000 0.000000
#
# Coordination Sequence:
#
# PCOD9065774 Si02
#       7
#     2   2   2   2   2   2   2
#     4  12  25  46  71 106 145 191 245 302 367 433
#     4  12  25  42  73 103 143 187 245 295 358 434
#     4  12  26  46  71 107 145 194 242 301 368 432
#     4  11  25  47  69  99 152 189 240 301 368 431
#     4  12  24  43  71  99 141 187 239 297 356 429
#     4  11  25  42  72 104 138 196 240 300 363 434
#     4  12  27  44  71 109 143 186 245 305 361 432
#
# _framework density 21.974492999999999
#
# number of rings (size 3 to 8) (size 9 to 14) (size 15 to 20)
#    0.000    0.286    4.286    4.714    4.000    1.714 
#    0.000    0.000    0.000    6.000    0.000    0.000 
#    0.000    0.000    0.000    0.000    0.000    0.000 
#
# Total GULP energy -78227.808362 kJ/mol
# GULP energy per Si atom -5587.700597 kJ/mol
# Density = 2.192448 g / cm^3
# Si number density = 21.974493 Si / 1000 Ang^3
#
#
#
# Elastic Constant Matrix: (Units=GPa)
#
#
# Indices 1 2 3 4 5 6 
#
# 1 134.9587 42.6638 62.4579 -5.3782 -15.6287 0.6398
# 2 42.6638 122.2342 46.9906 -4.7401 -1.4769 -7.2676
# 3 62.4579 46.9906 166.5566 14.5526 -6.1587 0.3861
# 4 -5.3782 -4.7401 14.5526 34.8659 0.1942 -6.6530
# 5 -15.6287 -1.4769 -6.1587 0.1942 47.8311 7.8348
# 6 0.6398 -7.2676 0.3861 -6.6530 7.8348 31.7608
#
#
#
# Elastic Compliance Matrix: (Units=1/GPa)
#
#
# Indices 1 2 3 4 5 6 
#
# 1 0.010044 -0.002177 -0.003254 0.002428 0.002929 -0.000875
# 2 -0.002177 0.010113 -0.002320 0.002633 -0.001240 0.003244
# 3 -0.003254 -0.002320 0.008290 -0.004580 0.000210 -0.001577
# 4 0.002428 0.002633 -0.004580 0.032812 -0.001119 0.007759
# 5 0.002929 -0.001240 0.000210 -0.001119 0.022877 -0.006223
# 6 -0.000875 0.003244 -0.001577 0.007759 -0.006223 0.035425
#
#
# Mechanical properties :
#
#
# Convention : Reuss Voigt Hill
#
# Bulk Modulus (GPa) = 77.25315 80.88600 79.06958
# Shear Modulus (GPa) = 35.87367 41.00071 38.43719
#
# Velocity S-wave (km/s) = 4.04482 4.32421 4.18685
# Velocity P-wave (km/s) = 7.55290 7.86262 7.70931
#
# Compressibility (1/GPa) = 0.01294446
#
# Stress axis : x y z
#
# Youngs Moduli (GPa) = 99.56197 98.88417 120.62238
#
# Poissons Ratio (x) = 0.21529 0.39251
# Poissons Ratio (y) = 0.21677 0.27986
# Poissons Ratio (z) = 0.32398 0.22942
#
# Static dielectric constant tensor:
#      x y z
#    x 1.823510 0.017420 -0.014010 
#    y 0.017420 1.430940 -0.270150 
#    z -0.014010 -0.270150 1.660540 
# 
# From -- ./inp_files/588171.got.cif
#   From: 2010.05.17/outbox.cif.g08.bks.cpg/sg2_295_cif.got.tgz:588171.got - 2010.06.03 11:33:40.
