data_PCOD9065653
_publ_section_title
;
Structure prediction by ZEFSAII (Michael W. Deem and Ramdas Pophale) SiO2 
 PCOD9065653
Probable space group: P -1
;
_chemical_formula_sum "Si O2"
_cell_formula_units_Z 14
_cell_length_a 11.713438
_cell_length_b 9.586191
_cell_length_c 21.078376
_cell_angle_alpha 27.516375
_cell_angle_beta 141.582296
_cell_angle_gamma 139.855883
_cell_volume 659.234569
_symmetry_space_group_name_H-M "P -1"
_symmetry_group_IT_number 2
_symmetry_cell_setting 'triclinic'
loop_
_space_group_symop_operation_xyz
x,y,z
-x,-y,-z
loop_
_atom_site_type_symbol
_atom_site_label
_atom_site_fract_x
_atom_site_fract_y
_atom_site_fract_z
Si Si1 0.120539 0.714281 0.376827
Si Si2 0.535148 0.162449 0.164362
Si Si3 0.742824 0.924596 0.585923
Si Si4 0.552790 0.863204 0.719662
Si Si5 0.417076 0.751258 0.159986
Si Si6 0.918763 0.974843 0.403428
Si Si7 0.301400 0.217008 0.833439
O O1 0.158252 0.390483 0.500078
O O2 0.897529 0.694705 0.284316
O O3 0.189919 0.804705 0.442094
O O4 0.236218 0.991679 0.270849
O O5 0.471463 0.057584 0.249983
O O6 0.426221 0.925988 0.159861
O O7 0.754274 0.155977 0.256208
O O8 0.500000 0.500000 0.000000
O O9 0.664730 0.610530 0.717660
O O10 0.579276 0.991244 0.443115
O O11 0.915680 0.902256 0.624847
O O12 0.466612 0.493642 0.823646
O O13 0.624925 0.813363 0.193232
O O14 0.298330 0.905702 0.996665
O O15 0.000000 0.000000 0.500000
#
# Coordination Sequence:
#
# PCOD9065653 Si02
#       7
#     2   2   2   2   2   2   2
#     4  12  26  44  79 105 142 191 240 302 366 417
#     4  12  26  47  70 102 150 200 230 297 374 422
#     4  12  25  45  74 110 141 185 250 297 359 431
#     4  12  25  46  72 105 147 185 243 302 352 431
#     4  11  26  45  74 105 149 190 240 298 366 427
#     4  12  26  45  72 108 145 189 242 299 358 427
#     4  11  24  50  71 108 147 185 241 306 350 438
#
# _framework density 21.236750000000001
#
# number of rings (size 3 to 8) (size 9 to 14) (size 15 to 20)
#    0.000    0.286    5.714    2.571    4.000    2.857 
#    0.000    1.429    0.000    0.000    0.000    0.000 
#    0.000    0.000    0.000    0.000    0.000    0.000 
#
# Total GULP energy -78403.358466 kJ/mol
# GULP energy per Si atom -5600.239890 kJ/mol
# Density = 2.118841 g / cm^3
# Si number density = 21.236750 Si / 1000 Ang^3
#
#
#
# Elastic Constant Matrix: (Units=GPa)
#
#
# Indices 1 2 3 4 5 6 
#
# 1 139.4262 46.3434 33.9247 7.1396 -5.2692 -15.2225
# 2 46.3434 100.4232 39.9001 -7.7846 -4.7508 -20.4338
# 3 33.9247 39.9001 129.1991 -11.9478 2.2287 -3.8149
# 4 7.1396 -7.7846 -11.9478 20.6282 0.1394 -1.0193
# 5 -5.2692 -4.7508 2.2287 0.1394 43.6248 2.1432
# 6 -15.2225 -20.4338 -3.8149 -1.0193 2.1432 45.1227
#
#
#
# Elastic Compliance Matrix: (Units=1/GPa)
#
#
# Indices 1 2 3 4 5 6 
#
# 1 0.009291 -0.003751 -0.001780 -0.005612 0.000768 0.001122
# 2 -0.003751 0.014286 -0.002804 0.005308 0.000981 0.005040
# 3 -0.001780 -0.002804 0.009530 0.005039 -0.000979 -0.000905
# 4 -0.005612 0.005308 0.005039 0.055455 -0.000644 0.002220
# 5 0.000768 0.000981 -0.000979 -0.000644 0.023199 -0.000496
# 6 0.001122 0.005040 -0.000905 0.002220 -0.000496 0.024820
#
#
# Mechanical properties :
#
#
# Convention : Reuss Voigt Hill
#
# Bulk Modulus (GPa) = 60.84113 67.70942 64.27527
# Shear Modulus (GPa) = 31.49977 38.46716 34.98347
#
# Velocity S-wave (km/s) = 3.85550 4.26061 4.06311
# Velocity P-wave (km/s) = 6.96642 7.49374 7.23488
#
# Compressibility (1/GPa) = 0.01643625
#
# Stress axis : x y z
#
# Youngs Moduli (GPa) = 107.63098 69.99637 104.93419
#
# Poissons Ratio (x) = 0.26253 0.18682
# Poissons Ratio (y) = 0.40368 0.29429
# Poissons Ratio (z) = 0.19163 0.19630
#
# Static dielectric constant tensor:
#      x y z
#    x 1.760020 -0.005720 -0.000440 
#    y -0.005720 1.770930 -0.008710 
#    z -0.000440 -0.008710 1.754070 
# 
# From -- ./inp_files/593367.got.cif
#   From: 2010.05.17/outbox.cif.g08.bks.cpg/sg2_297_cif.got.tgz:593367.got - 2010.06.03 11:33:40.
