data_PCOD9065455
_publ_section_title
;
Structure prediction by ZEFSAII (Michael W. Deem and Ramdas Pophale) SiO2 
 PCOD9065455
Probable space group: P -1
;
_chemical_formula_sum "Si O2"
_cell_formula_units_Z 12
_cell_length_a 14.685287
_cell_length_b 14.575694
_cell_length_c 5.020017
_cell_angle_alpha 66.979094
_cell_angle_beta 77.208989
_cell_angle_gamma 28.614476
_cell_volume 455.148101
_symmetry_space_group_name_H-M "P -1"
_symmetry_group_IT_number 2
_symmetry_cell_setting 'triclinic'
loop_
_space_group_symop_operation_xyz
x,y,z
-x,-y,-z
loop_
_atom_site_type_symbol
_atom_site_label
_atom_site_fract_x
_atom_site_fract_y
_atom_site_fract_z
Si Si1 0.618133 0.486911 0.723530
Si Si2 0.812165 0.143393 0.636202
Si Si3 0.781243 0.747943 0.363655
Si Si4 0.715366 0.524785 0.120839
Si Si5 0.473486 0.896396 0.508534
Si Si6 0.840154 0.895530 0.842409
O O1 0.763409 0.262819 0.776484
O O2 0.392326 0.665267 0.620121
O O3 0.663221 0.486918 0.984682
O O4 0.660692 0.536764 0.431295
O O5 0.000000 0.000000 0.500000
O O6 0.843841 0.998520 0.867753
O O7 0.630192 0.802214 0.318478
O O8 0.789590 0.845703 0.101121
O O9 0.000000 0.500000 0.500000
O O10 0.685802 0.869708 0.569140
O O11 0.599779 0.729297 0.854621
O O12 0.949084 0.320522 0.183284
O O13 0.335398 0.938495 0.444595
#
# Coordination Sequence:
#
# PCOD9065455 Si02
#       6
#     2   2   2   2   2   2
#     4  11  27  50  75 114 159 203 256 315 378 455
#     4  11  24  48  74 115 150 209 252 318 377 459
#     4  11  25  48  74 110 148 200 256 320 387 459
#     4  12  26  50  81 114 156 207 254 316 384 460
#     4  11  26  48  75 110 150 200 252 324 384 454
#     4  12  25  47  76 108 151 202 254 314 384 456
#
# _framework density 26.365047000000001
#
# number of rings (size 3 to 8) (size 9 to 14) (size 15 to 20)
#    0.000    0.667    5.000    1.500    2.333    4.000 
#    6.000    0.000    0.000    0.000    0.000    0.000 
#    0.000    0.000    0.000    0.000    0.000    0.000 
#
# Total GULP energy -67295.213050 kJ/mol
# GULP energy per Si atom -5607.934421 kJ/mol
# Density = 2.630504 g / cm^3
# Si number density = 26.365047 Si / 1000 Ang^3
#
#
#
# Elastic Constant Matrix: (Units=GPa)
#
#
# Indices 1 2 3 4 5 6 
#
# 1 144.3799 56.9382 34.1332 -9.2190 -26.9218 -14.7547
# 2 56.9382 203.4117 25.2347 -25.5375 -6.8706 -26.9895
# 3 34.1332 25.2347 72.7015 -11.0670 -32.1113 -11.0735
# 4 -9.2190 -25.5375 -11.0670 34.9200 4.1106 -6.7500
# 5 -26.9218 -6.8706 -32.1113 4.1106 52.0806 -2.7342
# 6 -14.7547 -26.9895 -11.0735 -6.7500 -2.7342 66.8792
#
#
#
# Elastic Compliance Matrix: (Units=1/GPa)
#
#
# Indices 1 2 3 4 5 6 
#
# 1 0.008863 -0.001997 -0.001895 0.000091 0.003194 0.000975
# 2 -0.001997 0.006421 -0.000550 0.004564 -0.000754 0.002490
# 3 -0.001895 -0.000550 0.021553 0.005276 0.012028 0.003953
# 4 0.000091 0.004564 0.005276 0.034713 0.001494 0.006300
# 5 0.003194 -0.000754 0.012028 0.001494 0.028245 0.003697
# 6 0.000975 0.002490 0.003953 0.006300 0.003697 0.017614
#
#
# Mechanical properties :
#
#
# Convention : Reuss Voigt Hill
#
# Bulk Modulus (GPa) = 35.77388 72.56725 54.17057
# Shear Modulus (GPa) = 36.87010 51.05506 43.96258
#
# Velocity S-wave (km/s) = 3.74364 4.40531 4.08788
# Velocity P-wave (km/s) = 5.68195 7.31159 6.54767
#
# Compressibility (1/GPa) = 0.02795336
#
# Stress axis : x y z
#
# Youngs Moduli (GPa) = 112.83276 155.73235 46.39620
#
# Poissons Ratio (x) = 0.31099 0.08791
# Poissons Ratio (y) = 0.22532 0.02553
# Poissons Ratio (z) = 0.21379 0.08570
#
# Static dielectric constant tensor:
#      x y z
#    x 2.134270 0.085390 0.017060 
#    y 0.085390 2.038200 -0.000390 
#    z 0.017060 -0.000390 2.100160 
# 
# From -- ./inp_files/97695.got.cif
#   From: 2010.05.17/outbox.cif.g08.bks.cpg/sg2_49_cif.got.tgz:97695.got - 2010.06.03 11:33:40.
