data_PCOD9065806
_publ_section_title
;
Structure prediction by ZEFSAII (Michael W. Deem and Ramdas Pophale) SiO2 
 PCOD9065806
Probable space group: P -1
;
_chemical_formula_sum "Si O2"
_cell_formula_units_Z 12
_cell_length_a 9.419862
_cell_length_b 9.354723
_cell_length_c 11.771331
_cell_angle_alpha 90.592592
_cell_angle_beta 62.654964
_cell_angle_gamma 134.393651
_cell_volume 573.915716
_symmetry_space_group_name_H-M "P -1"
_symmetry_group_IT_number 2
_symmetry_cell_setting 'triclinic'
loop_
_space_group_symop_operation_xyz
x,y,z
-x,-y,-z
loop_
_atom_site_type_symbol
_atom_site_label
_atom_site_fract_x
_atom_site_fract_y
_atom_site_fract_z
Si Si1 0.581095 0.214125 0.938034
Si Si2 0.784411 0.958987 0.132503
Si Si3 0.404165 0.572826 0.685559
Si Si4 0.399181 0.336951 0.143222
Si Si5 0.821469 0.840231 0.341984
Si Si6 0.098869 0.631440 0.845554
O O1 0.883575 0.453353 0.827498
O O2 0.433063 0.166970 0.882005
O O3 0.484678 0.239198 0.078577
O O4 0.500000 0.000000 0.000000
O O5 0.875844 0.182520 0.136447
O O6 0.689166 0.826976 0.284571
O O7 0.000000 0.000000 0.000000
O O8 0.470330 0.546885 0.782491
O O9 0.649776 0.728082 0.515637
O O10 0.175849 0.322025 0.706577
O O11 0.332237 0.689160 0.727706
O O12 0.500000 0.500000 0.000000
O O13 0.092382 0.109165 0.260341
O O14 0.000000 0.500000 0.000000
#
# Coordination Sequence:
#
# PCOD9065806 Si02
#       6
#     2   2   2   2   2   2
#     4  12  23  37  64 100 130 168 220 278 334 389
#     4  12  24  41  66  99 131 174 229 279 329 400
#     4  11  25  45  64  98 140 181 222 275 349 398
#     4  12  23  39  70 100 129 175 230 279 326 407
#     4  11  25  43  67  96 139 181 221 283 336 405
#     4  12  23  40  66  96 135 175 221 279 338 402
#
# _framework density 20.908992000000001
#
# number of rings (size 3 to 8) (size 9 to 14) (size 15 to 20)
#    0.000    0.333    5.000    4.500    0.000    0.667 
#    0.000    0.833    0.000    0.000    0.000    0.000 
#    0.000    0.000    0.000    0.000    0.000    0.000 
#
# Total GULP energy -66987.250729 kJ/mol
# GULP energy per Si atom -5582.270894 kJ/mol
# Density = 2.086140 g / cm^3
# Si number density = 20.908992 Si / 1000 Ang^3
#
#
#
# Elastic Constant Matrix: (Units=GPa)
#
#
# Indices 1 2 3 4 5 6 
#
# 1 121.8003 52.1357 41.0366 12.4218 4.9588 10.0871
# 2 52.1357 139.1151 39.7198 8.1433 -8.6628 -8.0236
# 3 41.0366 39.7198 102.7691 10.3066 12.5040 0.8137
# 4 12.4218 8.1433 10.3066 30.2292 0.9040 -5.4278
# 5 4.9588 -8.6628 12.5040 0.9040 24.5911 0.4184
# 6 10.0871 -8.0236 0.8137 -5.4278 0.4184 56.0693
#
#
#
# Elastic Compliance Matrix: (Units=1/GPa)
#
#
# Indices 1 2 3 4 5 6 
#
# 1 0.011240 -0.003603 -0.002493 -0.003238 -0.002102 -0.002799
# 2 -0.003603 0.009901 -0.003113 0.000075 0.005759 0.002075
# 3 -0.002493 -0.003113 0.013044 -0.002437 -0.007130 -0.000369
# 4 -0.003238 0.000075 -0.002437 0.035943 0.000528 0.004104
# 5 -0.002102 0.005759 -0.007130 0.000528 0.046707 0.001008
# 6 -0.002799 0.002075 -0.000369 0.004104 0.001008 0.019031
#
#
# Mechanical properties :
#
#
# Convention : Reuss Voigt Hill
#
# Bulk Modulus (GPa) = 63.42203 69.94095 66.68149
# Shear Modulus (GPa) = 31.34012 37.56409 34.45211
#
# Velocity S-wave (km/s) = 3.87574 4.24317 4.06361
# Velocity P-wave (km/s) = 7.10118 7.58478 7.34696
#
# Compressibility (1/GPa) = 0.01576739
#
# Stress axis : x y z
#
# Youngs Moduli (GPa) = 88.96699 100.99638 76.66384
#
# Poissons Ratio (x) = 0.36393 0.19112
# Poissons Ratio (y) = 0.32059 0.23863
# Poissons Ratio (z) = 0.22179 0.31436
#
# Static dielectric constant tensor:
#      x y z
#    x 1.546710 -0.469760 0.179270 
#    y -0.469760 0.947550 0.367810 
#    z 0.179270 0.367810 1.560280 
# 
# From -- ./inp_files/198866.got.cif
#   From: 2010.05.17/outbox.cif.g08.bks.cpg/sg2_100_cif.got.tgz:198866.got - 2010.06.03 11:33:40.
