data_PCOD9065696
_publ_section_title
;
Structure prediction by ZEFSAII (Michael W. Deem and Ramdas Pophale) SiO2 
 PCOD9065696
Probable space group: P -1
;
_chemical_formula_sum "Si O2"
_cell_formula_units_Z 12
_cell_length_a 13.488025
_cell_length_b 9.368465
_cell_length_c 5.009684
_cell_angle_alpha 76.611550
_cell_angle_beta 124.973056
_cell_angle_gamma 114.292487
_cell_volume 472.785151
_symmetry_space_group_name_H-M "P -1"
_symmetry_group_IT_number 2
_symmetry_cell_setting 'triclinic'
loop_
_space_group_symop_operation_xyz
x,y,z
-x,-y,-z
loop_
_atom_site_type_symbol
_atom_site_label
_atom_site_fract_x
_atom_site_fract_y
_atom_site_fract_z
Si Si1 0.665097 0.172026 0.183521
Si Si2 0.904185 0.447643 0.621925
Si Si3 0.818205 0.708342 0.559125
Si Si4 0.465381 0.316772 0.973451
Si Si5 0.097403 0.118781 0.897446
Si Si6 0.649961 0.966222 0.731872
O O1 0.806139 0.274169 0.476926
O O2 0.574459 0.277467 0.993081
O O3 0.609988 0.032576 0.373963
O O4 0.673018 0.093843 0.947845
O O5 0.809053 0.544258 0.491953
O O6 0.000000 0.500000 0.500000
O O7 0.000000 0.500000 0.000000
O O8 0.681550 0.734803 0.340763
O O9 0.916691 0.831622 0.449910
O O10 0.864216 0.725392 0.926965
O O11 0.500000 0.500000 0.000000
O O12 0.446221 0.203883 0.250158
O O13 0.215698 0.057813 0.093834
O O14 0.000000 0.000000 0.000000
#
# Coordination Sequence:
#
# PCOD9065696 Si02
#       6
#     2   2   2   2   2   2
#     4  12  26  49  76 106 147 193 235 304 358 425
#     4  12  27  46  72 105 147 190 241 292 357 431
#     4  11  25  47  70 108 136 189 246 294 350 430
#     4  11  24  51  75 106 147 187 245 298 361 430
#     4  11  25  44  73 100 148 187 236 295 358 429
#     4  11  26  46  74 112 141 188 245 294 365 425
#
# _framework density 25.381508
#
# number of rings (size 3 to 8) (size 9 to 14) (size 15 to 20)
#    0.000    0.667    1.667    5.500    7.000    2.667 
#    0.000    8.333    0.000    0.000    0.000    0.000 
#    0.000    0.000    0.000    0.000    0.000    0.000 
#
# Total GULP energy -67136.032749 kJ/mol
# GULP energy per Si atom -5594.669396 kJ/mol
# Density = 2.532374 g / cm^3
# Si number density = 25.381508 Si / 1000 Ang^3
#
#
#
# Elastic Constant Matrix: (Units=GPa)
#
#
# Indices 1 2 3 4 5 6 
#
# 1 147.1104 46.0909 47.7770 17.2287 -24.8734 -14.6561
# 2 46.0909 108.5874 20.5068 20.9651 -9.0675 -13.3888
# 3 47.7770 20.5068 142.7677 6.1680 -39.6135 -1.7980
# 4 17.2287 20.9651 6.1680 28.8550 -5.3170 7.2419
# 5 -24.8734 -9.0675 -39.6135 -5.3170 39.4280 10.5961
# 6 -14.6561 -13.3888 -1.7980 7.2419 10.5961 49.3099
#
#
#
# Elastic Compliance Matrix: (Units=1/GPa)
#
#
# Indices 1 2 3 4 5 6 
#
# 1 0.009165 -0.002443 -0.001901 -0.003361 0.002323 0.001986
# 2 -0.002443 0.012550 -0.001157 -0.008931 -0.002211 0.004426
# 3 -0.001901 -0.001157 0.010503 0.002379 0.010225 -0.003043
# 4 -0.003361 -0.008931 0.002379 0.047065 0.007766 -0.011918
# 5 0.002323 -0.002211 0.010225 0.007766 0.040140 -0.009303
# 6 0.001986 0.004426 -0.003043 -0.011918 -0.009303 0.025711
#
#
# Mechanical properties :
#
#
# Convention : Reuss Voigt Hill
#
# Bulk Modulus (GPa) = 47.13792 69.69054 58.41423
# Shear Modulus (GPa) = 30.63561 42.45797 36.54679
#
# Velocity S-wave (km/s) = 3.47797 4.09441 3.79872
# Velocity P-wave (km/s) = 5.89410 7.06181 6.50421
#
# Compressibility (1/GPa) = 0.02121434
#
# Stress axis : x y z
#
# Youngs Moduli (GPa) = 109.11353 79.68062 95.21081
#
# Poissons Ratio (x) = 0.19469 0.18103
# Poissons Ratio (y) = 0.26660 0.11016
# Poissons Ratio (z) = 0.20747 0.09219
#
# Static dielectric constant tensor:
#      x y z
#    x 1.908360 -0.038830 0.013330 
#    y -0.038830 1.993330 -0.025070 
#    z 0.013330 -0.025070 1.978850 
# 
# From -- ./inp_files/86242.got.cif
#   From: 2010.05.17/outbox.cif.g08.bks.cpg/sg2_44_cif.got.tgz:86242.got - 2010.06.03 11:33:40.
