data_PCOD9065694
_publ_section_title
;
Structure prediction by ZEFSAII (Michael W. Deem and Ramdas Pophale) SiO2 
 PCOD9065694
Probable space group: P -1
;
_chemical_formula_sum "Si O2"
_cell_formula_units_Z 16
_cell_length_a 14.102639
_cell_length_b 6.879843
_cell_length_c 12.005100
_cell_angle_alpha 135.024066
_cell_angle_beta 80.139098
_cell_angle_gamma 115.644598
_cell_volume 725.359530
_symmetry_space_group_name_H-M "P -1"
_symmetry_group_IT_number 2
_symmetry_cell_setting 'triclinic'
loop_
_space_group_symop_operation_xyz
x,y,z
-x,-y,-z
loop_
_atom_site_type_symbol
_atom_site_label
_atom_site_fract_x
_atom_site_fract_y
_atom_site_fract_z
Si Si1 0.415192 0.612241 0.217052
Si Si2 0.567682 0.312431 0.405786
Si Si3 0.139119 0.717471 0.597098
Si Si4 0.241524 0.336762 0.322615
Si Si5 0.729631 0.670932 0.077982
Si Si6 0.889747 0.370392 0.895022
Si Si7 0.429061 0.659509 0.836690
Si Si8 0.953062 0.240747 0.583605
O O1 0.307243 0.513624 0.272137
O O2 0.493805 0.504341 0.222736
O O3 0.489881 0.970891 0.325227
O O4 0.364237 0.446943 0.043753
O O5 0.500000 0.500000 0.500000
O O6 0.670101 0.508832 0.537973
O O7 0.600345 0.321066 0.275653
O O8 0.153573 0.440782 0.423552
O O9 0.126426 0.890892 0.559963
O O10 0.042078 0.553896 0.636698
O O11 0.231834 0.973196 0.755812
O O12 0.191291 0.969219 0.178991
O O13 0.674273 0.490525 0.127031
O O14 0.828115 0.586874 0.997097
O O15 0.912093 0.313310 0.738165
O O16 0.000000 0.500000 0.000000
O O17 0.500000 0.000000 0.000000
O O18 0.000000 0.000000 0.500000
#
# Coordination Sequence:
#
# PCOD9065694 Si02
#       8
#     2   2   2   2   2   2   2   2
#     4  12  26  49  71 109 154 190 242 300 362 436
#     4  12  26  46  73 104 145 196 241 298 358 428
#     4  11  27  44  75 108 136 191 244 295 361 424
#     4  12  26  46  75 109 144 195 245 293 363 436
#     4  12  27  45  74 111 148 193 241 296 368 434
#     4  12  28  49  76 106 148 195 241 304 367 432
#     4  12  26  47  72 104 153 190 241 298 362 434
#     4  11  24  51  73  99 145 184 245 308 355 419
#
# _framework density 22.058026999999999
#
# number of rings (size 3 to 8) (size 9 to 14) (size 15 to 20)
#    0.000    0.250    3.750    4.500    8.750    1.500 
#    0.000    0.000    0.000    0.000    0.000    0.000 
#    0.000    0.000    0.000    0.000    0.000    0.000 
#
# Total GULP energy -89409.590427 kJ/mol
# GULP energy per Si atom -5588.099402 kJ/mol
# Density = 2.200782 g / cm^3
# Si number density = 22.058027 Si / 1000 Ang^3
#
#
#
# Elastic Constant Matrix: (Units=GPa)
#
#
# Indices 1 2 3 4 5 6 
#
# 1 43.8899 24.7726 10.4721 -3.4501 1.9707 6.5293
# 2 24.7726 114.7883 41.0840 -13.2371 11.4380 13.1717
# 3 10.4721 41.0840 93.7166 2.0621 24.1638 5.3406
# 4 -3.4501 -13.2371 2.0621 35.8390 1.5820 -11.1336
# 5 1.9707 11.4380 24.1638 1.5820 51.1864 -3.5913
# 6 6.5293 13.1717 5.3406 -11.1336 -3.5913 40.6318
#
#
#
# Elastic Compliance Matrix: (Units=1/GPa)
#
#
# Indices 1 2 3 4 5 6 
#
# 1 0.026205 -0.005213 -0.000565 -0.000147 0.000254 -0.002465
# 2 -0.005213 0.012150 -0.004595 0.003808 -0.000568 -0.001504
# 3 -0.000565 -0.004595 0.014388 -0.002820 -0.005768 -0.001593
# 4 -0.000147 0.003808 -0.002820 0.031912 0.000055 0.007909
# 5 0.000254 -0.000568 -0.005768 0.000055 0.022579 0.002912
# 6 -0.002465 -0.001504 -0.001593 0.007909 0.002912 0.028129
#
#
# Mechanical properties :
#
#
# Convention : Reuss Voigt Hill
#
# Bulk Modulus (GPa) = 31.25289 45.00581 38.12935
# Shear Modulus (GPa) = 29.98068 37.26917 33.62493
#
# Velocity S-wave (km/s) = 3.69070 4.11493 3.90857
# Velocity P-wave (km/s) = 5.68866 6.55931 6.13944
#
# Compressibility (1/GPa) = 0.03199704
#
# Stress axis : x y z
#
# Youngs Moduli (GPa) = 38.16079 82.30687 69.50097
#
# Poissons Ratio (x) = 0.42903 0.03926
# Poissons Ratio (y) = 0.19892 0.31938
# Poissons Ratio (z) = 0.02156 0.37823
#
# Static dielectric constant tensor:
#      x y z
#    x 1.777620 0.108990 0.017100 
#    y 0.108990 1.556470 -0.014450 
#    z 0.017100 -0.014450 1.889840 
# 
# From -- ./inp_files/398864.got.cif
#   From: 2010.05.17/outbox.cif.g08.bks.cpg/sg2_200_cif.got.tgz:398864.got - 2010.06.03 11:33:40.
