data_PCOD9065733
_publ_section_title
;
Structure prediction by ZEFSAII (Michael W. Deem and Ramdas Pophale) SiO2 
 PCOD9065733
Probable space group: P -1
;
_chemical_formula_sum "Si O2"
_cell_formula_units_Z 15
_cell_length_a 11.221711
_cell_length_b 8.948795
_cell_length_c 9.724018
_cell_angle_alpha 39.294653
_cell_angle_beta 91.305296
_cell_angle_gamma 91.609122
_cell_volume 618.177118
_symmetry_space_group_name_H-M "P -1"
_symmetry_group_IT_number 2
_symmetry_cell_setting 'triclinic'
loop_
_space_group_symop_operation_xyz
x,y,z
-x,-y,-z
loop_
_atom_site_type_symbol
_atom_site_label
_atom_site_fract_x
_atom_site_fract_y
_atom_site_fract_z
Si Si1 0.125924 0.467390 0.600200
Si Si2 0.500000 0.500000 0.000000
Si Si3 0.798254 0.806703 0.627136
Si Si4 0.397987 0.829073 0.558289
Si Si5 0.111492 0.002778 0.778884
Si Si6 0.327075 0.674278 0.083934
Si Si7 0.320969 0.855720 0.246742
Si Si8 0.138903 0.249958 0.026742
O O1 0.156977 0.205383 0.738944
O O2 0.216556 0.660374 0.408711
O O3 0.000000 0.500000 0.500000
O O4 0.124051 0.464160 0.767736
O O5 0.415987 0.581534 0.808156
O O6 0.572628 0.318390 0.033450
O O7 0.886913 0.886383 0.452653
O O8 0.708560 0.604842 0.708601
O O9 0.851068 0.703321 0.843426
O O10 0.723253 0.034651 0.507636
O O11 0.409458 0.818131 0.402394
O O12 0.500000 0.000000 0.500000
O O13 0.980614 0.909965 0.880350
O O14 0.207252 0.798811 0.940762
O O15 0.366268 0.797583 0.138175
O O16 0.255321 0.103399 0.091223
#
# Coordination Sequence:
#
# PCOD9065733 Si02
#       8
#     2   1   2   2   2   2   2   2
#     4  12  23  41  69 104 146 187 222 282 341 416
#     4  12  26  46  72  98 138 174 230 300 352 394
#     4  11  25  43  68  98 142 182 232 286 348 407
#     4  11  25  48  72  98 135 180 238 299 348 407
#     4  12  23  42  68 104 143 185 230 278 341 420
#     4  12  25  45  70 102 136 184 231 292 345 414
#     4  11  25  44  73 103 137 184 234 281 354 416
#     4  11  25  41  68 104 143 182 230 281 341 419
#
# _framework density 24.264889
#
# number of rings (size 3 to 8) (size 9 to 14) (size 15 to 20)
#    0.000    0.533    6.667    1.600    1.867    1.067 
#    0.000    0.667    0.000    0.000    0.000    0.000 
#    0.000    0.000    0.000    0.000    0.000    0.000 
#
# Total GULP energy -83732.767184 kJ/mol
# GULP energy per Si atom -5582.184479 kJ/mol
# Density = 2.420966 g / cm^3
# Si number density = 24.264889 Si / 1000 Ang^3
#
#
#
# Elastic Constant Matrix: (Units=GPa)
#
#
# Indices 1 2 3 4 5 6 
#
# 1 38.6315 27.7313 17.2860 5.3413 9.3817 0.7714
# 2 27.7313 95.3817 25.6093 20.7856 4.5169 2.5569
# 3 17.2860 25.6093 103.6481 32.2590 23.7654 -12.3032
# 4 5.3413 20.7856 32.2590 60.8435 0.7427 -0.5131
# 5 9.3817 4.5169 23.7654 0.7427 40.7800 1.3309
# 6 0.7714 2.5569 -12.3032 -0.5131 1.3309 32.0599
#
#
#
# Elastic Compliance Matrix: (Units=1/GPa)
#
#
# Indices 1 2 3 4 5 6 
#
# 1 0.035107 -0.009527 -0.002962 0.001800 -0.005296 -0.000973
# 2 -0.009527 0.014340 -0.001474 -0.003314 0.001575 -0.001598
# 3 -0.002962 -0.001474 0.015391 -0.007243 -0.008199 0.006319
# 4 0.001800 -0.003314 -0.007243 0.021183 0.003866 -0.002380
# 5 -0.005296 0.001575 -0.008199 0.003866 0.030415 -0.004345
# 6 -0.000973 -0.001598 0.006319 -0.002380 -0.004345 0.033910
#
#
# Mechanical properties :
#
#
# Convention : Reuss Voigt Hill
#
# Bulk Modulus (GPa) = 27.09187 42.10161 34.59674
# Shear Modulus (GPa) = 26.23641 37.87233 32.05437
#
# Velocity S-wave (km/s) = 3.29180 3.95497 3.63852
# Velocity P-wave (km/s) = 5.06332 6.18419 5.65161
#
# Compressibility (1/GPa) = 0.03691144
#
# Stress axis : x y z
#
# Youngs Moduli (GPa) = 28.48466 69.73427 64.97490
#
# Poissons Ratio (x) = 0.66435 0.19248
# Poissons Ratio (y) = 0.27137 0.09575
# Poissons Ratio (z) = 0.08438 0.10277
#
# Static dielectric constant tensor:
#      x y z
#    x 1.924950 0.016150 -0.018610 
#    y 0.016150 1.955080 -0.029230 
#    z -0.018610 -0.029230 2.014630 
# 
# From -- ./inp_files/188079.got.cif
#   From: 2010.05.17/outbox.cif.g08.bks.cpg/sg2_95_cif.got.tgz:188079.got - 2010.06.03 11:33:40.
