data_PCOD9065420
_publ_section_title
;
Structure prediction by ZEFSAII (Michael W. Deem and Ramdas Pophale) SiO2 
 PCOD9065420
Probable space group: P -1
;
_chemical_formula_sum "Si O2"
_cell_formula_units_Z 16
_cell_length_a 11.487708
_cell_length_b 9.070138
_cell_length_c 15.182180
_cell_angle_alpha 120.159663
_cell_angle_beta 58.973674
_cell_angle_gamma 70.149936
_cell_volume 690.893636
_symmetry_space_group_name_H-M "P -1"
_symmetry_group_IT_number 2
_symmetry_cell_setting 'triclinic'
loop_
_space_group_symop_operation_xyz
x,y,z
-x,-y,-z
loop_
_atom_site_type_symbol
_atom_site_label
_atom_site_fract_x
_atom_site_fract_y
_atom_site_fract_z
Si Si1 0.345359 0.072010 0.404486
Si Si2 0.725411 0.240646 0.395478
Si Si3 0.735808 0.807849 0.723316
Si Si4 0.614084 0.667834 0.877332
Si Si5 0.054264 0.405265 0.187427
Si Si6 0.628796 0.332030 0.664744
Si Si7 0.115325 0.958746 0.030598
Si Si8 0.797525 0.764175 0.221618
O O1 0.291204 0.936697 0.419061
O O2 0.561406 0.920813 0.328843
O O3 0.391886 0.030320 0.270419
O O4 0.122963 0.415945 0.608724
O O5 0.500000 0.500000 0.500000
O O6 0.702057 0.307466 0.528792
O O7 0.936391 0.117437 0.227413
O O8 0.769736 0.994072 0.301113
O O9 0.643473 0.743229 0.797496
O O10 0.000000 0.500000 0.500000
O O11 0.643355 0.055059 0.897697
O O12 0.776160 0.609516 0.863376
O O13 0.690458 0.403166 0.739327
O O14 0.163768 0.109859 0.041534
O O15 0.882308 0.617445 0.238802
O O16 0.350501 0.620862 0.856145
O O17 0.000000 0.000000 0.000000
O O18 0.000000 0.500000 0.000000
#
# Coordination Sequence:
#
# PCOD9065420 Si02
#       8
#     2   2   2   2   2   2   2   2
#     4  12  26  47  75 107 148 192 241 305 371 433
#     4  12  26  45  71 108 147 190 238 306 368 432
#     4  11  24  48  73 106 141 196 245 298 362 428
#     4  11  27  47  76 107 147 195 254 292 360 449
#     4  12  25  49  73 107 148 195 242 300 364 443
#     4  12  28  47  69 112 150 190 246 303 363 435
#     4  12  25  45  74 107 146 189 246 302 367 433
#     4  12  26  46  75 107 146 192 242 301 376 437
#
# _framework density 23.158414
#
# number of rings (size 3 to 8) (size 9 to 14) (size 15 to 20)
#    0.000    0.250    3.750    5.625    3.500    1.000 
#    0.000    0.000    0.000    0.000    0.000    0.000 
#    0.000    0.000    0.000    0.000    0.000    0.000 
#
# Total GULP energy -89501.515462 kJ/mol
# GULP energy per Si atom -5593.844716 kJ/mol
# Density = 2.310570 g / cm^3
# Si number density = 23.158414 Si / 1000 Ang^3
#
#
#
# Elastic Constant Matrix: (Units=GPa)
#
#
# Indices 1 2 3 4 5 6 
#
# 1 130.3964 17.0459 38.0125 -6.4251 14.0820 -10.0605
# 2 17.0459 77.8889 16.7474 -8.7704 11.4556 -18.8345
# 3 38.0125 16.7474 153.0581 -20.0475 8.1324 -3.8536
# 4 -6.4251 -8.7704 -20.0475 39.2584 5.0414 10.6065
# 5 14.0820 11.4556 8.1324 5.0414 42.7424 6.4294
# 6 -10.0605 -18.8345 -3.8536 10.6065 6.4294 36.5630
#
#
#
# Elastic Compliance Matrix: (Units=1/GPa)
#
#
# Indices 1 2 3 4 5 6 
#
# 1 0.008780 -0.000514 -0.001911 0.000047 -0.002761 0.002422
# 2 -0.000514 0.016213 -0.000953 0.001413 -0.005464 0.008661
# 3 -0.001911 -0.000953 0.007624 0.003790 -0.000837 -0.001165
# 4 0.000047 0.001413 0.003790 0.030072 -0.003617 -0.006947
# 5 -0.002761 -0.005464 -0.000837 -0.003617 0.027476 -0.007445
# 6 0.002422 0.008661 -0.001165 -0.006947 -0.007445 0.035680
#
#
# Mechanical properties :
#
#
# Convention : Reuss Voigt Hill
#
# Bulk Modulus (GPa) = 38.66532 56.10611 47.38571
# Shear Modulus (GPa) = 35.40543 43.01526 39.21034
#
# Velocity S-wave (km/s) = 3.91428 4.31447 4.11924
# Velocity P-wave (km/s) = 6.09598 7.00709 6.56735
#
# Compressibility (1/GPa) = 0.02586297
#
# Stress axis : x y z
#
# Youngs Moduli (GPa) = 113.88944 61.67793 131.16815
#
# Poissons Ratio (x) = 0.03168 0.25061
# Poissons Ratio (y) = 0.05850 0.12500
# Poissons Ratio (z) = 0.21760 0.05878
#
# Static dielectric constant tensor:
#      x y z
#    x 1.956330 -0.073740 0.005930 
#    y -0.073740 1.881760 -0.036850 
#    z 0.005930 -0.036850 1.930410 
# 
# From -- ./inp_files/516086.got.cif
#   From: 2010.05.17/outbox.cif.g08.bks.cpg/sg2_259_cif.got.tgz:516086.got - 2010.06.03 11:33:40.
