data_PCOD9065550
_publ_section_title
;
Structure prediction by ZEFSAII (Michael W. Deem and Ramdas Pophale) SiO2 
 PCOD9065550
Probable space group: P -1
;
_chemical_formula_sum "Si O2"
_cell_formula_units_Z 16
_cell_length_a 13.881732
_cell_length_b 8.851494
_cell_length_c 9.541328
_cell_angle_alpha 97.012309
_cell_angle_beta 133.779954
_cell_angle_gamma 108.449780
_cell_volume 696.323980
_symmetry_space_group_name_H-M "P -1"
_symmetry_group_IT_number 2
_symmetry_cell_setting 'triclinic'
loop_
_space_group_symop_operation_xyz
x,y,z
-x,-y,-z
loop_
_atom_site_type_symbol
_atom_site_label
_atom_site_fract_x
_atom_site_fract_y
_atom_site_fract_z
Si Si1 0.947499 0.930714 0.281638
Si Si2 0.186017 0.646968 0.664078
Si Si3 0.586023 0.626004 0.465165
Si Si4 0.343433 0.656872 0.553577
Si Si5 0.128073 0.974809 0.202306
Si Si6 0.235320 0.738679 0.168403
Si Si7 0.312615 0.990263 0.023289
Si Si8 0.731479 0.497455 0.027869
O O1 0.826573 0.713136 0.140492
O O2 0.843549 0.002124 0.119506
O O3 0.000000 0.000000 0.500000
O O4 0.092481 0.974860 0.331037
O O5 0.220572 0.655600 0.536936
O O6 0.263210 0.848997 0.829096
O O7 0.274361 0.569271 0.829062
O O8 0.000000 0.500000 0.500000
O O9 0.500000 0.500000 0.500000
O O10 0.682093 0.541232 0.494130
O O11 0.700198 0.839989 0.637411
O O12 0.446597 0.592838 0.219349
O O13 0.319856 0.711541 0.381482
O O14 0.524334 0.810258 0.805731
O O15 0.119992 0.794991 0.123497
O O16 0.000000 0.000000 0.000000
O O17 0.336675 0.899913 0.174295
O O18 0.177514 0.565619 0.989439
#
# Coordination Sequence:
#
# PCOD9065550 Si02
#       8
#     2   2   2   2   2   2   2   2
#     4  12  27  48  73 105 149 193 241 305 365 427
#     4  11  28  47  69 108 152 190 248 303 359 436
#     4  12  25  47  74 108 147 188 248 304 357 437
#     4  12  26  45  78 106 141 198 244 294 371 434
#     4  12  28  46  73 109 147 191 243 300 370 430
#     4  11  26  44  77 106 145 184 244 301 364 427
#     4  11  24  49  71 103 151 187 243 303 362 434
#     4  11  26  49  74 102 150 194 239 304 364 426
#
# _framework density 22.977810000000002
#
# number of rings (size 3 to 8) (size 9 to 14) (size 15 to 20)
#    0.000    0.500    3.750    3.000   10.500    2.000 
#    0.000    0.000    0.000    0.000    0.000    0.000 
#    0.000    0.000    0.000    0.000    0.000    0.000 
#
# Total GULP energy -89530.318955 kJ/mol
# GULP energy per Si atom -5595.644935 kJ/mol
# Density = 2.292551 g / cm^3
# Si number density = 22.977810 Si / 1000 Ang^3
#
#
#
# Elastic Constant Matrix: (Units=GPa)
#
#
# Indices 1 2 3 4 5 6 
#
# 1 82.5613 5.1370 14.1952 0.4477 -23.0991 -7.9176
# 2 5.1370 72.1217 23.9382 -11.3711 -4.1653 -23.0827
# 3 14.1952 23.9382 101.1196 -8.9628 -1.2478 1.6237
# 4 0.4477 -11.3711 -8.9628 27.5917 -3.3436 -0.1144
# 5 -23.0991 -4.1653 -1.2478 -3.3436 41.1332 0.4362
# 6 -7.9176 -23.0827 1.6237 -0.1144 0.4362 39.8307
#
#
#
# Elastic Compliance Matrix: (Units=1/GPa)
#
#
# Indices 1 2 3 4 5 6 
#
# 1 0.015223 0.001588 -0.002409 0.000690 0.008651 0.003952
# 2 0.001588 0.020626 -0.004606 0.007432 0.003313 0.012442
# 3 -0.002409 -0.004606 0.011511 0.001708 -0.001293 -0.003598
# 4 0.000690 0.007432 0.001708 0.040404 0.004429 0.004442
# 5 0.008651 0.003313 -0.001293 0.004429 0.029790 0.003379
# 6 0.003952 0.012442 -0.003598 0.004442 0.003379 0.033225
#
#
# Mechanical properties :
#
#
# Convention : Reuss Voigt Hill
#
# Bulk Modulus (GPa) = 27.39133 38.03816 32.71474
# Shear Modulus (GPa) = 28.76853 35.87994 32.32423
#
# Velocity S-wave (km/s) = 3.54222 3.95587 3.75475
# Velocity P-wave (km/s) = 5.35504 6.12009 5.75030
#
# Compressibility (1/GPa) = 0.03650791
#
# Stress axis : x y z
#
# Youngs Moduli (GPa) = 65.68967 48.48192 86.87301
#
# Poissons Ratio (x) = -0.07701 0.20924
# Poissons Ratio (y) = -0.10434 0.40014
# Poissons Ratio (z) = 0.15822 0.22331
#
# Static dielectric constant tensor:
#      x y z
#    x 1.889490 -0.006690 -0.023780 
#    y -0.006690 1.819140 -0.004360 
#    z -0.023780 -0.004360 1.819840 
# 
# From -- ./inp_files/298964.got.cif
#   From: 2010.05.17/outbox.cif.g08.bks.cpg/sg2_150_cif.got.tgz:298964.got - 2010.06.03 11:33:40.
