data_PCOD9065925
_publ_section_title
;
Structure prediction by ZEFSAII (Michael W. Deem and Ramdas Pophale) SiO2 
 PCOD9065925
Probable space group: P -1
;
_chemical_formula_sum "Si O2"
_cell_formula_units_Z 12
_cell_length_a 19.812130
_cell_length_b 8.886915
_cell_length_c 15.506554
_cell_angle_alpha 138.961565
_cell_angle_beta 20.246728
_cell_angle_gamma 130.805440
_cell_volume 602.453073
_symmetry_space_group_name_H-M "P -1"
_symmetry_group_IT_number 2
_symmetry_cell_setting 'triclinic'
loop_
_space_group_symop_operation_xyz
x,y,z
-x,-y,-z
loop_
_atom_site_type_symbol
_atom_site_label
_atom_site_fract_x
_atom_site_fract_y
_atom_site_fract_z
Si Si1 0.707545 0.091077 0.295821
Si Si2 0.305983 0.552507 0.693388
Si Si3 0.843375 0.235107 0.378567
Si Si4 0.206301 0.224779 0.306778
Si Si5 0.661595 0.975028 0.630609
Si Si6 0.007845 0.111677 0.671057
O O1 0.696093 0.261246 0.300411
O O2 0.745527 0.226865 0.397069
O O3 0.500000 0.000000 0.500000
O O4 0.916676 0.886266 0.956638
O O5 0.500000 0.500000 0.500000
O O6 0.300957 0.303192 0.550928
O O7 0.120591 0.667625 0.026814
O O8 0.810760 0.500268 0.566390
O O9 0.727477 0.089558 0.515507
O O10 0.082959 0.198151 0.529282
O O11 0.119485 0.081002 0.276134
O O12 0.436756 0.089138 0.977175
O O13 0.803619 0.013319 0.553335
#
# Coordination Sequence:
#
# PCOD9065925 Si02
#       6
#     2   2   2   2   2   2
#     4  11  26  44  70 104 134 178 224 283 335 393
#     4  12  24  45  74  99 134 175 234 279 329 398
#     4  11  26  44  69 102 140 175 223 277 340 402
#     4  11  26  44  66  99 142 175 223 273 338 407
#     4  12  24  44  72  99 134 179 224 278 336 395
#     4  11  25  44  68 100 133 182 223 278 333 394
#
# _framework density 19.918565000000001
#
# number of rings (size 3 to 8) (size 9 to 14) (size 15 to 20)
#    0.000    0.667    3.333    3.500    7.000    2.000 
#    0.000    0.000    0.000    0.000    0.000    0.000 
#    0.000    0.000    0.000    0.000    0.000    0.000 
#
# Total GULP energy -67063.492249 kJ/mol
# GULP energy per Si atom -5588.624354 kJ/mol
# Density = 1.987323 g / cm^3
# Si number density = 19.918565 Si / 1000 Ang^3
#
#
#
# Elastic Constant Matrix: (Units=GPa)
#
#
# Indices 1 2 3 4 5 6 
#
# 1 287.4326 -218.0452 332.1112 -79.6514 35.1268 -9.8192
# 2 -218.0452 1015.4829 -659.1699 164.0595 -122.7602 300.8181
# 3 332.1112 -659.1699 796.5850 -148.0876 109.7952 -164.3119
# 4 -79.6514 164.0595 -148.0876 68.6245 -21.8812 32.7680
# 5 35.1268 -122.7602 109.7952 -21.8812 64.1526 -32.1090
# 6 -9.8192 300.8181 -164.3119 32.7680 -32.1090 147.9228
#
#
#
# Elastic Compliance Matrix: (Units=1/GPa)
#
#
# Indices 1 2 3 4 5 6 
#
# 1 0.009238 0.000610 -0.003998 0.003764 0.001438 -0.005590
# 2 0.000610 0.005305 0.001415 -0.004606 0.001955 -0.007731
# 3 -0.003998 0.001415 0.004975 0.001179 -0.002416 0.001597
# 4 0.003764 -0.004606 0.001179 0.030390 -0.000480 0.004090
# 5 0.001438 0.001955 -0.002416 -0.000480 0.021630 -0.001762
# 6 -0.005590 -0.007731 0.001597 0.004090 -0.001762 0.022597
#
#
# Mechanical properties :
#
#
# Convention : Reuss Voigt Hill
#
# Bulk Modulus (GPa) = 64.22140 112.14361 88.18251
# Shear Modulus (GPa) = 48.41584 232.44694 140.43139
#
# Velocity S-wave (km/s) = 4.93555 10.81443 8.40570
# Velocity P-wave (km/s) = 8.04932 14.57255 11.77180
#
# Compressibility (1/GPa) = 0.01557113
#
# Stress axis : x y z
#
# Youngs Moduli (GPa) = 108.25120 188.50137 201.00858
#
# Poissons Ratio (x) = -0.11495 0.80369
# Poissons Ratio (y) = -0.06601 -0.28447
# Poissons Ratio (z) = 0.43282 -0.26677
#
# Static dielectric constant tensor:
#      x y z
#    x 1.705930 -0.000600 0.019300 
#    y -0.000600 1.699970 -0.034940 
#    z 0.019300 -0.034940 1.721970 
# 
# From -- ./inp_files/148620.got.cif
#   From: 2010.05.17/outbox.cif.g08.bks.cpg/sg2_75_cif.got.tgz:148620.got - 2010.06.03 11:33:40.
