data_PCOD9065830
_publ_section_title
;
Structure prediction by ZEFSAII (Michael W. Deem and Ramdas Pophale) SiO2 
 PCOD9065830
Probable space group: P -1
;
_chemical_formula_sum "Si O2"
_cell_formula_units_Z 16
_cell_length_a 12.630798
_cell_length_b 9.671663
_cell_length_c 8.101021
_cell_angle_alpha 72.032783
_cell_angle_beta 118.928601
_cell_angle_gamma 119.825994
_cell_volume 748.405852
_symmetry_space_group_name_H-M "P -1"
_symmetry_group_IT_number 2
_symmetry_cell_setting 'triclinic'
loop_
_space_group_symop_operation_xyz
x,y,z
-x,-y,-z
loop_
_atom_site_type_symbol
_atom_site_label
_atom_site_fract_x
_atom_site_fract_y
_atom_site_fract_z
Si Si1 0.811361 0.269304 0.627590
Si Si2 0.458900 0.761339 0.693945
Si Si3 0.933108 0.150531 0.475347
Si Si4 0.657135 0.286407 0.012852
Si Si5 0.475635 0.454558 0.689680
Si Si6 0.961907 0.428904 0.179683
Si Si7 0.300813 0.964523 0.100307
Si Si8 0.207123 0.166159 0.706736
O O1 0.664669 0.265773 0.508766
O O2 0.842916 0.196214 0.514425
O O3 0.813279 0.166139 0.826756
O O4 0.925611 0.446092 0.665933
O O5 0.498709 0.614279 0.750001
O O6 0.587645 0.928042 0.723913
O O7 0.405464 0.763703 0.836575
O O8 0.956981 0.256230 0.287602
O O9 0.076543 0.191471 0.649378
O O10 0.853280 0.966443 0.433983
O O11 0.576004 0.375974 0.838053
O O12 0.651272 0.137218 0.952803
O O13 0.811685 0.405577 0.104861
O O14 0.500000 0.500000 0.500000
O O15 0.327821 0.323493 0.672395
O O16 0.000000 0.500000 0.000000
O O17 0.258759 0.083783 0.918628
#
# Coordination Sequence:
#
# PCOD9065830 Si02
#       8
#     2   2   2   2   2   2   2   2
#     4  12  25  43  73 103 138 180 234 288 348 413
#     4  12  26  46  72 103 141 182 235 289 347 413
#     4  11  25  43  70 104 136 188 226 291 347 415
#     4  12  25  46  75 102 137 190 229 289 346 414
#     4  12  29  46  69 104 142 185 231 292 348 409
#     4  12  24  45  71 100 138 178 234 281 347 416
#     4  12  25  46  72 104 139 183 238 281 350 416
#     4  11  25  46  68  96 147 179 233 284 350 412
#
# _framework density 21.378774
#
# number of rings (size 3 to 8) (size 9 to 14) (size 15 to 20)
#    0.000    0.250    5.000    3.000    7.000    0.500 
#    0.000    0.000    0.000    0.000    0.000    0.000 
#    0.000    0.000    0.000    0.000    0.000    0.000 
#
# Total GULP energy -89484.021034 kJ/mol
# GULP energy per Si atom -5592.751315 kJ/mol
# Density = 2.133011 g / cm^3
# Si number density = 21.378774 Si / 1000 Ang^3
#
#
#
# Elastic Constant Matrix: (Units=GPa)
#
#
# Indices 1 2 3 4 5 6 
#
# 1 59.1063 25.8606 17.1451 -9.3507 15.4350 -2.7815
# 2 25.8606 116.1701 11.1449 7.9957 2.6455 11.3476
# 3 17.1451 11.1449 68.3161 -9.5397 14.9784 -0.4900
# 4 -9.3507 7.9957 -9.5397 37.4207 9.6710 3.6819
# 5 15.4350 2.6455 14.9784 9.6710 48.6143 3.7593
# 6 -2.7815 11.3476 -0.4900 3.6819 3.7593 33.5497
#
#
#
# Elastic Compliance Matrix: (Units=1/GPa)
#
#
# Indices 1 2 3 4 5 6 
#
# 1 0.023875 -0.005917 -0.001890 0.008604 -0.008696 0.003983
# 2 -0.005917 0.010710 -0.001584 -0.004554 0.002997 -0.003972
# 3 -0.001890 -0.001584 0.017476 0.005781 -0.005899 0.000661
# 4 0.008604 -0.004554 0.005781 0.034194 -0.011054 -0.000176
# 5 -0.008696 0.002997 -0.005899 -0.011054 0.027469 -0.003686
# 6 0.003983 -0.003972 0.000661 -0.000176 -0.003686 0.031922
#
#
# Mechanical properties :
#
#
# Convention : Reuss Voigt Hill
#
# Bulk Modulus (GPa) = 30.04816 39.09930 34.57373
# Shear Modulus (GPa) = 28.48652 36.54640 32.51646
#
# Velocity S-wave (km/s) = 3.65426 4.13906 3.90419
# Velocity P-wave (km/s) = 5.64716 6.41646 6.04406
#
# Compressibility (1/GPa) = 0.03327991
#
# Stress axis : x y z
#
# Youngs Moduli (GPa) = 41.88492 93.36748 57.22133
#
# Poissons Ratio (x) = 0.55243 0.10815
# Poissons Ratio (y) = 0.24782 0.09063
# Poissons Ratio (z) = 0.07917 0.14789
#
# Static dielectric constant tensor:
#      x y z
#    x 1.747860 0.015250 0.027200 
#    y 0.015250 1.812570 0.029380 
#    z 0.027200 0.029380 1.826880 
# 
# From -- ./inp_files/188787.got.cif
#   From: 2010.05.17/outbox.cif.g08.bks.cpg/sg2_95_cif.got.tgz:188787.got - 2010.06.03 11:33:40.
