data_PCOD9065952
_publ_section_title
;
Structure prediction by ZEFSAII (Michael W. Deem and Ramdas Pophale) SiO2 
 PCOD9065952
Probable space group: P -1
;
_chemical_formula_sum "Si O2"
_cell_formula_units_Z 16
_cell_length_a 11.412917
_cell_length_b 13.728820
_cell_length_c 13.914669
_cell_angle_alpha 32.962091
_cell_angle_beta 44.125109
_cell_angle_gamma 67.488060
_cell_volume 673.259831
_symmetry_space_group_name_H-M "P -1"
_symmetry_group_IT_number 2
_symmetry_cell_setting 'triclinic'
loop_
_space_group_symop_operation_xyz
x,y,z
-x,-y,-z
loop_
_atom_site_type_symbol
_atom_site_label
_atom_site_fract_x
_atom_site_fract_y
_atom_site_fract_z
Si Si1 0.236445 0.918310 0.632315
Si Si2 0.820573 0.810973 0.980841
Si Si3 0.016623 0.700357 0.549520
Si Si4 0.601467 0.346552 0.150730
Si Si5 0.515199 0.561594 0.188814
Si Si6 0.832961 0.293840 0.333683
Si Si7 0.784508 0.296742 0.755476
Si Si8 0.389764 0.193489 0.700950
O O1 0.336395 0.790604 0.710252
O O2 0.226536 0.910798 0.529040
O O3 0.000338 0.779197 0.922795
O O4 0.383650 0.161994 0.385204
O O5 0.692239 0.700885 0.050022
O O6 0.672276 0.753751 0.205701
O O7 0.954123 0.073101 0.673741
O O8 0.072796 0.701999 0.624927
O O9 0.177339 0.705352 0.379342
O O10 0.783087 0.489135 0.848836
O O11 0.593422 0.511865 0.088447
O O12 0.394681 0.670128 0.151837
O O13 0.361337 0.319947 0.528719
O O14 0.629032 0.283426 0.482011
O O15 0.000000 0.500000 0.000000
O O16 0.000000 0.500000 0.500000
O O17 0.731454 0.068800 0.018343
#
# Coordination Sequence:
#
# PCOD9065952 Si02
#       8
#     2   2   2   2   2   2   2   2
#     4  11  25  44  69 105 146 188 246 298 366 431
#     4  11  26  45  72 109 143 193 245 303 365 438
#     4  11  25  46  71 106 147 191 244 304 365 437
#     4  11  26  45  70 108 143 194 247 298 369 449
#     4  12  25  47  77 107 142 194 249 300 369 441
#     4  12  22  44  76 105 144 193 246 303 364 429
#     4  11  29  48  74 112 154 191 241 304 376 439
#     4  11  25  46  74 111 144 193 243 305 362 438
#
# _framework density 23.764969000000001
#
# number of rings (size 3 to 8) (size 9 to 14) (size 15 to 20)
#    0.000    0.750    2.500    3.375    7.000    6.000 
#    0.000    0.000    0.000    0.000    0.000    0.000 
#    0.000    0.000    0.000    0.000    0.000    0.000 
#
# Total GULP energy -89650.700289 kJ/mol
# GULP energy per Si atom -5603.168768 kJ/mol
# Density = 2.371088 g / cm^3
# Si number density = 23.764969 Si / 1000 Ang^3
#
#
#
# Elastic Constant Matrix: (Units=GPa)
#
#
# Indices 1 2 3 4 5 6 
#
# 1 59.2154 24.7492 11.8260 0.0970 -15.3303 1.0099
# 2 24.7492 124.1704 20.7127 12.6166 -18.3509 -9.1753
# 3 11.8260 20.7127 111.0218 1.9540 -8.7612 -1.4482
# 4 0.0970 12.6166 1.9540 41.1808 0.5097 0.8143
# 5 -15.3303 -18.3509 -8.7612 0.5097 44.3068 0.0632
# 6 1.0099 -9.1753 -1.4482 0.8143 0.0632 23.0371
#
#
#
# Elastic Compliance Matrix: (Units=1/GPa)
#
#
# Indices 1 2 3 4 5 6 
#
# 1 0.019887 -0.003260 -0.001139 0.000986 0.005297 -0.002291
# 2 -0.003260 0.009930 -0.001178 -0.003095 0.002782 0.004126
# 3 -0.001139 -0.001178 0.009430 -0.000100 0.000984 0.000175
# 4 0.000986 -0.003095 -0.000100 0.025292 -0.001248 -0.002173
# 5 0.005297 0.002782 0.000984 -0.001248 0.025762 0.000911
# 6 -0.002291 0.004126 0.000175 -0.002173 0.000911 0.045237
#
#
# Mechanical properties :
#
#
# Convention : Reuss Voigt Hill
#
# Bulk Modulus (GPa) = 35.59690 45.44261 40.51976
# Shear Modulus (GPa) = 32.03969 37.51292 34.77631
#
# Velocity S-wave (km/s) = 3.67575 3.97734 3.82952
# Velocity P-wave (km/s) = 5.74684 6.34472 6.05317
#
# Compressibility (1/GPa) = 0.02809233
#
# Stress axis : x y z
#
# Youngs Moduli (GPa) = 50.28535 100.70395 106.04526
#
# Poissons Ratio (x) = 0.32833 0.12081
# Poissons Ratio (y) = 0.16395 0.12487
# Poissons Ratio (z) = 0.05729 0.11858
#
# Static dielectric constant tensor:
#      x y z
#    x 1.880450 -0.009590 -0.012490 
#    y -0.009590 1.942680 -0.023860 
#    z -0.012490 -0.023860 1.916970 
# 
# From -- ./inp_files/522113.got.cif
#   From: 2010.05.17/outbox.cif.g08.bks.cpg/sg2_262_cif.got.tgz:522113.got - 2010.06.03 11:33:40.
