data_PCOD9065907
_publ_section_title
;
Structure prediction by ZEFSAII (Michael W. Deem and Ramdas Pophale) SiO2 
 PCOD9065907
Probable space group: P -1
;
_chemical_formula_sum "Si O2"
_cell_formula_units_Z 14
_cell_length_a 21.223393
_cell_length_b 11.474803
_cell_length_c 6.901333
_cell_angle_alpha 53.394973
_cell_angle_beta 114.644729
_cell_angle_gamma 154.045895
_cell_volume 555.482201
_symmetry_space_group_name_H-M "P -1"
_symmetry_group_IT_number 2
_symmetry_cell_setting 'triclinic'
loop_
_space_group_symop_operation_xyz
x,y,z
-x,-y,-z
loop_
_atom_site_type_symbol
_atom_site_label
_atom_site_fract_x
_atom_site_fract_y
_atom_site_fract_z
Si Si1 0.869861 0.310014 0.169131
Si Si2 0.699192 0.131996 0.783417
Si Si3 0.793000 0.673665 0.907183
Si Si4 0.330664 0.264496 0.252795
Si Si5 0.440780 0.540919 0.743289
Si Si6 0.910267 0.608828 0.265807
Si Si7 0.364789 0.692532 0.276138
O O1 0.921715 0.532377 0.165168
O O2 0.799674 0.052433 0.469904
O O3 0.737568 0.127758 0.040119
O O4 0.000000 0.500000 0.000000
O O5 0.848122 0.401325 0.570822
O O6 0.661992 0.229082 0.686860
O O7 0.567109 0.824469 0.781962
O O8 0.661544 0.551104 0.865088
O O9 0.791459 0.623930 0.731638
O O10 0.786768 0.507618 0.169881
O O11 0.935908 0.023909 0.835205
O O12 0.475595 0.428026 0.301736
O O13 0.308395 0.231889 0.021277
O O14 0.400357 0.606274 0.506910
O O15 0.500000 0.000000 0.000000
#
# Coordination Sequence:
#
# PCOD9065907 Si02
#       7
#     2   2   2   2   2   2   2
#     4  12  27  48  79 108 147 196 252 307 377 447
#     4  12  24  46  77 106 149 196 245 308 371 442
#     4  11  25  46  75 103 153 186 247 310 364 443
#     4  11  25  48  69 110 149 192 242 308 372 438
#     4  11  25  43  76 107 152 195 245 307 370 441
#     4  11  25  51  73 110 146 192 251 307 374 448
#     4  12  24  45  76 111 148 201 254 300 369 446
#
# _framework density 25.203329
#
# number of rings (size 3 to 8) (size 9 to 14) (size 15 to 20)
#    0.000    0.571    2.857    4.714    2.000    5.143 
#    7.714    0.000    0.000    0.000    0.000    0.000 
#    0.000    0.000    0.000    0.000    0.000    0.000 
#
# Total GULP energy -78315.822159 kJ/mol
# GULP energy per Si atom -5593.987297 kJ/mol
# Density = 2.514597 g / cm^3
# Si number density = 25.203329 Si / 1000 Ang^3
#
#
#
# Elastic Constant Matrix: (Units=GPa)
#
#
# Indices 1 2 3 4 5 6 
#
# 1 167.8083 44.5614 70.7771 -0.6797 6.1523 -10.0679
# 2 44.5614 94.0364 44.4486 20.4991 -11.3783 -25.2392
# 3 70.7771 44.4486 196.6972 -1.9838 8.5428 8.0334
# 4 -0.6797 20.4991 -1.9838 36.6143 11.8906 -5.0839
# 5 6.1523 -11.3783 8.5428 11.8906 56.2338 10.6937
# 6 -10.0679 -25.2392 8.0334 -5.0839 10.6937 39.3158
#
#
#
# Elastic Compliance Matrix: (Units=1/GPa)
#
#
# Indices 1 2 3 4 5 6 
#
# 1 0.007833 -0.003259 -0.002018 0.002682 -0.002009 0.001219
# 2 -0.003259 0.020071 -0.004133 -0.012023 0.005728 0.009782
# 3 -0.002018 -0.004133 0.006993 0.002606 -0.001496 -0.003855
# 4 0.002682 -0.012023 0.002606 0.037931 -0.011217 0.000392
# 5 -0.002009 0.005728 -0.001496 -0.011217 0.022543 -0.004114
# 6 0.001219 0.009782 -0.003855 0.000392 -0.004114 0.033984
#
#
# Mechanical properties :
#
#
# Convention : Reuss Voigt Hill
#
# Bulk Modulus (GPa) = 62.19268 86.45735 74.32502
# Shear Modulus (GPa) = 32.56612 46.34977 39.45795
#
# Velocity S-wave (km/s) = 3.59853 4.29305 3.96104
# Velocity P-wave (km/s) = 6.48042 7.67803 7.10450
#
# Compressibility (1/GPa) = 0.01607906
#
# Stress axis : x y z
#
# Youngs Moduli (GPa) = 127.66120 49.82216 143.00981
#
# Poissons Ratio (x) = 0.16236 0.28856
# Poissons Ratio (y) = 0.41601 0.59100
# Poissons Ratio (z) = 0.25759 0.20590
#
# Static dielectric constant tensor:
#      x y z
#    x 2.033020 0.050990 -0.008990 
#    y 0.050990 2.043400 -0.046020 
#    z -0.008990 -0.046020 2.010250 
# 
# From -- ./inp_files/118547.got.cif
#   From: 2010.05.17/outbox.cif.g08.bks.cpg/sg2_60_cif.got.tgz:118547.got - 2010.06.03 11:33:40.
