data_PCOD9065447
_publ_section_title
;
Structure prediction by ZEFSAII (Michael W. Deem and Ramdas Pophale) SiO2 
 PCOD9065447
Probable space group: P -1
;
_chemical_formula_sum "Si O2"
_cell_formula_units_Z 13
_cell_length_a 10.045759
_cell_length_b 10.070109
_cell_length_c 5.224659
_cell_angle_alpha 72.430910
_cell_angle_beta 108.773033
_cell_angle_gamma 90.573859
_cell_volume 474.848258
_symmetry_space_group_name_H-M "P -1"
_symmetry_group_IT_number 2
_symmetry_cell_setting 'triclinic'
loop_
_space_group_symop_operation_xyz
x,y,z
-x,-y,-z
loop_
_atom_site_type_symbol
_atom_site_label
_atom_site_fract_x
_atom_site_fract_y
_atom_site_fract_z
Si Si1 0.232167 0.205741 0.213125
Si Si2 0.500000 0.500000 0.000000
Si Si3 0.839813 0.060818 0.386252
Si Si4 0.029288 0.590810 0.213566
Si Si5 0.625233 0.996938 0.875523
Si Si6 0.728006 0.352273 0.014270
Si Si7 0.512327 0.717118 0.437214
O O1 0.318279 0.275391 0.449497
O O2 0.220313 0.044101 0.387804
O O3 0.344332 0.164475 0.086923
O O4 0.087020 0.276174 0.972394
O O5 0.680640 0.489704 0.065266
O O6 0.476026 0.601497 0.680169
O O7 0.762375 0.037616 0.085818
O O8 0.811067 0.227707 0.301165
O O9 0.000000 0.000000 0.500000
O O10 0.183555 0.633034 0.199090
O O11 0.000000 0.500000 0.500000
O O12 0.000000 0.500000 0.000000
O O13 0.563274 0.133335 0.600834
O O14 0.500000 0.000000 0.000000
O O15 0.565839 0.319940 0.855703
#
# Coordination Sequence:
#
# PCOD9065447 Si02
#       7
#     2   1   2   2   2   2   2
#     4  12  26  47  77 109 152 207 256 332 400 476
#     4  12  26  44  76 106 158 194 266 318 400 458
#     4  11  24  48  74 108 153 194 259 325 401 469
#     4  12  31  55  80 114 164 215 272 324 403 488
#     4  11  25  44  74 108 146 194 260 326 395 471
#     4  11  27  49  76 117 151 212 264 337 394 478
#     4  11  26  44  73 108 153 199 263 321 394 470
#
# _framework density 27.377167
#
# number of rings (size 3 to 8) (size 9 to 14) (size 15 to 20)
#    0.000    0.615    3.077    2.769   10.769    1.846 
#    0.000    0.000    0.000    0.000    0.000    0.000 
#    0.000    0.000    0.000    0.000    0.000    0.000 
#
# Total GULP energy -72466.782271 kJ/mol
# GULP energy per Si atom -5574.367867 kJ/mol
# Density = 2.731486 g / cm^3
# Si number density = 27.377167 Si / 1000 Ang^3
#
#
#
# Elastic Constant Matrix: (Units=GPa)
#
#
# Indices 1 2 3 4 5 6 
#
# 1 130.8611 10.0257 49.3839 -25.2317 26.8276 -3.5647
# 2 10.0257 58.8009 14.7748 -31.0042 7.7108 -16.4151
# 3 49.3839 14.7748 154.6857 -49.3777 6.9936 -12.5539
# 4 -25.2317 -31.0042 -49.3777 59.5247 -3.6228 11.6149
# 5 26.8276 7.7108 6.9936 -3.6228 61.6082 -9.8918
# 6 -3.5647 -16.4151 -12.5539 11.6149 -9.8918 38.2660
#
#
#
# Elastic Compliance Matrix: (Units=1/GPa)
#
#
# Indices 1 2 3 4 5 6 
#
# 1 0.009762 0.000317 -0.002306 0.002435 -0.004129 -0.001518
# 2 0.000317 0.026165 0.002686 0.014461 -0.001694 0.007307
# 3 -0.002306 0.002686 0.009661 0.008119 0.000326 0.001727
# 4 0.002435 0.014461 0.008119 0.032210 -0.002094 -0.001224
# 5 -0.004129 -0.001694 0.000326 -0.002094 0.018803 0.004492
# 6 -0.001518 0.007307 0.001727 -0.001224 0.004492 0.031225
#
#
# Mechanical properties :
#
#
# Convention : Reuss Voigt Hill
#
# Bulk Modulus (GPa) = 21.28524 54.74628 38.01576
# Shear Modulus (GPa) = 35.18757 49.89066 42.53911
#
# Velocity S-wave (km/s) = 3.58898 4.27353 3.94613
# Velocity P-wave (km/s) = 4.99661 6.66267 5.88886
#
# Compressibility (1/GPa) = 0.04698092
#
# Stress axis : x y z
#
# Youngs Moduli (GPa) = 102.43344 38.21915 103.50411
#
# Poissons Ratio (x) = -0.01210 0.23870
# Poissons Ratio (y) = -0.03243 -0.27798
# Poissons Ratio (z) = 0.23623 -0.10264
#
# Static dielectric constant tensor:
#      x y z
#    x 0.464610 1.096540 1.258820 
#    y 1.096540 1.909040 -0.130630 
#    z 1.258820 -0.130630 1.400090 
# 
# From -- ./inp_files/26312.got.cif
#   From: 2010.05.17/outbox.cif.g08.bks.cpg/sg2_14_cif.got.tgz:26312.got - 2010.06.03 11:33:40.
