data_PCOD9065700
_publ_section_title
;
Structure prediction by ZEFSAII (Michael W. Deem and Ramdas Pophale) SiO2 
 PCOD9065700
Probable space group: P -1
;
_chemical_formula_sum "Si O2"
_cell_formula_units_Z 14
_cell_length_a 4.945150
_cell_length_b 15.503038
_cell_length_c 15.602097
_cell_angle_alpha 152.503262
_cell_angle_beta 64.707791
_cell_angle_gamma 106.841362
_cell_volume 487.767692
_symmetry_space_group_name_H-M "P -1"
_symmetry_group_IT_number 2
_symmetry_cell_setting 'triclinic'
loop_
_space_group_symop_operation_xyz
x,y,z
-x,-y,-z
loop_
_atom_site_type_symbol
_atom_site_label
_atom_site_fract_x
_atom_site_fract_y
_atom_site_fract_z
Si Si1 0.177480 0.913707 0.606212
Si Si2 0.500000 0.000000 0.000000
Si Si3 0.728449 0.412632 0.564245
Si Si4 0.000000 0.500000 0.000000
Si Si5 0.574838 0.212611 0.011909
Si Si6 0.990575 0.791497 0.348134
Si Si7 0.191280 0.661093 0.698026
Si Si8 0.587011 0.730811 0.114142
O O1 0.306824 0.759821 0.524045
O O2 0.051489 0.802360 0.448491
O O3 0.402975 0.050625 0.669076
O O4 0.896793 0.069499 0.821315
O O5 0.417612 0.086030 0.986705
O O6 0.717971 0.152660 0.114830
O O7 0.426095 0.582146 0.762085
O O8 0.897290 0.309713 0.365352
O O9 0.960657 0.550014 0.675770
O O10 0.128510 0.402257 0.995224
O O11 0.246528 0.320975 0.758004
O O12 0.435571 0.261952 0.978740
O O13 0.267552 0.673561 0.140585
O O14 0.000000 0.000000 0.500000
O O15 0.500000 0.500000 0.500000
#
# Coordination Sequence:
#
# PCOD9065700 Si02
#       8
#     2   1   2   1   2   2   2   2
#     4  12  27  49  79 116 157 211 264 334 402 486
#     4  12  26  48  82 112 166 208 266 336 396 480
#     4  11  27  49  79 115 163 211 272 334 404 486
#     4  12  26  46  86 108 154 212 262 326 410 482
#     4  12  27  48  75 122 158 209 270 328 399 481
#     4  12  25  52  74 113 155 204 261 333 402 477
#     4  11  24  51  76 116 158 211 270 333 404 475
#     4  12  26  49  77 119 156 203 271 330 404 478
#
# _framework density 28.702190000000002
#
# number of rings (size 3 to 8) (size 9 to 14) (size 15 to 20)
#    0.000    0.286    4.286    3.429    4.000    1.714 
#    2.571    0.000    0.000    0.000    0.000    0.000 
#    0.000    0.000    0.000    0.000    0.000    0.000 
#
# Total GULP energy -77984.927326 kJ/mol
# GULP energy per Si atom -5570.351952 kJ/mol
# Density = 2.863686 g / cm^3
# Si number density = 28.702190 Si / 1000 Ang^3
#
#
#
# Elastic Constant Matrix: (Units=GPa)
#
#
# Indices 1 2 3 4 5 6 
#
# 1 110.5801 38.0502 42.6844 7.0269 23.4142 13.4217
# 2 38.0502 177.9719 45.8091 33.1920 -9.5844 2.2354
# 3 42.6844 45.8091 179.3440 5.0134 31.7794 21.4762
# 4 7.0269 33.1920 5.0134 67.8688 -0.1571 -1.6539
# 5 23.4142 -9.5844 31.7794 -0.1571 54.6464 7.6471
# 6 13.4217 2.2354 21.4762 -1.6539 7.6471 31.2865
#
#
#
# Elastic Compliance Matrix: (Units=1/GPa)
#
#
# Indices 1 2 3 4 5 6 
#
# 1 0.011550 -0.002404 -0.000997 -0.000030 -0.004366 -0.003033
# 2 -0.002404 0.007389 -0.001913 -0.003195 0.003312 0.000838
# 3 -0.000997 -0.001913 0.007373 0.000399 -0.003695 -0.003573
# 4 -0.000030 -0.003195 0.000399 0.016294 -0.000878 0.001044
# 5 -0.004366 0.003312 -0.003695 -0.000878 0.023111 -0.001522
# 6 -0.003033 0.000838 -0.003573 0.001044 -0.001522 0.036084
#
#
# Mechanical properties :
#
#
# Convention : Reuss Voigt Hill
#
# Bulk Modulus (GPa) = 63.76070 80.10927 71.93498
# Shear Modulus (GPa) = 42.49638 53.51714 48.00676
#
# Velocity S-wave (km/s) = 3.85203 4.32275 4.09416
# Velocity P-wave (km/s) = 6.48436 7.27227 6.88959
#
# Compressibility (1/GPa) = 0.01568364
#
# Stress axis : x y z
#
# Youngs Moduli (GPa) = 86.58082 135.33507 135.62452
#
# Poissons Ratio (x) = 0.32535 0.13523
# Poissons Ratio (y) = 0.20815 0.25947
# Poissons Ratio (z) = 0.08633 0.25891
#
# Static dielectric constant tensor:
#      x y z
#    x 2.129330 0.234020 -0.026180 
#    y 0.234020 2.104740 -0.049390 
#    z -0.026180 -0.049390 1.591420 
# 
# From -- ./inp_files/484581.got.cif
#   From: 2010.05.17/outbox.cif.g08.bks.cpg/sg2_243_cif.got.tgz:484581.got - 2010.06.03 11:33:40.
