data_PCOD9065617
_publ_section_title
;
Structure prediction by ZEFSAII (Michael W. Deem and Ramdas Pophale) SiO2 
 PCOD9065617
Probable space group: P -1
;
_chemical_formula_sum "Si O2"
_cell_formula_units_Z 14
_cell_length_a 9.599451
_cell_length_b 20.502362
_cell_length_c 4.954134
_cell_angle_alpha 86.113520
_cell_angle_beta 74.463906
_cell_angle_gamma 141.667034
_cell_volume 515.816790
_symmetry_space_group_name_H-M "P -1"
_symmetry_group_IT_number 2
_symmetry_cell_setting 'triclinic'
loop_
_space_group_symop_operation_xyz
x,y,z
-x,-y,-z
loop_
_atom_site_type_symbol
_atom_site_label
_atom_site_fract_x
_atom_site_fract_y
_atom_site_fract_z
Si Si1 0.381003 0.273833 0.201850
Si Si2 0.814846 0.919881 0.369501
Si Si3 0.070539 0.840948 0.917814
Si Si4 0.661408 0.610179 0.570120
Si Si5 0.099396 0.596944 0.105768
Si Si6 0.983553 0.353881 0.387372
Si Si7 0.535635 0.102692 0.638420
O O1 0.295523 0.194954 0.516452
O O2 0.482770 0.381925 0.228479
O O3 0.617619 0.319785 0.950845
O O4 0.135592 0.197962 0.156817
O O5 0.603510 0.897605 0.484314
O O6 0.000000 0.000000 0.500000
O O7 0.000000 0.000000 0.000000
O O8 0.260211 0.867957 0.625578
O O9 0.287947 0.968660 0.919438
O O10 0.894463 0.731984 0.241274
O O11 0.500000 0.500000 0.500000
O O12 0.792021 0.615547 0.732091
O O13 0.085847 0.648714 0.873621
O O14 0.945270 0.562657 0.459662
O O15 0.000000 0.500000 0.000000
O O16 0.723274 0.220011 0.684471
#
# Coordination Sequence:
#
# PCOD9065617 Si02
#       7
#     2   2   2   2   2   2   2
#     4  12  27  47  76 115 151 207 268 322 399 468
#     4  12  27  46  75 113 158 203 252 319 392 471
#     4  11  26  49  76 116 158 214 264 330 406 475
#     4  12  29  50  77 110 158 209 273 333 396 478
#     4  12  29  50  79 114 157 205 266 328 393 470
#     4  12  27  50  78 114 153 212 255 325 404 461
#     4  11  24  49  77 113 161 204 265 324 400 484
#
# _framework density 27.14142
#
# number of rings (size 3 to 8) (size 9 to 14) (size 15 to 20)
#    0.000    0.286    4.286    3.000    6.000    1.143 
#    2.571    0.000    0.000    0.000    0.000    0.000 
#    0.000    0.000    0.000    0.000    0.000    0.000 
#
# Total GULP energy -78497.467657 kJ/mol
# GULP energy per Si atom -5606.961975 kJ/mol
# Density = 2.707965 g / cm^3
# Si number density = 27.141420 Si / 1000 Ang^3
#
#
#
# Elastic Constant Matrix: (Units=GPa)
#
#
# Indices 1 2 3 4 5 6 
#
# 1 223.9879 35.8922 51.0102 -3.0710 -4.2006 15.4570
# 2 35.8922 109.1775 11.6947 -8.6335 10.8130 -4.5295
# 3 51.0102 11.6947 116.4833 -0.8320 9.9478 1.0186
# 4 -3.0710 -8.6335 -0.8320 48.5281 -6.4258 2.7003
# 5 -4.2006 10.8130 9.9478 -6.4258 44.3714 -2.1608
# 6 15.4570 -4.5295 1.0186 2.7003 -2.1608 54.5967
#
#
#
# Elastic Compliance Matrix: (Units=1/GPa)
#
#
# Indices 1 2 3 4 5 6 
#
# 1 0.005402 -0.001713 -0.002298 0.000272 0.001406 -0.001586
# 2 -0.001713 0.010116 -0.000064 0.001312 -0.002366 0.001167
# 3 -0.002298 -0.000064 0.009799 -0.000332 -0.002428 0.000383
# 4 0.000272 0.001312 -0.000332 0.021275 0.002817 -0.000903
# 5 0.001406 -0.002366 -0.002428 0.002817 0.024212 0.000270
# 6 -0.001586 0.001167 0.000383 -0.000903 0.000270 0.018910
#
#
# Mechanical properties :
#
#
# Convention : Reuss Voigt Hill
#
# Bulk Modulus (GPa) = 58.25233 71.87143 65.06188
# Shear Modulus (GPa) = 48.26829 52.90267 50.58548
#
# Velocity S-wave (km/s) = 4.22168 4.41971 4.32183
# Velocity P-wave (km/s) = 6.72849 7.25141 6.99484
#
# Compressibility (1/GPa) = 0.01716670
#
# Stress axis : x y z
#
# Youngs Moduli (GPa) = 185.11766 98.85291 102.04804
#
# Poissons Ratio (x) = 0.16937 0.23449
# Poissons Ratio (y) = 0.31717 0.00654
# Poissons Ratio (z) = 0.42538 0.00634
#
# Static dielectric constant tensor:
#      x y z
#    x 2.087610 -0.066120 0.004330 
#    y -0.066120 2.213180 -0.082170 
#    z 0.004330 -0.082170 2.094700 
# 
# From -- ./inp_files/52905.got.cif
#   From: 2010.05.17/outbox.cif.g08.bks.cpg/sg2_27_cif.got.tgz:52905.got - 2010.06.03 11:33:40.
