data_PCOD9065179
_publ_section_title
;
Structure prediction by ZEFSAII (Michael W. Deem and Ramdas Pophale) SiO2 
 PCOD9065179
Probable space group: P -1
;
_chemical_formula_sum "Si O2"
_cell_formula_units_Z 16
_cell_length_a 4.998900
_cell_length_b 18.847859
_cell_length_c 7.528022
_cell_angle_alpha 76.206410
_cell_angle_beta 89.573123
_cell_angle_gamma 83.336225
_cell_volume 684.020634
_symmetry_space_group_name_H-M "P -1"
_symmetry_group_IT_number 2
_symmetry_cell_setting 'triclinic'
loop_
_space_group_symop_operation_xyz
x,y,z
-x,-y,-z
loop_
_atom_site_type_symbol
_atom_site_label
_atom_site_fract_x
_atom_site_fract_y
_atom_site_fract_z
Si Si1 0.275802 0.155944 0.334092
Si Si2 0.434735 0.920903 0.113967
Si Si3 0.582046 0.693039 0.598249
Si Si4 0.034158 0.168853 0.937423
Si Si5 0.981369 0.462928 0.715715
Si Si6 0.094113 0.679471 0.353292
Si Si7 0.682339 0.565616 0.942628
Si Si8 0.192266 0.926379 0.498875
O O1 0.373261 0.227334 0.378472
O O2 0.013261 0.134296 0.448751
O O3 0.536011 0.094063 0.375197
O O4 0.167625 0.170782 0.128170
O O5 0.718998 0.870413 0.156235
O O6 0.216346 0.879622 0.030950
O O7 0.300683 0.931541 0.298816
O O8 0.500000 0.000000 0.000000
O O9 0.821872 0.669437 0.470055
O O10 0.566713 0.639627 0.799638
O O11 0.311298 0.693145 0.490282
O O12 0.946917 0.249777 0.814876
O O13 0.890314 0.529238 0.812816
O O14 0.000000 0.500000 0.500000
O O15 0.814072 0.395382 0.711016
O O16 0.214614 0.421967 0.866515
O O17 0.500000 0.500000 0.000000
O O18 0.000000 0.000000 0.500000
#
# Coordination Sequence:
#
# PCOD9065179 Si02
#       8
#     2   2   2   2   2   2   2   2
#     4  12  26  47  72 107 146 187 243 302 363 435
#     4  12  26  48  75 104 144 188 242 296 362 442
#     4  12  26  47  74 106 147 195 243 303 365 437
#     4  12  26  47  71 109 143 191 242 300 364 434
#     4  11  24  47  73 110 147 196 247 306 368 438
#     4  12  26  46  76 104 148 195 244 300 369 435
#     4  11  26  45  75 109 149 194 251 305 367 440
#     4  12  26  48  75 105 143 190 238 300 366 434
#
# _framework density 23.391110000000001
#
# number of rings (size 3 to 8) (size 9 to 14) (size 15 to 20)
#    0.000    0.250    1.250    8.250    3.500    3.000 
#    4.500    1.250    0.000    0.000    0.000    0.000 
#    0.000    0.000    0.000    0.000    0.000    0.000 
#
# Total GULP energy -89527.280731 kJ/mol
# GULP energy per Si atom -5595.455046 kJ/mol
# Density = 2.333787 g / cm^3
# Si number density = 23.391110 Si / 1000 Ang^3
#
#
#
# Elastic Constant Matrix: (Units=GPa)
#
#
# Indices 1 2 3 4 5 6 
#
# 1 107.6761 40.4733 55.1684 -23.7293 7.4417 4.2657
# 2 40.4733 125.7611 56.8747 -22.1135 11.3061 17.5788
# 3 55.1684 56.8747 197.5311 -26.6369 18.0519 9.3146
# 4 -23.7293 -22.1135 -26.6369 39.0406 -2.1148 -1.0241
# 5 7.4417 11.3061 18.0519 -2.1148 49.6363 3.6059
# 6 4.2657 17.5788 9.3146 -1.0241 3.6059 36.6343
#
#
#
# Elastic Compliance Matrix: (Units=1/GPa)
#
#
# Indices 1 2 3 4 5 6 
#
# 1 0.012255 -0.002148 -0.002142 0.004758 -0.000389 0.000320
# 2 -0.002148 0.010713 -0.001729 0.003415 -0.001035 -0.004254
# 3 -0.002142 -0.001729 0.006608 0.002132 -0.001569 -0.000387
# 4 0.004758 0.003415 0.002132 0.031806 -0.000783 -0.001769
# 5 -0.000389 -0.001035 -0.001569 -0.000783 0.021062 -0.001154
# 6 0.000320 -0.004254 -0.000387 -0.001769 -0.001154 0.029463
#
#
# Mechanical properties :
#
#
# Convention : Reuss Voigt Hill
#
# Bulk Modulus (GPa) = 57.02252 81.77791 69.40022
# Shear Modulus (GPa) = 38.52352 43.62568 41.07460
#
# Velocity S-wave (km/s) = 4.06264 4.32331 4.19500
# Velocity P-wave (km/s) = 6.81451 7.74328 7.29369
#
# Compressibility (1/GPa) = 0.01753693
#
# Stress axis : x y z
#
# Youngs Moduli (GPa) = 81.60069 93.34513 151.33913
#
# Poissons Ratio (x) = 0.20054 0.32417
# Poissons Ratio (y) = 0.17531 0.26165
# Poissons Ratio (z) = 0.17479 0.16138
#
# Static dielectric constant tensor:
#      x y z
#    x 1.925150 -0.049090 0.002800 
#    y -0.049090 1.915590 0.014940 
#    z 0.002800 0.014940 1.891090 
# 
# From -- ./inp_files/11133.got.cif
#   From: 2010.05.17/outbox.cif.g08.bks.cpg/sg2_6_cif.got.tgz:11133.got - 2010.06.03 11:33:40.
