data_PCOD9065386
_publ_section_title
;
Structure prediction by ZEFSAII (Michael W. Deem and Ramdas Pophale) SiO2 
 PCOD9065386
Probable space group: P -1
;
_chemical_formula_sum "Si O2"
_cell_formula_units_Z 14
_cell_length_a 8.415158
_cell_length_b 22.201333
_cell_length_c 8.619156
_cell_angle_alpha 42.271681
_cell_angle_beta 71.586996
_cell_angle_gamma 40.122822
_cell_volume 570.278694
_symmetry_space_group_name_H-M "P -1"
_symmetry_group_IT_number 2
_symmetry_cell_setting 'triclinic'
loop_
_space_group_symop_operation_xyz
x,y,z
-x,-y,-z
loop_
_atom_site_type_symbol
_atom_site_label
_atom_site_fract_x
_atom_site_fract_y
_atom_site_fract_z
Si Si1 0.975367 0.243012 0.159190
Si Si2 0.615885 0.020211 0.276808
Si Si3 0.675068 0.171384 0.832776
Si Si4 0.706770 0.302178 0.803216
Si Si5 0.201885 0.173189 0.686669
Si Si6 0.254494 0.475131 0.158477
Si Si7 0.842012 0.496223 0.222082
O O1 0.082388 0.103387 0.476889
O O2 0.304370 0.140051 0.228155
O O3 0.856696 0.268788 0.978274
O O4 0.784639 0.405910 0.992697
O O5 0.740719 0.881964 0.400315
O O6 0.526948 0.141703 0.962886
O O7 0.721443 0.194759 0.942565
O O8 0.492952 0.318614 0.495183
O O9 0.000000 0.000000 0.000000
O O10 0.352745 0.461067 0.659685
O O11 0.897827 0.264816 0.677966
O O12 0.144243 0.303497 0.472090
O O13 0.500000 0.000000 0.000000
O O14 0.949288 0.549494 0.121749
O O15 0.321895 0.441116 0.016182
#
# Coordination Sequence:
#
# PCOD9065386 Si02
#       7
#     2   2   2   2   2   2   2
#     4  11  26  46  75 106 144 196 239 299 357 438
#     4  11  24  48  72 104 148 190 242 294 369 426
#     4  12  28  47  71 108 144 191 241 306 360 426
#     4  12  28  43  74 111 144 188 249 298 359 430
#     4  12  23  45  74 107 147 189 237 300 362 431
#     4  11  27  50  75 100 156 193 238 298 372 432
#     4  11  27  48  74 110 142 196 243 298 364 433
#
# _framework density 24.549399000000001
#
# number of rings (size 3 to 8) (size 9 to 14) (size 15 to 20)
#    0.000    0.571    4.286    2.143    6.000    2.286 
#    2.571    0.000    0.000    0.000    0.000    0.000 
#    0.000    0.000    0.000    0.000    0.000    0.000 
#
# Total GULP energy -78074.033275 kJ/mol
# GULP energy per Si atom -5576.716662 kJ/mol
# Density = 2.449352 g / cm^3
# Si number density = 24.549399 Si / 1000 Ang^3
#
#
#
# Elastic Constant Matrix: (Units=GPa)
#
#
# Indices 1 2 3 4 5 6 
#
# 1 70.3525 42.0067 33.1563 -3.7598 6.7845 25.1137
# 2 42.0067 152.6076 34.0968 -14.1851 -1.6254 2.2908
# 3 33.1563 34.0968 148.7624 -4.3731 -9.1112 17.5369
# 4 -3.7598 -14.1851 -4.3731 35.4061 9.8341 -4.8174
# 5 6.7845 -1.6254 -9.1112 9.8341 23.0813 1.1977
# 6 25.1137 2.2908 17.5369 -4.8174 1.1977 53.4391
#
#
#
# Elastic Compliance Matrix: (Units=1/GPa)
#
#
# Indices 1 2 3 4 5 6 
#
# 1 0.023275 -0.005532 -0.003308 0.000921 -0.008445 -0.009343
# 2 -0.005532 0.008523 -0.000936 0.002968 0.000447 0.002799
# 3 -0.003308 -0.000936 0.008074 -0.001199 0.004670 -0.001268
# 4 0.000921 0.002968 -0.001199 0.034049 -0.015210 0.003244
# 5 -0.008445 0.000447 0.004670 -0.015210 0.054172 -0.000169
# 6 -0.009343 0.002799 -0.001268 0.003244 -0.000169 0.023696
#
#
# Mechanical properties :
#
#
# Convention : Reuss Voigt Hill
#
# Bulk Modulus (GPa) = 49.21151 65.58244 57.39698
# Shear Modulus (GPa) = 28.07193 39.88280 33.97737
#
# Velocity S-wave (km/s) = 3.38522 4.03500 3.72431
# Velocity P-wave (km/s) = 5.94719 6.96281 6.47494
#
# Compressibility (1/GPa) = 0.02032045
#
# Stress axis : x y z
#
# Youngs Moduli (GPa) = 42.96475 117.32749 123.85017
#
# Poissons Ratio (x) = 0.64900 0.40975
# Poissons Ratio (y) = 0.23766 0.11592
# Poissons Ratio (z) = 0.14215 0.10982
#
# Static dielectric constant tensor:
#      x y z
#    x 2.026170 0.046750 0.095190 
#    y 0.046750 1.958500 0.097060 
#    z 0.095190 0.097060 2.057120 
# 
# From -- ./inp_files/223182.got.cif
#   From: 2010.05.17/outbox.cif.g08.bks.cpg/sg2_112_cif.got.tgz:223182.got - 2010.06.03 11:33:40.
