data_PCOD9065633
_publ_section_title
;
Structure prediction by ZEFSAII (Michael W. Deem and Ramdas Pophale) SiO2 
 PCOD9065633
Probable space group: P -1
;
_chemical_formula_sum "Si O2"
_cell_formula_units_Z 10
_cell_length_a 8.769801
_cell_length_b 8.084768
_cell_length_c 12.743909
_cell_angle_alpha 34.400842
_cell_angle_beta 129.192143
_cell_angle_gamma 117.792684
_cell_volume 392.502036
_symmetry_space_group_name_H-M "P -1"
_symmetry_group_IT_number 2
_symmetry_cell_setting 'triclinic'
loop_
_space_group_symop_operation_xyz
x,y,z
-x,-y,-z
loop_
_atom_site_type_symbol
_atom_site_label
_atom_site_fract_x
_atom_site_fract_y
_atom_site_fract_z
Si Si1 0.130845 0.254118 0.459668
Si Si2 0.136255 0.671627 0.044327
Si Si3 0.454008 0.505891 0.795950
Si Si4 0.139744 0.733065 0.366186
Si Si5 0.569216 0.929978 0.807249
O O1 0.123707 0.493864 0.239230
O O2 0.074699 0.433010 0.448173
O O3 0.355593 0.104032 0.648170
O O4 0.000000 0.000000 0.500000
O O5 0.359945 0.641051 0.114431
O O6 0.000000 0.500000 0.000000
O O7 0.035901 0.006235 0.829007
O O8 0.291787 0.667495 0.562997
O O9 0.539284 0.732191 0.795197
O O10 0.371705 0.275509 0.959842
O O11 0.273807 0.859122 0.267643
#
# Coordination Sequence:
#
# PCOD9065633 Si02
#       5
#     2   2   2   2   2
#     4  12  28  50  77 114 159 201 260 319 379 449
#     4  12  24  49  80 113 157 199 251 320 384 454
#     4  11  25  48  81 116 153 198 255 313 387 457
#     4  12  26  52  81 112 155 205 254 316 380 456
#     4  11  24  49  80 113 155 200 251 317 382 457
#
# _framework density 25.477571999999999
#
# number of rings (size 3 to 8) (size 9 to 14) (size 15 to 20)
#    0.000    0.400    4.000    4.200    2.800    0.800 
#    3.600    6.000    0.000    0.000    0.000    0.000 
#    0.000    0.000    0.000    0.000    0.000    0.000 
#
# Total GULP energy -56189.056271 kJ/mol
# GULP energy per Si atom -5618.905627 kJ/mol
# Density = 2.541958 g / cm^3
# Si number density = 25.477572 Si / 1000 Ang^3
#
#
#
# Elastic Constant Matrix: (Units=GPa)
#
#
# Indices 1 2 3 4 5 6 
#
# 1 131.1180 43.8290 55.8134 -21.3205 4.4552 10.7058
# 2 43.8290 170.6045 75.9551 -8.6966 4.9315 -0.5236
# 3 55.8134 75.9551 186.0936 -10.8270 -21.1239 -9.9010
# 4 -21.3205 -8.6966 -10.8270 38.7774 -18.5512 3.1512
# 5 4.4552 4.9315 -21.1239 -18.5512 63.4815 -16.7927
# 6 10.7058 -0.5236 -9.9010 3.1512 -16.7927 36.9262
#
#
#
# Elastic Compliance Matrix: (Units=1/GPa)
#
#
# Indices 1 2 3 4 5 6 
#
# 1 0.010367 -0.001151 -0.002836 0.004269 -0.001627 -0.004886
# 2 -0.001151 0.007548 -0.003077 -0.000684 -0.002064 -0.001264
# 3 -0.002836 -0.003077 0.008494 0.002236 0.005316 0.005283
# 4 0.004269 -0.000684 0.002236 0.033603 0.010671 0.001338
# 5 -0.001627 -0.002064 0.005316 0.010671 0.024062 0.011900
# 6 -0.004886 -0.001264 0.005283 0.001338 0.011900 0.035194
#
#
# Mechanical properties :
#
#
# Convention : Reuss Voigt Hill
#
# Bulk Modulus (GPa) = 81.41926 93.22346 87.32136
# Shear Modulus (GPa) = 36.36646 48.65160 42.50903
#
# Velocity S-wave (km/s) = 3.78218 4.37462 4.08914
# Velocity P-wave (km/s) = 7.14841 7.88583 7.52616
#
# Compressibility (1/GPa) = 0.01228211
#
# Stress axis : x y z
#
# Youngs Moduli (GPa) = 96.45986 132.48552 117.72354
#
# Poissons Ratio (x) = 0.15252 0.33383
# Poissons Ratio (y) = 0.11105 0.36221
# Poissons Ratio (z) = 0.27353 0.40763
#
# Static dielectric constant tensor:
#      x y z
#    x 2.011530 -0.023750 -0.033630 
#    y -0.023750 2.003150 -0.004330 
#    z -0.033630 -0.004330 1.951760 
# 
# From -- ./inp_files/380904.got.cif
#   From: 2010.05.17/outbox.cif.g08.bks.cpg/sg2_191_cif.got.tgz:380904.got - 2010.06.03 11:33:40.
