data_PCOD9065865
_publ_section_title
;
Structure prediction by ZEFSAII (Michael W. Deem and Ramdas Pophale) SiO2 
 PCOD9065865
Probable space group: P -1
;
_chemical_formula_sum "Si O2"
_cell_formula_units_Z 16
_cell_length_a 4.813591
_cell_length_b 11.921289
_cell_length_c 11.982148
_cell_angle_alpha 72.758252
_cell_angle_beta 86.865793
_cell_angle_gamma 106.718622
_cell_volume 621.524689
_symmetry_space_group_name_H-M "P -1"
_symmetry_group_IT_number 2
_symmetry_cell_setting 'triclinic'
loop_
_space_group_symop_operation_xyz
x,y,z
-x,-y,-z
loop_
_atom_site_type_symbol
_atom_site_label
_atom_site_fract_x
_atom_site_fract_y
_atom_site_fract_z
Si Si1 0.464256 0.564879 0.197669
Si Si2 0.782732 0.115322 0.997793
Si Si3 0.488634 0.916844 0.634748
Si Si4 0.667163 0.687636 0.612023
Si Si5 0.977136 0.025002 0.240305
Si Si6 0.842589 0.355343 0.521755
Si Si7 0.878119 0.768464 0.270042
Si Si8 0.022325 0.613700 0.047792
O O1 0.443074 0.426294 0.267557
O O2 0.608202 0.653442 0.270043
O O3 0.151546 0.574988 0.169821
O O4 0.690832 0.612170 0.076479
O O5 0.766878 0.244524 0.017121
O O6 0.954689 0.169223 0.864932
O O7 0.963912 0.068381 0.101081
O O8 0.500000 0.000000 0.000000
O O9 0.596485 0.804338 0.627581
O O10 0.173332 0.896550 0.702896
O O11 0.713989 0.972639 0.715339
O O12 0.500000 0.000000 0.500000
O O13 0.992287 0.691913 0.568954
O O14 0.478558 0.657454 0.511294
O O15 0.789767 0.879892 0.294723
O O16 0.904844 0.277308 0.645367
O O17 0.000000 0.500000 0.500000
O O18 0.000000 0.500000 0.000000
#
# Coordination Sequence:
#
# PCOD9065865 Si02
#       8
#     2   2   2   2   2   2   2   2
#     4  11  25  43  72 104 147 192 235 320 366 431
#     4  11  26  48  75 112 154 196 254 311 377 446
#     4  12  27  48  72 105 146 193 244 304 365 439
#     4  12  26  45  73 105 152 183 254 298 376 439
#     4  12  26  46  76 103 145 197 244 295 372 440
#     4  12  25  45  74 112 144 196 241 308 376 444
#     4  11  25  47  74 109 153 189 253 310 373 438
#     4  11  26  45  72 104 147 194 253 299 372 439
#
# _framework density 25.743147
#
# number of rings (size 3 to 8) (size 9 to 14) (size 15 to 20)
#    0.000    0.500    1.250    6.000    5.250    5.000 
#    0.000    0.000    0.000    0.000    0.000    0.000 
#    0.000    0.000    0.000    0.000    0.000    0.000 
#
# Total GULP energy -89614.781917 kJ/mol
# GULP energy per Si atom -5600.923870 kJ/mol
# Density = 2.568455 g / cm^3
# Si number density = 25.743147 Si / 1000 Ang^3
#
#
#
# Elastic Constant Matrix: (Units=GPa)
#
#
# Indices 1 2 3 4 5 6 
#
# 1 111.7712 16.6112 23.3686 -1.3011 17.3576 -4.0916
# 2 16.6112 171.6309 26.7549 -16.6532 15.5168 -21.9803
# 3 23.3686 26.7549 126.3059 -26.3059 32.4414 9.4186
# 4 -1.3011 -16.6532 -26.3059 47.6126 -9.7133 8.1036
# 5 17.3576 15.5168 32.4414 -9.7133 49.8261 5.9552
# 6 -4.0916 -21.9803 9.4186 8.1036 5.9552 45.5714
#
#
#
# Elastic Compliance Matrix: (Units=1/GPa)
#
#
# Indices 1 2 3 4 5 6 
#
# 1 0.009790 -0.000407 -0.001433 -0.001522 -0.002841 0.001621
# 2 -0.000407 0.006688 -0.001030 0.000864 -0.001514 0.003446
# 3 -0.001433 -0.001030 0.010991 0.005206 -0.004942 -0.003177
# 4 -0.001522 0.000864 0.005206 0.025627 0.002547 -0.005686
# 5 -0.002841 -0.001514 -0.004942 0.002547 0.025696 -0.003775
# 6 0.001621 0.003446 -0.003177 -0.005686 -0.003775 0.025912
#
#
# Mechanical properties :
#
#
# Convention : Reuss Voigt Hill
#
# Bulk Modulus (GPa) = 46.02177 60.35304 53.18741
# Shear Modulus (GPa) = 42.48523 51.46691 46.97607
#
# Velocity S-wave (km/s) = 4.06686 4.47614 4.27640
# Velocity P-wave (km/s) = 6.32207 7.08588 6.71484
#
# Compressibility (1/GPa) = 0.02172885
#
# Stress axis : x y z
#
# Youngs Moduli (GPa) = 102.14696 149.51073 90.98443
#
# Poissons Ratio (x) = 0.06091 0.13040
# Poissons Ratio (y) = 0.04162 0.09368
# Poissons Ratio (z) = 0.14639 0.15393
#
# Static dielectric constant tensor:
#      x y z
#    x 1.998420 0.012590 -0.081930 
#    y 0.012590 2.088990 0.047300 
#    z -0.081930 0.047300 2.023390 
# 
# From -- ./inp_files/364097.got.cif
#   From: 2010.05.17/outbox.cif.g08.bks.cpg/sg2_183_cif.got.tgz:364097.got - 2010.06.03 11:33:40.
