data_PCOD9065319
_publ_section_title
;
Structure prediction by ZEFSAII (Michael W. Deem and Ramdas Pophale) SiO2 
 PCOD9065319
Probable space group: P -1
;
_chemical_formula_sum "Si O2"
_cell_formula_units_Z 16
_cell_length_a 11.428755
_cell_length_b 5.572535
_cell_length_c 14.993929
_cell_angle_alpha 98.730334
_cell_angle_beta 130.789430
_cell_angle_gamma 104.989101
_cell_volume 627.639206
_symmetry_space_group_name_H-M "P -1"
_symmetry_group_IT_number 2
_symmetry_cell_setting 'triclinic'
loop_
_space_group_symop_operation_xyz
x,y,z
-x,-y,-z
loop_
_atom_site_type_symbol
_atom_site_label
_atom_site_fract_x
_atom_site_fract_y
_atom_site_fract_z
Si Si1 0.538757 0.740773 0.406419
Si Si2 0.404225 0.470862 0.045719
Si Si3 0.214505 0.956391 0.610179
Si Si4 0.949257 0.356427 0.241922
Si Si5 0.594948 0.028418 0.952664
Si Si6 0.188472 0.456662 0.650290
Si Si7 0.984502 0.118813 0.780131
Si Si8 0.360100 0.114513 0.326419
O O1 0.447255 0.408107 0.335785
O O2 0.590054 0.808641 0.539559
O O3 0.707354 0.889000 0.435076
O O4 0.419978 0.883195 0.326125
O O5 0.445157 0.770836 0.115531
O O6 0.193338 0.302821 0.913147
O O7 0.450315 0.274074 0.116557
O O8 0.500000 0.500000 0.000000
O O9 0.275709 0.722448 0.643293
O O10 0.005015 0.754103 0.495151
O O11 0.245605 0.228762 0.698552
O O12 0.802381 0.190708 0.084903
O O13 0.843045 0.388639 0.272903
O O14 0.064516 0.669841 0.284951
O O15 0.036998 0.162694 0.292352
O O16 0.500000 0.000000 0.000000
O O17 0.851417 0.017692 0.790896
#
# Coordination Sequence:
#
# PCOD9065319 Si02
#       8
#     2   2   2   2   2   2   2   2
#     4  10  20  33  46  61  85 115 150 194 227 256
#     4   8  14  24  38  58  85 118 139 159 205 261
#     4  10  20  33  46  61  85 115 150 194 227 256
#     4  10  18  28  44  65  91 120 145 179 216 263
#     4   8  14  24  38  58  85 118 139 159 205 261
#     4  10  20  31  46  65  83 114 156 185 223 269
#     4  10  18  28  44  65  91 120 145 179 216 263
#     4  10  20  31  46  65  83 114 156 185 223 269
#
# _framework density 25.492356000000001
#
# number of rings (size 3 to 8) (size 9 to 14) (size 15 to 20)
#    0.000    2.500    0.000    3.000    0.000    4.000 
#    0.000    0.000    0.000    0.000    0.000    0.000 
#    0.000    0.000    0.000  360.000    0.000    0.000 
#
# Total GULP energy -89240.418452 kJ/mol
# GULP energy per Si atom -5577.526153 kJ/mol
# Density = 2.543433 g / cm^3
# Si number density = 25.492356 Si / 1000 Ang^3
#
#
#
# Elastic Constant Matrix: (Units=GPa)
#
#
# Indices 1 2 3 4 5 6 
#
# 1 70.3676 60.7058 18.8779 7.5850 10.3476 -15.0458
# 2 60.7058 293.0529 45.2902 32.5707 11.0924 -41.8930
# 3 18.8779 45.2902 68.7389 12.3983 17.1557 -10.1363
# 4 7.5850 32.5707 12.3983 39.7651 -1.6109 4.2189
# 5 10.3476 11.0924 17.1557 -1.6109 29.0711 1.1058
# 6 -15.0458 -41.8930 -10.1363 4.2189 1.1058 51.8874
#
#
#
# Elastic Compliance Matrix: (Units=1/GPa)
#
#
# Indices 1 2 3 4 5 6 
#
# 1 0.018552 -0.002883 -0.001287 -0.001295 -0.004930 0.003011
# 2 -0.002883 0.005107 -0.001315 -0.003596 -0.000472 0.003333
# 3 -0.001287 -0.001315 0.020108 -0.005746 -0.011347 0.003202
# 4 -0.001295 -0.003596 -0.005746 0.031176 0.007221 -0.007090
# 5 -0.004930 -0.000472 -0.011347 0.007221 0.043640 -0.005545
# 6 0.003011 0.003333 0.003202 -0.007090 -0.005545 0.024156
#
#
# Mechanical properties :
#
#
# Convention : Reuss Voigt Hill
#
# Bulk Modulus (GPa) = 30.49187 75.76746 53.12967
# Shear Modulus (GPa) = 30.36873 44.63042 37.49958
#
# Velocity S-wave (km/s) = 3.45525 4.18872 3.83954
# Velocity P-wave (km/s) = 5.28256 7.29246 6.36732
#
# Compressibility (1/GPa) = 0.03279562
#
# Stress axis : x y z
#
# Youngs Moduli (GPa) = 53.90254 195.81968 49.73062
#
# Poissons Ratio (x) = 0.56458 0.06403
# Poissons Ratio (y) = 0.15541 0.06540
# Poissons Ratio (z) = 0.06940 0.25752
#
# Static dielectric constant tensor:
#      x y z
#    x 2.158440 -0.017550 0.331170 
#    y -0.017550 2.132550 -0.045100 
#    z 0.331170 -0.045100 2.779440 
# 
# From -- ./inp_files/93910.got.cif
#   From: 2010.05.17/outbox.cif.g08.bks.cpg/sg2_47_cif.got.tgz:93910.got - 2010.06.03 11:33:40.
