data_PCOD9065913
_publ_section_title
;
Structure prediction by ZEFSAII (Michael W. Deem and Ramdas Pophale) SiO2 
 PCOD9065913
Probable space group: P -1
;
_chemical_formula_sum "Si O2"
_cell_formula_units_Z 14
_cell_length_a 20.363103
_cell_length_b 10.163560
_cell_length_c 5.021080
_cell_angle_alpha 84.750412
_cell_angle_beta 81.890390
_cell_angle_gamma 35.217807
_cell_volume 592.769106
_symmetry_space_group_name_H-M "P -1"
_symmetry_group_IT_number 2
_symmetry_cell_setting 'triclinic'
loop_
_space_group_symop_operation_xyz
x,y,z
-x,-y,-z
loop_
_atom_site_type_symbol
_atom_site_label
_atom_site_fract_x
_atom_site_fract_y
_atom_site_fract_z
Si Si1 0.599415 0.326245 0.186510
Si Si2 0.114575 0.286294 0.304459
Si Si3 0.155152 0.066855 0.823648
Si Si4 0.077506 0.909605 0.723330
Si Si5 0.692367 0.628013 0.423376
Si Si6 0.305697 0.189676 0.112583
Si Si7 0.506668 0.253499 0.561627
O O1 0.591478 0.189389 0.321831
O O2 0.572474 0.491105 0.369223
O O3 0.726196 0.149313 0.047806
O O4 0.500000 0.500000 0.000000
O O5 0.185528 0.100897 0.536144
O O6 0.193163 0.279620 0.161770
O O7 0.000000 0.500000 0.500000
O O8 0.083440 0.251881 0.065758
O O9 0.102539 0.022490 0.735262
O O10 0.197702 0.636795 0.678710
O O11 0.000000 0.000000 0.500000
O O12 0.000000 0.000000 0.000000
O O13 0.714179 0.662897 0.685027
O O14 0.579535 0.719785 0.488617
O O15 0.674340 0.770982 0.186219
O O16 0.415639 0.930522 0.210456
#
# Coordination Sequence:
#
# PCOD9065913 Si02
#       7
#     2   2   2   2   2   2   2
#     4  11  25  43  80 107 151 190 250 315 370 443
#     4  12  28  48  78 109 149 195 253 304 375 444
#     4  12  26  51  77 110 146 196 248 316 370 435
#     4  12  28  49  77 108 148 194 255 308 371 441
#     4  12  28  47  74 107 150 200 244 304 374 451
#     4  12  27  47  74 106 155 195 246 302 376 447
#     4  11  25  47  69 112 143 198 248 305 374 448
#
# _framework density 23.617964000000001
#
# number of rings (size 3 to 8) (size 9 to 14) (size 15 to 20)
#    0.000    0.286    2.857    4.714   12.000    1.143 
#    0.000    0.000    0.000    0.000    0.000    0.000 
#    0.000    0.000    0.000    0.000    0.000    0.000 
#
# Total GULP energy -78336.808186 kJ/mol
# GULP energy per Si atom -5595.486299 kJ/mol
# Density = 2.356421 g / cm^3
# Si number density = 23.617964 Si / 1000 Ang^3
#
#
#
# Elastic Constant Matrix: (Units=GPa)
#
#
# Indices 1 2 3 4 5 6 
#
# 1 181.8713 56.6749 52.0619 -2.5148 -5.4252 0.2663
# 2 56.6749 86.9384 10.5467 10.7026 13.4660 -1.7688
# 3 52.0619 10.5467 100.2581 2.4804 17.8116 7.6883
# 4 -2.5148 10.7026 2.4804 39.5141 1.4070 5.8547
# 5 -5.4252 13.4660 17.8116 1.4070 34.3495 2.1426
# 6 0.2663 -1.7688 7.6883 5.8547 2.1426 39.9000
#
#
#
# Elastic Compliance Matrix: (Units=1/GPa)
#
#
# Indices 1 2 3 4 5 6 
#
# 1 0.009456 -0.006892 -0.005476 0.002575 0.006934 -0.000064
# 2 -0.006892 0.017769 0.003456 -0.005341 -0.009720 0.001473
# 3 -0.005476 0.003456 0.014315 -0.001575 -0.009464 -0.001829
# 4 0.002575 -0.005341 -0.001575 0.027540 0.002446 -0.004123
# 5 0.006934 -0.009720 -0.009464 0.002446 0.038894 -0.001101
# 6 -0.000064 0.001473 -0.001829 -0.004123 -0.001101 0.026145
#
#
# Mechanical properties :
#
#
# Convention : Reuss Voigt Hill
#
# Bulk Modulus (GPa) = 42.16727 67.51498 54.84113
# Shear Modulus (GPa) = 31.27925 39.40502 35.34213
#
# Velocity S-wave (km/s) = 3.64316 4.08908 3.87254
# Velocity P-wave (km/s) = 5.96569 7.13740 6.57768
#
# Compressibility (1/GPa) = 0.02371507
#
# Stress axis : x y z
#
# Youngs Moduli (GPa) = 105.74936 56.27676 69.85733
#
# Poissons Ratio (x) = 0.38789 0.38254
# Poissons Ratio (y) = 0.72888 -0.24141
# Poissons Ratio (z) = 0.57909 -0.19448
#
# Static dielectric constant tensor:
#      x y z
#    x 2.724130 0.055110 -0.266620 
#    y 0.055110 2.069180 -0.013820 
#    z -0.266620 -0.013820 2.025450 
# 
# From -- ./inp_files/106671.got.cif
#   From: 2010.05.17/outbox.cif.g08.bks.cpg/sg2_54_cif.got.tgz:106671.got - 2010.06.03 11:33:40.
