data_PCOD9065103
_publ_section_title
;
Structure prediction by ZEFSAII (Michael W. Deem and Ramdas Pophale) SiO2 
 PCOD9065103
Probable space group: P -1
;
_chemical_formula_sum "Si O2"
_cell_formula_units_Z 16
_cell_length_a 15.451756
_cell_length_b 12.600065
_cell_length_c 15.030723
_cell_angle_alpha 41.866021
_cell_angle_beta 27.831784
_cell_angle_gamma 59.854877
_cell_volume 788.694394
_symmetry_space_group_name_H-M "P -1"
_symmetry_group_IT_number 2
_symmetry_cell_setting 'triclinic'
loop_
_space_group_symop_operation_xyz
x,y,z
-x,-y,-z
loop_
_atom_site_type_symbol
_atom_site_label
_atom_site_fract_x
_atom_site_fract_y
_atom_site_fract_z
Si Si1 0.953182 0.656408 0.408151
Si Si2 0.478907 0.816881 0.177356
Si Si3 0.592888 0.119489 0.206231
Si Si4 0.348645 0.715395 0.753419
Si Si5 0.060384 0.085214 0.292567
Si Si6 0.302109 0.237248 0.288307
Si Si7 0.422023 0.509049 0.279912
Si Si8 0.026818 0.588269 0.823997
O O1 0.814780 0.695163 0.580135
O O2 0.814668 0.595223 0.481866
O O3 0.000000 0.500000 0.500000
O O4 0.184425 0.832056 0.071719
O O5 0.447195 0.666487 0.225919
O O6 0.274010 0.714906 0.491093
O O7 0.711799 0.884567 0.964460
O O8 0.500000 0.000000 0.000000
O O9 0.649203 0.224707 0.184041
O O10 0.469563 0.196780 0.211725
O O11 0.445957 0.903243 0.491853
O O12 0.501090 0.625338 0.665695
O O13 0.114557 0.569045 0.021017
O O14 0.070992 0.278265 0.166757
O O15 0.000000 0.000000 0.500000
O O16 0.874268 0.947764 0.482956
O O17 0.421295 0.387371 0.010043
O O18 0.000000 0.500000 0.000000
#
# Coordination Sequence:
#
# PCOD9065103 Si02
#       8
#     2   2   2   2   2   2   2   2
#     4  12  25  40  70 104 134 177 232 286 342 404
#     4  12  26  44  75 104 136 188 237 286 351 413
#     4  11  25  47  68 101 140 183 226 284 352 412
#     4  11  24  47  71  96 145 182 224 288 350 412
#     4  12  24  45  69 102 140 180 233 290 342 411
#     4  12  24  43  69 102 138 178 229 289 342 409
#     4  12  23  45  71 101 139 180 233 284 345 414
#     4  12  26  48  72 102 140 185 232 289 351 417
#
# _framework density 20.286691999999999
#
# number of rings (size 3 to 8) (size 9 to 14) (size 15 to 20)
#    0.000    0.250    6.250    2.625    1.750    3.000 
#    4.500    0.000    0.000    0.000    0.000    0.000 
#    0.000    0.000    0.000    0.000    0.000    0.000 
#
# Total GULP energy -89558.183992 kJ/mol
# GULP energy per Si atom -5597.386499 kJ/mol
# Density = 2.024052 g / cm^3
# Si number density = 20.286692 Si / 1000 Ang^3
#
#
#
# Elastic Constant Matrix: (Units=GPa)
#
#
# Indices 1 2 3 4 5 6 
#
# 1 66.2829 12.4657 28.2958 -3.2461 -7.3273 -5.6566
# 2 12.4657 90.5289 25.2779 -3.4599 8.0306 -12.0942
# 3 28.2958 25.2779 125.4254 8.5014 -11.5569 -10.8150
# 4 -3.2461 -3.4599 8.5014 41.0917 -5.0948 -6.0186
# 5 -7.3273 8.0306 -11.5569 -5.0948 39.9379 -6.3734
# 6 -5.6566 -12.0942 -10.8150 -6.0186 -6.3734 28.6153
#
#
#
# Elastic Compliance Matrix: (Units=1/GPa)
#
#
# Indices 1 2 3 4 5 6 
#
# 1 0.017506 -0.001272 -0.003316 0.002818 0.003347 0.003008
# 2 -0.001272 0.012691 -0.002276 0.001710 -0.002582 0.004037
# 3 -0.003316 -0.002276 0.009761 -0.001783 0.002817 0.002324
# 4 0.002818 0.001710 -0.001783 0.026638 0.004195 0.007143
# 5 0.003347 -0.002582 0.002817 0.004195 0.028788 0.007929
# 6 0.003008 0.004037 0.002324 0.007143 0.007929 0.041394
#
#
# Mechanical properties :
#
#
# Convention : Reuss Voigt Hill
#
# Bulk Modulus (GPa) = 38.12678 46.03510 42.08094
# Shear Modulus (GPa) = 31.39741 36.34219 33.86980
#
# Velocity S-wave (km/s) = 3.93833 4.23712 4.09045
# Velocity P-wave (km/s) = 6.28613 6.83221 6.56485
#
# Compressibility (1/GPa) = 0.02622828
#
# Stress axis : x y z
#
# Youngs Moduli (GPa) = 57.12164 78.79844 102.45284
#
# Poissons Ratio (x) = 0.10024 0.33976
# Poissons Ratio (y) = 0.07266 0.23322
# Poissons Ratio (z) = 0.18943 0.17937
#
# Static dielectric constant tensor:
#      x y z
#    x 1.699360 0.018670 -0.019280 
#    y 0.018670 1.696400 -0.007490 
#    z -0.019280 -0.007490 1.736630 
# 
# From -- ./inp_files/524613.got.cif
#   From: 2010.05.17/outbox.cif.g08.bks.cpg/sg2_263_cif.got.tgz:524613.got - 2010.06.03 11:33:40.
