data_PCOD9065707
_publ_section_title
;
Structure prediction by ZEFSAII (Michael W. Deem and Ramdas Pophale) SiO2 
 PCOD9065707
Probable space group: P -1
;
_chemical_formula_sum "Si O2"
_cell_formula_units_Z 10
_cell_length_a 10.674256
_cell_length_b 7.508844
_cell_length_c 5.405256
_cell_angle_alpha 71.744205
_cell_angle_beta 110.727960
_cell_angle_gamma 109.924980
_cell_volume 371.685181
_symmetry_space_group_name_H-M "P -1"
_symmetry_group_IT_number 2
_symmetry_cell_setting 'triclinic'
loop_
_space_group_symop_operation_xyz
x,y,z
-x,-y,-z
loop_
_atom_site_type_symbol
_atom_site_label
_atom_site_fract_x
_atom_site_fract_y
_atom_site_fract_z
Si Si1 0.873035 0.851434 0.790390
Si Si2 0.836266 0.134899 0.248901
Si Si3 0.593444 0.056178 0.791478
Si Si4 0.658612 0.504329 0.577894
Si Si5 0.865788 0.556634 0.265808
O O1 0.746259 0.656538 0.766759
O O2 0.003923 0.833858 0.724987
O O3 0.812935 0.012779 0.541375
O O4 0.927182 0.781489 0.117026
O O5 0.812926 0.348985 0.173914
O O6 0.736548 0.012060 0.015288
O O7 0.652179 0.282117 0.692017
O O8 0.500000 0.000000 0.500000
O O9 0.500000 0.000000 0.000000
O O10 0.500000 0.500000 0.500000
O O11 0.741358 0.567832 0.355622
O O12 0.000000 0.500000 0.500000
#
# Coordination Sequence:
#
# PCOD9065707 Si02
#       5
#     2   2   2   2   2
#     4  11  25  49  79 119 161 203 279 338 412 486
#     4  11  24  51  80 121 161 208 276 337 411 492
#     4  12  27  52  80 116 164 223 271 336 418 493
#     4  12  27  50  74 115 163 210 270 340 405 489
#     4  12  24  48  83 116 159 217 268 339 412 486
#
# _framework density 26.904489999999999
#
# number of rings (size 3 to 8) (size 9 to 14) (size 15 to 20)
#    0.000    0.400    4.000    4.200    0.000    1.600 
#   18.000    0.000    0.000    0.000    0.000    0.000 
#    0.000    0.000    0.000    0.000    0.000    0.000 
#
# Total GULP energy -55721.453015 kJ/mol
# GULP energy per Si atom -5572.145302 kJ/mol
# Density = 2.684325 g / cm^3
# Si number density = 26.904490 Si / 1000 Ang^3
#
#
#
# Elastic Constant Matrix: (Units=GPa)
#
#
# Indices 1 2 3 4 5 6 
#
# 1 97.0876 -31.7794 30.3220 -10.3169 13.2687 11.3492
# 2 -31.7794 67.7984 60.9472 3.2384 17.6200 2.0263
# 3 30.3220 60.9472 194.4596 -9.9123 -3.6303 0.6387
# 4 -10.3169 3.2384 -9.9123 94.2547 12.9771 8.7571
# 5 13.2687 17.6200 -3.6303 12.9771 55.8700 -9.4921
# 6 11.3492 2.0263 0.6387 8.7571 -9.4921 43.5875
#
#
#
# Elastic Compliance Matrix: (Units=1/GPa)
#
#
# Indices 1 2 3 4 5 6 
#
# 1 0.035763 0.040591 -0.018438 0.005961 -0.026934 -0.017992
# 2 0.040591 0.070003 -0.028588 0.006565 -0.039046 -0.023227
# 3 -0.018438 -0.028588 0.017132 -0.002478 0.016788 0.010033
# 4 0.005961 0.006565 -0.002478 0.012365 -0.007529 -0.005945
# 5 -0.026934 -0.039046 0.016788 -0.007529 0.042746 0.019404
# 6 -0.017992 -0.023227 0.010033 -0.005945 0.019404 0.033980
#
#
# Mechanical properties :
#
#
# Convention : Reuss Voigt Hill
#
# Bulk Modulus (GPa) = 9.08858 53.14722 31.11790
# Shear Modulus (GPa) = 19.11802 58.73283 38.92542
#
# Velocity S-wave (km/s) = 2.66858 4.67734 3.80781
# Velocity P-wave (km/s) = 3.58894 6.99764 5.56091
#
# Compressibility (1/GPa) = 0.11002821
#
# Stress axis : x y z
#
# Youngs Moduli (GPa) = 27.96196 14.28506 58.37166
#
# Poissons Ratio (x) = -0.57985 1.07628
# Poissons Ratio (y) = -1.13502 1.66871
# Poissons Ratio (z) = 0.51558 0.40838
#
# Static dielectric constant tensor:
#      x y z
#    x 2.002120 -0.101730 0.044600 
#    y -0.101730 2.075840 0.411910 
#    z 0.044600 0.411910 2.938400 
# 
# From -- ./inp_files/25960.got.cif
#   From: 2010.05.17/outbox.cif.g08.bks.cpg/sg2_13_cif.got.tgz:25960.got - 2010.06.03 11:33:40.
