data_PCOD9065715
_publ_section_title
;
Structure prediction by ZEFSAII (Michael W. Deem and Ramdas Pophale) SiO2 
 PCOD9065715
Probable space group: P -1
;
_chemical_formula_sum "Si O2"
_cell_formula_units_Z 12
_cell_length_a 17.402213
_cell_length_b 5.547492
_cell_length_c 6.599297
_cell_angle_alpha 103.326848
_cell_angle_beta 59.207340
_cell_angle_gamma 123.859994
_cell_volume 453.117883
_symmetry_space_group_name_H-M "P -1"
_symmetry_group_IT_number 2
_symmetry_cell_setting 'triclinic'
loop_
_space_group_symop_operation_xyz
x,y,z
-x,-y,-z
loop_
_atom_site_type_symbol
_atom_site_label
_atom_site_fract_x
_atom_site_fract_y
_atom_site_fract_z
Si Si1 0.752743 0.982096 0.954687
Si Si2 0.742108 0.559678 0.555586
Si Si3 0.615792 0.128790 0.957305
Si Si4 0.126489 0.056672 0.887367
Si Si5 0.044619 0.392931 0.241589
Si Si6 0.564919 0.349240 0.434627
O O1 0.641661 0.928347 0.019435
O O2 0.840349 0.323680 0.886218
O O3 0.776522 0.808200 0.723589
O O4 0.774424 0.933906 0.145536
O O5 0.700510 0.268435 0.687961
O O6 0.639304 0.492884 0.555333
O O7 0.833005 0.693955 0.291372
O O8 0.627481 0.367713 0.148416
O O9 0.500000 0.000000 0.000000
O O10 0.046355 0.748332 0.834326
O O11 0.069752 0.133223 0.155629
O O12 0.000000 0.500000 0.500000
O O13 0.500000 0.500000 0.500000
O O14 0.500000 0.000000 0.500000
#
# Coordination Sequence:
#
# PCOD9065715 Si02
#       6
#     2   2   2   2   2   2
#     4  12  26  48  80 117 158 206 277 335 416 501
#     4  12  26  46  78 112 158 212 272 341 416 491
#     4  12  28  51  77 111 159 219 275 341 415 493
#     4  11  27  50  81 119 159 211 272 337 419 502
#     4  11  24  53  81 117 162 210 262 342 419 507
#     4  12  28  49  78 114 161 217 288 350 420 496
#
# _framework density 26.483176
#
# number of rings (size 3 to 8) (size 9 to 14) (size 15 to 20)
#    0.000    0.333    3.333    4.500    4.667    3.333 
#   12.000    0.000    0.000    0.000    0.000    0.000 
#    0.000    0.000    0.000    0.000    0.000    0.000 
#
# Total GULP energy -67076.145438 kJ/mol
# GULP energy per Si atom -5589.678787 kJ/mol
# Density = 2.642290 g / cm^3
# Si number density = 26.483176 Si / 1000 Ang^3
#
#
#
# Elastic Constant Matrix: (Units=GPa)
#
#
# Indices 1 2 3 4 5 6 
#
# 1 145.9274 50.6943 47.7620 -5.9103 42.6873 17.2594
# 2 50.6943 113.5137 39.6162 16.7008 21.1597 27.9417
# 3 47.7620 39.6162 131.9625 18.6975 5.8462 -12.1187
# 4 -5.9103 16.7008 18.6975 56.5808 7.5020 10.4852
# 5 42.6873 21.1597 5.8462 7.5020 44.9209 12.6398
# 6 17.2594 27.9417 -12.1187 10.4852 12.6398 49.4368
#
#
#
# Elastic Compliance Matrix: (Units=1/GPa)
#
#
# Indices 1 2 3 4 5 6 
#
# 1 0.012745 -0.002290 -0.004465 0.005385 -0.010595 -0.002683
# 2 -0.002290 0.013224 -0.003489 -0.001534 -0.001417 -0.006843
# 3 -0.004465 -0.003489 0.011373 -0.004845 0.003393 0.006479
# 4 0.005385 -0.001534 -0.004845 0.022072 -0.005941 -0.005363
# 5 -0.010595 -0.001417 0.003393 -0.005941 0.034150 -0.002139
# 6 -0.002683 -0.006843 0.006479 -0.005363 -0.002139 0.028305
#
#
# Mechanical properties :
#
#
# Convention : Reuss Voigt Hill
#
# Bulk Modulus (GPa) = 59.33965 74.17206 66.75585
# Shear Modulus (GPa) = 33.78957 47.07644 40.43301
#
# Velocity S-wave (km/s) = 3.57583 4.22073 3.91160
# Velocity P-wave (km/s) = 6.28522 7.19867 6.75739
#
# Compressibility (1/GPa) = 0.01685214
#
# Stress axis : x y z
#
# Youngs Moduli (GPa) = 78.46516 75.61893 87.92936
#
# Poissons Ratio (x) = 0.17318 0.39261
# Poissons Ratio (y) = 0.17969 0.30682
# Poissons Ratio (z) = 0.35036 0.26387
#
# Static dielectric constant tensor:
#      x y z
#    x 2.107240 -0.035720 -0.030300 
#    y -0.035720 2.111670 -0.102850 
#    z -0.030300 -0.102850 2.136810 
# 
# From -- ./inp_files/102902.got.cif
#   From: 2010.05.17/outbox.cif.g08.bks.cpg/sg2_52_cif.got.tgz:102902.got - 2010.06.03 11:33:40.
