data_PCOD9065320
_publ_section_title
;
Structure prediction by ZEFSAII (Michael W. Deem and Ramdas Pophale) SiO2 
 PCOD9065320
Probable space group: P -1
;
_chemical_formula_sum "Si O2"
_cell_formula_units_Z 10
_cell_length_a 5.882953
_cell_length_b 8.721190
_cell_length_c 12.332611
_cell_angle_alpha 137.863152
_cell_angle_beta 105.280151
_cell_angle_gamma 63.032024
_cell_volume 375.537060
_symmetry_space_group_name_H-M "P -1"
_symmetry_group_IT_number 2
_symmetry_cell_setting 'triclinic'
loop_
_space_group_symop_operation_xyz
x,y,z
-x,-y,-z
loop_
_atom_site_type_symbol
_atom_site_label
_atom_site_fract_x
_atom_site_fract_y
_atom_site_fract_z
Si Si1 0.714488 0.032105 0.620345
Si Si2 0.769194 0.291000 0.389500
Si Si3 0.009302 0.732926 0.822716
Si Si4 0.866308 0.484523 0.861339
Si Si5 0.508178 0.939417 0.158389
O O1 0.807615 0.244357 0.702344
O O2 0.588404 0.117743 0.768827
O O3 0.500000 0.000000 0.500000
O O4 0.970365 0.780381 0.544766
O O5 0.500000 0.500000 0.500000
O O6 0.814899 0.351115 0.303952
O O7 0.737129 0.029282 0.249563
O O8 0.036846 0.546754 0.825875
O O9 0.719835 0.817685 0.788121
O O10 0.000000 0.000000 0.000000
O O11 0.591905 0.716568 0.966441
O O12 0.000000 0.500000 0.000000
#
# Coordination Sequence:
#
# PCOD9065320 Si02
#       5
#     2   2   2   2   2
#     4  11  27  51  80 120 166 211 270 336 410 470
#     4  11  26  53  79 116 167 213 267 330 407 490
#     4  11  24  47  82 117 152 214 276 327 399 487
#     4  12  23  50  85 119 157 210 273 344 394 478
#     4  11  24  50  77 115 161 209 277 324 404 487
#
# _framework density 26.628533000000001
#
# number of rings (size 3 to 8) (size 9 to 14) (size 15 to 20)
#    0.000    0.800    4.000    2.400    0.000    5.600 
#   10.800    4.000    0.000    0.000    0.000    0.000 
#    0.000    0.000    0.000    0.000    0.000    0.000 
#
# Total GULP energy -56074.635415 kJ/mol
# GULP energy per Si atom -5607.463542 kJ/mol
# Density = 2.656793 g / cm^3
# Si number density = 26.628533 Si / 1000 Ang^3
#
#
#
# Elastic Constant Matrix: (Units=GPa)
#
#
# Indices 1 2 3 4 5 6 
#
# 1 158.6384 90.8762 88.2139 -4.3516 -7.0468 18.1450
# 2 90.8762 133.8195 72.5791 -8.3843 -12.4722 9.8657
# 3 88.2139 72.5791 148.8381 8.1188 -1.6606 3.7015
# 4 -4.3516 -8.3843 8.1188 48.9244 2.1152 0.5978
# 5 -7.0468 -12.4722 -1.6606 2.1152 78.6049 2.4615
# 6 18.1450 9.8657 3.7015 0.5978 2.4615 70.3787
#
#
#
# Elastic Compliance Matrix: (Units=1/GPa)
#
#
# Indices 1 2 3 4 5 6 
#
# 1 0.012384 -0.005714 -0.004547 0.000897 0.000151 -0.002166
# 2 -0.005714 0.013426 -0.003260 0.002273 0.001498 -0.000309
# 3 -0.004547 -0.003260 0.011121 -0.002794 -0.000649 0.001091
# 4 0.000897 0.002273 -0.002794 0.021387 -0.000175 -0.000578
# 5 0.000151 0.001498 -0.000649 -0.000175 0.012985 -0.000667
# 6 -0.002166 -0.000309 0.001091 -0.000578 -0.000667 0.014781
#
#
# Mechanical properties :
#
#
# Convention : Reuss Voigt Hill
#
# Bulk Modulus (GPa) = 101.11551 104.95940 103.03745
# Shear Modulus (GPa) = 42.94638 52.22338 47.58488
#
# Velocity S-wave (km/s) = 4.02032 4.43333 4.23186
# Velocity P-wave (km/s) = 7.72047 8.10602 7.91559
#
# Compressibility (1/GPa) = 0.00988968
#
# Stress axis : x y z
#
# Youngs Moduli (GPa) = 80.74620 74.48203 89.91721
#
# Poissons Ratio (x) = 0.42560 0.40885
# Poissons Ratio (y) = 0.46140 0.29312
# Poissons Ratio (z) = 0.36715 0.24281
#
# Static dielectric constant tensor:
#      x y z
#    x 2.148710 -0.101750 0.055440 
#    y -0.101750 2.179500 0.012840 
#    z 0.055440 0.012840 2.175850 
# 
# From -- ./inp_files/15367.got.cif
#   From: 2010.05.17/outbox.cif.g08.bks.cpg/sg2_8_cif.got.tgz:15367.got - 2010.06.03 11:33:40.
