data_PCOD9065284
_publ_section_title
;
Structure prediction by ZEFSAII (Michael W. Deem and Ramdas Pophale) SiO2 
 PCOD9065284
Probable space group: P -1
;
_chemical_formula_sum "Si O2"
_cell_formula_units_Z 14
_cell_length_a 9.783856
_cell_length_b 9.018861
_cell_length_c 16.148292
_cell_angle_alpha 54.645624
_cell_angle_beta 34.571354
_cell_angle_gamma 75.540062
_cell_volume 574.857163
_symmetry_space_group_name_H-M "P -1"
_symmetry_group_IT_number 2
_symmetry_cell_setting 'triclinic'
loop_
_space_group_symop_operation_xyz
x,y,z
-x,-y,-z
loop_
_atom_site_type_symbol
_atom_site_label
_atom_site_fract_x
_atom_site_fract_y
_atom_site_fract_z
Si Si1 0.094443 0.184439 0.272668
Si Si2 0.119544 0.836913 0.252837
Si Si3 0.439545 0.643434 0.875881
Si Si4 0.489198 0.044152 0.693765
Si Si5 0.719950 0.490166 0.170691
Si Si6 0.528876 0.818143 0.161604
Si Si7 0.404598 0.325741 0.534313
O O1 0.294934 0.241865 0.234313
O O2 0.782967 0.105620 0.484319
O O3 0.107997 0.010568 0.263131
O O4 0.235411 0.409036 0.083240
O O5 0.257503 0.722365 0.270260
O O6 0.829976 0.684471 0.405166
O O7 0.301145 0.961509 0.041920
O O8 0.501387 0.631458 0.752555
O O9 0.319402 0.802362 0.881594
O O10 0.545430 0.163144 0.713769
O O11 0.327841 0.113802 0.688685
O O12 0.708148 0.702632 0.111532
O O13 0.645321 0.378346 0.331941
O O14 0.000000 0.500000 0.000000
O O15 0.500000 0.500000 0.500000
#
# Coordination Sequence:
#
# PCOD9065284 Si02
#       7
#     2   2   2   2   2   2   2
#     4  11  24  47  77 116 151 203 265 321 372 478
#     4  11  26  50  77 112 159 197 264 316 389 466
#     4  11  25  44  81 109 153 207 262 312 388 454
#     4  12  26  47  76 114 154 204 257 321 391 449
#     4  12  27  49  74 110 154 204 255 318 389 459
#     4  11  26  49  77 111 151 205 254 323 385 449
#     4  12  29  49  74 115 153 202 261 322 387 467
#
# _framework density 24.353874999999999
#
# number of rings (size 3 to 8) (size 9 to 14) (size 15 to 20)
#    0.000    0.571    4.286    2.143    4.000    5.714 
#    0.000    0.000    0.000    0.000    0.000    0.000 
#    0.000    0.000    0.000    0.000    0.000    0.000 
#
# Total GULP energy -78346.348006 kJ/mol
# GULP energy per Si atom -5596.167715 kJ/mol
# Density = 2.429844 g / cm^3
# Si number density = 24.353875 Si / 1000 Ang^3
#
#
#
# Elastic Constant Matrix: (Units=GPa)
#
#
# Indices 1 2 3 4 5 6 
#
# 1 150.5339 55.8725 37.9865 6.5278 15.1233 3.2578
# 2 55.8725 102.2271 37.3915 0.1767 2.7263 -5.0534
# 3 37.9865 37.3915 81.1037 9.5105 4.0356 10.9055
# 4 6.5278 0.1767 9.5105 41.5031 0.8119 8.7738
# 5 15.1233 2.7263 4.0356 0.8119 46.0288 -1.5729
# 6 3.2578 -5.0534 10.9055 8.7738 -1.5729 52.5180
#
#
#
# Elastic Compliance Matrix: (Units=1/GPa)
#
#
# Indices 1 2 3 4 5 6 
#
# 1 0.008983 -0.004124 -0.002024 -0.000781 -0.002532 -0.000479
# 2 -0.004124 0.013970 -0.005034 0.001199 0.001032 0.002476
# 3 -0.002024 -0.005034 0.016390 -0.002702 -0.000540 -0.003327
# 4 -0.000781 0.001199 -0.002702 0.025586 -0.000150 -0.003554
# 5 -0.002532 0.001032 -0.000540 -0.000150 0.022583 0.001070
# 6 -0.000479 0.002476 -0.003327 -0.003554 0.001070 0.020626
#
#
# Mechanical properties :
#
#
# Convention : Reuss Voigt Hill
#
# Bulk Modulus (GPa) = 58.89736 66.26285 62.58011
# Shear Modulus (GPa) = 36.72097 41.51760 39.11929
#
# Velocity S-wave (km/s) = 3.88726 4.13336 4.01220
# Velocity P-wave (km/s) = 6.66215 7.07439 6.87136
#
# Compressibility (1/GPa) = 0.01697869
#
# Stress axis : x y z
#
# Youngs Moduli (GPa) = 111.31901 71.58019 61.01346
#
# Poissons Ratio (x) = 0.29522 0.12349
# Poissons Ratio (y) = 0.45911 0.30714
# Poissons Ratio (z) = 0.22531 0.36034
#
# Static dielectric constant tensor:
#      x y z
#    x 1.970060 0.005900 -0.054370 
#    y 0.005900 1.977880 -0.009680 
#    z -0.054370 -0.009680 2.049210 
# 
# From -- ./inp_files/494443.got.cif
#   From: 2010.05.17/outbox.cif.g08.bks.cpg/sg2_248_cif.got.tgz:494443.got - 2010.06.03 11:33:40.
