data_PCOD9065450
_publ_section_title
;
Structure prediction by ZEFSAII (Michael W. Deem and Ramdas Pophale) SiO2 
 PCOD9065450
Probable space group: P -1
;
_chemical_formula_sum "Si O2"
_cell_formula_units_Z 16
_cell_length_a 11.435320
_cell_length_b 14.890235
_cell_length_c 5.429903
_cell_angle_alpha 89.999983
_cell_angle_beta 76.265825
_cell_angle_gamma 108.521649
_cell_volume 848.758997
_symmetry_space_group_name_H-M "P -1"
_symmetry_group_IT_number 2
_symmetry_cell_setting 'triclinic'
loop_
_space_group_symop_operation_xyz
x,y,z
-x,-y,-z
loop_
_atom_site_type_symbol
_atom_site_label
_atom_site_fract_x
_atom_site_fract_y
_atom_site_fract_z
Si Si1 0.168680 0.213339 0.415660
Si Si2 0.909424 0.562421 0.045288
Si Si3 0.896173 0.597925 0.551913
Si Si4 0.192090 0.684430 0.403955
Si Si5 0.563837 0.625161 0.718082
Si Si6 0.404017 0.580810 0.297992
Si Si7 0.870094 0.238793 0.064953
Si Si8 0.956562 0.886858 0.021719
O O1 0.101481 0.294514 0.449260
O O2 0.316326 0.277798 0.341837
O O3 0.123204 0.154173 0.689265
O O4 0.123203 0.154173 0.187533
O O5 0.834450 0.547737 0.333305
O O6 0.834450 0.547737 0.832245
O O7 0.000000 0.500000 0.000000
O O8 0.998457 0.671466 0.000771
O O9 0.046728 0.608771 0.476636
O O10 0.292492 0.628777 0.353754
O O11 0.199010 0.745627 0.650228
O O12 0.199010 0.745627 0.150762
O O13 0.483615 0.618636 0.509146
O O14 0.609308 0.531872 0.695346
O O15 0.483615 0.618636 0.007240
O O16 0.919860 0.149237 0.040070
O O17 0.000000 0.000000 0.000000
#
# Coordination Sequence:
#
# PCOD9065450 Si02
#       8
#     2   2   2   2   2   2   2   2
#     4  12  21  40  60  88 120 159 192 256 307 353
#     4  10  18  28  44  69 112 150 173 212 265 342
#     4  10  19  33  49  78 117 141 189 229 291 346
#     4  10  18  34  58  77 120 146 197 231 291 348
#     4  10  23  38  60  80 127 157 216 247 275 348
#     4  10  21  40  56  89 112 173 209 241 284 338
#     4  10  19  35  49  85 113 144 192 232 293 358
#     4  12  23  40  61  88 124 156 195 246 319 385
#
# _framework density 18.851050999999998
#
# number of rings (size 3 to 8) (size 9 to 14) (size 15 to 20)
#    0.000    1.500    5.000    2.250    0.000    4.000 
#    0.000    2.500    0.000    0.000    0.000   17.500 
#    0.000    0.000    0.000    0.000    0.000    0.000 
#
# Total GULP energy -89310.045611 kJ/mol
# GULP energy per Si atom -5581.877851 kJ/mol
# Density = 1.880815 g / cm^3
# Si number density = 18.851051 Si / 1000 Ang^3
#
#
#
# Elastic Constant Matrix: (Units=GPa)
#
#
# Indices 1 2 3 4 5 6 
#
# 1 112.0784 50.3385 58.6204 7.4650 6.1188 -14.6361
# 2 50.3385 132.1054 67.2150 3.5089 8.7556 -16.5939
# 3 58.6204 67.2150 207.2562 11.5759 29.5445 -4.0159
# 4 7.4650 3.5089 11.5759 23.9594 3.5748 1.5237
# 5 6.1188 8.7556 29.5445 3.5748 39.9000 5.5734
# 6 -14.6361 -16.5939 -4.0159 1.5237 5.5734 24.8532
#
#
#
# Elastic Compliance Matrix: (Units=1/GPa)
#
#
# Indices 1 2 3 4 5 6 
#
# 1 0.012219 -0.002763 -0.002308 -0.002608 -0.000044 0.005148
# 2 -0.002763 0.010566 -0.002441 0.000287 -0.000840 0.005204
# 3 -0.002308 -0.002441 0.006906 -0.001613 -0.003956 -0.000887
# 4 -0.002608 0.000287 -0.001613 0.043810 -0.001852 -0.003876
# 5 -0.000044 -0.000840 -0.003956 -0.001852 0.029426 -0.007711
# 6 0.005148 0.005204 -0.000887 -0.003876 -0.007711 0.048566
#
#
# Mechanical properties :
#
#
# Convention : Reuss Voigt Hill
#
# Bulk Modulus (GPa) = 68.17726 89.30975 78.74351
# Shear Modulus (GPa) = 29.17054 36.09360 32.63207
#
# Velocity S-wave (km/s) = 3.93800 4.38044 4.16510
# Velocity P-wave (km/s) = 7.54466 8.54774 8.06181
#
# Compressibility (1/GPa) = 0.01466765
#
# Stress axis : x y z
#
# Youngs Moduli (GPa) = 81.84086 94.64315 144.79759
#
# Poissons Ratio (x) = 0.26147 0.33425
# Poissons Ratio (y) = 0.22610 0.35340
# Poissons Ratio (z) = 0.18892 0.23099
#
# Static dielectric constant tensor:
#      x y z
#    x 1.690560 -0.001640 0.024450 
#    y -0.001640 1.635340 0.015740 
#    z 0.024450 0.015740 1.758360 
# 
# From -- ./inp_files/76074.got.cif
#   From: 2010.05.17/outbox.cif.g08.bks.cpg/sg2_39_cif.got.tgz:76074.got - 2010.06.03 11:33:40.
