data_PCOD9065603
_publ_section_title
;
Structure prediction by ZEFSAII (Michael W. Deem and Ramdas Pophale) SiO2 
 PCOD9065603
Probable space group: P -1
;
_chemical_formula_sum "Si O2"
_cell_formula_units_Z 14
_cell_length_a 12.536487
_cell_length_b 11.934786
_cell_length_c 9.276269
_cell_angle_alpha 144.837612
_cell_angle_beta 44.198586
_cell_angle_gamma 136.350797
_cell_volume 523.542142
_symmetry_space_group_name_H-M "P -1"
_symmetry_group_IT_number 2
_symmetry_cell_setting 'triclinic'
loop_
_space_group_symop_operation_xyz
x,y,z
-x,-y,-z
loop_
_atom_site_type_symbol
_atom_site_label
_atom_site_fract_x
_atom_site_fract_y
_atom_site_fract_z
Si Si1 0.667512 0.879642 0.668512
Si Si2 0.348500 0.403290 0.353917
Si Si3 0.739650 0.213779 0.561607
Si Si4 0.181855 0.388524 0.965973
Si Si5 0.090848 0.232823 0.194909
Si Si6 0.502957 0.798024 0.471518
Si Si7 0.129715 0.664536 0.945466
O O1 0.604061 0.726517 0.704603
O O2 0.527274 0.894194 0.711138
O O3 0.787308 0.106376 0.831229
O O4 0.762754 0.757373 0.350337
O O5 0.479624 0.559153 0.282933
O O6 0.209575 0.247916 0.228052
O O7 0.257315 0.552253 0.664780
O O8 0.723125 0.362882 0.865754
O O9 0.934262 0.296436 0.446440
O O10 0.648585 0.223157 0.508946
O O11 0.655210 0.972406 0.431685
O O12 0.193823 0.344679 0.076768
O O13 0.987811 0.323170 0.057640
O O14 0.000000 0.000000 0.000000
O O15 0.000000 0.500000 0.000000
#
# Coordination Sequence:
#
# PCOD9065603 Si02
#       7
#     2   2   2   2   2   2   2
#     4  12  28  46  73 113 155 199 246 297 379 455
#     4  12  26  50  75 111 151 197 249 309 374 442
#     4  11  24  49  76 110 147 198 248 312 376 433
#     4  12  23  45  77 109 146 189 255 315 363 436
#     4  12  25  45  78 112 142 188 257 316 367 431
#     4  11  26  48  72 108 154 199 247 299 376 451
#     4  12  25  45  76 109 150 194 251 312 371 430
#
# _framework density 26.740921
#
# number of rings (size 3 to 8) (size 9 to 14) (size 15 to 20)
#    0.000    0.286    4.286    4.714    2.000    1.143 
#    7.714    0.000    0.000    0.000    0.000    0.000 
#    0.000    0.000    0.000    0.000    0.000    0.000 
#
# Total GULP energy -78304.202843 kJ/mol
# GULP energy per Si atom -5593.157346 kJ/mol
# Density = 2.668006 g / cm^3
# Si number density = 26.740921 Si / 1000 Ang^3
#
#
#
# Elastic Constant Matrix: (Units=GPa)
#
#
# Indices 1 2 3 4 5 6 
#
# 1 133.7221 33.8884 45.7810 13.9614 41.4137 -14.0008
# 2 33.8884 168.9359 51.1345 12.6453 9.6308 -7.3963
# 3 45.7810 51.1345 146.5585 30.2211 8.1037 13.1661
# 4 13.9614 12.6453 30.2211 54.5410 14.7343 11.1427
# 5 41.4137 9.6308 8.1037 14.7343 52.8610 7.7387
# 6 -14.0008 -7.3963 13.1661 11.1427 7.7387 51.5915
#
#
#
# Elastic Compliance Matrix: (Units=1/GPa)
#
#
# Indices 1 2 3 4 5 6 
#
# 1 0.012630 -0.000593 -0.003813 0.000607 -0.010209 0.005716
# 2 -0.000593 0.006842 -0.002236 -0.000360 -0.000566 0.001553
# 3 -0.003813 -0.002236 0.009770 -0.004172 0.003570 -0.003483
# 4 0.000607 -0.000360 -0.004172 0.022695 -0.005676 -0.002872
# 5 -0.010209 -0.000566 0.003570 -0.005676 0.029063 -0.006896
# 6 0.005716 0.001553 -0.003483 -0.002872 -0.006896 0.023701
#
#
# Mechanical properties :
#
#
# Convention : Reuss Voigt Hill
#
# Bulk Modulus (GPa) = 62.65809 78.98047 70.81928
# Shear Modulus (GPa) = 40.54985 53.02622 46.78803
#
# Velocity S-wave (km/s) = 3.89832 4.45788 4.18745
# Velocity P-wave (km/s) = 6.61399 7.48976 7.06546
#
# Compressibility (1/GPa) = 0.01595963
#
# Stress axis : x y z
#
# Youngs Moduli (GPa) = 79.17347 146.14697 102.35168
#
# Poissons Ratio (x) = 0.08664 0.39025
# Poissons Ratio (y) = 0.04693 0.22888
# Poissons Ratio (z) = 0.30187 0.32681
#
# Static dielectric constant tensor:
#      x y z
#    x 2.313260 0.002950 -0.231440 
#    y 0.002950 2.115590 -0.053080 
#    z -0.231440 -0.053080 2.296880 
# 
# From -- ./inp_files/263719.got.cif
#   From: 2010.05.17/outbox.cif.g08.bks.cpg/sg2_132_cif.got.tgz:263719.got - 2010.06.03 11:33:40.
