data_PCOD9065491
_publ_section_title
;
Structure prediction by ZEFSAII (Michael W. Deem and Ramdas Pophale) SiO2 
 PCOD9065491
Probable space group: P -1
;
_chemical_formula_sum "Si O2"
_cell_formula_units_Z 14
_cell_length_a 23.377847
_cell_length_b 6.430502
_cell_length_c 5.707012
_cell_angle_alpha 46.948217
_cell_angle_beta 63.747818
_cell_angle_gamma 66.301562
_cell_volume 555.686455
_symmetry_space_group_name_H-M "P -1"
_symmetry_group_IT_number 2
_symmetry_cell_setting 'triclinic'
loop_
_space_group_symop_operation_xyz
x,y,z
-x,-y,-z
loop_
_atom_site_type_symbol
_atom_site_label
_atom_site_fract_x
_atom_site_fract_y
_atom_site_fract_z
Si Si1 0.127717 0.500828 0.133032
Si Si2 0.247125 0.692296 0.018855
Si Si3 0.332602 0.160892 0.419896
Si Si4 0.036913 0.909214 0.251167
Si Si5 0.855935 0.122268 0.594182
Si Si6 0.559497 0.179547 0.781591
Si Si7 0.565150 0.797118 0.454133
O O1 0.191506 0.628984 0.993031
O O2 0.069825 0.583920 0.362252
O O3 0.144881 0.161669 0.337054
O O4 0.110428 0.656585 0.794308
O O5 0.212090 0.711525 0.321290
O O6 0.302860 0.418655 0.107179
O O7 0.274053 0.991773 0.716146
O O8 0.389279 0.899673 0.451410
O O9 0.375583 0.318342 0.398039
O O10 0.104730 0.999423 0.147850
O O11 0.000000 0.000000 0.500000
O O12 0.000000 0.000000 0.000000
O O13 0.542161 0.512813 0.609021
O O14 0.500000 0.000000 0.000000
O O15 0.595545 0.008751 0.064882
O O16 0.500000 0.000000 0.500000
#
# Coordination Sequence:
#
# PCOD9065491 Si02
#       7
#     2   2   2   2   2   2   2
#     4  11  25  47  75 105 150 197 246 310 368 434
#     4  11  26  44  68 104 138 187 244 304 360 449
#     4  12  26  44  70 102 140 180 244 292 376 444
#     4  11  24  48  76 120 156 201 256 310 376 453
#     4  11  25  47  75 105 150 197 246 310 368 434
#     4  12  26  43  69  98 135 180 232 298 372 448
#     4  12  26  43  69  98 135 180 232 298 372 448
#
# _framework density 25.194064999999998
#
# number of rings (size 3 to 8) (size 9 to 14) (size 15 to 20)
#    0.000    0.571    2.857    4.286    2.000   11.429 
#    0.000    0.000    0.000    0.000    0.000    0.000 
#    0.000    0.000    0.000    0.000    0.000    0.000 
#
# Total GULP energy -77946.279840 kJ/mol
# GULP energy per Si atom -5567.591417 kJ/mol
# Density = 2.513672 g / cm^3
# Si number density = 25.194065 Si / 1000 Ang^3
#
#
#
# Elastic Constant Matrix: (Units=GPa)
#
#
# Indices 1 2 3 4 5 6 
#
# 1 116.8475 10.9206 10.8132 -10.5994 14.5227 12.5488
# 2 10.9206 143.8266 34.1053 -26.4638 -5.1192 6.0640
# 3 10.8132 34.1053 76.4750 -20.9340 1.4298 10.0902
# 4 -10.5994 -26.4638 -20.9340 47.7222 2.6979 -1.1009
# 5 14.5227 -5.1192 1.4298 2.6979 39.0843 -1.7902
# 6 12.5488 6.0640 10.0902 -1.1009 -1.7902 25.9642
#
#
#
# Elastic Compliance Matrix: (Units=1/GPa)
#
#
# Indices 1 2 3 4 5 6 
#
# 1 0.009804 -0.000300 0.000056 0.002153 -0.004057 -0.004879
# 2 -0.000300 0.008277 -0.002705 0.003265 0.001045 -0.000526
# 3 0.000056 -0.002705 0.016642 0.005773 -0.001645 -0.005732
# 4 0.002153 0.003265 0.005773 0.025846 -0.002511 -0.003124
# 5 -0.004057 0.001045 -0.001645 -0.002511 0.027654 0.004156
# 6 -0.004879 -0.000526 -0.005732 -0.003124 0.004156 0.043377
#
#
# Mechanical properties :
#
#
# Convention : Reuss Voigt Hill
#
# Bulk Modulus (GPa) = 34.69153 49.86970 42.28061
# Shear Modulus (GPa) = 33.98883 41.30814 37.64849
#
# Velocity S-wave (km/s) = 3.67697 4.05359 3.86986
# Velocity P-wave (km/s) = 5.64149 6.46111 6.06516
#
# Compressibility (1/GPa) = 0.02882548
#
# Stress axis : x y z
#
# Youngs Moduli (GPa) = 101.99489 120.81190 60.08891
#
# Poissons Ratio (x) = 0.03630 -0.00339
# Poissons Ratio (y) = 0.03064 0.16255
# Poissons Ratio (z) = -0.00576 0.32682
#
# Static dielectric constant tensor:
#      x y z
#    x 1.392030 0.264040 0.220790 
#    y 0.264040 2.208300 0.237260 
#    z 0.220790 0.237260 2.186500 
# 
# From -- ./inp_files/121354.got.cif
#   From: 2010.05.17/outbox.cif.g08.bks.cpg/sg2_61_cif.got.tgz:121354.got - 2010.06.03 11:33:40.
