data_PCOD9065812
_publ_section_title
;
Structure prediction by ZEFSAII (Michael W. Deem and Ramdas Pophale) SiO2 
 PCOD9065812
Probable space group: P -1
;
_chemical_formula_sum "Si O2"
_cell_formula_units_Z 11
_cell_length_a 6.610523
_cell_length_b 12.299548
_cell_length_c 12.295655
_cell_angle_alpha 151.795027
_cell_angle_beta 100.962007
_cell_angle_gamma 87.985961
_cell_volume 444.576126
_symmetry_space_group_name_H-M "P -1"
_symmetry_group_IT_number 2
_symmetry_cell_setting 'triclinic'
loop_
_space_group_symop_operation_xyz
x,y,z
-x,-y,-z
loop_
_atom_site_type_symbol
_atom_site_label
_atom_site_fract_x
_atom_site_fract_y
_atom_site_fract_z
Si Si1 0.866258 0.804382 0.038973
Si Si2 0.244451 0.657883 0.692513
Si Si3 0.167142 0.751642 0.207564
Si Si4 0.587568 0.937331 0.307531
Si Si5 0.548971 0.347438 0.518660
Si Si6 0.000000 0.000000 0.000000
O O1 0.677819 0.828381 0.119612
O O2 0.062739 0.838100 0.169177
O O3 0.773463 0.543005 0.746255
O O4 0.913037 0.983314 0.100725
O O5 0.363290 0.481378 0.607921
O O6 0.395056 0.728881 0.663571
O O7 0.000000 0.500000 0.500000
O O8 0.190854 0.870834 0.941102
O O9 0.401879 0.748459 0.187529
O O10 0.224529 0.933069 0.474781
O O11 0.000000 0.500000 0.000000
O O12 0.505854 0.148295 0.430944
#
# Coordination Sequence:
#
# PCOD9065812 Si02
#       6
#     2   2   2   2   2   1
#     4  12  26  45  76 112 154 200 254 317 377 462
#     4  11  25  43  68 107 155 199 250 307 370 460
#     4  11  26  51  77 110 149 202 258 318 384 453
#     4  11  26  49  76 112 151 199 255 322 383 447
#     4  11  25  44  72 108 152 201 251 309 381 448
#     4  12  26  44  74 110 152 206 244 308 388 448
#
# _framework density 24.742671000000001
#
# number of rings (size 3 to 8) (size 9 to 14) (size 15 to 20)
#    0.000    0.727    5.455    0.545    5.091    1.455 
#    3.273    0.000    0.000    0.000    0.000    0.000 
#    0.000    0.000    0.000    0.000    0.000    0.000 
#
# Total GULP energy -61298.750119 kJ/mol
# GULP energy per Si atom -5572.613647 kJ/mol
# Density = 2.468636 g / cm^3
# Si number density = 24.742671 Si / 1000 Ang^3
#
#
#
# Elastic Constant Matrix: (Units=GPa)
#
#
# Indices 1 2 3 4 5 6 
#
# 1 121.0857 14.2609 47.7543 5.5630 -3.0467 -1.0449
# 2 14.2609 91.5856 13.6880 -7.4469 19.0191 7.9553
# 3 47.7543 13.6880 59.2745 0.4470 14.6106 19.0268
# 4 5.5630 -7.4469 0.4470 27.3368 9.9011 -2.6380
# 5 -3.0467 19.0191 14.6106 9.9011 58.4577 1.4278
# 6 -1.0449 7.9553 19.0268 -2.6380 1.4278 54.2540
#
#
#
# Elastic Compliance Matrix: (Units=1/GPa)
#
#
# Indices 1 2 3 4 5 6 
#
# 1 0.014562 -0.002176 -0.014282 -0.004897 0.005739 0.005219
# 2 -0.002176 0.012902 0.000615 0.005734 -0.005394 -0.001729
# 3 -0.014282 0.000615 0.034536 0.005025 -0.010135 -0.011966
# 4 -0.004897 0.005734 0.005025 0.042875 -0.010631 -0.000333
# 5 0.005739 -0.005394 -0.010135 -0.010631 0.023413 0.003323
# 6 0.005219 -0.001729 -0.011966 -0.000333 0.003323 0.022879
#
#
# Mechanical properties :
#
#
# Convention : Reuss Voigt Hill
#
# Bulk Modulus (GPa) = 32.98826 47.03913 40.01370
# Shear Modulus (GPa) = 25.91223 41.09254 33.50239
#
# Velocity S-wave (km/s) = 3.23966 4.07971 3.68371
# Velocity P-wave (km/s) = 5.23024 6.42220 5.85662
#
# Compressibility (1/GPa) = 0.03031382
#
# Stress axis : x y z
#
# Youngs Moduli (GPa) = 68.67180 77.50598 28.95497
#
# Poissons Ratio (x) = 0.16867 0.41354
# Poissons Ratio (y) = 0.14944 -0.01781
# Poissons Ratio (z) = 0.98078 -0.04766
#
# Static dielectric constant tensor:
#      x y z
#    x 1.985220 -0.013530 -0.024550 
#    y -0.013530 1.977420 0.053960 
#    z -0.024550 0.053960 2.119290 
# 
# From -- ./inp_files/365516.got.cif
#   From: 2010.05.17/outbox.cif.g08.bks.cpg/sg2_183_cif.got.tgz:365516.got - 2010.06.03 11:33:40.
