data_PCOD9065327
_publ_section_title
;
Structure prediction by ZEFSAII (Michael W. Deem and Ramdas Pophale) SiO2 
 PCOD9065327
Probable space group: P -1
;
_chemical_formula_sum "Si O2"
_cell_formula_units_Z 14
_cell_length_a 9.010196
_cell_length_b 11.143210
_cell_length_c 13.699797
_cell_angle_alpha 134.471116
_cell_angle_beta 132.442787
_cell_angle_gamma 38.396701
_cell_volume 584.570716
_symmetry_space_group_name_H-M "P -1"
_symmetry_group_IT_number 2
_symmetry_cell_setting 'triclinic'
loop_
_space_group_symop_operation_xyz
x,y,z
-x,-y,-z
loop_
_atom_site_type_symbol
_atom_site_label
_atom_site_fract_x
_atom_site_fract_y
_atom_site_fract_z
Si Si1 0.850195 0.169536 0.590527
Si Si2 0.044499 0.110774 0.167112
Si Si3 0.319568 0.655841 0.562355
Si Si4 0.565732 0.157864 0.648250
Si Si5 0.149775 0.259370 0.904816
Si Si6 0.016114 0.496261 0.621649
Si Si7 0.658948 0.136944 0.126381
O O1 0.592704 0.391347 0.543940
O O2 0.689198 0.182555 0.621612
O O3 0.021002 0.242229 0.743778
O O4 0.088160 0.900854 0.546072
O O5 0.101820 0.274194 0.258162
O O6 0.790622 0.226040 0.182282
O O7 0.245842 0.945685 0.238132
O O8 0.000000 0.000000 0.000000
O O9 0.412415 0.747558 0.735289
O O10 0.126072 0.600483 0.466142
O O11 0.309727 0.356654 0.690564
O O12 0.500000 0.000000 0.500000
O O13 0.158762 0.108432 0.905539
O O14 0.437863 0.173716 0.983450
O O15 0.000000 0.500000 0.000000
O O16 0.000000 0.500000 0.500000
#
# Coordination Sequence:
#
# PCOD9065327 Si02
#       7
#     2   2   2   2   2   2   2
#     4  12  24  45  73 109 144 186 248 305 362 435
#     4  12  28  47  75 107 149 197 248 302 372 441
#     4  12  25  45  77 111 142 188 251 305 365 441
#     4  12  25  48  78 105 149 196 244 311 368 439
#     4  11  25  43  69  97 145 190 228 295 373 421
#     4  12  25  48  78 108 146 198 250 300 373 448
#     4  11  24  48  67 104 149 184 240 308 358 434
#
# _framework density 23.949197000000002
#
# number of rings (size 3 to 8) (size 9 to 14) (size 15 to 20)
#    0.000    0.286    5.714    2.571    2.000    6.286 
#    0.000    0.000    0.000    0.000    0.000    0.000 
#    0.000    0.000    0.000    0.000    0.000    0.000 
#
# Total GULP energy -78194.637879 kJ/mol
# GULP energy per Si atom -5585.331277 kJ/mol
# Density = 2.389469 g / cm^3
# Si number density = 23.949197 Si / 1000 Ang^3
#
#
#
# Elastic Constant Matrix: (Units=GPa)
#
#
# Indices 1 2 3 4 5 6 
#
# 1 73.9265 56.6339 44.5802 -9.7084 6.9514 5.2881
# 2 56.6339 168.7935 72.6617 -0.8117 1.8826 8.5577
# 3 44.5802 72.6617 196.9270 -12.7822 -2.2705 15.7411
# 4 -9.7084 -0.8117 -12.7822 65.7480 1.2619 4.8938
# 5 6.9514 1.8826 -2.2705 1.2619 36.5194 -1.2467
# 6 5.2881 8.5577 15.7411 4.8938 -1.2467 37.0030
#
#
#
# Elastic Compliance Matrix: (Units=1/GPa)
#
#
# Indices 1 2 3 4 5 6 
#
# 1 0.019954 -0.005626 -0.002231 0.002596 -0.003773 -0.001072
# 2 -0.005626 0.008659 -0.001971 -0.001103 0.000533 -0.000196
# 3 -0.002231 -0.001971 0.006559 0.001064 0.000825 -0.002128
# 4 0.002596 -0.001103 0.001064 0.016008 -0.001017 -0.002720
# 5 -0.003773 0.000533 0.000825 -0.001017 0.028199 0.001150
# 6 -0.001072 -0.000196 -0.002128 -0.002720 0.001150 0.028527
#
#
# Mechanical properties :
#
#
# Convention : Reuss Voigt Hill
#
# Bulk Modulus (GPa) = 64.44565 87.48875 75.96720
# Shear Modulus (GPa) = 37.66887 45.57216 41.62052
#
# Velocity S-wave (km/s) = 3.97024 4.36692 4.17330
# Velocity P-wave (km/s) = 6.92711 7.87635 7.41693
#
# Compressibility (1/GPa) = 0.01551695
#
# Stress axis : x y z
#
# Youngs Moduli (GPa) = 50.11406 115.48283 152.46064
#
# Poissons Ratio (x) = 0.64970 0.34010
# Poissons Ratio (y) = 0.28194 0.30053
# Poissons Ratio (z) = 0.11179 0.22764
#
# Static dielectric constant tensor:
#      x y z
#    x 2.013950 -0.111330 0.034880 
#    y -0.111330 2.335360 -0.113490 
#    z 0.034880 -0.113490 1.903350 
# 
# From -- ./inp_files/538730.got.cif
#   From: 2010.05.17/outbox.cif.g08.bks.cpg/sg2_270_cif.got.tgz:538730.got - 2010.06.03 11:33:40.
