data_PCOD9065154
_publ_section_title
;
Structure prediction by ZEFSAII (Michael W. Deem and Ramdas Pophale) SiO2 
 PCOD9065154
Probable space group: P -1
;
_chemical_formula_sum "Si O2"
_cell_formula_units_Z 15
_cell_length_a 9.238240
_cell_length_b 11.616823
_cell_length_c 6.328878
_cell_angle_alpha 82.806110
_cell_angle_beta 80.294856
_cell_angle_gamma 95.497948
_cell_volume 659.453664
_symmetry_space_group_name_H-M "P -1"
_symmetry_group_IT_number 2
_symmetry_cell_setting 'triclinic'
loop_
_space_group_symop_operation_xyz
x,y,z
-x,-y,-z
loop_
_atom_site_type_symbol
_atom_site_label
_atom_site_fract_x
_atom_site_fract_y
_atom_site_fract_z
Si Si1 0.545042 0.374901 0.455460
Si Si2 0.929617 0.618810 0.009171
Si Si3 0.936169 0.777075 0.362222
Si Si4 0.304169 0.286045 0.209357
Si Si5 0.533379 0.831593 0.144506
Si Si6 0.000000 0.000000 0.000000
Si Si7 0.818957 0.261000 0.366586
Si Si8 0.317968 0.924792 0.851118
O O1 0.500000 0.500000 0.500000
O O2 0.454823 0.336427 0.274252
O O3 0.496465 0.278926 0.670212
O O4 0.719581 0.366761 0.386951
O O5 0.903957 0.668091 0.235313
O O6 0.780322 0.617750 0.910720
O O7 0.000000 0.500000 0.000000
O O8 0.053338 0.711952 0.846566
O O9 0.808913 0.769119 0.572796
O O10 0.091218 0.764497 0.442126
O O11 0.939037 0.897054 0.210291
O O12 0.337647 0.193554 0.045130
O O13 0.581302 0.951874 0.226806
O O14 0.396082 0.851748 0.024306
O O15 0.159740 0.949646 0.966475
O O16 0.709618 0.150714 0.337153
#
# Coordination Sequence:
#
# PCOD9065154 Si02
#       8
#     2   2   2   2   2   1   2   2
#     4  12  28  45  74 107 146 188 245 295 360 434
#     4  11  26  46  74 100 147 188 236 298 359 422
#     4  11  26  47  71 106 145 184 241 295 358 430
#     4  11  25  48  72 106 142 193 237 290 363 426
#     4  11  26  50  68 105 150 189 236 298 367 422
#     4  12  22  46  70 100 138 184 234 292 350 418
#     4  11  26  47  71 113 137 189 243 295 363 421
#     4  11  24  47  73 101 148 187 236 303 355 431
#
# _framework density 22.746102
#
# number of rings (size 3 to 8) (size 9 to 14) (size 15 to 20)
#    0.000    0.800    2.667    3.200    7.467    2.667 
#    9.600    0.000    0.000    0.000    0.000    0.000 
#    0.000    0.000    0.000    0.000    0.000    0.000 
#
# Total GULP energy -83728.164538 kJ/mol
# GULP energy per Si atom -5581.877636 kJ/mol
# Density = 2.269433 g / cm^3
# Si number density = 22.746102 Si / 1000 Ang^3
#
#
#
# Elastic Constant Matrix: (Units=GPa)
#
#
# Indices 1 2 3 4 5 6 
#
# 1 113.6203 19.0547 36.2075 -3.6179 22.1360 -39.5628
# 2 19.0547 75.5594 34.7895 -9.7820 24.8254 -11.7388
# 3 36.2075 34.7895 75.4988 -1.2954 13.8001 -5.2837
# 4 -3.6179 -9.7820 -1.2954 23.4557 -11.8310 4.1833
# 5 22.1360 24.8254 13.8001 -11.8310 46.7325 -1.2185
# 6 -39.5628 -11.7388 -5.2837 4.1833 -1.2185 39.6825
#
#
#
# Elastic Compliance Matrix: (Units=1/GPa)
#
#
# Indices 1 2 3 4 5 6 
#
# 1 0.019224 0.004672 -0.008315 -0.003878 -0.009604 0.019555
# 2 0.004672 0.021509 -0.009656 0.002525 -0.009909 0.009164
# 3 -0.008315 -0.009656 0.020651 -0.001516 0.002373 -0.008164
# 4 -0.003878 0.002525 -0.001516 0.051421 0.013744 -0.008320
# 5 -0.009604 -0.009909 0.002373 0.013744 0.033662 -0.012606
# 6 0.019555 0.009164 -0.008164 -0.008320 -0.012606 0.046810
#
#
# Mechanical properties :
#
#
# Convention : Reuss Voigt Hill
#
# Bulk Modulus (GPa) = 28.74651 49.42021 39.08336
# Shear Modulus (GPa) = 21.60116 33.61593 27.60855
#
# Velocity S-wave (km/s) = 3.08501 3.84849 3.48770
# Velocity P-wave (km/s) = 5.03539 6.44375 5.78260
#
# Compressibility (1/GPa) = 0.03478683
#
# Stress axis : x y z
#
# Youngs Moduli (GPa) = 52.01787 46.49318 48.42382
#
# Poissons Ratio (x) = -0.21721 0.40263
# Poissons Ratio (y) = -0.24302 0.46756
# Poissons Ratio (z) = 0.43252 0.44892
#
# Static dielectric constant tensor:
#      x y z
#    x 1.852520 0.030780 -0.014970 
#    y 0.030780 1.835830 0.006070 
#    z -0.014970 0.006070 1.830560 
# 
# From -- ./inp_files/27056.got.cif
#   From: 2010.05.17/outbox.cif.g08.bks.cpg/sg2_14_cif.got.tgz:27056.got - 2010.06.03 11:33:40.
