data_PCOD9065552
_publ_section_title
;
Structure prediction by ZEFSAII (Michael W. Deem and Ramdas Pophale) SiO2 
 PCOD9065552
Probable space group: P -1
;
_chemical_formula_sum "Si O2"
_cell_formula_units_Z 16
_cell_length_a 11.519116
_cell_length_b 5.934019
_cell_length_c 22.305365
_cell_angle_alpha 136.254525
_cell_angle_beta 139.779416
_cell_angle_gamma 56.048581
_cell_volume 680.679691
_symmetry_space_group_name_H-M "P -1"
_symmetry_group_IT_number 2
_symmetry_cell_setting 'triclinic'
loop_
_space_group_symop_operation_xyz
x,y,z
-x,-y,-z
loop_
_atom_site_type_symbol
_atom_site_label
_atom_site_fract_x
_atom_site_fract_y
_atom_site_fract_z
Si Si1 0.564744 0.656708 0.805675
Si Si2 0.965593 0.619998 0.940505
Si Si3 0.923333 0.311445 0.563545
Si Si4 0.713713 0.334629 0.215193
Si Si5 0.584470 0.519964 0.404238
Si Si6 0.698294 0.223708 0.577372
Si Si7 0.069523 0.289077 0.803065
Si Si8 0.648834 0.258739 0.040266
O O1 0.756093 0.532524 0.833796
O O2 0.422052 0.476231 0.757344
O O3 0.459694 0.715326 0.713488
O O4 0.623205 0.939698 0.928834
O O5 0.073998 0.379599 0.892535
O O6 0.000000 0.500000 0.000000
O O7 0.000000 0.000000 0.000000
O O8 0.789979 0.480578 0.496533
O O9 0.797895 0.276633 0.564716
O O10 0.101629 0.486848 0.687792
O O11 0.000000 0.000000 0.500000
O O12 0.626084 0.257579 0.102309
O O13 0.788404 0.000283 0.210508
O O14 0.438321 0.504146 0.396946
O O15 0.578901 0.902141 0.457672
O O16 0.868845 0.204350 0.686899
O O17 0.150912 0.607761 0.865764
O O18 0.500000 0.500000 0.000000
#
# Coordination Sequence:
#
# PCOD9065552 Si02
#       8
#     2   2   2   2   2   2   2   2
#     4  12  26  46  70 112 145 191 252 309 382 455
#     4  12  28  50  76 112 157 203 259 319 383 463
#     4  12  27  45  75 107 143 193 250 314 384 462
#     4  12  27  45  71 105 145 196 243 312 379 463
#     4  11  26  48  72 104 146 188 247 312 384 456
#     4  11  24  49  71 105 142 192 248 304 388 452
#     4  12  24  47  74 102 145 199 243 308 379 460
#     4  12  26  44  73 102 147 189 247 304 377 449
#
# _framework density 23.505918999999999
#
# number of rings (size 3 to 8) (size 9 to 14) (size 15 to 20)
#    0.000    0.250    6.250    2.250    5.250    1.000 
#    2.250    0.000    0.000    0.000    0.000    0.000 
#    0.000    0.000    0.000    0.000    0.000    0.000 
#
# Total GULP energy -89221.325103 kJ/mol
# GULP energy per Si atom -5576.332819 kJ/mol
# Density = 2.345242 g / cm^3
# Si number density = 23.505919 Si / 1000 Ang^3
#
#
#
# Elastic Constant Matrix: (Units=GPa)
#
#
# Indices 1 2 3 4 5 6 
#
# 1 151.1405 8.1251 37.6775 3.7403 -0.2637 -0.5156
# 2 8.1251 33.0086 20.7298 -11.2888 -4.3751 -3.7548
# 3 37.6775 20.7298 123.5904 -13.9202 -5.5848 2.6153
# 4 3.7403 -11.2888 -13.9202 23.0727 -0.5442 3.1487
# 5 -0.2637 -4.3751 -5.5848 -0.5442 52.6400 -2.7357
# 6 -0.5156 -3.7548 2.6153 3.1487 -2.7357 24.4859
#
#
#
# Elastic Compliance Matrix: (Units=1/GPa)
#
#
# Indices 1 2 3 4 5 6 
#
# 1 0.007387 -0.001457 -0.002426 -0.003464 -0.000346 0.000598
# 2 -0.001457 0.040058 -0.004355 0.016630 0.003282 0.004805
# 3 -0.002426 -0.004355 0.010173 0.004735 0.000632 -0.002344
# 4 -0.003464 0.016630 0.004735 0.055621 0.002186 -0.004937
# 5 -0.000346 0.003282 0.000632 0.002186 0.019478 0.002324
# 6 0.000598 0.004805 -0.002344 -0.004937 0.002324 0.042734
#
#
# Mechanical properties :
#
#
# Convention : Reuss Voigt Hill
#
# Bulk Modulus (GPa) = 24.30679 48.97826 36.64253
# Shear Modulus (GPa) = 24.31432 36.12020 30.21726
#
# Velocity S-wave (km/s) = 3.21968 3.92426 3.58930
# Velocity P-wave (km/s) = 4.91782 6.43544 5.72712
#
# Compressibility (1/GPa) = 0.04114076
#
# Stress axis : x y z
#
# Youngs Moduli (GPa) = 135.38047 24.96400 98.30243
#
# Poissons Ratio (x) = 0.03638 0.23847
# Poissons Ratio (y) = 0.19728 0.42811
# Poissons Ratio (z) = 0.32842 0.10872
#
# Static dielectric constant tensor:
#      x y z
#    x 1.956000 0.085170 -0.012940 
#    y 0.085170 1.955820 0.088560 
#    z -0.012940 0.088560 2.097910 
# 
# From -- ./inp_files/82964.got.cif
#   From: 2010.05.17/outbox.cif.g08.bks.cpg/sg2_42_cif.got.tgz:82964.got - 2010.06.03 11:33:40.
