data_PCOD9065744
_publ_section_title
;
Structure prediction by ZEFSAII (Michael W. Deem and Ramdas Pophale) SiO2 
 PCOD9065744
Probable space group: P -1
;
_chemical_formula_sum "Si O2"
_cell_formula_units_Z 14
_cell_length_a 5.345245
_cell_length_b 17.306171
_cell_length_c 8.793709
_cell_angle_alpha 125.047665
_cell_angle_beta 86.009600
_cell_angle_gamma 117.865429
_cell_volume 566.095902
_symmetry_space_group_name_H-M "P -1"
_symmetry_group_IT_number 2
_symmetry_cell_setting 'triclinic'
loop_
_space_group_symop_operation_xyz
x,y,z
-x,-y,-z
loop_
_atom_site_type_symbol
_atom_site_label
_atom_site_fract_x
_atom_site_fract_y
_atom_site_fract_z
Si Si1 0.136885 0.050209 0.390028
Si Si2 0.275798 0.270605 0.730860
Si Si3 0.714762 0.420230 0.324675
Si Si4 0.710296 0.622585 0.437936
Si Si5 0.662949 0.931434 0.060708
Si Si6 0.267674 0.748461 0.090599
Si Si7 0.316290 0.847641 0.692299
O O1 0.107714 0.157760 0.510671
O O2 0.480583 0.104156 0.410633
O O3 0.000000 0.000000 0.500000
O O4 0.958914 0.958302 0.165187
O O5 0.414952 0.363969 0.701093
O O6 0.509004 0.260482 0.812971
O O7 0.033373 0.277805 0.848133
O O8 0.669385 0.502322 0.312253
O O9 0.448100 0.365382 0.393814
O O10 0.000000 0.500000 0.500000
O O11 0.772500 0.337771 0.135315
O O12 0.050304 0.722784 0.547194
O O13 0.421996 0.866838 0.131054
O O14 0.742970 0.055016 0.155348
O O15 0.534803 0.858504 0.832947
#
# Coordination Sequence:
#
# PCOD9065744 Si02
#       7
#     2   2   2   2   2   2   2
#     4  12  24  44  71 109 161 202 251 302 384 455
#     4  12  28  47  77 114 154 204 248 314 386 454
#     4  11  29  52  81 106 147 201 256 327 381 452
#     4  11  27  50  79 110 148 198 260 313 388 452
#     4  11  25  41  73 110 156 200 256 303 378 443
#     4  12  29  49  77 114 160 197 255 317 383 457
#     4  11  25  44  74 112 152 202 256 315 371 457
#
# _framework density 24.730793999999999
#
# number of rings (size 3 to 8) (size 9 to 14) (size 15 to 20)
#    0.000    0.571    2.857    3.000   12.000    3.429 
#    0.000    0.000    0.000    0.000    0.000    0.000 
#    0.000    0.000    0.000    0.000    0.000    0.000 
#
# Total GULP energy -78342.180579 kJ/mol
# GULP energy per Si atom -5595.870041 kJ/mol
# Density = 2.467451 g / cm^3
# Si number density = 24.730794 Si / 1000 Ang^3
#
#
#
# Elastic Constant Matrix: (Units=GPa)
#
#
# Indices 1 2 3 4 5 6 
#
# 1 84.6740 25.6524 23.5505 -3.6019 -3.8778 6.4895
# 2 25.6524 133.7581 3.7934 -16.6946 -10.8762 -0.9869
# 3 23.5505 3.7934 92.1761 -0.1552 -4.7984 7.9870
# 4 -3.6019 -16.6946 -0.1552 31.4574 -2.8718 -0.1841
# 5 -3.8778 -10.8762 -4.7984 -2.8718 48.0296 0.9601
# 6 6.4895 -0.9869 7.9870 -0.1841 0.9601 44.5692
#
#
#
# Elastic Compliance Matrix: (Units=1/GPa)
#
#
# Indices 1 2 3 4 5 6 
#
# 1 0.013592 -0.002475 -0.003231 0.000242 0.000258 -0.001460
# 2 -0.002475 0.008675 0.000350 0.004513 0.002060 0.000464
# 3 -0.003231 0.000350 0.011858 -0.000041 0.001034 -0.001669
# 4 0.000242 0.004513 -0.000041 0.034495 0.003097 0.000148
# 5 0.000258 0.002060 0.001034 0.003097 0.021609 -0.000630
# 6 -0.001460 0.000464 -0.001669 0.000148 -0.000630 0.022973
#
#
# Mechanical properties :
#
#
# Convention : Reuss Voigt Hill
#
# Bulk Modulus (GPa) = 42.70818 46.28898 44.49858
# Shear Modulus (GPa) = 37.95973 41.98537 39.97255
#
# Velocity S-wave (km/s) = 3.92205 4.12478 4.02469
# Velocity P-wave (km/s) = 6.14953 6.43761 6.29522
#
# Compressibility (1/GPa) = 0.02341472
#
# Stress axis : x y z
#
# Youngs Moduli (GPa) = 73.57151 115.27247 84.32975
#
# Poissons Ratio (x) = 0.28527 0.27244
# Poissons Ratio (y) = 0.18207 -0.02951
# Poissons Ratio (z) = 0.23768 -0.04033
#
# Static dielectric constant tensor:
#      x y z
#    x 2.060370 -0.079720 0.033680 
#    y -0.079720 2.020430 -0.026090 
#    z 0.033680 -0.026090 1.985480 
# 
# From -- ./inp_files/122572.got.cif
#   From: 2010.05.17/outbox.cif.g08.bks.cpg/sg2_62_cif.got.tgz:122572.got - 2010.06.03 11:33:40.
