data_PCOD9065731
_publ_section_title
;
Structure prediction by ZEFSAII (Michael W. Deem and Ramdas Pophale) SiO2 
 PCOD9065731
Probable space group: P -1
;
_chemical_formula_sum "Si O2"
_cell_formula_units_Z 16
_cell_length_a 17.743854
_cell_length_b 11.763241
_cell_length_c 9.605806
_cell_angle_alpha 38.276161
_cell_angle_beta 98.649673
_cell_angle_gamma 128.286266
_cell_volume 704.634695
_symmetry_space_group_name_H-M "P -1"
_symmetry_group_IT_number 2
_symmetry_cell_setting 'triclinic'
loop_
_space_group_symop_operation_xyz
x,y,z
-x,-y,-z
loop_
_atom_site_type_symbol
_atom_site_label
_atom_site_fract_x
_atom_site_fract_y
_atom_site_fract_z
Si Si1 0.251766 0.277160 0.465959
Si Si2 0.750850 0.272758 0.421624
Si Si3 0.402460 0.359532 0.983480
Si Si4 0.743728 0.611911 0.936690
Si Si5 0.145935 0.700616 0.858661
Si Si6 0.055140 0.208598 0.501097
Si Si7 0.625733 0.655604 0.312950
Si Si8 0.114153 0.578135 0.422208
O O1 0.309710 0.486484 0.141130
O O2 0.118433 0.131628 0.598206
O O3 0.329635 0.415727 0.498888
O O4 0.227946 0.022185 0.649382
O O5 0.803704 0.262892 0.312932
O O6 0.857969 0.486007 0.368910
O O7 0.640384 0.929561 0.790713
O O8 0.695879 0.350722 0.269204
O O9 0.293083 0.274263 0.105037
O O10 0.500000 0.500000 0.000000
O O11 0.427017 0.501673 0.704747
O O12 0.903514 0.905883 0.698422
O O13 0.137220 0.499339 0.139322
O O14 0.000000 0.500000 0.000000
O O15 0.066530 0.342677 0.518465
O O16 0.500000 0.500000 0.500000
O O17 0.757157 0.046787 0.953769
O O18 0.000000 0.500000 0.500000
#
# Coordination Sequence:
#
# PCOD9065731 Si02
#       8
#     2   2   2   2   2   2   2   2
#     4  12  24  40  70 102 139 186 230 285 346 418
#     4  11  25  41  66  99 139 176 233 288 350 414
#     4  11  25  48  72  92 134 187 235 289 349 416
#     4  12  24  41  67 106 139 180 231 287 352 416
#     4  12  20  39  65  97 142 182 225 278 341 418
#     4  12  24  39  67 108 140 183 231 282 353 417
#     4  11  26  47  72 102 137 188 237 287 351 411
#     4  11  25  45  70 103 143 186 229 291 355 411
#
# _framework density 22.706800999999999
#
# number of rings (size 3 to 8) (size 9 to 14) (size 15 to 20)
#    0.000    0.500    5.000    4.125    3.500    1.000 
#    0.000    0.625    0.000    0.000    0.000    0.000 
#    0.000    0.000    0.000    0.000    0.000    0.000 
#
# Total GULP energy -89322.771989 kJ/mol
# GULP energy per Si atom -5582.673249 kJ/mol
# Density = 2.265512 g / cm^3
# Si number density = 22.706801 Si / 1000 Ang^3
#
#
#
# Elastic Constant Matrix: (Units=GPa)
#
#
# Indices 1 2 3 4 5 6 
#
# 1 111.6230 36.7573 35.7890 10.5412 6.3778 14.8005
# 2 36.7573 151.5321 23.5867 51.7974 7.7484 11.1874
# 3 35.7890 23.5867 51.7212 27.1402 8.9532 10.3533
# 4 10.5412 51.7974 27.1402 41.8076 5.7083 7.6273
# 5 6.3778 7.7484 8.9532 5.7083 40.4008 5.0997
# 6 14.8005 11.1874 10.3533 7.6273 5.0997 42.8351
#
#
#
# Elastic Compliance Matrix: (Units=1/GPa)
#
#
# Indices 1 2 3 4 5 6 
#
# 1 0.014113 -0.005298 -0.013198 0.011980 0.000333 -0.002475
# 2 -0.005298 0.013890 0.008698 -0.021420 -0.000729 0.000002
# 3 -0.013198 0.008698 0.043978 -0.035139 -0.004165 -0.001588
# 4 0.011980 -0.021420 -0.035139 0.070688 0.000355 -0.002681
# 5 0.000333 -0.000729 -0.004165 0.000355 0.025974 -0.002073
# 6 -0.002475 0.000002 -0.001588 -0.002681 -0.002073 0.025308
#
#
# Mechanical properties :
#
#
# Convention : Reuss Voigt Hill
#
# Bulk Modulus (GPa) = 19.08985 56.34916 37.71950
# Shear Modulus (GPa) = 21.64424 39.59157 30.61790
#
# Velocity S-wave (km/s) = 3.09075 4.18017 3.67604
# Velocity P-wave (km/s) = 4.60026 6.94034 5.88773
#
# Compressibility (1/GPa) = 0.05238386
#
# Stress axis : x y z
#
# Youngs Moduli (GPa) = 70.85774 71.99673 22.73865
#
# Poissons Ratio (x) = 0.38146 0.30009
# Poissons Ratio (y) = 0.37542 -0.19777
# Poissons Ratio (z) = 0.93515 -0.62620
#
# Static dielectric constant tensor:
#      x y z
#    x 1.810730 0.040150 0.011590 
#    y 0.040150 1.898220 -0.004770 
#    z 0.011590 -0.004770 1.929220 
# 
# From -- ./inp_files/332740.got.cif
#   From: 2010.05.17/outbox.cif.g08.bks.cpg/sg2_167_cif.got.tgz:332740.got - 2010.06.03 11:33:40.
