data_PCOD9065429
_publ_section_title
;
Structure prediction by ZEFSAII (Michael W. Deem and Ramdas Pophale) SiO2 
 PCOD9065429
Probable space group: P -1
;
_chemical_formula_sum "Si O2"
_cell_formula_units_Z 16
_cell_length_a 8.564574
_cell_length_b 9.148970
_cell_length_c 11.641539
_cell_angle_alpha 89.606512
_cell_angle_beta 53.712422
_cell_angle_gamma 99.552783
_cell_volume 718.721412
_symmetry_space_group_name_H-M "P -1"
_symmetry_group_IT_number 2
_symmetry_cell_setting 'triclinic'
loop_
_space_group_symop_operation_xyz
x,y,z
-x,-y,-z
loop_
_atom_site_type_symbol
_atom_site_label
_atom_site_fract_x
_atom_site_fract_y
_atom_site_fract_z
Si Si1 0.289351 0.147340 0.606746
Si Si2 0.903194 0.083032 0.639122
Si Si3 0.330462 0.548448 0.997455
Si Si4 0.818872 0.367313 0.547681
Si Si5 0.109358 0.591601 0.740243
Si Si6 0.353230 0.866633 0.709877
Si Si7 0.488184 0.100491 0.115244
Si Si8 0.612214 0.589777 0.269870
O O1 0.458012 0.183961 0.433391
O O2 0.336444 0.245204 0.700147
O O3 0.077259 0.156066 0.649067
O O4 0.290612 0.981316 0.648654
O O5 0.809870 0.218060 0.627956
O O6 0.745648 0.945876 0.761351
O O7 0.000000 0.000000 0.500000
O O8 0.409925 0.726387 0.947705
O O9 0.315782 0.458295 0.883998
O O10 0.500000 0.500000 0.000000
O O11 0.111361 0.504241 0.148081
O O12 0.856646 0.332694 0.399184
O O13 0.623831 0.436505 0.638523
O O14 0.000000 0.500000 0.500000
O O15 0.171638 0.725827 0.803086
O O16 0.277943 0.496537 0.685999
O O17 0.418139 0.937831 0.804559
O O18 0.500000 0.000000 0.000000
#
# Coordination Sequence:
#
# PCOD9065429 Si02
#       8
#     2   2   2   2   2   2   2   2
#     4  11  25  44  78 112 147 193 249 319 373 444
#     4  12  27  48  77 110 152 198 252 310 382 441
#     4  12  31  50  74 107 158 203 250 311 383 453
#     4  12  27  43  78 114 151 192 254 314 376 449
#     4  12  26  48  76 107 153 200 249 310 380 446
#     4  11  24  48  73 110 152 191 252 308 377 443
#     4  12  30  50  75 104 155 202 251 308 374 460
#     4  12  26  48  75 111 149 200 256 311 374 454
#
# _framework density 22.261755999999998
#
# number of rings (size 3 to 8) (size 9 to 14) (size 15 to 20)
#    0.000    0.250    3.750    3.750   14.000    0.000 
#    0.000    1.250    0.000    0.000    0.000    0.000 
#    0.000    0.000    0.000    0.000    0.000    0.000 
#
# Total GULP energy -89415.881202 kJ/mol
# GULP energy per Si atom -5588.492575 kJ/mol
# Density = 2.221109 g / cm^3
# Si number density = 22.261756 Si / 1000 Ang^3
#
#
#
# Elastic Constant Matrix: (Units=GPa)
#
#
# Indices 1 2 3 4 5 6 
#
# 1 137.2260 34.7660 27.5770 -12.8761 -12.9268 -3.1999
# 2 34.7660 99.6789 32.8647 -8.0474 -9.2462 9.7740
# 3 27.5770 32.8647 88.0305 -1.9538 -10.8271 -1.0674
# 4 -12.8761 -8.0474 -1.9538 38.2901 15.0556 5.6119
# 5 -12.9268 -9.2462 -10.8271 15.0556 43.0944 2.9188
# 6 -3.1999 9.7740 -1.0674 5.6119 2.9188 35.6969
#
#
#
# Elastic Compliance Matrix: (Units=1/GPa)
#
#
# Indices 1 2 3 4 5 6 
#
# 1 0.008472 -0.002281 -0.001634 0.001766 0.000958 0.000979
# 2 -0.002281 0.012779 -0.003986 0.002091 0.000610 -0.004201
# 3 -0.001634 -0.003986 0.013662 -0.001952 0.002671 0.001442
# 4 0.001766 0.002091 -0.001952 0.031778 -0.010301 -0.004626
# 5 0.000958 0.000610 0.002671 -0.010301 0.027938 -0.000666
# 6 0.000979 -0.004201 0.001442 -0.004626 -0.000666 0.030077
#
#
# Mechanical properties :
#
#
# Convention : Reuss Voigt Hill
#
# Bulk Modulus (GPa) = 52.32031 57.26119 54.79075
# Shear Modulus (GPa) = 34.04165 38.73146 36.38656
#
# Velocity S-wave (km/s) = 3.91468 4.17564 4.04727
# Velocity P-wave (km/s) = 6.63222 7.00183 6.81953
#
# Compressibility (1/GPa) = 0.01911304
#
# Stress axis : x y z
#
# Youngs Moduli (GPa) = 118.03304 78.25149 73.19439
#
# Poissons Ratio (x) = 0.17848 0.11957
# Poissons Ratio (y) = 0.26922 0.29174
# Poissons Ratio (z) = 0.19282 0.31190
#
# Static dielectric constant tensor:
#      x y z
#    x 1.876480 0.042000 0.030590 
#    y 0.042000 1.835290 -0.009260 
#    z 0.030590 -0.009260 1.888790 
# 
# From -- ./inp_files/382222.got.cif
#   From: 2010.05.17/outbox.cif.g08.bks.cpg/sg2_192_cif.got.tgz:382222.got - 2010.06.03 11:33:40.
