data_PCOD9065758
_publ_section_title
;
Structure prediction by ZEFSAII (Michael W. Deem and Ramdas Pophale) SiO2 
 PCOD9065758
Probable space group: P -1
;
_chemical_formula_sum "Si O2"
_cell_formula_units_Z 16
_cell_length_a 17.401709
_cell_length_b 6.117566
_cell_length_c 9.329091
_cell_angle_alpha 130.093177
_cell_angle_beta 73.717285
_cell_angle_gamma 90.739228
_cell_volume 710.009861
_symmetry_space_group_name_H-M "P -1"
_symmetry_group_IT_number 2
_symmetry_cell_setting 'triclinic'
loop_
_space_group_symop_operation_xyz
x,y,z
-x,-y,-z
loop_
_atom_site_type_symbol
_atom_site_label
_atom_site_fract_x
_atom_site_fract_y
_atom_site_fract_z
Si Si1 0.412164 0.709072 0.593365
Si Si2 0.833660 0.922061 0.880785
Si Si3 0.012396 0.834622 0.087745
Si Si4 0.126417 0.750976 0.477305
Si Si5 0.453239 0.139718 0.944154
Si Si6 0.234494 0.686320 0.663278
Si Si7 0.224396 0.078053 0.390311
Si Si8 0.399722 0.804751 0.316213
O O1 0.500000 0.500000 0.500000
O O2 0.332761 0.572298 0.571886
O O3 0.412306 0.853056 0.497828
O O4 0.395523 0.949709 0.827482
O O5 0.878834 0.577027 0.702120
O O6 0.768804 0.944984 0.794899
O O7 0.896307 0.131654 0.910536
O O8 0.794227 0.035832 0.101879
O O9 0.950724 0.060349 0.318219
O O10 0.000000 0.500000 0.000000
O O11 0.000000 0.000000 0.000000
O O12 0.202624 0.750724 0.546431
O O13 0.153680 0.913882 0.397516
O O14 0.523512 0.135824 0.787019
O O15 0.406133 0.461221 0.144593
O O16 0.500000 0.000000 0.000000
O O17 0.195298 0.411284 0.602870
O O18 0.312619 0.959763 0.363951
#
# Coordination Sequence:
#
# PCOD9065758 Si02
#       8
#     2   2   2   2   2   2   2   2
#     4  12  24  42  70  93 139 188 236 299 369 429
#     4  11  27  45  76 108 145 194 247 298 372 440
#     4  12  27  50  82 113 158 199 251 308 376 453
#     4  11  25  48  75 105 149 191 244 301 370 440
#     4  11  25  42  67  95 133 178 241 298 364 437
#     4  11  25  45  68 105 144 188 241 302 367 441
#     4  11  26  43  71 103 143 187 240 303 363 440
#     4  11  25  44  64  98 135 181 238 299 366 436
#
# _framework density 22.534898999999999
#
# number of rings (size 3 to 8) (size 9 to 14) (size 15 to 20)
#    0.000    0.750    3.750    2.250    7.000    2.500 
#    0.000    0.000    0.000    0.000    0.000    0.000 
#    0.000    0.000    0.000    0.000    0.000    0.000 
#
# Total GULP energy -89272.763438 kJ/mol
# GULP energy per Si atom -5579.547715 kJ/mol
# Density = 2.248361 g / cm^3
# Si number density = 22.534899 Si / 1000 Ang^3
#
#
#
# Elastic Constant Matrix: (Units=GPa)
#
#
# Indices 1 2 3 4 5 6 
#
# 1 66.2119 2.8807 14.2462 -0.1184 13.5687 -0.8404
# 2 2.8807 85.1256 47.2326 8.0379 13.6149 1.1984
# 3 14.2462 47.2326 128.6467 6.0393 15.0208 1.3925
# 4 -0.1184 8.0379 6.0393 35.4387 -6.1539 7.9129
# 5 13.5687 13.6149 15.0208 -6.1539 33.2029 -2.5643
# 6 -0.8404 1.1984 1.3925 7.9129 -2.5643 30.7803
#
#
#
# Elastic Compliance Matrix: (Units=1/GPa)
#
#
# Indices 1 2 3 4 5 6 
#
# 1 0.016808 0.001531 -0.001545 -0.001295 -0.007021 0.000217
# 2 0.001531 0.015768 -0.005154 -0.003669 -0.005428 0.000152
# 3 -0.001545 -0.005154 0.010114 -0.000853 -0.002008 -0.000247
# 4 -0.001295 -0.003669 -0.000853 0.032219 0.007813 -0.007486
# 5 -0.007021 -0.005428 -0.002008 0.007813 0.037665 0.001240
# 6 0.000217 0.000152 -0.000247 -0.007486 0.001240 0.034527
#
#
# Mechanical properties :
#
#
# Convention : Reuss Voigt Hill
#
# Bulk Modulus (GPa) = 30.90965 45.41145 38.16055
# Shear Modulus (GPa) = 29.72250 34.25937 31.99094
#
# Velocity S-wave (km/s) = 3.63568 3.90331 3.77187
# Velocity P-wave (km/s) = 5.60092 6.36473 5.99500
#
# Compressibility (1/GPa) = 0.03235236
#
# Stress axis : x y z
#
# Youngs Moduli (GPa) = 59.49527 63.41992 98.87400
#
# Poissons Ratio (x) = -0.09707 0.15277
# Poissons Ratio (y) = -0.09107 0.50963
# Poissons Ratio (z) = 0.09192 0.32689
#
# Static dielectric constant tensor:
#      x y z
#    x 1.780820 0.039900 -0.025880 
#    y 0.039900 1.931740 0.018060 
#    z -0.025880 0.018060 1.820280 
# 
# From -- ./inp_files/106110.got.cif
#   From: 2010.05.17/outbox.cif.g08.bks.cpg/sg2_54_cif.got.tgz:106110.got - 2010.06.03 11:33:40.
