data_PCOD9065114
_publ_section_title
;
Structure prediction by ZEFSAII (Michael W. Deem and Ramdas Pophale) SiO2 
 PCOD9065114
Probable space group: P -1
;
_chemical_formula_sum "Si O2"
_cell_formula_units_Z 16
_cell_length_a 5.189401
_cell_length_b 9.055411
_cell_length_c 18.682437
_cell_angle_alpha 47.256674
_cell_angle_beta 87.141476
_cell_angle_gamma 81.214131
_cell_volume 635.433371
_symmetry_space_group_name_H-M "P -1"
_symmetry_group_IT_number 2
_symmetry_cell_setting 'triclinic'
loop_
_space_group_symop_operation_xyz
x,y,z
-x,-y,-z
loop_
_atom_site_type_symbol
_atom_site_label
_atom_site_fract_x
_atom_site_fract_y
_atom_site_fract_z
Si Si1 0.096161 0.585633 0.544541
Si Si2 0.371185 0.234564 0.749978
Si Si3 0.558810 0.419207 0.262792
Si Si4 0.266293 0.940223 0.972468
Si Si5 0.286997 0.007005 0.562854
Si Si6 0.361516 0.876001 0.364914
Si Si7 0.928998 0.713494 0.756226
Si Si8 0.242992 0.508822 0.045750
O O1 0.150994 0.396412 0.659557
O O2 0.342763 0.683220 0.479570
O O3 0.000000 0.500000 0.500000
O O4 0.907793 0.782574 0.512752
O O5 0.483536 0.376318 0.759387
O O6 0.570174 0.167211 0.704069
O O7 0.279682 0.057804 0.857224
O O8 0.272818 0.365115 0.270533
O O9 0.781584 0.421970 0.197253
O O10 0.747721 0.230808 0.362099
O O11 0.255001 0.705016 0.031195
O O12 0.500000 0.000000 0.000000
O O13 0.000000 0.000000 0.000000
O O14 0.416369 0.022211 0.633824
O O15 0.500000 0.000000 0.500000
O O16 0.100736 0.041019 0.327178
O O17 0.770122 0.682090 0.840834
O O18 0.500000 0.500000 0.000000
O O19 0.000000 0.500000 0.000000
#
# Coordination Sequence:
#
# PCOD9065114 Si02
#       8
#     2   2   2   2   2   2   2   2
#     4  12  26  43  71 107 154 193 250 306 377 461
#     4  12  27  45  75 108 147 205 250 317 389 460
#     4  11  25  44  70 103 139 193 248 298 372 443
#     4  12  28  54  78 114 157 203 267 336 399 464
#     4  11  25  45  68 101 151 196 244 303 361 449
#     4  11  25  46  65 108 149 191 247 299 372 460
#     4  11  24  47  72 102 145 190 247 311 374 448
#     4  12  25  45  77 110 144 194 256 323 392 460
#
# _framework density 25.179663000000001
#
# number of rings (size 3 to 8) (size 9 to 14) (size 15 to 20)
#    0.000    0.500    2.500    4.875    5.250    4.000 
#    0.000    0.000    0.000    0.000    0.000    0.000 
#    0.000    0.000    0.000    0.000    0.000    0.000 
#
# Total GULP energy -89345.367527 kJ/mol
# GULP energy per Si atom -5584.085470 kJ/mol
# Density = 2.512235 g / cm^3
# Si number density = 25.179663 Si / 1000 Ang^3
#
#
#
# Elastic Constant Matrix: (Units=GPa)
#
#
# Indices 1 2 3 4 5 6 
#
# 1 134.1251 38.1053 -4.6055 8.3816 -7.0896 8.9744
# 2 38.1053 98.3081 -12.5595 -1.4479 -0.1919 -20.3570
# 3 -4.6055 -12.5595 93.8441 -2.9154 12.7766 7.2283
# 4 8.3816 -1.4479 -2.9154 40.5540 -4.6352 -6.2275
# 5 -7.0896 -0.1919 12.7766 -4.6352 24.0597 6.0781
# 6 8.9744 -20.3570 7.2283 -6.2275 6.0781 39.0585
#
#
#
# Elastic Compliance Matrix: (Units=1/GPa)
#
#
# Indices 1 2 3 4 5 6 
#
# 1 0.009626 -0.005008 -0.000371 -0.002632 0.003949 -0.005788
# 2 -0.005008 0.014283 0.001579 0.002631 -0.004056 0.009353
# 3 -0.000371 0.001579 0.011722 0.000226 -0.006213 -0.000258
# 4 -0.002632 0.002631 0.000226 0.026511 0.002786 0.005728
# 5 0.003949 -0.004056 -0.006213 0.002786 0.048810 -0.009023
# 6 -0.005788 0.009353 -0.000258 0.005728 -0.009023 0.034172
#
#
# Mechanical properties :
#
#
# Convention : Reuss Voigt Hill
#
# Bulk Modulus (GPa) = 35.67583 40.90646 38.29114
# Shear Modulus (GPa) = 30.85122 41.09024 35.97073
#
# Velocity S-wave (km/s) = 3.50415 4.04404 3.78373
# Velocity P-wave (km/s) = 5.52913 6.17145 5.85910
#
# Compressibility (1/GPa) = 0.02803018
#
# Stress axis : x y z
#
# Youngs Moduli (GPa) = 103.88206 70.01443 85.31063
#
# Poissons Ratio (x) = 0.35065 0.03169
# Poissons Ratio (y) = 0.52027 -0.13473
# Poissons Ratio (z) = 0.03859 -0.11058
#
# Static dielectric constant tensor:
#      x y z
#    x 2.418070 0.266910 -0.453910 
#    y 0.266910 1.861030 -0.298090 
#    z -0.453910 -0.298090 2.691110 
# 
# From -- ./inp_files/547745.got.cif
#   From: 2010.05.17/outbox.cif.g08.bks.cpg/sg2_274_cif.got.tgz:547745.got - 2010.06.03 11:33:40.
