data_PCOD9065560
_publ_section_title
;
Structure prediction by ZEFSAII (Michael W. Deem and Ramdas Pophale) SiO2 
 PCOD9065560
Probable space group: P -1
;
_chemical_formula_sum "Si O2"
_cell_formula_units_Z 14
_cell_length_a 11.565158
_cell_length_b 12.806337
_cell_length_c 6.752082
_cell_angle_alpha 46.736866
_cell_angle_beta 118.253168
_cell_angle_gamma 104.042319
_cell_volume 636.243582
_symmetry_space_group_name_H-M "P -1"
_symmetry_group_IT_number 2
_symmetry_cell_setting 'triclinic'
loop_
_space_group_symop_operation_xyz
x,y,z
-x,-y,-z
loop_
_atom_site_type_symbol
_atom_site_label
_atom_site_fract_x
_atom_site_fract_y
_atom_site_fract_z
Si Si1 0.845934 0.687226 0.106688
Si Si2 0.747291 0.277991 0.094131
Si Si3 0.858587 0.015653 0.758883
Si Si4 0.624953 0.527534 0.933905
Si Si5 0.409592 0.984307 0.253657
Si Si6 0.518922 0.777662 0.259061
Si Si7 0.925534 0.471466 0.775995
O O1 0.873514 0.621667 0.432620
O O2 0.970187 0.619521 0.164828
O O3 0.834347 0.858753 0.863787
O O4 0.718413 0.622413 0.005893
O O5 0.846587 0.139542 0.422152
O O6 0.707046 0.379051 0.120181
O O7 0.615872 0.227112 0.964189
O O8 0.810839 0.376098 0.859649
O O9 0.732515 0.057451 0.746065
O O10 0.000000 0.000000 0.000000
O O11 0.579066 0.619039 0.581450
O O12 0.500000 0.500000 0.000000
O O13 0.484651 0.868190 0.314855
O O14 0.500000 0.000000 0.500000
O O15 0.392056 0.134876 0.922274
O O16 0.000000 0.500000 0.000000
#
# Coordination Sequence:
#
# PCOD9065560 Si02
#       7
#     2   2   2   2   2   2   2
#     4  11  27  46  75 102 145 196 240 301 370 434
#     4  12  26  46  73 108 148 186 246 306 367 438
#     4  12  28  45  74 111 149 192 240 308 370 434
#     4  12  26  45  76 109 147 191 252 306 366 443
#     4  11  24  49  73 103 152 189 247 302 365 444
#     4  11  26  44  76 104 138 199 243 302 369 430
#     4  11  24  49  72 100 143 191 244 294 363 444
#
# _framework density 22.004151
#
# number of rings (size 3 to 8) (size 9 to 14) (size 15 to 20)
#    0.000    0.571    2.857    3.857   10.000    1.714 
#    0.000    0.000    0.000    0.000    0.000    0.000 
#    0.000    0.000    0.000    0.000    0.000    0.000 
#
# Total GULP energy -78423.006554 kJ/mol
# GULP energy per Si atom -5601.643325 kJ/mol
# Density = 2.195407 g / cm^3
# Si number density = 22.004151 Si / 1000 Ang^3
#
#
#
# Elastic Constant Matrix: (Units=GPa)
#
#
# Indices 1 2 3 4 5 6 
#
# 1 94.2509 9.3286 7.8218 -3.5694 -11.7465 10.9384
# 2 9.3286 112.9803 35.0204 -4.7014 7.7489 5.6327
# 3 7.8218 35.0204 118.6759 -14.5576 8.2993 -9.5995
# 4 -3.5694 -4.7014 -14.5576 44.1312 6.6332 8.0350
# 5 -11.7465 7.7489 8.2993 6.6332 39.7548 3.3766
# 6 10.9384 5.6327 -9.5995 8.0350 3.3766 29.2503
#
#
#
# Elastic Compliance Matrix: (Units=1/GPa)
#
#
# Indices 1 2 3 4 5 6 
#
# 1 0.011970 -0.000580 -0.001254 0.000858 0.004236 -0.005501
# 2 -0.000580 0.010084 -0.002968 0.000760 -0.001411 -0.002745
# 3 -0.001254 -0.002968 0.010219 0.002635 -0.002703 0.003982
# 4 0.000858 0.000760 0.002635 0.025417 -0.004167 -0.006103
# 5 0.004236 -0.001411 -0.002703 -0.004167 0.028308 -0.004322
# 6 -0.005501 -0.002745 0.003982 -0.006103 -0.004322 0.040256
#
#
# Mechanical properties :
#
#
# Convention : Reuss Voigt Hill
#
# Bulk Modulus (GPa) = 44.11070 47.80541 45.95805
# Shear Modulus (GPa) = 34.86426 40.87636 37.87031
#
# Velocity S-wave (km/s) = 3.98482 4.31474 4.15306
# Velocity P-wave (km/s) = 6.42353 6.82609 6.62787
#
# Compressibility (1/GPa) = 0.02267024
#
# Stress axis : x y z
#
# Youngs Moduli (GPa) = 83.54056 99.16560 97.85708
#
# Poissons Ratio (x) = 0.05755 0.12268
# Poissons Ratio (y) = 0.04848 0.29040
# Poissons Ratio (z) = 0.10473 0.29428
#
# Static dielectric constant tensor:
#      x y z
#    x 1.771340 -0.019640 -0.007970 
#    y -0.019640 1.784640 -0.018300 
#    z -0.007970 -0.018300 1.812950 
# 
# From -- ./inp_files/60939.got.cif
#   From: 2010.05.17/outbox.cif.g08.bks.cpg/sg2_31_cif.got.tgz:60939.got - 2010.06.03 11:33:40.
