data_PCOD9065556
_publ_section_title
;
Structure prediction by ZEFSAII (Michael W. Deem and Ramdas Pophale) SiO2 
 PCOD9065556
Probable space group: P -1
;
_chemical_formula_sum "Si O2"
_cell_formula_units_Z 12
_cell_length_a 10.664648
_cell_length_b 10.177483
_cell_length_c 13.226721
_cell_angle_alpha 144.968928
_cell_angle_beta 46.508742
_cell_angle_gamma 137.646056
_cell_volume 542.209739
_symmetry_space_group_name_H-M "P -1"
_symmetry_group_IT_number 2
_symmetry_cell_setting 'triclinic'
loop_
_space_group_symop_operation_xyz
x,y,z
-x,-y,-z
loop_
_atom_site_type_symbol
_atom_site_label
_atom_site_fract_x
_atom_site_fract_y
_atom_site_fract_z
Si Si1 0.681799 0.935588 0.356286
Si Si2 0.763317 0.280744 0.953064
Si Si3 0.091069 0.159892 0.382418
Si Si4 0.087899 0.520324 0.788129
Si Si5 0.791837 0.978769 0.092204
Si Si6 0.425495 0.365449 0.169413
O O1 0.730391 0.982374 0.241633
O O2 0.589770 0.644178 0.256123
O O3 0.500000 0.000000 0.500000
O O4 0.879473 0.075824 0.398415
O O5 0.869021 0.440688 0.895178
O O6 0.848410 0.071247 0.779988
O O7 0.816964 0.434784 0.125628
O O8 0.538055 0.189397 0.012499
O O9 0.101128 0.308217 0.574393
O O10 0.255797 0.327544 0.317381
O O11 0.184474 0.781465 0.838220
O O12 0.666681 0.719575 0.942022
O O13 0.000000 0.000000 0.000000
#
# Coordination Sequence:
#
# PCOD9065556 Si02
#       6
#     2   2   2   2   2   2
#     4  12  28  46  71 108 142 186 243 287 356 427
#     4  11  24  49  71 109 141 187 242 287 362 417
#     4  12  26  49  74 107 145 186 236 301 349 421
#     4  11  25  44  77 102 144 189 235 297 352 418
#     4  12  24  46  72 104 144 192 233 290 358 417
#     4  12  26  46  76 102 146 190 235 295 354 424
#
# _framework density 22.131657000000001
#
# number of rings (size 3 to 8) (size 9 to 14) (size 15 to 20)
#    0.000    0.333    3.333    5.500    4.667    2.000 
#    0.000    0.000    0.000    0.000    0.000    0.000 
#    0.000    0.000    0.000    0.000    0.000    0.000 
#
# Total GULP energy -66999.717024 kJ/mol
# GULP energy per Si atom -5583.309752 kJ/mol
# Density = 2.208128 g / cm^3
# Si number density = 22.131657 Si / 1000 Ang^3
#
#
#
# Elastic Constant Matrix: (Units=GPa)
#
#
# Indices 1 2 3 4 5 6 
#
# 1 107.0154 33.2943 76.0865 -10.3709 -8.3293 30.2494
# 2 33.2943 122.4595 52.4637 -16.5355 -0.4107 1.0827
# 3 76.0865 52.4637 173.9054 -28.5693 12.8549 19.2312
# 4 -10.3709 -16.5355 -28.5693 36.6801 4.1758 -8.4528
# 5 -8.3293 -0.4107 12.8549 4.1758 39.8522 -6.3063
# 6 30.2494 1.0827 19.2312 -8.4528 -6.3063 34.7553
#
#
#
# Elastic Compliance Matrix: (Units=1/GPa)
#
#
# Indices 1 2 3 4 5 6 
#
# 1 0.018663 -0.002536 -0.007163 -0.004870 0.004712 -0.012530
# 2 -0.002536 0.010045 -0.001845 0.003194 0.000430 0.003770
# 3 -0.007163 -0.001845 0.010803 0.006387 -0.005534 0.000863
# 4 -0.004870 0.003194 0.006387 0.034779 -0.005410 0.008082
# 5 0.004712 0.000430 -0.005534 -0.005410 0.028888 0.002873
# 6 -0.012530 0.003770 0.000863 0.008082 0.002873 0.041570
#
#
# Mechanical properties :
#
#
# Convention : Reuss Voigt Hill
#
# Bulk Modulus (GPa) = 60.88748 80.78547 70.83647
# Shear Modulus (GPa) = 28.84979 38.35992 33.60486
#
# Velocity S-wave (km/s) = 3.61439 4.16776 3.90090
# Velocity P-wave (km/s) = 6.70743 7.72928 7.23642
#
# Compressibility (1/GPa) = 0.01642374
#
# Stress axis : x y z
#
# Youngs Moduli (GPa) = 53.58202 99.54890 92.56306
#
# Poissons Ratio (x) = 0.25249 0.66302
# Poissons Ratio (y) = 0.13590 0.17076
# Poissons Ratio (z) = 0.38380 0.18364
#
# Static dielectric constant tensor:
#      x y z
#    x 1.845660 0.002350 -0.067230 
#    y 0.002350 1.857840 0.060630 
#    z -0.067230 0.060630 1.815290 
# 
# From -- ./inp_files/380523.got.cif
#   From: 2010.05.17/outbox.cif.g08.bks.cpg/sg2_191_cif.got.tgz:380523.got - 2010.06.03 11:33:40.
