data_PCOD9065351
_publ_section_title
;
Structure prediction by ZEFSAII (Michael W. Deem and Ramdas Pophale) SiO2 
 PCOD9065351
Probable space group: P -1
;
_chemical_formula_sum "Si O2"
_cell_formula_units_Z 14
_cell_length_a 8.523807
_cell_length_b 8.601497
_cell_length_c 11.924380
_cell_angle_alpha 85.441047
_cell_angle_beta 120.295500
_cell_angle_gamma 128.213956
_cell_volume 557.164974
_symmetry_space_group_name_H-M "P -1"
_symmetry_group_IT_number 2
_symmetry_cell_setting 'triclinic'
loop_
_space_group_symop_operation_xyz
x,y,z
-x,-y,-z
loop_
_atom_site_type_symbol
_atom_site_label
_atom_site_fract_x
_atom_site_fract_y
_atom_site_fract_z
Si Si1 0.751059 0.406453 0.976717
Si Si2 0.427656 0.323325 0.393141
Si Si3 0.892821 0.057532 0.549861
Si Si4 0.243991 0.248060 0.081490
Si Si5 0.607486 0.206385 0.161481
Si Si6 0.401696 0.832747 0.259984
Si Si7 0.900085 0.393389 0.617075
O O1 0.786389 0.607272 0.002110
O O2 0.562521 0.282532 0.812120
O O3 0.680978 0.240638 0.055483
O O4 0.000000 0.500000 0.000000
O O5 0.500000 0.500000 0.500000
O O6 0.336614 0.326872 0.238854
O O7 0.664659 0.342543 0.477558
O O8 0.190184 0.093235 0.366089
O O9 0.002184 0.287675 0.611719
O O10 0.634871 0.967384 0.414272
O O11 0.000000 0.000000 0.500000
O O12 0.470286 0.290681 0.105283
O O13 0.000000 0.000000 0.000000
O O14 0.869072 0.357833 0.309578
O O15 0.421471 0.993742 0.178067
O O16 0.184790 0.687063 0.279830
#
# Coordination Sequence:
#
# PCOD9065351 Si02
#       7
#     2   2   2   2   2   2   2
#     4  12  26  47  72 105 150 192 252 308 364 455
#     4  11  26  48  76 110 150 197 252 316 374 448
#     4  11  26  42  72 107 148 189 245 313 370 448
#     4  12  28  48  76 110 150 202 252 308 381 453
#     4  12  27  46  81 104 151 200 246 306 389 443
#     4  11  24  48  70 107 146 194 244 306 377 442
#     4  11  25  48  76 107 152 194 250 310 378 448
#
# _framework density 25.127206999999999
#
# number of rings (size 3 to 8) (size 9 to 14) (size 15 to 20)
#    0.000    0.571    1.429    6.857    8.000    2.286 
#    0.000    0.000    0.000    0.000    0.000    0.000 
#    0.000    0.000    0.000    0.000    0.000    0.000 
#
# Total GULP energy -78178.901054 kJ/mol
# GULP energy per Si atom -5584.207218 kJ/mol
# Density = 2.507002 g / cm^3
# Si number density = 25.127207 Si / 1000 Ang^3
#
#
#
# Elastic Constant Matrix: (Units=GPa)
#
#
# Indices 1 2 3 4 5 6 
#
# 1 84.5959 15.8490 -3.6774 -14.9596 1.9092 1.9557
# 2 15.8490 126.9664 18.7999 -23.2959 -5.7526 11.4642
# 3 -3.6774 18.7999 83.0732 -8.1855 -6.0365 10.7357
# 4 -14.9596 -23.2959 -8.1855 46.1091 1.9226 -7.0633
# 5 1.9092 -5.7526 -6.0365 1.9226 36.6139 -6.4895
# 6 1.9557 11.4642 10.7357 -7.0633 -6.4895 45.0049
#
#
#
# Elastic Compliance Matrix: (Units=1/GPa)
#
#
# Indices 1 2 3 4 5 6 
#
# 1 0.012772 -0.001095 0.001136 0.003817 -0.000864 -0.000073
# 2 -0.001095 0.009069 -0.001518 0.003740 0.000824 -0.001195
# 3 0.001136 -0.001518 0.012978 0.001492 0.001351 -0.002329
# 4 0.003817 0.003740 0.001492 0.025472 -0.000262 0.002485
# 5 -0.000864 0.000824 0.001351 -0.000262 0.028353 0.003553
# 6 -0.000073 -0.001195 -0.002329 0.002485 0.003553 0.023985
#
#
# Mechanical properties :
#
#
# Convention : Reuss Voigt Hill
#
# Bulk Modulus (GPa) = 31.38313 39.61982 35.50148
# Shear Modulus (GPa) = 39.61855 43.12318 41.37086
#
# Velocity S-wave (km/s) = 3.97510 4.14719 4.06206
# Velocity P-wave (km/s) = 5.79529 6.22368 6.01330
#
# Compressibility (1/GPa) = 0.03186425
#
# Stress axis : x y z
#
# Youngs Moduli (GPa) = 78.29914 110.26677 77.05572
#
# Poissons Ratio (x) = 0.12070 -0.08752
# Poissons Ratio (y) = 0.08571 0.11697
# Poissons Ratio (z) = -0.08893 0.16739
#
# Static dielectric constant tensor:
#      x y z
#    x 2.044420 -0.053840 -0.147650 
#    y -0.053840 2.189530 0.150210 
#    z -0.147650 0.150210 2.201910 
# 
# From -- ./inp_files/382088.got.cif
#   From: 2010.05.17/outbox.cif.g08.bks.cpg/sg2_192_cif.got.tgz:382088.got - 2010.06.03 11:33:40.
