data_PCOD9065616
_publ_section_title
;
Structure prediction by ZEFSAII (Michael W. Deem and Ramdas Pophale) SiO2 
 PCOD9065616
Probable space group: P -1
;
_chemical_formula_sum "Si O2"
_cell_formula_units_Z 13
_cell_length_a 5.638447
_cell_length_b 10.868565
_cell_length_c 9.732715
_cell_angle_alpha 85.684822
_cell_angle_beta 65.013500
_cell_angle_gamma 76.725309
_cell_volume 526.011304
_symmetry_space_group_name_H-M "P -1"
_symmetry_group_IT_number 2
_symmetry_cell_setting 'triclinic'
loop_
_space_group_symop_operation_xyz
x,y,z
-x,-y,-z
loop_
_atom_site_type_symbol
_atom_site_label
_atom_site_fract_x
_atom_site_fract_y
_atom_site_fract_z
Si Si1 0.314153 0.944015 0.945056
Si Si2 0.935223 0.618077 0.610365
Si Si3 0.583090 0.185545 0.319915
Si Si4 0.950651 0.343327 0.111385
Si Si5 0.195836 0.860620 0.452219
Si Si6 0.500000 0.500000 0.000000
Si Si7 0.551183 0.266225 0.869310
O O1 0.454735 0.923824 0.764125
O O2 0.335379 0.806382 0.014925
O O3 0.500000 0.000000 0.000000
O O4 0.000000 0.000000 0.000000
O O5 0.624010 0.684143 0.667751
O O6 0.000000 0.500000 0.500000
O O7 0.996958 0.590487 0.760417
O O8 0.064480 0.737872 0.524827
O O9 0.862622 0.219018 0.203211
O O10 0.589390 0.147036 0.478049
O O11 0.741204 0.430007 0.055049
O O12 0.231438 0.297118 0.967880
O O13 0.336495 0.822268 0.276185
O O14 0.000000 0.000000 0.500000
O O15 0.373990 0.599324 0.147213
#
# Coordination Sequence:
#
# PCOD9065616 Si02
#       7
#     2   2   2   2   2   1   2
#     4  12  26  47  82 110 152 210 267 328 402 489
#     4  11  27  49  79 108 153 212 262 323 408 499
#     4  11  25  50  75 109 152 208 262 321 402 497
#     4  11  24  49  77 113 151 203 270 333 406 481
#     4  11  29  50  74 114 162 205 260 332 412 480
#     4  12  26  44  74 116 152 190 262 338 402 460
#     4  12  27  46  79 115 155 197 268 338 397 475
#
# _framework density 24.714299
#
# number of rings (size 3 to 8) (size 9 to 14) (size 15 to 20)
#    0.000    0.615    3.077    2.308   10.769    3.077 
#    0.000    0.000    0.000    0.000    0.000    0.000 
#    0.000    0.000    0.000    0.000    0.000    0.000 
#
# Total GULP energy -72386.137341 kJ/mol
# GULP energy per Si atom -5568.164411 kJ/mol
# Density = 2.465805 g / cm^3
# Si number density = 24.714299 Si / 1000 Ang^3
#
#
#
# Elastic Constant Matrix: (Units=GPa)
#
#
# Indices 1 2 3 4 5 6 
#
# 1 103.4446 62.3530 45.8398 15.6242 25.8708 -24.7331
# 2 62.3530 144.1199 59.3176 41.1525 14.2831 -8.6175
# 3 45.8398 59.3176 165.5487 45.9693 27.9201 -1.1152
# 4 15.6242 41.1525 45.9693 59.6479 9.3515 7.6934
# 5 25.8708 14.2831 27.9201 9.3515 50.5840 -6.3581
# 6 -24.7331 -8.6175 -1.1152 7.6934 -6.3581 59.0340
#
#
#
# Elastic Compliance Matrix: (Units=1/GPa)
#
#
# Indices 1 2 3 4 5 6 
#
# 1 0.016415 -0.005876 -0.001892 0.001366 -0.005286 0.005237
# 2 -0.005876 0.011441 -0.001129 -0.005726 0.001468 0.000091
# 3 -0.001892 -0.001129 0.008824 -0.005047 -0.002704 -0.000425
# 4 0.001366 -0.005726 -0.005047 0.024948 -0.001381 -0.003759
# 5 -0.005286 0.001468 -0.002704 -0.001381 0.023894 0.000702
# 6 0.005237 0.000091 -0.000425 -0.003759 0.000702 0.019704
#
#
# Mechanical properties :
#
#
# Convention : Reuss Voigt Hill
#
# Bulk Modulus (GPa) = 52.95560 83.12602 68.04081
# Shear Modulus (GPa) = 38.66490 50.22671 44.44581
#
# Velocity S-wave (km/s) = 3.95964 4.51299 4.24534
# Velocity P-wave (km/s) = 6.50988 7.80153 7.18479
#
# Compressibility (1/GPa) = 0.01888374
#
# Stress axis : x y z
#
# Youngs Moduli (GPa) = 60.91879 87.40773 113.33153
#
# Poissons Ratio (x) = 0.51363 0.21447
# Poissons Ratio (y) = 0.35797 0.12799
# Poissons Ratio (z) = 0.11528 0.09871
#
# Static dielectric constant tensor:
#      x y z
#    x 2.088180 0.241590 -0.054740 
#    y 0.241590 2.032550 -0.058190 
#    z -0.054740 -0.058190 1.935630 
# 
# From -- ./inp_files/23970.got.cif
#   From: 2010.05.17/outbox.cif.g08.bks.cpg/sg2_12_cif.got.tgz:23970.got - 2010.06.03 11:33:40.
