data_PCOD9065705
_publ_section_title
;
Structure prediction by ZEFSAII (Michael W. Deem and Ramdas Pophale) SiO2 
 PCOD9065705
Probable space group: P -1
;
_chemical_formula_sum "Si O2"
_cell_formula_units_Z 14
_cell_length_a 19.818834
_cell_length_b 15.140077
_cell_length_c 11.278716
_cell_angle_alpha 151.120482
_cell_angle_beta 30.955096
_cell_angle_gamma 160.712987
_cell_volume 529.532728
_symmetry_space_group_name_H-M "P -1"
_symmetry_group_IT_number 2
_symmetry_cell_setting 'triclinic'
loop_
_space_group_symop_operation_xyz
x,y,z
-x,-y,-z
loop_
_atom_site_type_symbol
_atom_site_label
_atom_site_fract_x
_atom_site_fract_y
_atom_site_fract_z
Si Si1 0.086116 0.130162 0.893732
Si Si2 0.685958 0.636009 0.796877
Si Si3 0.809051 0.368022 0.711908
Si Si4 0.695490 0.588533 0.453328
Si Si5 0.396857 0.851725 0.608680
Si Si6 0.282129 0.053925 0.342169
Si Si7 0.976380 0.567259 0.959777
O O1 0.190363 0.065855 0.606407
O O2 0.230763 0.463645 0.065914
O O3 0.891767 0.969851 0.912984
O O4 0.000000 0.000000 0.000000
O O5 0.643820 0.587262 0.664037
O O6 0.726692 0.472325 0.584238
O O7 0.500000 0.500000 0.000000
O O8 0.881437 0.436085 0.816858
O O9 0.000000 0.500000 0.500000
O O10 0.590318 0.036097 0.623156
O O11 0.517749 0.273019 0.285964
O O12 0.713447 0.787984 0.580731
O O13 0.897338 0.677586 0.253459
O O14 0.224040 0.811025 0.858243
O O15 0.500000 0.000000 0.500000
O O16 0.141754 0.727097 0.140257
#
# Coordination Sequence:
#
# PCOD9065705 Si02
#       7
#     2   2   2   2   2   2   2
#     4  12  24  47  75 109 156 205 260 331 391 466
#     4  12  27  51  79 116 152 204 270 336 400 478
#     4  12  24  46  78 114 159 211 264 326 398 472
#     4  11  27  51  80 116 160 211 265 333 405 482
#     4  12  26  48  79 120 155 210 268 331 398 471
#     4  11  24  51  78 118 158 214 263 325 407 476
#     4  12  25  52  79 117 165 207 271 326 404 478
#
# _framework density 26.438403999999998
#
# number of rings (size 3 to 8) (size 9 to 14) (size 15 to 20)
#    0.000    0.286    4.286    4.714    0.000    1.143 
#    5.143    0.000    0.000    0.000    0.000    0.000 
#    0.000    0.000    0.000    0.000    0.000    0.000 
#
# Total GULP energy -78648.218778 kJ/mol
# GULP energy per Si atom -5617.729913 kJ/mol
# Density = 2.637823 g / cm^3
# Si number density = 26.438404 Si / 1000 Ang^3
#
#
#
# Elastic Constant Matrix: (Units=GPa)
#
#
# Indices 1 2 3 4 5 6 
#
# 1 114.7546 50.8591 41.6700 -19.4525 13.8911 -13.1351
# 2 50.8591 120.2958 35.6589 -11.6527 4.2742 8.7652
# 3 41.6700 35.6589 125.8312 -27.3164 4.8867 -5.5750
# 4 -19.4525 -11.6527 -27.3164 59.5971 -0.7480 -9.0318
# 5 13.8911 4.2742 4.8867 -0.7480 42.9292 -5.2508
# 6 -13.1351 8.7652 -5.5750 -9.0318 -5.2508 68.4871
#
#
#
# Elastic Compliance Matrix: (Units=1/GPa)
#
#
# Indices 1 2 3 4 5 6 
#
# 1 0.012656 -0.004590 -0.002055 0.002705 -0.002993 0.002975
# 2 -0.004590 0.010906 -0.001815 -0.000569 0.000293 -0.002477
# 3 -0.002055 -0.001815 0.010006 0.003732 -0.000089 0.001138
# 4 0.002705 -0.000569 0.003732 0.019781 -0.000475 0.003468
# 5 -0.002993 0.000293 -0.000089 -0.000475 0.024381 0.001188
# 6 0.002975 -0.002477 0.001138 0.003468 0.001188 0.016130
#
#
# Mechanical properties :
#
#
# Convention : Reuss Voigt Hill
#
# Bulk Modulus (GPa) = 60.06905 68.58416 64.32660
# Shear Modulus (GPa) = 42.98088 49.71560 46.34824
#
# Velocity S-wave (km/s) = 4.03637 4.34110 4.19150
# Velocity P-wave (km/s) = 6.67029 7.15012 6.91437
#
# Compressibility (1/GPa) = 0.01664751
#
# Stress axis : x y z
#
# Youngs Moduli (GPa) = 79.01299 91.68897 99.93729
#
# Poissons Ratio (x) = 0.42085 0.20540
# Poissons Ratio (y) = 0.36267 0.18143
# Poissons Ratio (z) = 0.16239 0.16646
#
# Static dielectric constant tensor:
#      x y z
#    x 2.093530 0.000160 -0.025460 
#    y 0.000160 2.042490 -0.011830 
#    z -0.025460 -0.011830 2.035630 
# 
# From -- ./inp_files/471991.got.cif
#   From: 2010.05.17/outbox.cif.g08.bks.cpg/sg2_236_cif.got.tgz:471991.got - 2010.06.03 11:33:40.
