data_PCOD9065304
_publ_section_title
;
Structure prediction by ZEFSAII (Michael W. Deem and Ramdas Pophale) SiO2 
 PCOD9065304
Probable space group: P -1
;
_chemical_formula_sum "Si O2"
_cell_formula_units_Z 16
_cell_length_a 8.436613
_cell_length_b 12.090821
_cell_length_c 10.021436
_cell_angle_alpha 49.968347
_cell_angle_beta 54.449941
_cell_angle_gamma 54.865366
_cell_volume 602.584818
_symmetry_space_group_name_H-M "P -1"
_symmetry_group_IT_number 2
_symmetry_cell_setting 'triclinic'
loop_
_space_group_symop_operation_xyz
x,y,z
-x,-y,-z
loop_
_atom_site_type_symbol
_atom_site_label
_atom_site_fract_x
_atom_site_fract_y
_atom_site_fract_z
Si Si1 0.939915 0.148813 0.786369
Si Si2 0.498038 0.230870 0.067358
Si Si3 0.741377 0.455347 0.159362
Si Si4 0.396517 0.354192 0.290761
Si Si5 0.328076 0.967400 0.332819
Si Si6 0.271368 0.240827 0.684338
Si Si7 0.933872 0.131802 0.235088
Si Si8 0.937147 0.423712 0.379724
O O1 0.076431 0.184724 0.810988
O O2 0.925300 0.276983 0.580634
O O3 0.292370 0.828364 0.072250
O O4 0.068405 0.983744 0.792825
O O5 0.537305 0.299990 0.135122
O O6 0.410508 0.096261 0.253431
O O7 0.313618 0.365781 0.983438
O O8 0.512970 0.442491 0.256650
O O9 0.882730 0.314397 0.109469
O O10 0.849222 0.421006 0.277081
O O11 0.365511 0.223868 0.501627
O O12 0.168860 0.429018 0.284195
O O13 0.530286 0.848705 0.258886
O O14 0.213455 0.892923 0.553751
O O15 0.163294 0.053819 0.237682
O O16 0.198502 0.418139 0.612744
#
# Coordination Sequence:
#
# PCOD9065304 Si02
#       8
#     2   2   2   2   2   2   2   2
#     4  11  26  47  77 112 154 188 253 315 370 449
#     4  12  28  47  74 115 156 193 243 317 382 440
#     4  12  26  48  81 108 148 203 246 312 380 440
#     4  11  24  48  75 108 150 199 251 306 369 451
#     4  11  25  47  74 109 148 197 250 309 372 444
#     4  11  24  47  79 109 147 202 252 308 368 448
#     4  11  25  49  77 110 142 200 262 297 366 467
#     4  11  25  48  79 114 144 201 267 299 363 465
#
# _framework density 26.552278999999999
#
# number of rings (size 3 to 8) (size 9 to 14) (size 15 to 20)
#    0.000    0.750    1.250    7.125    3.500    5.000 
#    2.250    0.000    0.000    0.000    0.000    0.000 
#    0.000    0.000    0.000    0.000    0.000    0.000 
#
# Total GULP energy -89587.778024 kJ/mol
# GULP energy per Si atom -5599.236127 kJ/mol
# Density = 2.649185 g / cm^3
# Si number density = 26.552279 Si / 1000 Ang^3
#
#
#
# Elastic Constant Matrix: (Units=GPa)
#
#
# Indices 1 2 3 4 5 6 
#
# 1 165.1673 44.2712 36.9915 3.3255 14.3502 -7.8102
# 2 44.2712 152.5103 38.9003 -28.4845 13.1644 -18.4089
# 3 36.9915 38.9003 99.6058 -28.0214 0.7591 -10.6690
# 4 3.3255 -28.4845 -28.0214 37.0456 -6.8422 8.2564
# 5 14.3502 13.1644 0.7591 -6.8422 25.3617 -5.1197
# 6 -7.8102 -18.4089 -10.6690 8.2564 -5.1197 39.6224
#
#
#
# Elastic Compliance Matrix: (Units=1/GPa)
#
#
# Indices 1 2 3 4 5 6 
#
# 1 0.008038 -0.002044 -0.003865 -0.006192 -0.004994 0.000239
# 2 -0.002044 0.008789 -0.000879 0.005538 -0.001461 0.002101
# 3 -0.003865 -0.000879 0.015281 0.012014 0.005664 0.001173
# 4 -0.006192 0.005538 0.012014 0.043686 0.011442 -0.003037
# 5 -0.004994 -0.001461 0.005664 0.011442 0.046638 0.003504
# 6 0.000239 0.002101 0.001173 -0.003037 0.003504 0.027663
#
#
# Mechanical properties :
#
#
# Convention : Reuss Voigt Hill
#
# Bulk Modulus (GPa) = 53.96526 73.06771 63.51648
# Shear Modulus (GPa) = 29.43825 40.21397 34.82611
#
# Velocity S-wave (km/s) = 3.33331 3.89591 3.62554
# Velocity P-wave (km/s) = 5.93152 6.91488 6.44199
#
# Compressibility (1/GPa) = 0.01853044
#
# Stress axis : x y z
#
# Youngs Moduli (GPa) = 124.41100 113.78467 65.44229
#
# Poissons Ratio (x) = 0.23258 0.25295
# Poissons Ratio (y) = 0.25430 0.05752
# Poissons Ratio (z) = 0.48088 0.10002
#
# Static dielectric constant tensor:
#      x y z
#    x 2.096580 -0.010030 0.032350 
#    y -0.010030 2.096440 -0.019760 
#    z 0.032350 -0.019760 2.132150 
# 
# From -- ./inp_files/389059.got.cif
#   From: 2010.05.17/outbox.cif.g08.bks.cpg/sg2_195_cif.got.tgz:389059.got - 2010.06.03 11:33:40.
