data_PCOD9065166
_publ_section_title
;
Structure prediction by ZEFSAII (Michael W. Deem and Ramdas Pophale) SiO2 
 PCOD9065166
Probable space group: P -1
;
_chemical_formula_sum "Si O2"
_cell_formula_units_Z 16
_cell_length_a 5.475978
_cell_length_b 18.406088
_cell_length_c 9.501660
_cell_angle_alpha 43.900881
_cell_angle_beta 93.450265
_cell_angle_gamma 85.037369
_cell_volume 651.094695
_symmetry_space_group_name_H-M "P -1"
_symmetry_group_IT_number 2
_symmetry_cell_setting 'triclinic'
loop_
_space_group_symop_operation_xyz
x,y,z
-x,-y,-z
loop_
_atom_site_type_symbol
_atom_site_label
_atom_site_fract_x
_atom_site_fract_y
_atom_site_fract_z
Si Si1 0.351926 0.700948 0.104049
Si Si2 0.183494 0.038636 0.343753
Si Si3 0.097014 0.934890 0.228780
Si Si4 0.713556 0.438541 0.198581
Si Si5 0.467669 0.178865 0.294844
Si Si6 0.910240 0.569284 0.261371
Si Si7 0.460607 0.740298 0.371252
Si Si8 0.141231 0.255587 0.422098
O O1 0.626067 0.627532 0.198816
O O2 0.372398 0.747422 0.197159
O O3 0.123374 0.640442 0.161093
O O4 0.345797 0.780765 0.860748
O O5 0.249082 0.149861 0.232226
O O6 0.095169 0.035557 0.188976
O O7 0.414236 0.937911 0.480817
O O8 0.000000 0.000000 0.500000
O O9 0.327753 0.845866 0.304586
O O10 0.941345 0.858791 0.414093
O O11 0.000000 0.000000 0.000000
O O12 0.872748 0.509149 0.197279
O O13 0.603726 0.366940 0.411784
O O14 0.912469 0.349292 0.249889
O O15 0.500000 0.500000 0.000000
O O16 0.352413 0.253098 0.314328
O O17 0.000000 0.500000 0.500000
O O18 0.750455 0.730682 0.436872
#
# Coordination Sequence:
#
# PCOD9065166 Si02
#       8
#     2   2   2   2   2   2   2   2
#     4  12  30  48  84 114 155 211 268 328 401 480
#     4  11  24  47  73 105 158 199 260 321 389 475
#     4  11  26  43  76 112 153 209 261 326 401 475
#     4  11  28  50  82 115 154 210 268 333 410 474
#     4  11  27  47  74 112 150 210 259 324 398 474
#     4  12  27  54  79 113 159 207 266 334 403 478
#     4  11  26  49  74 113 159 204 266 333 394 483
#     4  11  25  50  74 110 166 203 266 335 399 480
#
# _framework density 24.573999000000001
#
# number of rings (size 3 to 8) (size 9 to 14) (size 15 to 20)
#    0.000    0.750    3.750    1.125   10.500    2.000 
#    0.000    0.625    0.000    0.000    0.000    0.000 
#    0.000    0.000    0.000    0.000    0.000    0.000 
#
# Total GULP energy -89424.662321 kJ/mol
# GULP energy per Si atom -5589.041395 kJ/mol
# Density = 2.451807 g / cm^3
# Si number density = 24.573999 Si / 1000 Ang^3
#
#
#
# Elastic Constant Matrix: (Units=GPa)
#
#
# Indices 1 2 3 4 5 6 
#
# 1 105.4883 36.8293 30.6059 -6.3120 9.0284 4.3497
# 2 36.8293 108.7531 39.7323 30.8862 5.8486 17.0379
# 3 30.6059 39.7323 131.9969 13.0305 15.7461 -5.2647
# 4 -6.3120 30.8862 13.0305 41.6453 -2.6536 6.1125
# 5 9.0284 5.8486 15.7461 -2.6536 34.5595 2.7974
# 6 4.3497 17.0379 -5.2647 6.1125 2.7974 37.0219
#
#
#
# Elastic Compliance Matrix: (Units=1/GPa)
#
#
# Indices 1 2 3 4 5 6 
#
# 1 0.012279 -0.005178 -0.001794 0.006237 -0.001013 -0.000268
# 2 -0.005178 0.015886 -0.002636 -0.011012 -0.000558 -0.005217
# 3 -0.001794 -0.002636 0.009590 -0.002068 -0.003891 0.003423
# 4 0.006237 -0.011012 -0.002068 0.034307 0.003966 -0.001923
# 5 -0.001013 -0.000558 -0.003891 0.003966 0.031633 -0.003222
# 6 -0.000268 -0.005217 0.003423 -0.001923 -0.003222 0.030491
#
#
# Mechanical properties :
#
#
# Convention : Reuss Voigt Hill
#
# Bulk Modulus (GPa) = 53.93677 62.28591 58.11134
# Shear Modulus (GPa) = 31.33190 38.58339 34.95764
#
# Velocity S-wave (km/s) = 3.57459 3.96673 3.77576
# Velocity P-wave (km/s) = 6.24766 6.81038 6.53508
#
# Compressibility (1/GPa) = 0.01854023
#
# Stress axis : x y z
#
# Youngs Moduli (GPa) = 81.44009 62.94705 104.27378
#
# Poissons Ratio (x) = 0.32592 0.18708
# Poissons Ratio (y) = 0.42167 0.27485
# Poissons Ratio (z) = 0.14611 0.16592
#
# Static dielectric constant tensor:
#      x y z
#    x 1.625370 -0.285950 -0.180890 
#    y -0.285950 1.805610 -0.137130 
#    z -0.180890 -0.137130 1.833910 
# 
# From -- ./inp_files/138577.got.cif
#   From: 2010.05.17/outbox.cif.g08.bks.cpg/sg2_70_cif.got.tgz:138577.got - 2010.06.03 11:33:40.
