data_PCOD9065397
_publ_section_title
;
Structure prediction by ZEFSAII (Michael W. Deem and Ramdas Pophale) SiO2 
 PCOD9065397
Probable space group: P -1
;
_chemical_formula_sum "Si O2"
_cell_formula_units_Z 13
_cell_length_a 5.351659
_cell_length_b 17.992629
_cell_length_c 22.395489
_cell_angle_alpha 15.992316
_cell_angle_beta 68.174995
_cell_angle_gamma 65.234508
_cell_volume 535.347691
_symmetry_space_group_name_H-M "P -1"
_symmetry_group_IT_number 2
_symmetry_cell_setting 'triclinic'
loop_
_space_group_symop_operation_xyz
x,y,z
-x,-y,-z
loop_
_atom_site_type_symbol
_atom_site_label
_atom_site_fract_x
_atom_site_fract_y
_atom_site_fract_z
Si Si1 0.754639 0.969539 0.743485
Si Si2 0.319393 0.493206 0.963638
Si Si3 0.231941 0.672224 0.351820
Si Si4 0.591360 0.448227 0.696866
Si Si5 0.500000 0.000000 0.500000
Si Si6 0.143627 0.255281 0.964003
Si Si7 0.765328 0.773030 0.538822
O O1 0.586318 0.280733 0.531076
O O2 0.029747 0.026194 0.645591
O O3 0.814533 0.783201 0.940151
O O4 0.579015 0.811626 0.839903
O O5 0.355506 0.742557 0.725762
O O6 0.500000 0.500000 0.000000
O O7 0.000000 0.500000 0.000000
O O8 0.500000 0.500000 0.500000
O O9 0.284046 0.737665 0.226886
O O10 0.000000 0.500000 0.500000
O O11 0.097405 0.964355 0.169697
O O12 0.752271 0.594313 0.618081
O O13 0.408191 0.299374 0.869532
O O14 0.496761 0.071352 0.519308
O O15 0.912660 0.533691 0.757460
#
# Coordination Sequence:
#
# PCOD9065397 Si02
#       7
#     2   2   2   2   1   2   2
#     4  11  24  48  72 107 155 200 257 320 391 457
#     4  12  28  48  75 108 150 202 259 320 383 458
#     4  12  27  48  80 113 154 201 251 317 390 466
#     4  11  25  47  75 108 153 200 257 312 390 463
#     4  12  26  48  76 112 158 202 270 312 404 450
#     4  11  26  46  76 110 150 201 258 317 387 461
#     4  11  26  45  75 111 151 206 259 327 380 473
#
# _framework density 24.283284999999999
#
# number of rings (size 3 to 8) (size 9 to 14) (size 15 to 20)
#    0.000    0.615    3.077    3.231    6.462    4.923 
#    0.000    0.000    0.000    0.000    0.000    0.000 
#    0.000    0.000    0.000    0.000    0.000    0.000 
#
# Total GULP energy -72420.904075 kJ/mol
# GULP energy per Si atom -5570.838775 kJ/mol
# Density = 2.422802 g / cm^3
# Si number density = 24.283285 Si / 1000 Ang^3
#
#
#
# Elastic Constant Matrix: (Units=GPa)
#
#
# Indices 1 2 3 4 5 6 
#
# 1 88.3531 18.1693 42.5313 9.4821 -19.3078 27.4115
# 2 18.1693 102.2788 10.9241 17.7607 -6.8389 34.6034
# 3 42.5313 10.9241 141.5653 18.5964 -26.9252 13.9799
# 4 9.4821 17.7607 18.5964 47.6627 17.3562 -3.5664
# 5 -19.3078 -6.8389 -26.9252 17.3562 43.9648 -2.0376
# 6 27.4115 34.6034 13.9799 -3.5664 -2.0376 36.1421
#
#
#
# Elastic Compliance Matrix: (Units=1/GPa)
#
#
# Indices 1 2 3 4 5 6 
#
# 1 0.023029 0.008839 0.000364 -0.016152 0.016849 -0.026713
# 2 0.008839 0.023277 0.004709 -0.020906 0.017161 -0.031907
# 3 0.000364 0.004709 0.011248 -0.011217 0.011765 -0.009579
# 4 -0.016152 -0.020906 -0.011217 0.052477 -0.036089 0.039749
# 5 0.016849 0.017161 0.011765 -0.036089 0.052675 -0.034352
# 6 -0.026713 -0.031907 -0.009579 0.039749 -0.034352 0.084169
#
#
# Mechanical properties :
#
#
# Convention : Reuss Voigt Hill
#
# Bulk Modulus (GPa) = 11.71253 52.82740 32.26996
# Shear Modulus (GPa) = 20.20130 42.92543 31.56337
#
# Velocity S-wave (km/s) = 2.88740 4.20896 3.60918
# Velocity P-wave (km/s) = 3.99373 6.73961 5.53950
#
# Compressibility (1/GPa) = 0.08537866
#
# Stress axis : x y z
#
# Youngs Moduli (GPa) = 43.42410 42.96138 88.90144
#
# Poissons Ratio (x) = -0.37975 -0.03233
# Poissons Ratio (y) = -0.38384 -0.41867
# Poissons Ratio (z) = -0.01579 -0.20232
#
# Static dielectric constant tensor:
#      x y z
#    x 1.989940 0.040160 0.055420 
#    y 0.040160 2.422390 0.033010 
#    z 0.055420 0.033010 1.896950 
# 
# From -- ./inp_files/6238.got.cif
#   From: 2010.05.17/outbox.cif.g08.bks.cpg/sg2_4_cif.got.tgz:6238.got - 2010.06.03 11:33:40.
