data_PCOD9065640
_publ_section_title
;
Structure prediction by ZEFSAII (Michael W. Deem and Ramdas Pophale) SiO2 
 PCOD9065640
Probable space group: P -1
;
_chemical_formula_sum "Si O2"
_cell_formula_units_Z 14
_cell_length_a 12.779884
_cell_length_b 9.713139
_cell_length_c 8.967086
_cell_angle_alpha 48.801638
_cell_angle_beta 51.270356
_cell_angle_gamma 44.922752
_cell_volume 564.235516
_symmetry_space_group_name_H-M "P -1"
_symmetry_group_IT_number 2
_symmetry_cell_setting 'triclinic'
loop_
_space_group_symop_operation_xyz
x,y,z
-x,-y,-z
loop_
_atom_site_type_symbol
_atom_site_label
_atom_site_fract_x
_atom_site_fract_y
_atom_site_fract_z
Si Si1 0.851332 0.124419 0.228078
Si Si2 0.474649 0.995971 0.851556
Si Si3 0.740241 0.409205 0.681719
Si Si4 0.844929 0.936102 0.926189
Si Si5 0.955192 0.744315 0.642783
Si Si6 0.259628 0.456969 0.085586
Si Si7 0.442388 0.847521 0.591646
O O1 0.732721 0.086972 0.259456
O O2 0.018071 0.100324 0.057184
O O3 0.895794 0.957112 0.443077
O O4 0.750512 0.380928 0.148083
O O5 0.571366 0.748528 0.899022
O O6 0.553396 0.111563 0.616547
O O7 0.500000 0.000000 0.000000
O O8 0.294529 0.107167 0.887784
O O9 0.786616 0.419703 0.803999
O O10 0.568819 0.606686 0.679236
O O11 0.868807 0.409688 0.458180
O O12 0.753482 0.186490 0.796014
O O13 0.933019 0.808640 0.789304
O O14 0.853486 0.634836 0.780118
O O15 0.500000 0.000000 0.500000
#
# Coordination Sequence:
#
# PCOD9065640 Si02
#       7
#     2   2   2   2   2   2   2
#     4  11  25  44  73 106 143 190 245 300 362 438
#     4  12  25  46  73 106 148 191 243 305 361 437
#     4  11  25  44  74 104 144 195 247 308 363 436
#     4  11  26  47  73 106 152 190 244 306 369 441
#     4  11  24  50  68 108 152 191 239 307 371 440
#     4  12  25  45  74 107 147 192 252 299 372 431
#     4  12  25  47  75 105 153 196 246 303 377 436
#
# _framework density 24.812335000000001
#
# number of rings (size 3 to 8) (size 9 to 14) (size 15 to 20)
#    0.000    0.571    4.286    3.000    4.000    7.429 
#    0.000    5.000    0.000    0.000    0.000    0.000 
#    0.000    0.000    0.000    0.000    0.000    0.000 
#
# Total GULP energy -78278.661844 kJ/mol
# GULP energy per Si atom -5591.332989 kJ/mol
# Density = 2.475586 g / cm^3
# Si number density = 24.812335 Si / 1000 Ang^3
#
#
#
# Elastic Constant Matrix: (Units=GPa)
#
#
# Indices 1 2 3 4 5 6 
#
# 1 137.6715 36.1901 43.7679 22.4578 -37.3940 -22.3086
# 2 36.1901 86.4091 36.0164 11.9479 8.9476 -7.7495
# 3 43.7679 36.0164 77.6763 1.2969 -7.8891 3.6183
# 4 22.4578 11.9479 1.2969 55.9439 -6.4846 3.6518
# 5 -37.3940 8.9476 -7.8891 -6.4846 43.4861 7.3309
# 6 -22.3086 -7.7495 3.6183 3.6518 7.3309 50.6831
#
#
#
# Elastic Compliance Matrix: (Units=1/GPa)
#
#
# Indices 1 2 3 4 5 6 
#
# 1 0.014319 -0.003939 -0.005306 -0.003848 0.010778 0.004797
# 2 -0.003939 0.017912 -0.007129 -0.003371 -0.009394 0.003116
# 3 -0.005306 -0.007129 0.019551 0.003772 0.001919 -0.005371
# 4 -0.003848 -0.003371 0.003772 0.020542 0.001845 -0.004225
# 5 0.010778 -0.009394 0.001919 0.001845 0.035165 -0.002049
# 6 0.004797 0.003116 -0.005371 -0.004225 -0.002049 0.023303
#
#
# Mechanical properties :
#
#
# Convention : Reuss Voigt Hill
#
# Bulk Modulus (GPa) = 52.53750 59.30063 55.91906
# Shear Modulus (GPa) = 29.43171 42.40813 35.91992
#
# Velocity S-wave (km/s) = 3.44782 4.13868 3.80895
# Velocity P-wave (km/s) = 6.08850 6.84030 6.47532
#
# Compressibility (1/GPa) = 0.01903402
#
# Stress axis : x y z
#
# Youngs Moduli (GPa) = 69.83962 55.82733 51.14749
#
# Poissons Ratio (x) = 0.21991 0.27139
# Poissons Ratio (y) = 0.27511 0.36462
# Poissons Ratio (z) = 0.37058 0.39799
#
# Static dielectric constant tensor:
#      x y z
#    x 2.016320 -0.019220 0.019590 
#    y -0.019220 1.942680 0.011860 
#    z 0.019590 0.011860 2.008420 
# 
# From -- ./inp_files/242402.got.cif
#   From: 2010.05.17/outbox.cif.g08.bks.cpg/sg2_122_cif.got.tgz:242402.got - 2010.06.03 11:33:40.
