data_PCOD9065577
_publ_section_title
;
Structure prediction by ZEFSAII (Michael W. Deem and Ramdas Pophale) SiO2 
 PCOD9065577
Probable space group: P -1
;
_chemical_formula_sum "Si O2"
_cell_formula_units_Z 13
_cell_length_a 17.540970
_cell_length_b 6.947013
_cell_length_c 5.313657
_cell_angle_alpha 102.551529
_cell_angle_beta 77.863707
_cell_angle_gamma 120.648076
_cell_volume 539.920406
_symmetry_space_group_name_H-M "P -1"
_symmetry_group_IT_number 2
_symmetry_cell_setting 'triclinic'
loop_
_space_group_symop_operation_xyz
x,y,z
-x,-y,-z
loop_
_atom_site_type_symbol
_atom_site_label
_atom_site_fract_x
_atom_site_fract_y
_atom_site_fract_z
Si Si1 0.354119 0.713927 0.636780
Si Si2 0.555239 0.518613 0.716250
Si Si3 0.050500 0.989283 0.711809
Si Si4 0.802891 0.419909 0.662857
Si Si5 0.763188 0.722427 0.127993
Si Si6 0.690483 0.988968 0.960129
Si Si7 0.000000 0.500000 0.500000
O O1 0.416465 0.677158 0.384908
O O2 0.263789 0.669598 0.548825
O O3 0.323902 0.497297 0.774878
O O4 0.377649 0.936529 0.844039
O O5 0.500000 0.500000 0.500000
O O6 0.500000 0.500000 0.000000
O O7 0.639539 0.771659 0.753206
O O8 0.050465 0.754942 0.649418
O O9 0.153860 0.180731 0.711042
O O10 0.000000 0.000000 0.500000
O O11 0.000000 0.000000 0.000000
O O12 0.905028 0.503910 0.565325
O O13 0.794194 0.625800 0.847043
O O14 0.763085 0.210827 0.827993
O O15 0.738018 0.907968 0.107797
#
# Coordination Sequence:
#
# PCOD9065577 Si02
#       7
#     2   2   2   2   2   2   1
#     4  11  26  49  78 111 155 206 261 309 403 470
#     4  12  29  51  81 120 157 198 259 329 397 482
#     4  12  28  46  71 107 155 203 261 330 374 442
#     4  11  25  46  76 113 152 210 265 317 384 468
#     4  11  24  49  73 107 154 214 258 316 394 458
#     4  11  27  48  81 108 157 209 253 325 396 464
#     4  12  26  44  74 114 156 200 272 310 382 444
#
# _framework density 24.077621000000001
#
# number of rings (size 3 to 8) (size 9 to 14) (size 15 to 20)
#    0.000    0.615    3.077    2.769   10.769    3.077 
#    0.000    0.000    0.000    0.000    0.000    0.000 
#    0.000    0.000    0.000    0.000    0.000    0.000 
#
# Total GULP energy -72530.441714 kJ/mol
# GULP energy per Si atom -5579.264747 kJ/mol
# Density = 2.402282 g / cm^3
# Si number density = 24.077621 Si / 1000 Ang^3
#
#
#
# Elastic Constant Matrix: (Units=GPa)
#
#
# Indices 1 2 3 4 5 6 
#
# 1 116.0228 23.5213 40.2500 -2.1165 -4.6374 -3.7785
# 2 23.5213 107.4413 30.3296 19.3711 -9.3466 -31.7992
# 3 40.2500 30.3296 103.3645 16.4753 4.2667 -22.2182
# 4 -2.1165 19.3711 16.4753 50.1042 -8.8402 -4.5039
# 5 -4.6374 -9.3466 4.2667 -8.8402 44.8166 18.9483
# 6 -3.7785 -31.7992 -22.2182 -4.5039 18.9483 31.7241
#
#
#
# Elastic Compliance Matrix: (Units=1/GPa)
#
#
# Indices 1 2 3 4 5 6 
#
# 1 0.011694 -0.004007 -0.006543 0.004365 0.006212 -0.010297
# 2 -0.004007 0.016305 0.002791 -0.006820 -0.007693 0.021448
# 3 -0.006543 0.002791 0.017387 -0.007328 -0.011717 0.020153
# 4 0.004365 -0.006820 -0.007328 0.025822 0.010851 -0.014264
# 5 0.006212 -0.007693 -0.011717 0.010851 0.040635 -0.037907
# 6 -0.010297 0.021448 0.020153 -0.014264 -0.037907 0.086525
#
#
# Mechanical properties :
#
#
# Convention : Reuss Voigt Hill
#
# Bulk Modulus (GPa) = 33.48157 57.22560 45.35359
# Shear Modulus (GPa) = 22.33710 40.84415 31.59063
#
# Velocity S-wave (km/s) = 3.04914 4.12315 3.62613
# Velocity P-wave (km/s) = 5.13149 6.81805 6.03399
#
# Compressibility (1/GPa) = 0.02986717
#
# Stress axis : x y z
#
# Youngs Moduli (GPa) = 85.51421 61.33036 57.51338
#
# Poissons Ratio (x) = 0.24576 0.37633
# Poissons Ratio (y) = 0.34267 -0.16052
# Poissons Ratio (z) = 0.55955 -0.17117
#
# Static dielectric constant tensor:
#      x y z
#    x 1.890460 0.013610 -0.025690 
#    y 0.013610 1.962370 -0.020630 
#    z -0.025690 -0.020630 1.985110 
# 
# From -- ./inp_files/102553.got.cif
#   From: 2010.05.17/outbox.cif.g08.bks.cpg/sg2_52_cif.got.tgz:102553.got - 2010.06.03 11:33:40.
