data_PCOD9065647
_publ_section_title
;
Structure prediction by ZEFSAII (Michael W. Deem and Ramdas Pophale) SiO2 
 PCOD9065647
Probable space group: P -1
;
_chemical_formula_sum "Si O2"
_cell_formula_units_Z 16
_cell_length_a 8.678083
_cell_length_b 23.157923
_cell_length_c 8.711843
_cell_angle_alpha 54.626927
_cell_angle_beta 65.215047
_cell_angle_gamma 30.860396
_cell_volume 719.525941
_symmetry_space_group_name_H-M "P -1"
_symmetry_group_IT_number 2
_symmetry_cell_setting 'triclinic'
loop_
_space_group_symop_operation_xyz
x,y,z
-x,-y,-z
loop_
_atom_site_type_symbol
_atom_site_label
_atom_site_fract_x
_atom_site_fract_y
_atom_site_fract_z
Si Si1 0.463483 0.816309 0.489497
Si Si2 0.188956 0.567983 0.042922
Si Si3 0.351414 0.085976 0.668754
Si Si4 0.753249 0.235662 0.860524
Si Si5 0.646636 0.622027 0.911525
Si Si6 0.695924 0.851558 0.738752
Si Si7 0.085390 0.971564 0.825411
Si Si8 0.775550 0.641225 0.339053
O O1 0.533599 0.874330 0.405781
O O2 0.528073 0.738982 0.719843
O O3 0.675481 0.714180 0.422190
O O4 0.136927 0.923617 0.376301
O O5 0.316879 0.445889 0.135456
O O6 0.978675 0.627558 0.185323
O O7 0.500000 0.500000 0.000000
O O8 0.957617 0.701178 0.847559
O O9 0.251468 0.121012 0.478300
O O10 0.048192 0.171840 0.761948
O O11 0.625634 0.931370 0.786664
O O12 0.509688 0.289951 0.750593
O O13 0.549935 0.340310 0.920953
O O14 0.884873 0.121812 0.066986
O O15 0.000000 0.500000 0.000000
O O16 0.389691 0.911093 0.776774
O O17 0.000000 0.000000 0.000000
O O18 0.000000 0.500000 0.500000
#
# Coordination Sequence:
#
# PCOD9065647 Si02
#       8
#     2   2   2   2   2   2   2   2
#     4  12  26  45  76 111 141 190 254 296 365 445
#     4  12  27  44  74 105 142 193 242 304 361 431
#     4  11  27  43  74 112 143 188 243 310 363 431
#     4  12  25  46  74 104 151 193 241 304 375 429
#     4  12  25  51  72 106 151 197 242 298 365 442
#     4  11  24  50  70 103 153 191 238 303 378 432
#     4  12  22  46  75 100 143 197 239 302 372 435
#     4  12  24  47  73 103 144 198 249 295 361 445
#
# _framework density 22.236861999999999
#
# number of rings (size 3 to 8) (size 9 to 14) (size 15 to 20)
#    0.000    0.250    6.250    1.500    3.500    5.500 
#    0.000    1.875    0.000    0.000    0.000    0.000 
#    0.000    0.000    0.000    0.000    0.000    0.000 
#
# Total GULP energy -89121.175798 kJ/mol
# GULP energy per Si atom -5570.073487 kJ/mol
# Density = 2.218625 g / cm^3
# Si number density = 22.236862 Si / 1000 Ang^3
#
#
#
# Elastic Constant Matrix: (Units=GPa)
#
#
# Indices 1 2 3 4 5 6 
#
# 1 91.8381 47.1222 27.7582 -3.0601 -16.0743 -9.8638
# 2 47.1222 117.9467 29.5859 13.3797 -2.0749 8.0214
# 3 27.7582 29.5859 92.0155 -1.7710 -8.5992 -7.0112
# 4 -3.0601 13.3797 -1.7710 54.4486 4.2699 0.0385
# 5 -16.0743 -2.0749 -8.5992 4.2699 28.4568 -0.4462
# 6 -9.8638 8.0214 -7.0112 0.0385 -0.4462 35.6525
#
#
#
# Elastic Compliance Matrix: (Units=1/GPa)
#
#
# Indices 1 2 3 4 5 6 
#
# 1 0.017139 -0.006917 -0.001653 0.001940 0.008482 0.006077
# 2 -0.006917 0.012611 -0.002757 -0.003306 -0.003408 -0.005332
# 3 -0.001653 -0.002757 0.012720 0.000790 0.002632 0.002696
# 4 0.001940 -0.003306 0.000790 0.019454 -0.001804 0.001392
# 5 0.008482 -0.003408 0.002632 -0.001804 0.040815 0.004144
# 6 0.006077 -0.005332 0.002696 0.001392 0.004144 0.031510
#
#
# Mechanical properties :
#
#
# Convention : Reuss Voigt Hill
#
# Bulk Modulus (GPa) = 50.46415 56.74810 53.60612
# Shear Modulus (GPa) = 30.57959 36.86718 33.72339
#
# Velocity S-wave (km/s) = 3.71236 4.07619 3.89852
# Velocity P-wave (km/s) = 6.41238 6.90862 6.66512
#
# Compressibility (1/GPa) = 0.01981605
#
# Stress axis : x y z
#
# Youngs Moduli (GPa) = 58.34499 79.29525 78.61924
#
# Poissons Ratio (x) = 0.54848 0.12999
# Poissons Ratio (y) = 0.40357 0.21673
# Poissons Ratio (z) = 0.09647 0.21859
#
# Static dielectric constant tensor:
#      x y z
#    x 1.834440 0.049970 -0.014220 
#    y 0.049970 1.868610 -0.025850 
#    z -0.014220 -0.025850 1.865070 
# 
# From -- ./inp_files/226098.got.cif
#   From: 2010.05.17/outbox.cif.g08.bks.cpg/sg2_114_cif.got.tgz:226098.got - 2010.06.03 11:33:40.
