data_PCOD9065064
_publ_section_title
;
Structure prediction by ZEFSAII (Michael W. Deem and Ramdas Pophale) SiO2 
 PCOD9065064
Probable space group: P -1
;
_chemical_formula_sum "Si O2"
_cell_formula_units_Z 15
_cell_length_a 19.417118
_cell_length_b 5.086009
_cell_length_c 7.319562
_cell_angle_alpha 101.164351
_cell_angle_beta 103.239963
_cell_angle_gamma 53.160401
_cell_volume 561.657988
_symmetry_space_group_name_H-M "P -1"
_symmetry_group_IT_number 2
_symmetry_cell_setting 'triclinic'
loop_
_space_group_symop_operation_xyz
x,y,z
-x,-y,-z
loop_
_atom_site_type_symbol
_atom_site_label
_atom_site_fract_x
_atom_site_fract_y
_atom_site_fract_z
Si Si1 0.858408 0.347924 0.470144
Si Si2 0.696136 0.060244 0.326255
Si Si3 0.821809 0.981066 0.130032
Si Si4 0.663797 0.357060 0.724949
Si Si5 0.512726 0.256868 0.133913
Si Si6 0.000000 0.500000 0.500000
Si Si7 0.223908 0.390934 0.154646
Si Si8 0.950869 0.838673 0.905546
O O1 0.872172 0.024319 0.333889
O O2 0.834303 0.394193 0.677228
O O3 0.937885 0.365230 0.477063
O O4 0.774062 0.683740 0.374703
O O5 0.725917 0.170539 0.184562
O O6 0.681314 0.300688 0.512793
O O7 0.608410 0.091899 0.248036
O O8 0.832055 0.646342 0.036827
O O9 0.856817 0.048765 0.977961
O O10 0.563412 0.546368 0.737457
O O11 0.703610 0.549216 0.844479
O O12 0.717432 0.988737 0.787106
O O13 0.500000 0.500000 0.000000
O O14 0.500000 0.000000 0.000000
O O15 0.041913 0.272342 0.310065
O O16 0.000000 0.500000 0.000000
O O17 0.000000 0.000000 0.000000
#
# Coordination Sequence:
#
# PCOD9065064 Si02
#       8
#     2   2   2   2   2   1   2   2
#     4  11  25  47  71 112 146 205 247 320 377 454
#     4  11  26  45  75 105 155 191 257 308 381 454
#     4  12  24  45  72 105 147 198 246 310 378 450
#     4  11  24  47  70 108 144 196 242 306 369 449
#     4  12  27  46  73 111 148 196 251 308 375 455
#     4  12  24  54  76 114 160 200 268 316 396 456
#     4  11  25  44  72 107 150 190 249 300 377 445
#     4  12  28  48  76 110 150 199 256 323 385 459
#
# _framework density 26.706641999999999
#
# number of rings (size 3 to 8) (size 9 to 14) (size 15 to 20)
#    0.000    0.533    4.000    3.600    5.600    0.533 
#    2.400    3.333    0.000    0.000    0.000    0.000 
#    0.000    0.000    0.000    0.000    0.000    0.000 
#
# Total GULP energy -83896.440343 kJ/mol
# GULP energy per Si atom -5593.096023 kJ/mol
# Density = 2.664586 g / cm^3
# Si number density = 26.706642 Si / 1000 Ang^3
#
#
#
# Elastic Constant Matrix: (Units=GPa)
#
#
# Indices 1 2 3 4 5 6 
#
# 1 249.2729 63.3016 89.3764 24.2085 6.2762 3.1222
# 2 63.3016 93.7274 38.5253 25.7840 9.9665 4.6700
# 3 89.3764 38.5253 237.9756 26.7374 -16.4957 1.8419
# 4 24.2085 25.7840 26.7374 37.4140 8.2467 10.4087
# 5 6.2762 9.9665 -16.4957 8.2467 81.2290 9.9834
# 6 3.1222 4.6700 1.8419 10.4087 9.9834 51.0381
#
#
#
# Elastic Compliance Matrix: (Units=1/GPa)
#
#
# Indices 1 2 3 4 5 6 
#
# 1 0.005321 -0.002838 -0.001524 -0.000356 -0.000352 0.000131
# 2 -0.002838 0.015128 -0.000540 -0.008170 -0.000999 0.000671
# 3 -0.001524 -0.000540 0.005281 -0.002814 0.001514 0.000230
# 4 -0.000356 -0.008170 -0.002814 0.036869 -0.002528 -0.006154
# 5 -0.000352 -0.000999 0.001514 -0.002528 0.013273 -0.002022
# 6 0.000131 0.000671 0.000230 -0.006154 -0.002022 0.021166
#
#
# Mechanical properties :
#
#
# Convention : Reuss Voigt Hill
#
# Bulk Modulus (GPa) = 62.79002 107.04248 84.91625
# Shear Modulus (GPa) = 44.58271 59.92106 52.25189
#
# Velocity S-wave (km/s) = 4.09020 4.74188 4.42805
# Velocity P-wave (km/s) = 6.77262 8.37547 7.61633
#
# Compressibility (1/GPa) = 0.01592610
#
# Stress axis : x y z
#
# Youngs Moduli (GPa) = 187.94420 66.10176 189.34996
#
# Poissons Ratio (x) = 0.18760 0.28862
# Poissons Ratio (y) = 0.53339 0.10220
# Poissons Ratio (z) = 0.28648 0.03568
#
# Static dielectric constant tensor:
#      x y z
#    x 1.991570 -0.016740 -0.006120 
#    y -0.016740 2.253900 -0.027310 
#    z -0.006120 -0.027310 2.092940 
# 
# From -- ./inp_files/324130.got.cif
#   From: 2010.05.17/outbox.cif.g08.bks.cpg/sg2_163_cif.got.tgz:324130.got - 2010.06.03 11:33:40.
