data_PCOD9065411
_publ_section_title
;
Structure prediction by ZEFSAII (Michael W. Deem and Ramdas Pophale) SiO2 
 PCOD9065411
Probable space group: P -1
;
_chemical_formula_sum "Si O2"
_cell_formula_units_Z 16
_cell_length_a 12.100419
_cell_length_b 6.450464
_cell_length_c 11.031977
_cell_angle_alpha 104.116878
_cell_angle_beta 101.866994
_cell_angle_gamma 58.237702
_cell_volume 706.893043
_symmetry_space_group_name_H-M "P -1"
_symmetry_group_IT_number 2
_symmetry_cell_setting 'triclinic'
loop_
_space_group_symop_operation_xyz
x,y,z
-x,-y,-z
loop_
_atom_site_type_symbol
_atom_site_label
_atom_site_fract_x
_atom_site_fract_y
_atom_site_fract_z
Si Si1 0.788820 0.216933 0.098433
Si Si2 0.291606 0.123711 0.116377
Si Si3 0.891363 0.869796 0.297028
Si Si4 0.119649 0.483106 0.948127
Si Si5 0.445029 0.295979 0.783230
Si Si6 0.722508 0.835978 0.454414
Si Si7 0.409088 0.645859 0.387194
Si Si8 0.187611 0.505779 0.353308
O O1 0.894730 0.264442 0.064037
O O2 0.659247 0.481308 0.126820
O O3 0.836675 0.098958 0.225618
O O4 0.759338 0.043907 0.982133
O O5 0.214729 0.275511 0.239955
O O6 0.442306 0.940837 0.155105
O O7 0.248782 0.340670 0.039358
O O8 0.867424 0.674196 0.189435
O O9 0.815393 0.907295 0.409987
O O10 0.045164 0.737842 0.333856
O O11 0.000000 0.500000 0.000000
O O12 0.369276 0.203848 0.664997
O O13 0.514232 0.407407 0.728894
O O14 0.795511 0.594094 0.520134
O O15 0.640992 0.067805 0.556311
O O16 0.500000 0.500000 0.500000
O O17 0.295134 0.579415 0.352439
#
# Coordination Sequence:
#
# PCOD9065411 Si02
#       8
#     2   2   2   2   2   2   2   2
#     4  11  27  48  73 106 145 189 238 305 356 420
#     4  11  26  44  72 110 136 192 240 291 360 428
#     4  11  26  47  74 106 143 187 244 298 357 425
#     4  11  24  48  73 102 144 190 238 297 358 421
#     4  12  24  48  71 104 151 187 242 294 357 429
#     4  12  25  48  71 107 146 194 237 297 359 423
#     4  12  25  43  72 103 146 195 237 287 361 424
#     4  12  26  47  72 109 145 188 243 296 355 436
#
# _framework density 22.634260000000001
#
# number of rings (size 3 to 8) (size 9 to 14) (size 15 to 20)
#    0.000    0.500    5.000    2.625    1.750    5.000 
#    0.000    0.000    0.000    0.000    0.000    0.000 
#    0.000    0.000    0.000    0.000    0.000    0.000 
#
# Total GULP energy -89556.939836 kJ/mol
# GULP energy per Si atom -5597.308740 kJ/mol
# Density = 2.258274 g / cm^3
# Si number density = 22.634260 Si / 1000 Ang^3
#
#
#
# Elastic Constant Matrix: (Units=GPa)
#
#
# Indices 1 2 3 4 5 6 
#
# 1 128.3177 45.8370 48.2434 -29.7835 -17.2619 -1.3908
# 2 45.8370 77.9858 19.5660 -20.3300 -3.5429 -7.4199
# 3 48.2434 19.5660 69.8494 -9.5171 0.8203 3.1226
# 4 -29.7835 -20.3300 -9.5171 38.3911 -13.0098 2.0450
# 5 -17.2619 -3.5429 0.8203 -13.0098 27.8398 -10.0771
# 6 -1.3908 -7.4199 3.1226 2.0450 -10.0771 38.8819
#
#
#
# Elastic Compliance Matrix: (Units=1/GPa)
#
#
# Indices 1 2 3 4 5 6 
#
# 1 0.021410 -0.002426 -0.011898 0.020623 0.025400 0.006757
# 2 -0.002426 0.018010 -0.002423 0.009127 0.006879 0.004848
# 3 -0.011898 -0.002423 0.022331 -0.009776 -0.015115 -0.006085
# 4 0.020623 0.009127 -0.009776 0.059558 0.046477 0.012178
# 5 0.025400 0.006879 -0.015115 0.046477 0.082839 0.022460
# 6 0.006757 0.004848 -0.006085 0.012178 0.022460 0.032555
#
#
# Mechanical properties :
#
#
# Convention : Reuss Voigt Hill
#
# Bulk Modulus (GPa) = 35.39100 55.93839 45.66469
# Shear Modulus (GPa) = 17.88168 31.85632 24.86900
#
# Velocity S-wave (km/s) = 2.81379 3.75565 3.31831
# Velocity P-wave (km/s) = 5.12118 6.60108 5.90766
#
# Compressibility (1/GPa) = 0.02825577
#
# Stress axis : x y z
#
# Youngs Moduli (GPa) = 46.70698 55.52543 44.78122
#
# Poissons Ratio (x) = 0.13469 0.53282
# Poissons Ratio (y) = 0.11330 0.10852
# Poissons Ratio (z) = 0.55574 0.13455
#
# Static dielectric constant tensor:
#      x y z
#    x 1.877320 0.008450 -0.040740 
#    y 0.008450 1.844130 -0.024210 
#    z -0.040740 -0.024210 1.851980 
# 
# From -- ./inp_files/410851.got.cif
#   From: 2010.05.17/outbox.cif.g08.bks.cpg/sg2_206_cif.got.tgz:410851.got - 2010.06.03 11:33:40.
