data_PCOD9065414
_publ_section_title
;
Structure prediction by ZEFSAII (Michael W. Deem and Ramdas Pophale) SiO2 
 PCOD9065414
Probable space group: P -1
;
_chemical_formula_sum "Si O2"
_cell_formula_units_Z 16
_cell_length_a 6.643784
_cell_length_b 9.722496
_cell_length_c 19.196955
_cell_angle_alpha 119.401601
_cell_angle_beta 126.254805
_cell_angle_gamma 46.827161
_cell_volume 721.352718
_symmetry_space_group_name_H-M "P -1"
_symmetry_group_IT_number 2
_symmetry_cell_setting 'triclinic'
loop_
_space_group_symop_operation_xyz
x,y,z
-x,-y,-z
loop_
_atom_site_type_symbol
_atom_site_label
_atom_site_fract_x
_atom_site_fract_y
_atom_site_fract_z
Si Si1 0.177607 0.953807 0.833991
Si Si2 0.028849 0.974390 0.582885
Si Si3 0.169434 0.258914 0.679726
Si Si4 0.633526 0.616912 0.587803
Si Si5 0.136793 0.821395 0.032922
Si Si6 0.259026 0.254089 0.849501
Si Si7 0.826868 0.605263 0.918856
Si Si8 0.265637 0.079580 0.368686
O O1 0.470198 0.765307 0.881573
O O2 0.987288 0.904206 0.732046
O O3 0.288766 0.066998 0.839726
O O4 0.973769 0.095304 0.890457
O O5 0.362256 0.788198 0.619973
O O6 0.810074 0.945539 0.575195
O O7 0.986627 0.168691 0.645004
O O8 0.000000 0.000000 0.500000
O O9 0.319186 0.253969 0.780402
O O10 0.936188 0.463312 0.651204
O O11 0.422596 0.109066 0.640924
O O12 0.500000 0.500000 0.500000
O O13 0.711742 0.738370 0.584963
O O14 0.489922 0.715388 0.062605
O O15 0.987744 0.709567 0.955608
O O16 0.000000 0.000000 0.000000
O O17 0.926283 0.431952 0.844002
O O18 0.000000 0.500000 0.000000
#
# Coordination Sequence:
#
# PCOD9065414 Si02
#       8
#     2   2   2   2   2   2   2   2
#     4  12  25  47  69 105 145 187 241 293 357 423
#     4  11  24  48  73 105 142 184 234 286 353 430
#     4  11  25  46  70 105 141 184 239 292 356 421
#     4  11  26  47  71 111 143 178 236 295 353 425
#     4  12  24  45  72 100 142 191 234 294 359 412
#     4  12  25  44  72 100 146 187 237 298 352 420
#     4  12  26  43  71 106 141 185 242 296 352 419
#     4  11  27  45  76 103 144 192 234 291 362 424
#
# _framework density 22.180548000000002
#
# number of rings (size 3 to 8) (size 9 to 14) (size 15 to 20)
#    0.000    0.500    6.250    1.500    1.750    6.500 
#    0.000    0.000    0.000    0.000    0.000    0.000 
#    0.000    0.000    0.000    0.000    0.000    0.000 
#
# Total GULP energy -89306.378935 kJ/mol
# GULP energy per Si atom -5581.648683 kJ/mol
# Density = 2.213006 g / cm^3
# Si number density = 22.180548 Si / 1000 Ang^3
#
#
#
# Elastic Constant Matrix: (Units=GPa)
#
#
# Indices 1 2 3 4 5 6 
#
# 1 127.2263 55.4283 25.2099 -17.9848 -4.2620 10.9999
# 2 55.4283 139.2105 16.8980 -21.2707 -6.6620 1.8234
# 3 25.2099 16.8980 62.4418 -10.3526 1.4177 1.5046
# 4 -17.9848 -21.2707 -10.3526 33.2368 1.7247 5.3597
# 5 -4.2620 -6.6620 1.4177 1.7247 41.1668 1.4621
# 6 10.9999 1.8234 1.5046 5.3597 1.4621 38.9363
#
#
#
# Elastic Compliance Matrix: (Units=1/GPa)
#
#
# Indices 1 2 3 4 5 6 
#
# 1 0.010615 -0.003322 -0.002788 0.003234 0.000636 -0.003205
# 2 -0.003322 0.009213 -0.000529 0.003889 0.001004 -0.000046
# 3 -0.002788 -0.000529 0.017959 0.003866 -0.001142 -0.000371
# 4 0.003234 0.003889 0.003866 0.036564 -0.000478 -0.006260
# 5 0.000636 0.001004 -0.001142 -0.000478 0.024616 -0.001041
# 6 -0.003205 -0.000046 -0.000371 -0.006260 -0.001041 0.027506
#
#
# Mechanical properties :
#
#
# Convention : Reuss Voigt Hill
#
# Bulk Modulus (GPa) = 40.79896 58.21675 49.50785
# Shear Modulus (GPa) = 33.80191 38.09080 35.94636
#
# Velocity S-wave (km/s) = 3.90801 4.14854 4.03007
# Velocity P-wave (km/s) = 6.22875 7.01790 6.63507
#
# Compressibility (1/GPa) = 0.02451043
#
# Stress axis : x y z
#
# Youngs Moduli (GPa) = 94.20636 108.54200 55.68098
#
# Poissons Ratio (x) = 0.36053 0.15523
# Poissons Ratio (y) = 0.31292 0.02946
# Poissons Ratio (z) = 0.26263 0.05742
#
# Static dielectric constant tensor:
#      x y z
#    x 1.826800 -0.028170 0.050700 
#    y -0.028170 1.923430 -0.148840 
#    z 0.050700 -0.148840 1.944770 
# 
# From -- ./inp_files/47705.got.cif
#   From: 2010.05.17/outbox.cif.g08.bks.cpg/sg2_24_cif.got.tgz:47705.got - 2010.06.03 11:33:40.
