data_PCOD9065379
_publ_section_title
;
Structure prediction by ZEFSAII (Michael W. Deem and Ramdas Pophale) SiO2 
 PCOD9065379
Probable space group: P -1
;
_chemical_formula_sum "Si O2"
_cell_formula_units_Z 14
_cell_length_a 10.434581
_cell_length_b 8.694320
_cell_length_c 16.520821
_cell_angle_alpha 32.171202
_cell_angle_beta 44.291491
_cell_angle_gamma 55.739294
_cell_volume 553.547093
_symmetry_space_group_name_H-M "P -1"
_symmetry_group_IT_number 2
_symmetry_cell_setting 'triclinic'
loop_
_space_group_symop_operation_xyz
x,y,z
-x,-y,-z
loop_
_atom_site_type_symbol
_atom_site_label
_atom_site_fract_x
_atom_site_fract_y
_atom_site_fract_z
Si Si1 0.558856 0.003456 0.276992
Si Si2 0.389678 0.591925 0.662677
Si Si3 0.680452 0.080561 0.020031
Si Si4 0.623032 0.574502 0.715701
Si Si5 0.974158 0.128925 0.542891
Si Si6 0.921115 0.744769 0.273784
Si Si7 0.958495 0.192371 0.200740
O O1 0.432255 0.727766 0.494906
O O2 0.762893 0.909261 0.233253
O O3 0.542139 0.096668 0.150746
O O4 0.517741 0.260533 0.240627
O O5 0.567466 0.603635 0.634975
O O6 0.246219 0.780955 0.685023
O O7 0.307674 0.258763 0.846427
O O8 0.612903 0.246860 0.899004
O O9 0.889560 0.229821 0.874663
O O10 0.828178 0.717986 0.581344
O O11 0.858812 0.403607 0.468344
O O12 0.920020 0.876217 0.745487
O O13 0.000000 0.000000 0.500000
O O14 0.970672 0.926509 0.252426
O O15 0.000000 0.500000 0.000000
#
# Coordination Sequence:
#
# PCOD9065379 Si02
#       7
#     2   2   2   2   2   2   2
#     4  12  24  44  73 102 146 188 235 296 353 415
#     4  12  24  46  74 106 142 188 237 290 360 426
#     4  11  26  44  70 109 145 184 237 291 359 423
#     4  11  24  48  72 102 144 187 237 293 355 425
#     4  11  27  48  73 105 146 187 242 297 357 421
#     4  11  25  46  73 107 145 192 239 288 354 432
#     4  12  24  46  76 106 145 192 239 287 356 437
#
# _framework density 25.291433000000001
#
# number of rings (size 3 to 8) (size 9 to 14) (size 15 to 20)
#    0.000    0.571    4.286    3.429    2.000    4.571 
#    5.143    0.000    0.000    0.000    0.000    0.000 
#    0.000    0.000    0.000    0.000    0.000    0.000 
#
# Total GULP energy -78407.304363 kJ/mol
# GULP energy per Si atom -5600.521740 kJ/mol
# Density = 2.523387 g / cm^3
# Si number density = 25.291433 Si / 1000 Ang^3
#
#
#
# Elastic Constant Matrix: (Units=GPa)
#
#
# Indices 1 2 3 4 5 6 
#
# 1 65.0759 3.2987 17.9007 4.7963 12.5332 0.2793
# 2 3.2987 109.3802 31.2721 -6.1943 19.6044 0.6608
# 3 17.9007 31.2721 134.3509 -6.2961 31.4853 -3.6464
# 4 4.7963 -6.1943 -6.2961 41.6346 -5.5272 5.7973
# 5 12.5332 19.6044 31.4853 -5.5272 35.0840 2.2090
# 6 0.2793 0.6608 -3.6464 5.7973 2.2090 38.3571
#
#
#
# Elastic Compliance Matrix: (Units=1/GPa)
#
#
# Indices 1 2 3 4 5 6 
#
# 1 0.017001 0.000714 -0.001166 -0.002888 -0.005914 0.000530
# 2 0.000714 0.010399 -0.001385 0.000650 -0.004712 -0.000143
# 3 -0.001166 -0.001385 0.009752 0.000202 -0.007616 0.001368
# 4 -0.002888 0.000650 0.000202 0.025690 0.004795 -0.004130
# 5 -0.005914 -0.004712 -0.007616 0.004795 0.041071 -0.003690
# 6 0.000530 -0.000143 0.001368 -0.004130 -0.003690 0.027036
#
#
# Mechanical properties :
#
#
# Convention : Reuss Voigt Hill
#
# Bulk Modulus (GPa) = 29.87081 45.97222 37.92151
# Shear Modulus (GPa) = 34.29767 40.10418 37.20092
#
# Velocity S-wave (km/s) = 3.68652 3.98638 3.83938
# Velocity P-wave (km/s) = 5.47328 6.27732 5.88904
#
# Compressibility (1/GPa) = 0.03347750
#
# Stress axis : x y z
#
# Youngs Moduli (GPa) = 58.82070 96.16337 102.53998
#
# Poissons Ratio (x) = -0.06866 0.11960
# Poissons Ratio (y) = -0.04200 0.14201
# Poissons Ratio (z) = 0.06861 0.13318
#
# Static dielectric constant tensor:
#      x y z
#    x 2.007210 -0.006130 -0.006330 
#    y -0.006130 1.952990 0.023920 
#    z -0.006330 0.023920 2.063920 
# 
# From -- ./inp_files/209574.got.cif
#   From: 2010.05.17/outbox.cif.g08.bks.cpg/sg2_105_cif.got.tgz:209574.got - 2010.06.03 11:33:40.
