data_PCOD9065353
_publ_section_title
;
Structure prediction by ZEFSAII (Michael W. Deem and Ramdas Pophale) SiO2 
 PCOD9065353
Probable space group: P -1
;
_chemical_formula_sum "Si O2"
_cell_formula_units_Z 16
_cell_length_a 18.142219
_cell_length_b 4.911299
_cell_length_c 8.410508
_cell_angle_alpha 77.344080
_cell_angle_beta 122.090486
_cell_angle_gamma 93.311207
_cell_volume 617.906222
_symmetry_space_group_name_H-M "P -1"
_symmetry_group_IT_number 2
_symmetry_cell_setting 'triclinic'
loop_
_space_group_symop_operation_xyz
x,y,z
-x,-y,-z
loop_
_atom_site_type_symbol
_atom_site_label
_atom_site_fract_x
_atom_site_fract_y
_atom_site_fract_z
Si Si1 0.809744 0.025721 0.008708
Si Si2 0.003585 0.722246 0.831837
Si Si3 0.099535 0.688405 0.392120
Si Si4 0.410586 0.360333 0.441731
Si Si5 0.416991 0.876762 0.766655
Si Si6 0.225881 0.552580 0.827807
Si Si7 0.589959 0.505157 0.930461
Si Si8 0.264487 0.740320 0.405068
O O1 0.753563 0.226805 0.039787
O O2 0.900895 0.169309 0.086494
O O3 0.818023 0.715521 0.121922
O O4 0.767357 0.022593 0.786550
O O5 0.969743 0.544811 0.667716
O O6 0.941817 0.006744 0.743024
O O7 0.000000 0.500000 0.000000
O O8 0.152753 0.704124 0.613147
O O9 0.178501 0.594325 0.374536
O O10 0.500000 0.500000 0.500000
O O11 0.385745 0.349026 0.228638
O O12 0.334818 0.545760 0.417011
O O13 0.434484 0.118999 0.628360
O O14 0.493318 0.643984 0.834037
O O15 0.316784 0.847894 0.600459
O O16 0.418936 0.818431 0.968881
O O17 0.320281 0.438164 0.879739
#
# Coordination Sequence:
#
# PCOD9065353 Si02
#       8
#     2   2   2   2   2   2   2   2
#     4  12  28  46  79 107 146 195 247 312 377 460
#     4  12  27  50  76 110 146 192 247 309 386 447
#     4  12  28  48  79 106 150 193 244 317 370 448
#     4  12  26  45  71 108 147 200 251 314 375 439
#     4  11  26  46  72 104 153 196 256 305 373 452
#     4  12  27  48  74 114 149 192 250 308 376 446
#     4  11  24  48  70 108 149 202 247 312 376 440
#     4  12  26  45  72 109 139 197 253 300 370 450
#
# _framework density 25.893899999999999
#
# number of rings (size 3 to 8) (size 9 to 14) (size 15 to 20)
#    0.000    0.250    5.000    3.000    5.250    4.500 
#    0.000    0.000    0.000    0.000    0.000    0.000 
#    0.000    0.000    0.000    0.000    0.000    0.000 
#
# Total GULP energy -89259.104997 kJ/mol
# GULP energy per Si atom -5578.694062 kJ/mol
# Density = 2.583496 g / cm^3
# Si number density = 25.893900 Si / 1000 Ang^3
#
#
#
# Elastic Constant Matrix: (Units=GPa)
#
#
# Indices 1 2 3 4 5 6 
#
# 1 89.9403 24.1043 43.5501 -30.1026 13.9471 15.2925
# 2 24.1043 82.2678 45.9716 -28.9801 -0.0878 16.5349
# 3 43.5501 45.9716 172.4741 -21.7532 11.9194 24.8578
# 4 -30.1026 -28.9801 -21.7532 45.5451 3.8837 -9.6224
# 5 13.9471 -0.0878 11.9194 3.8837 46.4649 -11.9702
# 6 15.2925 16.5349 24.8578 -9.6224 -11.9702 38.5283
#
#
#
# Elastic Compliance Matrix: (Units=1/GPa)
#
#
# Indices 1 2 3 4 5 6 
#
# 1 0.017413 0.000825 -0.002012 0.010504 -0.007010 -0.005522
# 2 0.000825 0.017850 -0.003084 0.009699 -0.001255 -0.003965
# 3 -0.002012 -0.003084 0.007801 -0.000143 -0.002337 -0.003673
# 4 0.010504 0.009699 -0.000143 0.035247 -0.006412 -0.001429
# 5 -0.007010 -0.001255 -0.002337 -0.006412 0.027817 0.011870
# 6 -0.005522 -0.003965 -0.003673 -0.001429 0.011870 0.035549
#
#
# Mechanical properties :
#
#
# Convention : Reuss Voigt Hill
#
# Bulk Modulus (GPa) = 28.96799 63.54825 46.25812
# Shear Modulus (GPa) = 30.91661 41.51140 36.21400
#
# Velocity S-wave (km/s) = 3.45914 4.00826 3.74378
# Velocity P-wave (km/s) = 5.21207 6.78355 6.04906
#
# Compressibility (1/GPa) = 0.03452086
#
# Stress axis : x y z
#
# Youngs Moduli (GPa) = 57.42823 56.02385 128.19099
#
# Poissons Ratio (x) = -0.04620 0.25786
# Poissons Ratio (y) = -0.04736 0.39540
# Poissons Ratio (z) = 0.11552 0.17280
#
# Static dielectric constant tensor:
#      x y z
#    x 2.106580 0.010800 -0.084330 
#    y 0.010800 2.082360 0.033730 
#    z -0.084330 0.033730 2.138400 
# 
# From -- ./inp_files/323352.got.cif
#   From: 2010.05.17/outbox.cif.g08.bks.cpg/sg2_162_cif.got.tgz:323352.got - 2010.06.03 11:33:40.
