data_PCOD9065432
_publ_section_title
;
Structure prediction by ZEFSAII (Michael W. Deem and Ramdas Pophale) SiO2 
 PCOD9065432
Probable space group: P -1
;
_chemical_formula_sum "Si O2"
_cell_formula_units_Z 12
_cell_length_a 23.928402
_cell_length_b 26.433778
_cell_length_c 12.753832
_cell_angle_alpha 32.173580
_cell_angle_beta 151.297643
_cell_angle_gamma 169.774942
_cell_volume 674.325101
_symmetry_space_group_name_H-M "P -1"
_symmetry_group_IT_number 2
_symmetry_cell_setting 'triclinic'
loop_
_space_group_symop_operation_xyz
x,y,z
-x,-y,-z
loop_
_atom_site_type_symbol
_atom_site_label
_atom_site_fract_x
_atom_site_fract_y
_atom_site_fract_z
Si Si1 0.910616 0.408974 0.633671
Si Si2 0.863877 0.893225 0.202662
Si Si3 0.078188 0.340442 0.965087
Si Si4 0.877782 0.227610 0.598426
Si Si5 0.405965 0.471419 0.006758
Si Si6 0.922167 0.841913 0.591345
O O1 0.000000 0.500000 0.500000
O O2 0.048477 0.408244 0.873135
O O3 0.063647 0.614367 0.590725
O O4 0.484449 0.081005 0.511873
O O5 0.018220 0.935812 0.464031
O O6 0.488463 0.641949 0.074425
O O7 0.744939 0.753172 0.144029
O O8 0.134903 0.188901 0.113323
O O9 0.867438 0.196232 0.762173
O O10 0.933783 0.136683 0.145082
O O11 0.199235 0.411890 0.761423
O O12 0.500000 0.500000 0.000000
O O13 0.500000 0.500000 0.500000
O O14 0.000000 0.000000 0.500000
#
# Coordination Sequence:
#
# PCOD9065432 Si02
#       6
#     2   2   2   2   2   2
#     4  10  18  28  44  68  98 128 150 182 230 287
#     4  10  20  33  48  74 100 123 161 199 231 287
#     4   9  18  30  48  71 102 131 148 180 238 295
#     4  10  19  30  44  69  97 121 157 195 226 281
#     4  11  21  35  52  69  92 127 164 207 247 269
#     4  10  19  30  47  71 101 132 155 185 232 289
#
# _framework density 17.795570000000001
#
# number of rings (size 3 to 8) (size 9 to 14) (size 15 to 20)
#    0.000    2.000    0.000    8.500    0.000    6.667 
#    0.000    0.000    0.000    0.000    0.000    7.000 
#    0.000    0.000    0.000    0.000    0.000    0.000 
#
# Total GULP energy -66936.065271 kJ/mol
# GULP energy per Si atom -5578.005439 kJ/mol
# Density = 1.775507 g / cm^3
# Si number density = 17.795570 Si / 1000 Ang^3
#
#
#
# Elastic Constant Matrix: (Units=GPa)
#
#
# Indices 1 2 3 4 5 6 
#
# 1 79.7351 -1.8400 27.2963 -3.1091 16.2913 -7.1909
# 2 -1.8400 45.2125 3.3944 -9.2837 4.6486 -18.7822
# 3 27.2963 3.3944 83.3705 -18.9925 18.1547 -2.4829
# 4 -3.1091 -9.2837 -18.9925 22.6106 -10.4577 4.4056
# 5 16.2913 4.6486 18.1547 -10.4577 21.1482 -2.2895
# 6 -7.1909 -18.7822 -2.4829 4.4056 -2.2895 26.5400
#
#
#
# Elastic Compliance Matrix: (Units=1/GPa)
#
#
# Indices 1 2 3 4 5 6 
#
# 1 0.017140 0.003806 -0.004334 -0.007138 -0.013093 0.006988
# 2 0.003806 0.034224 0.001035 0.008811 -0.004442 0.023503
# 3 -0.004334 0.001035 0.017354 0.011856 -0.006066 -0.001310
# 4 -0.007138 0.008811 0.011856 0.070433 0.027793 -0.003884
# 5 -0.013093 -0.004442 -0.006066 0.027793 0.076730 -0.005253
# 6 0.006988 0.023503 -0.001310 -0.003884 -0.005253 0.056274
#
#
# Mechanical properties :
#
#
# Convention : Reuss Voigt Hill
#
# Bulk Modulus (GPa) = 14.34034 29.55772 21.94903
# Shear Modulus (GPa) = 16.98456 26.02425 21.50440
#
# Velocity S-wave (km/s) = 3.09273 3.82828 3.48000
# Velocity P-wave (km/s) = 4.56390 6.01553 5.33928
#
# Compressibility (1/GPa) = 0.06973335
#
# Stress axis : x y z
#
# Youngs Moduli (GPa) = 58.34335 29.21897 57.62318
#
# Poissons Ratio (x) = -0.11121 0.24971
# Poissons Ratio (y) = -0.22207 -0.05963
# Poissons Ratio (z) = 0.25283 -0.03024
#
# Static dielectric constant tensor:
#      x y z
#    x 1.621600 -0.013780 0.009660 
#    y -0.013780 1.627940 0.014960 
#    z 0.009660 0.014960 1.679010 
# 
# From -- ./inp_files/62005.got.cif
#   From: 2010.05.17/outbox.cif.g08.bks.cpg/sg2_32_cif.got.tgz:62005.got - 2010.06.03 11:33:40.
