data_PCOD9065626
_publ_section_title
;
Structure prediction by ZEFSAII (Michael W. Deem and Ramdas Pophale) SiO2 
 PCOD9065626
Probable space group: P -1
;
_chemical_formula_sum "Si O2"
_cell_formula_units_Z 12
_cell_length_a 9.339734
_cell_length_b 7.096657
_cell_length_c 7.051219
_cell_angle_alpha 100.440610
_cell_angle_beta 106.183328
_cell_angle_gamma 70.599554
_cell_volume 421.324975
_symmetry_space_group_name_H-M "P -1"
_symmetry_group_IT_number 2
_symmetry_cell_setting 'triclinic'
loop_
_space_group_symop_operation_xyz
x,y,z
-x,-y,-z
loop_
_atom_site_type_symbol
_atom_site_label
_atom_site_fract_x
_atom_site_fract_y
_atom_site_fract_z
Si Si1 0.548721 0.498715 0.299982
Si Si2 0.995063 0.712980 0.434818
Si Si3 0.653421 0.890544 0.347806
Si Si4 0.164692 0.794605 0.843770
Si Si5 0.309186 0.071676 0.195957
Si Si6 0.208379 0.532112 0.137234
O O1 0.500000 0.500000 0.500000
O O2 0.617627 0.681060 0.329228
O O3 0.680260 0.305409 0.241883
O O4 0.382534 0.536963 0.147606
O O5 0.824355 0.825098 0.308175
O O6 0.124914 0.660121 0.309516
O O7 0.000000 0.500000 0.500000
O O8 0.032850 0.845279 0.643823
O O9 0.677774 0.971177 0.580507
O O10 0.495827 0.019482 0.211332
O O11 0.120449 0.631110 0.933952
O O12 0.210238 0.947992 0.029935
O O13 0.233760 0.303442 0.160820
#
# Coordination Sequence:
#
# PCOD9065626 Si02
#       6
#     2   2   2   2   2   2
#     4  12  21  48  79 108 150 210 258 311 387 467
#     4  12  24  52  79 112 165 209 252 328 405 460
#     4  11  24  49  78 113 164 203 257 330 391 463
#     4  12  27  46  84 117 153 205 271 320 387 478
#     4  11  25  47  81 116 157 200 273 321 381 470
#     4  12  26  50  84 111 155 213 262 320 396 463
#
# _framework density 28.481573999999998
#
# number of rings (size 3 to 8) (size 9 to 14) (size 15 to 20)
#    0.000    0.333    8.333    0.500    0.000    2.000 
#    0.000    4.167    7.333    0.000    0.000    0.000 
#    0.000    0.000    0.000    0.000    0.000    0.000 
#
# Total GULP energy -67400.150624 kJ/mol
# GULP energy per Si atom -5616.679219 kJ/mol
# Density = 2.841675 g / cm^3
# Si number density = 28.481574 Si / 1000 Ang^3
#
#
#
# Elastic Constant Matrix: (Units=GPa)
#
#
# Indices 1 2 3 4 5 6 
#
# 1 146.4968 33.0381 43.6108 -5.3172 22.7834 -29.8123
# 2 33.0381 113.3525 43.9530 10.7274 13.0833 -8.1587
# 3 43.6108 43.9530 178.2293 4.1127 -2.2852 -11.1905
# 4 -5.3172 10.7274 4.1127 51.8636 2.5848 0.1139
# 5 22.7834 13.0833 -2.2852 2.5848 59.6973 -8.1666
# 6 -29.8123 -8.1587 -11.1905 0.1139 -8.1666 46.3953
#
#
#
# Elastic Compliance Matrix: (Units=1/GPa)
#
#
# Indices 1 2 3 4 5 6 
#
# 1 0.009067 -0.001517 -0.001617 0.001491 -0.002611 0.004707
# 2 -0.001517 0.010511 -0.002192 -0.002071 -0.001712 0.000049
# 3 -0.001617 -0.002192 0.006599 -0.000307 0.001421 0.000418
# 4 0.001491 -0.002071 -0.000307 0.019934 -0.000949 0.000304
# 5 -0.002611 -0.001712 0.001421 -0.000949 0.018439 0.001612
# 6 0.004707 0.000049 0.000418 0.000304 0.001612 0.024970
#
#
# Mechanical properties :
#
#
# Convention : Reuss Voigt Hill
#
# Bulk Modulus (GPa) = 64.41116 75.47582 69.94349
# Shear Modulus (GPa) = 47.46207 52.75636 50.10921
#
# Velocity S-wave (km/s) = 4.08660 4.30850 4.19902
# Velocity P-wave (km/s) = 6.70307 7.16298 6.93684
#
# Compressibility (1/GPa) = 0.01552526
#
# Stress axis : x y z
#
# Youngs Moduli (GPa) = 110.28404 95.13606 151.54820
#
# Poissons Ratio (x) = 0.14431 0.24506
# Poissons Ratio (y) = 0.16729 0.33221
# Poissons Ratio (z) = 0.17833 0.20855
#
# Static dielectric constant tensor:
#      x y z
#    x 2.157470 -0.050300 -0.017200 
#    y -0.050300 2.182330 -0.051430 
#    z -0.017200 -0.051430 2.201800 
# 
# From -- ./inp_files/240733.got.cif
#   From: 2010.05.17/outbox.cif.g08.bks.cpg/sg2_121_cif.got.tgz:240733.got - 2010.06.03 11:33:40.
