data_PCOD9065590
_publ_section_title
;
Structure prediction by ZEFSAII (Michael W. Deem and Ramdas Pophale) SiO2 
 PCOD9065590
Probable space group: P -1
;
_chemical_formula_sum "Si O2"
_cell_formula_units_Z 13
_cell_length_a 14.982484
_cell_length_b 9.950596
_cell_length_c 8.205766
_cell_angle_alpha 74.697495
_cell_angle_beta 54.052960
_cell_angle_gamma 37.505945
_cell_volume 550.145558
_symmetry_space_group_name_H-M "P -1"
_symmetry_group_IT_number 2
_symmetry_cell_setting 'triclinic'
loop_
_space_group_symop_operation_xyz
x,y,z
-x,-y,-z
loop_
_atom_site_type_symbol
_atom_site_label
_atom_site_fract_x
_atom_site_fract_y
_atom_site_fract_z
Si Si1 0.090296 0.849641 0.785872
Si Si2 0.141585 0.485180 0.863024
Si Si3 0.733141 0.911142 0.561554
Si Si4 0.248692 0.671727 0.156678
Si Si5 0.500000 0.000000 0.500000
Si Si6 0.590075 0.362825 0.675279
Si Si7 0.196035 0.424694 0.193154
O O1 0.044767 0.733457 0.863189
O O2 0.312604 0.647747 0.570158
O O3 0.970022 0.059265 0.715679
O O4 0.000000 0.000000 0.000000
O O5 0.308236 0.293951 0.616251
O O6 0.240859 0.380955 0.967658
O O7 0.000000 0.500000 0.000000
O O8 0.618077 0.989562 0.497578
O O9 0.720835 0.799040 0.742262
O O10 0.963543 0.676467 0.361265
O O11 0.655196 0.137229 0.642561
O O12 0.322415 0.666599 0.241640
O O13 0.269521 0.483896 0.190909
O O14 0.368043 0.596681 0.892095
#
# Coordination Sequence:
#
# PCOD9065590 Si02
#       7
#     2   2   2   2   1   2   2
#     4  12  26  47  72 105 152 194 237 315 364 441
#     4  12  27  47  72 108 150 193 245 300 368 439
#     4  11  25  46  79 104 149 194 247 308 364 443
#     4  11  25  46  73 108 148 188 249 300 379 436
#     4  12  28  46  74 110 142 194 246 300 366 436
#     4  11  26  46  73 110 140 196 248 305 368 444
#     4  11  24  49  74 108 147 197 241 305 376 433
#
# _framework density 23.630112
#
# number of rings (size 3 to 8) (size 9 to 14) (size 15 to 20)
#    0.000    0.615    4.615    1.385    4.308    4.308 
#    0.000    0.000    0.000    0.000    0.000    0.000 
#    0.000    0.000    0.000    0.000    0.000    0.000 
#
# Total GULP energy -72432.066714 kJ/mol
# GULP energy per Si atom -5571.697440 kJ/mol
# Density = 2.357633 g / cm^3
# Si number density = 23.630112 Si / 1000 Ang^3
#
#
#
# Elastic Constant Matrix: (Units=GPa)
#
#
# Indices 1 2 3 4 5 6 
#
# 1 165.2754 41.0295 20.6996 2.6213 3.0292 34.4150
# 2 41.0295 69.5482 7.1342 1.6818 -9.7962 38.4962
# 3 20.6996 7.1342 104.1796 14.5998 -0.9573 8.6678
# 4 2.6213 1.6818 14.5998 39.4603 -1.1869 -4.6431
# 5 3.0292 -9.7962 -0.9573 -1.1869 32.0195 8.5871
# 6 34.4150 38.4962 8.6678 -4.6431 8.5871 50.3787
#
#
#
# Elastic Compliance Matrix: (Units=1/GPa)
#
#
# Indices 1 2 3 4 5 6 
#
# 1 0.007478 -0.003129 -0.001042 -0.000290 -0.001068 -0.002383
# 2 -0.003129 0.033936 0.001373 -0.004442 0.017929 -0.027496
# 3 -0.001042 0.001373 0.010541 -0.004173 0.001424 -0.002778
# 4 -0.000290 -0.004442 -0.004173 0.027880 -0.002377 0.007286
# 5 -0.001068 0.017929 0.001424 -0.002377 0.042309 -0.020646
# 6 -0.002383 -0.027496 -0.002778 0.007286 -0.020646 0.047156
#
#
# Mechanical properties :
#
#
# Convention : Reuss Voigt Hill
#
# Bulk Modulus (GPa) = 21.57161 52.96999 37.27080
# Shear Modulus (GPa) = 26.26728 42.38103 34.32416
#
# Velocity S-wave (km/s) = 3.33769 4.23959 3.81538
# Velocity P-wave (km/s) = 4.89921 6.81399 5.93434
#
# Compressibility (1/GPa) = 0.04635722
#
# Stress axis : x y z
#
# Youngs Moduli (GPa) = 133.72126 29.46733 94.86782
#
# Poissons Ratio (x) = 0.09221 0.09890
# Poissons Ratio (y) = 0.41845 -0.13023
# Poissons Ratio (z) = 0.13940 -0.04045
#
# Static dielectric constant tensor:
#      x y z
#    x 1.797860 -0.024060 -0.007800 
#    y -0.024060 1.777150 -0.030900 
#    z -0.007800 -0.030900 1.965090 
# 
# From -- ./inp_files/239843.got.cif
#   From: 2010.05.17/outbox.cif.g08.bks.cpg/sg2_120_cif.got.tgz:239843.got - 2010.06.03 11:33:40.
