data_PCOD9065751
_publ_section_title
;
Structure prediction by ZEFSAII (Michael W. Deem and Ramdas Pophale) SiO2 
 PCOD9065751
Probable space group: P -1
;
_chemical_formula_sum "Si O2"
_cell_formula_units_Z 13
_cell_length_a 9.032983
_cell_length_b 14.936798
_cell_length_c 14.266273
_cell_angle_alpha 159.816947
_cell_angle_beta 80.046052
_cell_angle_gamma 91.128847
_cell_volume 593.794649
_symmetry_space_group_name_H-M "P -1"
_symmetry_group_IT_number 2
_symmetry_cell_setting 'triclinic'
loop_
_space_group_symop_operation_xyz
x,y,z
-x,-y,-z
loop_
_atom_site_type_symbol
_atom_site_label
_atom_site_fract_x
_atom_site_fract_y
_atom_site_fract_z
Si Si1 0.405842 0.483755 0.854184
Si Si2 0.414571 0.956516 0.059443
Si Si3 0.866732 0.993007 0.242371
Si Si4 0.665164 0.627923 0.870627
Si Si5 0.500000 0.000000 0.500000
Si Si6 0.760030 0.421199 0.239034
Si Si7 0.823791 0.082384 0.550382
O O1 0.540918 0.612283 0.949185
O O2 0.306834 0.532136 0.815768
O O3 0.503160 0.164322 0.564151
O O4 0.297764 0.635204 0.104374
O O5 0.276627 0.265787 0.410570
O O6 0.551608 0.832627 0.003769
O O7 0.341272 0.720312 0.830485
O O8 0.500000 0.000000 0.000000
O O9 0.762190 0.296519 0.501152
O O10 0.865114 0.091177 0.446109
O O11 0.787140 0.765993 0.022771
O O12 0.052762 0.812773 0.010971
O O13 0.293173 0.087123 0.593281
O O14 0.000000 0.000000 0.500000
#
# Coordination Sequence:
#
# PCOD9065751 Si02
#       7
#     2   2   2   2   1   2   2
#     4  11  25  42  65  96 138 196 243 287 349 416
#     4  11  25  49  76 104 133 178 232 294 370 454
#     4  12  25  45  68 106 145 189 238 293 358 416
#     4  11  25  45  73  99 138 192 238 295 364 431
#     4  12  26  42  64  98 144 196 258 300 338 424
#     4  11  25  45  73 101 143 178 232 296 362 432
#     4  12  26  41  63  99 145 194 247 293 342 411
#
# _framework density 21.893089
#
# number of rings (size 3 to 8) (size 9 to 14) (size 15 to 20)
#    0.000    0.615    3.077    4.615    6.462    1.846 
#    0.000    4.615    0.000    0.000    0.000    0.000 
#    0.000    0.000    0.000    0.000    0.000    0.000 
#
# Total GULP energy -72390.513099 kJ/mol
# GULP energy per Si atom -5568.501008 kJ/mol
# Density = 2.184326 g / cm^3
# Si number density = 21.893089 Si / 1000 Ang^3
#
#
#
# Elastic Constant Matrix: (Units=GPa)
#
#
# Indices 1 2 3 4 5 6 
#
# 1 106.8732 15.0530 14.4771 6.6468 -16.1204 11.6825
# 2 15.0530 96.6178 18.3219 14.5130 -6.3549 17.1154
# 3 14.4771 18.3219 117.9925 14.9672 -7.7359 1.6267
# 4 6.6468 14.5130 14.9672 28.8241 10.5595 0.1379
# 5 -16.1204 -6.3549 -7.7359 10.5595 33.7678 5.8355
# 6 11.6825 17.1154 1.6267 0.1379 5.8355 9.1698
#
#
#
# Elastic Compliance Matrix: (Units=1/GPa)
#
#
# Indices 1 2 3 4 5 6 
#
# 1 0.026672 0.022496 0.002227 -0.035253 0.046746 -0.105581
# 2 0.022496 0.045093 0.002960 -0.051533 0.062327 -0.152239
# 3 0.002227 0.002960 0.010008 -0.010837 0.010140 -0.016427
# 4 -0.035253 -0.051533 -0.010837 0.109513 -0.098522 0.204073
# 5 0.046746 0.062327 0.010140 -0.098522 0.142965 -0.267186
# 6 -0.105581 -0.152239 -0.016427 0.204073 -0.267186 0.697599
#
#
# Mechanical properties :
#
#
# Convention : Reuss Voigt Hill
#
# Bulk Modulus (GPa) = 7.29198 46.35415 26.82307
# Shear Modulus (GPa) = 4.89142 32.59444 18.74293
#
# Velocity S-wave (km/s) = 1.49636 3.86268 2.92911
# Velocity P-wave (km/s) = 2.51464 6.41192 4.87012
#
# Compressibility (1/GPa) = 0.13713692
#
# Stress axis : x y z
#
# Youngs Moduli (GPa) = 37.49309 22.17650 99.91754
#
# Poissons Ratio (x) = -0.49887 -0.22247
# Poissons Ratio (y) = -0.84343 -0.29575
# Poissons Ratio (z) = -0.08348 -0.06564
#
# Static dielectric constant tensor:
#      x y z
#    x 1.814140 0.007520 0.019330 
#    y 0.007520 1.769710 -0.006430 
#    z 0.019330 -0.006430 1.899430 
# 
# From -- ./inp_files/86328.got.cif
#   From: 2010.05.17/outbox.cif.g08.bks.cpg/sg2_44_cif.got.tgz:86328.got - 2010.06.03 11:33:40.
