data_PCOD9065969
_publ_section_title
;
Structure prediction by ZEFSAII (Michael W. Deem and Ramdas Pophale) SiO2 
 PCOD9065969
Probable space group: P -1
;
_chemical_formula_sum "Si O2"
_cell_formula_units_Z 15
_cell_length_a 14.950429
_cell_length_b 8.543208
_cell_length_c 12.540774
_cell_angle_alpha 116.800465
_cell_angle_beta 147.801681
_cell_angle_gamma 49.454232
_cell_volume 628.801423
_symmetry_space_group_name_H-M "P -1"
_symmetry_group_IT_number 2
_symmetry_cell_setting 'triclinic'
loop_
_space_group_symop_operation_xyz
x,y,z
-x,-y,-z
loop_
_atom_site_type_symbol
_atom_site_label
_atom_site_fract_x
_atom_site_fract_y
_atom_site_fract_z
Si Si1 0.023168 0.653338 0.146388
Si Si2 0.319022 0.771563 0.496817
Si Si3 0.500000 0.500000 0.000000
Si Si4 0.022471 0.450975 0.689456
Si Si5 0.025754 0.860908 0.586805
Si Si6 0.266097 0.968317 0.162479
Si Si7 0.638904 0.469091 0.900413
Si Si8 0.308435 0.109338 0.457686
O O1 0.222133 0.649842 0.316891
O O2 0.021956 0.604971 0.255090
O O3 0.000000 0.500000 0.000000
O O4 0.834583 0.889923 0.999480
O O5 0.499819 0.614186 0.708429
O O6 0.383530 0.882689 0.513239
O O7 0.134000 0.969302 0.437198
O O8 0.745220 0.289858 0.183355
O O9 0.500432 0.499337 0.130121
O O10 0.035141 0.294805 0.566176
O O11 0.839014 0.692755 0.555836
O O12 0.221875 0.451518 0.899093
O O13 0.000000 0.000000 0.500000
O O14 0.238161 0.778007 0.082995
O O15 0.504611 0.874229 0.374617
O O16 0.189217 0.120571 0.234602
#
# Coordination Sequence:
#
# PCOD9065969 Si02
#       8
#     2   2   1   2   2   2   2   2
#     4  12  24  43  74 102 146 188 239 303 360 432
#     4  12  27  48  72 108 145 194 244 303 360 440
#     4  12  24  48  76 102 142 192 238 300 364 424
#     4  12  26  47  72 110 143 190 243 299 365 436
#     4  12  25  49  76 105 148 188 243 302 365 435
#     4  11  25  44  70 103 144 192 237 301 368 431
#     4  12  28  45  74 107 145 194 242 298 370 436
#     4  11  25  45  71 103 142 187 245 298 361 436
#
# _framework density 23.854907999999998
#
# number of rings (size 3 to 8) (size 9 to 14) (size 15 to 20)
#    0.000    0.267    4.000    4.800    3.733    5.333 
#    2.400    0.000    0.000    0.000    0.000    0.000 
#    0.000    0.000    0.000    0.000    0.000    0.000 
#
# Total GULP energy -83808.493577 kJ/mol
# GULP energy per Si atom -5587.232905 kJ/mol
# Density = 2.380061 g / cm^3
# Si number density = 23.854908 Si / 1000 Ang^3
#
#
#
# Elastic Constant Matrix: (Units=GPa)
#
#
# Indices 1 2 3 4 5 6 
#
# 1 61.7306 17.5244 5.0977 6.2624 -13.2669 12.7345
# 2 17.5244 136.7110 57.6210 14.6977 0.4136 11.4103
# 3 5.0977 57.6210 87.4936 10.7673 0.0670 6.0406
# 4 6.2624 14.6977 10.7673 51.6432 9.3984 -5.7377
# 5 -13.2669 0.4136 0.0670 9.3984 33.5443 -12.7906
# 6 12.7345 11.4103 6.0406 -5.7377 -12.7906 38.6042
#
#
#
# Elastic Compliance Matrix: (Units=1/GPa)
#
#
# Indices 1 2 3 4 5 6 
#
# 1 0.019523 -0.002231 0.001069 -0.003726 0.007224 -0.004108
# 2 -0.002231 0.010712 -0.006612 -0.001373 -0.001404 -0.002065
# 3 0.001069 -0.006612 0.016010 -0.001804 0.000608 -0.000970
# 4 -0.003726 -0.001373 -0.001804 0.022101 -0.006481 0.003055
# 5 0.007224 -0.001404 0.000608 -0.006481 0.038168 0.009620
# 6 -0.004108 -0.002065 -0.000970 0.003055 0.009620 0.031663
#
#
# Mechanical properties :
#
#
# Convention : Reuss Voigt Hill
#
# Bulk Modulus (GPa) = 32.57800 49.60237 41.09018
# Shear Modulus (GPa) = 30.49570 38.47114 34.48342
#
# Velocity S-wave (km/s) = 3.57933 4.02022 3.80616
# Velocity P-wave (km/s) = 5.54693 6.51061 6.04800
#
# Compressibility (1/GPa) = 0.03069556
#
# Stress axis : x y z
#
# Youngs Moduli (GPa) = 51.22239 93.35596 62.46071
#
# Poissons Ratio (x) = 0.20831 -0.06675
# Poissons Ratio (y) = 0.11429 0.41298
# Poissons Ratio (z) = -0.05474 0.61725
#
# Static dielectric constant tensor:
#      x y z
#    x 1.938470 -0.002080 0.021640 
#    y -0.002080 1.898710 0.006060 
#    z 0.021640 0.006060 1.860650 
# 
# From -- ./inp_files/382006.got.cif
#   From: 2010.05.17/outbox.cif.g08.bks.cpg/sg2_192_cif.got.tgz:382006.got - 2010.06.03 11:33:40.
