data_PCOD9065944
_publ_section_title
;
Structure prediction by ZEFSAII (Michael W. Deem and Ramdas Pophale) SiO2 
 PCOD9065944
Probable space group: P -1
;
_chemical_formula_sum "Si O2"
_cell_formula_units_Z 11
_cell_length_a 20.163095
_cell_length_b 19.727468
_cell_length_c 13.487744
_cell_angle_alpha 28.399364
_cell_angle_beta 161.750458
_cell_angle_gamma 161.567732
_cell_volume 518.744130
_symmetry_space_group_name_H-M "P -1"
_symmetry_group_IT_number 2
_symmetry_cell_setting 'triclinic'
loop_
_space_group_symop_operation_xyz
x,y,z
-x,-y,-z
loop_
_atom_site_type_symbol
_atom_site_label
_atom_site_fract_x
_atom_site_fract_y
_atom_site_fract_z
Si Si1 0.335458 0.850350 0.363220
Si Si2 0.560880 0.470540 0.733664
Si Si3 0.632606 0.360184 0.631745
Si Si4 0.678355 0.449947 0.351399
Si Si5 0.538495 0.136158 0.094810
Si Si6 0.500000 0.000000 0.000000
O O1 0.426061 0.731804 0.633810
O O2 0.500000 0.000000 0.500000
O O3 0.447587 0.986829 0.247373
O O4 0.945422 0.660675 0.057880
O O5 0.500000 0.500000 0.500000
O O6 0.417430 0.512755 0.551020
O O7 0.439058 0.245144 0.846128
O O8 0.598999 0.366351 0.459153
O O9 0.427766 0.123720 0.688545
O O10 0.000000 0.500000 0.000000
O O11 0.070246 0.664183 0.625183
O O12 0.500000 0.500000 0.000000
O O13 0.400493 0.011405 0.954889
#
# Coordination Sequence:
#
# PCOD9065944 Si02
#       6
#     2   2   2   2   2   1
#     4  11  27  46  67 100 142 183 232 281 345 426
#     4  11  25  44  69 101 135 181 225 290 347 402
#     4  12  24  45  69 101 138 177 235 288 345 406
#     4  11  26  44  69 100 141 184 225 288 347 412
#     4  11  25  45  69 100 141 179 231 287 347 407
#     4  12  22  42  72 100 130 180 228 284 336 404
#
# _framework density 21.205058999999999
#
# number of rings (size 3 to 8) (size 9 to 14) (size 15 to 20)
#    0.000    0.727    5.455    1.091    5.091    5.818 
#    0.000    0.000    0.000    0.000    0.000    0.000 
#    0.000    0.000    0.000    0.000    0.000    0.000 
#
# Total GULP energy -61265.152867 kJ/mol
# GULP energy per Si atom -5569.559352 kJ/mol
# Density = 2.115680 g / cm^3
# Si number density = 21.205059 Si / 1000 Ang^3
#
#
#
# Elastic Constant Matrix: (Units=GPa)
#
#
# Indices 1 2 3 4 5 6 
#
# 1 164.0501 47.4835 58.1829 -13.3216 4.1424 -29.8500
# 2 47.4835 79.0714 40.1824 -31.8393 8.5090 -18.2421
# 3 58.1829 40.1824 113.8849 -40.3215 4.3285 -18.4516
# 4 -13.3216 -31.8393 -40.3215 36.0384 -12.6205 0.7734
# 5 4.1424 8.5090 4.3285 -12.6205 41.6665 -12.9285
# 6 -29.8500 -18.2421 -18.4516 0.7734 -12.9285 43.2147
#
#
#
# Elastic Compliance Matrix: (Units=1/GPa)
#
#
# Indices 1 2 3 4 5 6 
#
# 1 0.009228 -0.005483 -0.005163 -0.007613 -0.001047 0.001678
# 2 -0.005483 0.027454 0.005736 0.030991 0.007428 0.011918
# 3 -0.005163 0.005736 0.021381 0.030168 0.009445 0.010270
# 4 -0.007613 0.030991 0.030168 0.095564 0.028807 0.027613
# 5 -0.001047 0.007428 0.009445 0.028807 0.035464 0.016539
# 6 0.001678 0.011918 0.010270 0.027613 0.016539 0.038169
#
#
# Mechanical properties :
#
#
# Convention : Reuss Voigt Hill
#
# Bulk Modulus (GPa) = 20.72904 72.07824 46.40364
# Shear Modulus (GPa) = 19.75028 38.26110 29.00569
#
# Velocity S-wave (km/s) = 3.05519 4.25236 3.70248
# Velocity P-wave (km/s) = 4.71617 7.62725 6.34103
#
# Compressibility (1/GPa) = 0.04824149
#
# Stress axis : x y z
#
# Youngs Moduli (GPa) = 108.37112 36.42449 46.77031
#
# Poissons Ratio (x) = 0.19972 0.24150
# Poissons Ratio (y) = 0.59421 -0.26827
# Poissons Ratio (z) = 0.55957 -0.20893
#
# Static dielectric constant tensor:
#      x y z
#    x 1.735580 -0.025340 0.031880 
#    y -0.025340 1.918760 0.030150 
#    z 0.031880 0.030150 1.733490 
# 
# From -- ./inp_files/17866.got.cif
#   From: 2010.05.17/outbox.cif.g08.bks.cpg/sg2_9_cif.got.tgz:17866.got - 2010.06.03 11:33:40.
