data_PCOD9065943
_publ_section_title
;
Structure prediction by ZEFSAII (Michael W. Deem and Ramdas Pophale) SiO2 
 PCOD9065943
Probable space group: P -1
;
_chemical_formula_sum "Si O2"
_cell_formula_units_Z 10
_cell_length_a 10.704587
_cell_length_b 5.082608
_cell_length_c 9.129732
_cell_angle_alpha 79.552508
_cell_angle_beta 74.649965
_cell_angle_gamma 69.568839
_cell_volume 446.691789
_symmetry_space_group_name_H-M "P -1"
_symmetry_group_IT_number 2
_symmetry_cell_setting 'triclinic'
loop_
_space_group_symop_operation_xyz
x,y,z
-x,-y,-z
loop_
_atom_site_type_symbol
_atom_site_label
_atom_site_fract_x
_atom_site_fract_y
_atom_site_fract_z
Si Si1 0.246832 0.759576 0.335478
Si Si2 0.816350 0.624501 0.193981
Si Si3 0.486044 0.231444 0.613940
Si Si4 0.856782 0.724027 0.483956
Si Si5 0.064863 0.103135 0.108174
O O1 0.392114 0.817641 0.298841
O O2 0.500000 0.000000 0.500000
O O3 0.163368 0.988419 0.455563
O O4 0.162996 0.859084 0.202042
O O5 0.657931 0.668860 0.266563
O O6 0.844694 0.790907 0.309512
O O7 0.936020 0.325755 0.204725
O O8 0.842432 0.730284 0.015723
O O9 0.500000 0.500000 0.500000
O O10 0.245982 0.448481 0.414592
O O11 0.000000 0.500000 0.500000
O O12 0.000000 0.000000 0.000000
#
# Coordination Sequence:
#
# PCOD9065943 Si02
#       5
#     2   2   2   2   2
#     4  12  25  44  71 105 136 181 236 284 349 411
#     4  11  25  44  69 100 144 179 232 287 352 401
#     4  12  25  45  72 106 138 179 235 295 345 406
#     4  12  23  41  73 103 132 180 240 290 334 405
#     4  11  27  45  69 101 146 186 230 285 352 418
#
# _framework density 22.386803
#
# number of rings (size 3 to 8) (size 9 to 14) (size 15 to 20)
#    0.000    0.400    6.000    1.800    8.400    0.800 
#    0.000    1.000    0.000    0.000    0.000    0.000 
#    0.000    0.000    0.000    0.000    0.000    0.000 
#
# Total GULP energy -55807.996847 kJ/mol
# GULP energy per Si atom -5580.799685 kJ/mol
# Density = 2.233585 g / cm^3
# Si number density = 22.386803 Si / 1000 Ang^3
#
#
#
# Elastic Constant Matrix: (Units=GPa)
#
#
# Indices 1 2 3 4 5 6 
#
# 1 168.1858 31.0874 47.5173 4.1316 -11.9412 -21.0028
# 2 31.0874 88.0843 37.6844 -7.1554 -11.6555 13.7562
# 3 47.5173 37.6844 100.8544 -4.5545 9.8405 -2.7542
# 4 4.1316 -7.1554 -4.5545 30.7717 -3.7878 4.4924
# 5 -11.9412 -11.6555 9.8405 -3.7878 49.1702 2.6342
# 6 -21.0028 13.7562 -2.7542 4.4924 2.6342 42.8391
#
#
#
# Elastic Compliance Matrix: (Units=1/GPa)
#
#
# Indices 1 2 3 4 5 6 
#
# 1 0.007969 -0.002208 -0.003073 -0.002512 0.001588 0.004584
# 2 -0.002208 0.016984 -0.005818 0.005196 0.005472 -0.007791
# 3 -0.003073 -0.005818 0.014081 0.000303 -0.005003 0.001543
# 4 -0.002512 0.005196 0.000303 0.035536 0.003665 -0.006832
# 5 0.001588 0.005472 -0.005003 0.003665 0.023471 -0.003128
# 6 0.004584 -0.007791 0.001543 -0.006832 -0.003128 0.029101
#
#
# Mechanical properties :
#
#
# Convention : Reuss Voigt Hill
#
# Bulk Modulus (GPa) = 59.39385 65.52251 62.45818
# Shear Modulus (GPa) = 32.26833 40.61191 36.44012
#
# Velocity S-wave (km/s) = 3.80070 4.26385 4.03892
# Velocity P-wave (km/s) = 6.77117 7.31932 7.05057
#
# Compressibility (1/GPa) = 0.01683676
#
# Stress axis : x y z
#
# Youngs Moduli (GPa) = 125.48744 58.87945 71.01848
#
# Poissons Ratio (x) = 0.12999 0.21823
# Poissons Ratio (y) = 0.27704 0.41318
# Poissons Ratio (z) = 0.38560 0.34256
#
# Static dielectric constant tensor:
#      x y z
#    x 2.032020 0.014460 -0.013420 
#    y 0.014460 1.855850 -0.003030 
#    z -0.013420 -0.003030 1.839300 
# 
# From -- ./inp_files/143582.got.cif
#   From: 2010.05.17/outbox.cif.g08.bks.cpg/sg2_72_cif.got.tgz:143582.got - 2010.06.03 11:33:40.
