data_PCOD9065540
_publ_section_title
;
Structure prediction by ZEFSAII (Michael W. Deem and Ramdas Pophale) SiO2 
 PCOD9065540
Probable space group: P -1
;
_chemical_formula_sum "Si O2"
_cell_formula_units_Z 14
_cell_length_a 10.725589
_cell_length_b 14.578699
_cell_length_c 8.111333
_cell_angle_alpha 71.419914
_cell_angle_beta 116.626743
_cell_angle_gamma 151.057322
_cell_volume 540.700342
_symmetry_space_group_name_H-M "P -1"
_symmetry_group_IT_number 2
_symmetry_cell_setting 'triclinic'
loop_
_space_group_symop_operation_xyz
x,y,z
-x,-y,-z
loop_
_atom_site_type_symbol
_atom_site_label
_atom_site_fract_x
_atom_site_fract_y
_atom_site_fract_z
Si Si1 0.447094 0.520863 0.627216
Si Si2 0.645880 0.026259 0.213643
Si Si3 0.902343 0.295817 0.455811
Si Si4 0.212925 0.040798 0.146609
Si Si5 0.924306 0.705902 0.946640
Si Si6 0.872500 0.475270 0.220027
Si Si7 0.737648 0.891533 0.496814
O O1 0.500000 0.500000 0.500000
O O2 0.133187 0.352713 0.578500
O O3 0.560092 0.696002 0.566468
O O4 0.616700 0.565386 0.840028
O O5 0.640322 0.083573 0.346386
O O6 0.582144 0.876292 0.298088
O O7 0.953759 0.206543 0.214720
O O8 0.500000 0.000000 0.000000
O O9 0.931723 0.369790 0.601889
O O10 0.956717 0.413715 0.285108
O O11 0.537314 0.263898 0.175336
O O12 0.186362 0.010665 0.343684
O O13 0.110732 0.886452 0.070583
O O14 0.000000 0.000000 0.000000
O O15 0.916850 0.588353 0.053093
O O16 0.000000 0.000000 0.500000
#
# Coordination Sequence:
#
# PCOD9065540 Si02
#       7
#     2   2   2   2   2   2   2
#     4  12  24  45  71 102 143 186 243 293 364 432
#     4  12  27  45  70 105 144 193 247 297 367 434
#     4  11  24  49  69 105 142 194 242 297 372 430
#     4  12  24  47  76 110 147 190 249 300 368 437
#     4  12  26  46  72 113 143 192 248 299 366 437
#     4  11  27  46  75 107 151 189 243 307 367 435
#     4  12  24  47  72 103 145 188 241 303 357 435
#
# _framework density 25.892346
#
# number of rings (size 3 to 8) (size 9 to 14) (size 15 to 20)
#    0.000    0.286    5.714    1.714    2.000    7.429 
#    0.000    3.571    0.000    0.000    0.000    0.000 
#    0.000    0.000    0.000    0.000    0.000    0.000 
#
# Total GULP energy -78298.087395 kJ/mol
# GULP energy per Si atom -5592.720528 kJ/mol
# Density = 2.583341 g / cm^3
# Si number density = 25.892346 Si / 1000 Ang^3
#
#
#
# Elastic Constant Matrix: (Units=GPa)
#
#
# Indices 1 2 3 4 5 6 
#
# 1 75.8463 16.0001 12.7211 11.1063 1.3173 -14.4775
# 2 16.0001 97.7196 19.9244 -7.9487 1.4853 -18.1816
# 3 12.7211 19.9244 113.2207 -1.6797 29.7906 -7.9824
# 4 11.1063 -7.9487 -1.6797 55.6332 -7.6145 9.2771
# 5 1.3173 1.4853 29.7906 -7.6145 58.1419 0.6590
# 6 -14.4775 -18.1816 -7.9824 9.2771 0.6590 45.3086
#
#
#
# Elastic Compliance Matrix: (Units=1/GPa)
#
#
# Indices 1 2 3 4 5 6 
#
# 1 0.015270 -0.001718 -0.001033 -0.004189 -0.000377 0.004871
# 2 -0.001718 0.011640 -0.001803 0.001482 0.000820 0.003489
# 3 -0.001033 -0.001803 0.010794 -0.000664 -0.005560 0.001065
# 4 -0.004189 0.001482 -0.000664 0.020272 0.003109 -0.005057
# 5 -0.000377 0.000820 -0.005560 0.003109 0.020462 -0.001705
# 6 0.004871 0.003489 0.001065 -0.005057 -0.001705 0.026275
#
#
# Mechanical properties :
#
#
# Convention : Reuss Voigt Hill
#
# Bulk Modulus (GPa) = 34.97151 42.67530 38.82340
# Shear Modulus (GPa) = 40.53423 47.69280 44.11352
#
# Velocity S-wave (km/s) = 3.96092 4.29647 4.13210
# Velocity P-wave (km/s) = 5.86978 6.41330 6.14755
#
# Compressibility (1/GPa) = 0.02859471
#
# Stress axis : x y z
#
# Youngs Moduli (GPa) = 65.48802 85.91409 92.64524
#
# Poissons Ratio (x) = 0.14763 0.09570
# Poissons Ratio (y) = 0.11253 0.16704
# Poissons Ratio (z) = 0.06764 0.15491
#
# Static dielectric constant tensor:
#      x y z
#    x 2.161490 0.106250 0.049150 
#    y 0.106250 2.191650 0.068870 
#    z 0.049150 0.068870 2.060580 
# 
# From -- ./inp_files/272246.got.cif
#   From: 2010.05.17/outbox.cif.g08.bks.cpg/sg2_137_cif.got.tgz:272246.got - 2010.06.03 11:33:40.
