data_PCOD9065546
_publ_section_title
;
Structure prediction by ZEFSAII (Michael W. Deem and Ramdas Pophale) SiO2 
 PCOD9065546
Probable space group: P -1
;
_chemical_formula_sum "Si O2"
_cell_formula_units_Z 15
_cell_length_a 5.203125
_cell_length_b 24.109076
_cell_length_c 15.279513
_cell_angle_alpha 160.552376
_cell_angle_beta 118.046693
_cell_angle_gamma 60.779199
_cell_volume 556.626231
_symmetry_space_group_name_H-M "P -1"
_symmetry_group_IT_number 2
_symmetry_cell_setting 'triclinic'
loop_
_space_group_symop_operation_xyz
x,y,z
-x,-y,-z
loop_
_atom_site_type_symbol
_atom_site_label
_atom_site_fract_x
_atom_site_fract_y
_atom_site_fract_z
Si Si1 0.924663 0.770282 0.916307
Si Si2 0.675449 0.739149 0.595082
Si Si3 0.146483 0.021845 0.463215
Si Si4 0.500000 0.500000 0.500000
Si Si5 0.923881 0.012476 0.113883
Si Si6 0.440985 0.537295 0.712565
Si Si7 0.242693 0.361962 0.923462
Si Si8 0.239139 0.307056 0.651489
O O1 0.669204 0.670549 0.757602
O O2 0.224161 0.632003 0.742304
O O3 0.860426 0.892497 0.006802
O O4 0.033225 0.883558 0.178196
O O5 0.713452 0.598382 0.465366
O O6 0.635046 0.662665 0.378854
O O7 0.365580 0.849983 0.734345
O O8 0.911843 0.870015 0.824181
O O9 0.064184 0.206648 0.681015
O O10 0.500000 0.000000 0.500000
O O11 0.000000 0.000000 0.500000
O O12 0.685220 0.468806 0.580377
O O13 0.173771 0.115327 0.343776
O O14 0.549877 0.639279 0.960606
O O15 0.387055 0.325425 0.796496
O O16 0.043889 0.545590 0.167417
#
# Coordination Sequence:
#
# PCOD9065546 Si02
#       8
#     2   2   2   1   2   2   2   2
#     4  12  27  47  77 109 154 203 262 333 398 481
#     4  11  26  45  75 104 148 201 257 327 394 472
#     4  12  27  49  77 116 159 210 267 330 405 488
#     4  12  28  48  74 108 156 204 266 328 402 480
#     4  11  24  49  69 112 146 191 267 323 396 478
#     4  12  26  47  72 111 148 202 257 324 403 479
#     4  11  25  48  73 113 156 202 267 319 405 482
#     4  11  25  46  75 106 151 203 257 327 394 482
#
# _framework density 26.948062
#
# number of rings (size 3 to 8) (size 9 to 14) (size 15 to 20)
#    0.000    0.533    5.333    1.600    3.733    2.667 
#    0.000    0.000    0.000    0.000    0.000    0.000 
#    0.000    0.000    0.000    0.000    0.000    0.000 
#
# Total GULP energy -83743.019989 kJ/mol
# GULP energy per Si atom -5582.867999 kJ/mol
# Density = 2.688673 g / cm^3
# Si number density = 26.948062 Si / 1000 Ang^3
#
#
#
# Elastic Constant Matrix: (Units=GPa)
#
#
# Indices 1 2 3 4 5 6 
#
# 1 74.1188 -3.1738 21.4231 4.2437 -9.0262 -9.6060
# 2 -3.1738 73.1279 36.3192 -28.6062 -14.5800 -10.8213
# 3 21.4231 36.3192 187.8726 -28.6038 15.1015 8.0480
# 4 4.2437 -28.6062 -28.6038 65.5755 16.7649 -12.5595
# 5 -9.0262 -14.5800 15.1015 16.7649 43.6368 -6.4457
# 6 -9.6060 -10.8213 8.0480 -12.5595 -6.4457 18.4106
#
#
#
# Elastic Compliance Matrix: (Units=1/GPa)
#
#
# Indices 1 2 3 4 5 6 
#
# 1 0.021012 0.012142 -0.006593 0.002876 0.013676 0.027732
# 2 0.012142 0.035973 -0.009680 0.015093 0.019284 0.048759
# 3 -0.006593 -0.009680 0.009455 -0.000316 -0.010270 -0.017074
# 4 0.002876 0.015093 -0.000316 0.027148 -0.000416 0.028885
# 5 0.013676 0.019284 -0.010270 -0.000416 0.041393 0.037168
# 6 0.027732 0.048759 -0.017074 0.028885 0.037168 0.137627
#
#
# Mechanical properties :
#
#
# Convention : Reuss Voigt Hill
#
# Bulk Modulus (GPa) = 17.18835 49.36181 33.27508
# Shear Modulus (GPa) = 16.65212 44.22796 30.44004
#
# Velocity S-wave (km/s) = 2.48852 4.05560 3.36457
# Velocity P-wave (km/s) = 3.82742 6.34726 5.24104
#
# Compressibility (1/GPa) = 0.05817893
#
# Stress axis : x y z
#
# Youngs Moduli (GPa) = 47.59133 27.79842 105.76926
#
# Poissons Ratio (x) = -0.33752 0.69730
# Poissons Ratio (y) = -0.57784 1.02381
# Poissons Ratio (z) = 0.31375 0.26908
#
# Static dielectric constant tensor:
#      x y z
#    x 0.949920 -0.002890 0.764550 
#    y -0.002890 2.216690 -0.021560 
#    z 0.764550 -0.021560 1.642400 
# 
# From -- ./inp_files/486048.got.cif
#   From: 2010.05.17/outbox.cif.g08.bks.cpg/sg2_244_cif.got.tgz:486048.got - 2010.06.03 11:33:40.
