data_PCOD9065940
_publ_section_title
;
Structure prediction by ZEFSAII (Michael W. Deem and Ramdas Pophale) SiO2 
 PCOD9065940
Probable space group: P -1
;
_chemical_formula_sum "Si O2"
_cell_formula_units_Z 16
_cell_length_a 21.759073
_cell_length_b 5.324474
_cell_length_c 18.149280
_cell_angle_alpha 75.200216
_cell_angle_beta 161.121647
_cell_angle_gamma 102.103161
_cell_volume 654.320497
_symmetry_space_group_name_H-M "P -1"
_symmetry_group_IT_number 2
_symmetry_cell_setting 'triclinic'
loop_
_space_group_symop_operation_xyz
x,y,z
-x,-y,-z
loop_
_atom_site_type_symbol
_atom_site_label
_atom_site_fract_x
_atom_site_fract_y
_atom_site_fract_z
Si Si1 0.727126 0.419720 0.026845
Si Si2 0.096856 0.286501 0.005091
Si Si3 0.919776 0.260071 0.588934
Si Si4 0.083345 0.136962 0.262607
Si Si5 0.123990 0.096778 0.698806
Si Si6 0.524210 0.600347 0.936796
Si Si7 0.516030 0.542556 0.630806
Si Si8 0.310793 0.080378 0.392815
O O1 0.902777 0.589047 0.192881
O O2 0.814614 0.123553 0.154784
O O3 0.634908 0.472034 0.999718
O O4 0.571682 0.469642 0.783472
O O5 0.299967 0.358424 0.203735
O O6 0.128091 0.215252 0.131569
O O7 0.959427 0.551556 0.815104
O O8 0.050911 0.036264 0.924850
O O9 0.698489 0.361895 0.343026
O O10 0.968853 0.281650 0.555916
O O11 0.923833 0.981084 0.655768
O O12 0.277702 0.059257 0.444233
O O13 0.325962 0.183535 0.896076
O O14 0.000000 0.000000 0.500000
O O15 0.500000 0.500000 0.000000
O O16 0.464843 0.287915 0.548800
O O17 0.361432 0.794523 0.438662
#
# Coordination Sequence:
#
# PCOD9065940 Si02
#       8
#     2   2   2   2   2   2   2   2
#     4  11  25  44  69  97 143 182 232 294 348 425
#     4  12  24  46  71 100 143 187 238 293 363 425
#     4  11  25  44  68  99 139 186 232 290 355 420
#     4  12  25  44  70 103 141 187 237 297 358 423
#     4  11  25  45  71 103 139 181 230 289 352 424
#     4  11  25  45  71 104 139 179 234 285 353 427
#     4  12  25  44  70 102 143 184 241 291 361 419
#     4  12  26  44  70 105 139 188 239 300 353 431
#
# _framework density 24.452847999999999
#
# number of rings (size 3 to 8) (size 9 to 14) (size 15 to 20)
#    0.000    0.500    1.250    6.750    5.250    5.000 
#    0.000    0.000    0.000    0.000    0.000    0.000 
#    0.000    0.000    0.000    0.000    0.000    0.000 
#
# Total GULP energy -89285.624062 kJ/mol
# GULP energy per Si atom -5580.351504 kJ/mol
# Density = 2.439719 g / cm^3
# Si number density = 24.452848 Si / 1000 Ang^3
#
#
#
# Elastic Constant Matrix: (Units=GPa)
#
#
# Indices 1 2 3 4 5 6 
#
# 1 108.4576 8.0922 10.1707 1.6038 10.7792 18.3351
# 2 8.0922 64.9789 22.1963 5.1608 4.7385 19.9753
# 3 10.1707 22.1963 76.4242 14.2949 17.0830 -1.1334
# 4 1.6038 5.1608 14.2949 45.0429 4.0055 3.2903
# 5 10.7792 4.7385 17.0830 4.0055 44.9908 8.3364
# 6 18.3351 19.9753 -1.1334 3.2903 8.3364 33.4147
#
#
#
# Elastic Compliance Matrix: (Units=1/GPa)
#
#
# Indices 1 2 3 4 5 6 
#
# 1 0.010450 0.001297 -0.001789 0.000589 -0.000823 -0.006423
# 2 0.001297 0.022189 -0.007631 0.000667 0.002978 -0.015044
# 3 -0.001789 -0.007631 0.018068 -0.004804 -0.006740 0.008311
# 4 0.000589 0.000667 -0.004804 0.023858 0.000092 -0.003258
# 5 -0.000823 0.002978 -0.006740 0.000092 0.026161 -0.008093
# 6 -0.006423 -0.015044 0.008311 -0.003258 -0.008093 0.045066
#
#
# Mechanical properties :
#
#
# Convention : Reuss Voigt Hill
#
# Bulk Modulus (GPa) = 29.01723 36.75325 32.88524
# Shear Modulus (GPa) = 28.81445 38.64976 33.73211
#
# Velocity S-wave (km/s) = 3.43646 3.97997 3.71816
# Velocity P-wave (km/s) = 5.25719 6.01524 5.64894
#
# Compressibility (1/GPa) = 0.03446229
#
# Stress axis : x y z
#
# Youngs Moduli (GPa) = 95.69276 45.06702 55.34780
#
# Poissons Ratio (x) = -0.05847 0.09902
# Poissons Ratio (y) = -0.12416 0.42234
# Poissons Ratio (z) = 0.17119 0.34389
#
# Static dielectric constant tensor:
#      x y z
#    x 1.884640 0.000620 -0.055390 
#    y 0.000620 2.043470 0.004120 
#    z -0.055390 0.004120 1.908640 
# 
# From -- ./inp_files/112411.got.cif
#   From: 2010.05.17/outbox.cif.g08.bks.cpg/sg2_57_cif.got.tgz:112411.got - 2010.06.03 11:33:40.
