data_PCOD9065205
_publ_section_title
;
Structure prediction by ZEFSAII (Michael W. Deem and Ramdas Pophale) SiO2 
 PCOD9065205
Probable space group: P -1
;
_chemical_formula_sum "Si O2"
_cell_formula_units_Z 15
_cell_length_a 14.956085
_cell_length_b 12.495133
_cell_length_c 12.463321
_cell_angle_alpha 39.303157
_cell_angle_beta 27.897134
_cell_angle_gamma 44.038477
_cell_volume 685.453483
_symmetry_space_group_name_H-M "P -1"
_symmetry_group_IT_number 2
_symmetry_cell_setting 'triclinic'
loop_
_space_group_symop_operation_xyz
x,y,z
-x,-y,-z
loop_
_atom_site_type_symbol
_atom_site_label
_atom_site_fract_x
_atom_site_fract_y
_atom_site_fract_z
Si Si1 0.283951 0.725753 0.614772
Si Si2 0.984510 0.672050 0.669022
Si Si3 0.213826 0.106507 0.759282
Si Si4 0.000000 0.500000 0.000000
Si Si5 0.625550 0.838692 0.042594
Si Si6 0.396838 0.769212 0.708319
Si Si7 0.073428 0.592042 0.248628
Si Si8 0.092548 0.015571 0.197119
O O1 0.165699 0.566820 0.848464
O O2 0.471735 0.725802 0.342650
O O3 0.348728 0.746146 0.652827
O O4 0.121422 0.885439 0.638987
O O5 0.968620 0.525244 0.714972
O O6 0.081609 0.599240 0.732319
O O7 0.091458 0.823480 0.387165
O O8 0.771694 0.757371 0.861657
O O9 0.377933 0.228538 0.514589
O O10 0.042843 0.222815 0.792337
O O11 0.303489 0.953499 0.707470
O O12 0.150590 0.035746 0.995898
O O13 0.500000 0.000000 0.000000
O O14 0.764162 0.889038 0.953782
O O15 0.295291 0.626677 0.989468
O O16 0.000000 0.500000 0.500000
#
# Coordination Sequence:
#
# PCOD9065205 Si02
#       8
#     2   2   2   1   2   2   2   2
#     4  12  24  44  74 102 145 185 239 290 359 425
#     4  12  26  44  70 106 147 184 239 294 356 428
#     4  11  25  46  78 103 140 187 246 300 348 423
#     4  12  24  46  66 106 146 184 224 294 356 430
#     4  12  25  44  70 105 140 192 240 296 350 423
#     4  11  24  47  74 107 135 189 243 293 353 425
#     4  12  27  48  72 107 147 189 229 298 372 422
#     4  12  23  46  71 105 140 190 247 291 348 430
#
# _framework density 21.883324000000002
#
# number of rings (size 3 to 8) (size 9 to 14) (size 15 to 20)
#    0.000    0.267    6.667    2.400    1.867    1.067 
#    7.200    0.000    0.000    0.000    0.000    0.000 
#    0.000    0.000    0.000    0.000    0.000    0.000 
#
# Total GULP energy -83710.051557 kJ/mol
# GULP energy per Si atom -5580.670104 kJ/mol
# Density = 2.183352 g / cm^3
# Si number density = 21.883324 Si / 1000 Ang^3
#
#
#
# Elastic Constant Matrix: (Units=GPa)
#
#
# Indices 1 2 3 4 5 6 
#
# 1 91.8950 -2.9922 38.2681 9.3342 2.9792 0.6072
# 2 -2.9922 29.2796 0.5018 13.8073 6.0390 4.1092
# 3 38.2681 0.5018 163.4406 -11.8767 6.0612 2.7029
# 4 9.3342 13.8073 -11.8767 30.2419 4.7011 4.6977
# 5 2.9792 6.0390 6.0612 4.7011 56.0559 -6.1867
# 6 0.6072 4.1092 2.7029 4.6977 -6.1867 25.3004
#
#
#
# Elastic Compliance Matrix: (Units=1/GPa)
#
#
# Indices 1 2 3 4 5 6 
#
# 1 0.013433 0.005167 -0.003756 -0.008074 -0.000109 0.000712
# 2 0.005167 0.046828 -0.002820 -0.022904 -0.003540 -0.004041
# 3 -0.003756 -0.002820 0.007488 0.005779 -0.000963 -0.001560
# 4 -0.008074 -0.022904 0.005779 0.049715 -0.002623 -0.006576
# 5 -0.000109 -0.003540 -0.000963 -0.002623 0.019198 0.005862
# 6 0.000712 -0.004041 -0.001560 -0.006576 0.005862 0.042986
#
#
# Mechanical properties :
#
#
# Convention : Reuss Voigt Hill
#
# Bulk Modulus (GPa) = 15.40066 39.57450 27.48758
# Shear Modulus (GPa) = 24.49684 38.90878 31.70281
#
# Velocity S-wave (km/s) = 3.34942 4.22122 3.81033
# Velocity P-wave (km/s) = 4.69159 6.47162 5.65212
#
# Compressibility (1/GPa) = 0.06493226
#
# Stress axis : x y z
#
# Youngs Moduli (GPa) = 74.44312 21.35472 133.54863
#
# Poissons Ratio (x) = -0.11034 0.50155
# Poissons Ratio (y) = -0.38465 0.37659
# Poissons Ratio (z) = 0.27957 0.06022
#
# Static dielectric constant tensor:
#      x y z
#    x 1.736230 0.041220 0.056900 
#    y 0.041220 1.786460 0.011250 
#    z 0.056900 0.011250 2.162740 
# 
# From -- ./inp_files/447104.got.cif
#   From: 2010.05.17/outbox.cif.g08.bks.cpg/sg2_224_cif.got.tgz:447104.got - 2010.06.03 11:33:40.
