data_PCOD9065749
_publ_section_title
;
Structure prediction by ZEFSAII (Michael W. Deem and Ramdas Pophale) SiO2 
 PCOD9065749
Probable space group: P -1
;
_chemical_formula_sum "Si O2"
_cell_formula_units_Z 12
_cell_length_a 8.403699
_cell_length_b 5.217858
_cell_length_c 15.818319
_cell_angle_alpha 85.165104
_cell_angle_beta 133.992649
_cell_angle_gamma 88.880569
_cell_volume 494.278313
_symmetry_space_group_name_H-M "P -1"
_symmetry_group_IT_number 2
_symmetry_cell_setting 'triclinic'
loop_
_space_group_symop_operation_xyz
x,y,z
-x,-y,-z
loop_
_atom_site_type_symbol
_atom_site_label
_atom_site_fract_x
_atom_site_fract_y
_atom_site_fract_z
Si Si1 0.065045 0.652743 0.100408
Si Si2 0.987258 0.100419 0.352577
Si Si3 0.888283 0.488534 0.707131
Si Si4 0.735154 0.276703 0.423351
Si Si5 0.245654 0.090626 0.885456
Si Si6 0.445281 0.810113 0.322959
O O1 0.115468 0.430884 0.197719
O O2 0.287593 0.796666 0.181748
O O3 0.879025 0.857047 0.071239
O O4 0.000000 0.500000 0.000000
O O5 0.843223 0.088754 0.214725
O O6 0.090856 0.827101 0.436644
O O7 0.853293 0.233800 0.377811
O O8 0.171450 0.282035 0.384727
O O9 0.719422 0.267399 0.660150
O O10 0.144070 0.360881 0.795913
O O11 0.631326 0.567877 0.387766
O O12 0.551488 0.073479 0.364465
O O13 0.500000 0.000000 0.000000
#
# Coordination Sequence:
#
# PCOD9065749 Si02
#       6
#     2   2   2   2   2   2
#     4   8  20  42  67 101 138 178 235 288 347 421
#     4  11  25  42  65 101 139 180 238 283 351 413
#     4   8  23  40  66  98 135 170 236 283 336 416
#     4  11  26  43  72  97 146 187 228 290 347 424
#     4   9  22  41  67  98 136 182 228 292 351 413
#     4   9  24  43  68 104 129 191 229 284 355 403
#
# _framework density 24.277820999999999
#
# number of rings (size 3 to 8) (size 9 to 14) (size 15 to 20)
#    2.000    0.333    0.000    0.000   11.667    3.333 
#    3.000    1.667    0.000    0.000    0.000    0.000 
#    0.000    0.000    0.000    0.000    0.000    0.000 
#
# Total GULP energy -66813.742343 kJ/mol
# GULP energy per Si atom -5567.811862 kJ/mol
# Density = 2.422256 g / cm^3
# Si number density = 24.277821 Si / 1000 Ang^3
#
#
#
# Elastic Constant Matrix: (Units=GPa)
#
#
# Indices 1 2 3 4 5 6 
#
# 1 92.4036 29.0891 51.9256 0.9212 -12.6551 -5.5026
# 2 29.0891 81.5896 33.5590 1.3420 -3.6880 -9.0012
# 3 51.9256 33.5590 146.9521 30.3226 -0.2277 -18.6391
# 4 0.9212 1.3420 30.3226 39.4946 -16.1586 2.4425
# 5 -12.6551 -3.6880 -0.2277 -16.1586 36.0621 -7.8086
# 6 -5.5026 -9.0012 -18.6391 2.4425 -7.8086 43.2972
#
#
#
# Elastic Compliance Matrix: (Units=1/GPa)
#
#
# Indices 1 2 3 4 5 6 
#
# 1 0.017058 -0.002811 -0.007344 0.009355 0.009770 -0.000344
# 2 -0.002811 0.014551 -0.002549 0.002173 0.001845 0.001780
# 3 -0.007344 -0.002549 0.013166 -0.013327 -0.007964 0.003520
# 4 0.009355 0.002173 -0.013327 0.044807 0.022960 -0.002483
# 5 0.009770 0.001845 -0.007964 0.022960 0.042577 0.004580
# 6 -0.000344 0.001780 0.003520 -0.002483 0.004580 0.025904
#
#
# Mechanical properties :
#
#
# Convention : Reuss Voigt Hill
#
# Bulk Modulus (GPa) = 51.63660 61.12139 56.37900
# Shear Modulus (GPa) = 26.32553 37.52886 31.92720
#
# Velocity S-wave (km/s) = 3.29651 3.93594 3.63033
# Velocity P-wave (km/s) = 5.98369 6.77392 6.39103
#
# Compressibility (1/GPa) = 0.01936611
#
# Stress axis : x y z
#
# Youngs Moduli (GPa) = 58.62187 68.72173 75.95114
#
# Poissons Ratio (x) = 0.19319 0.55782
# Poissons Ratio (y) = 0.16480 0.19363
# Poissons Ratio (z) = 0.43054 0.17520
#
# Static dielectric constant tensor:
#      x y z
#    x 1.981600 0.016360 0.006080 
#    y 0.016360 2.046050 0.034620 
#    z 0.006080 0.034620 1.989200 
# 
# From -- ./inp_files/100950.got.cif
#   From: 2010.05.17/outbox.cif.g08.bks.cpg/sg2_51_cif.got.tgz:100950.got - 2010.06.03 11:33:40.
