data_PCOD9065038
_publ_section_title
;
Structure prediction by ZEFSAII (Michael W. Deem and Ramdas Pophale) SiO2 
 PCOD9065038
Probable space group: P -1
;
_chemical_formula_sum "Si O2"
_cell_formula_units_Z 14
_cell_length_a 11.633580
_cell_length_b 9.417582
_cell_length_c 14.560489
_cell_angle_alpha 51.957493
_cell_angle_beta 138.663259
_cell_angle_gamma 145.748791
_cell_volume 592.968671
_symmetry_space_group_name_H-M "P -1"
_symmetry_group_IT_number 2
_symmetry_cell_setting 'triclinic'
loop_
_space_group_symop_operation_xyz
x,y,z
-x,-y,-z
loop_
_atom_site_type_symbol
_atom_site_label
_atom_site_fract_x
_atom_site_fract_y
_atom_site_fract_z
Si Si1 0.282836 0.073389 0.510400
Si Si2 0.173889 0.655499 0.741204
Si Si3 0.660387 0.794526 0.037196
Si Si4 0.313177 0.293640 0.111360
Si Si5 0.246532 0.914333 0.357318
Si Si6 0.921527 0.648376 0.897201
Si Si7 0.798479 0.592333 0.650458
O O1 0.174207 0.962666 0.388646
O O2 0.569847 0.329322 0.571045
O O3 0.180346 0.182083 0.450725
O O4 0.243676 0.865148 0.628701
O O5 0.415890 0.725197 0.888998
O O6 0.039120 0.657027 0.744174
O O7 0.969018 0.374662 0.687853
O O8 0.779274 0.812915 0.005171
O O9 0.579617 0.567245 0.140038
O O10 0.840159 0.057453 0.090827
O O11 0.306258 0.105947 0.239447
O O12 0.188547 0.359950 0.070297
O O13 0.500000 0.000000 0.500000
O O14 0.746209 0.550433 0.744767
O O15 0.000000 0.500000 0.000000
#
# Coordination Sequence:
#
# PCOD9065038 Si02
#       7
#     2   2   2   2   2   2   2
#     4  11  24  47  69 106 142 185 237 288 352 416
#     4  12  26  44  74 105 141 184 239 289 349 420
#     4  11  28  46  73 105 138 186 237 291 351 413
#     4  11  27  48  73 102 142 183 240 291 349 415
#     4  12  25  46  74 102 141 185 231 294 349 411
#     4  12  26  46  74 102 145 186 234 288 352 419
#     4  11  25  45  70 104 143 191 227 291 354 413
#
# _framework density 23.610016999999999
#
# number of rings (size 3 to 8) (size 9 to 14) (size 15 to 20)
#    0.000    0.571    2.857    3.857    8.000    4.571 
#    0.000    0.000    0.000    0.000    0.000    0.000 
#    0.000    0.000    0.000    0.000    0.000    0.000 
#
# Total GULP energy -78395.650801 kJ/mol
# GULP energy per Si atom -5599.689343 kJ/mol
# Density = 2.355628 g / cm^3
# Si number density = 23.610017 Si / 1000 Ang^3
#
#
#
# Elastic Constant Matrix: (Units=GPa)
#
#
# Indices 1 2 3 4 5 6 
#
# 1 126.3030 36.7307 30.9746 -1.2036 10.7624 -8.4281
# 2 36.7307 158.0153 59.9329 -24.6340 -11.9730 -18.3195
# 3 30.9746 59.9329 91.2631 -11.1255 12.1716 2.1961
# 4 -1.2036 -24.6340 -11.1255 51.8878 -0.6659 -7.2103
# 5 10.7624 -11.9730 12.1716 -0.6659 44.3963 -2.2556
# 6 -8.4281 -18.3195 2.1961 -7.2103 -2.2556 31.7075
#
#
#
# Elastic Compliance Matrix: (Units=1/GPa)
#
#
# Indices 1 2 3 4 5 6 
#
# 1 0.009085 -0.001467 -0.001978 -0.000742 -0.001996 0.001394
# 2 -0.001467 0.011872 -0.007693 0.005232 0.006184 0.008632
# 3 -0.001978 -0.007693 0.017636 -0.000962 -0.006795 -0.006894
# 4 -0.000742 0.005232 -0.000962 0.022712 0.002614 0.008243
# 5 -0.001996 0.006184 -0.006795 0.002614 0.026884 0.006020
# 6 0.001394 0.008632 -0.006894 0.008243 0.006020 0.039676
#
#
# Mechanical properties :
#
#
# Convention : Reuss Voigt Hill
#
# Bulk Modulus (GPa) = 61.28653 70.09531 65.69092
# Shear Modulus (GPa) = 32.13774 42.12787 37.13281
#
# Velocity S-wave (km/s) = 3.69343 4.22871 3.97010
# Velocity P-wave (km/s) = 6.64852 7.32092 6.99281
#
# Compressibility (1/GPa) = 0.01631680
#
# Stress axis : x y z
#
# Youngs Moduli (GPa) = 110.06972 84.22903 56.70305
#
# Poissons Ratio (x) = 0.12356 0.11215
# Poissons Ratio (y) = 0.16147 0.43624
# Poissons Ratio (z) = 0.21770 0.64801
#
# Static dielectric constant tensor:
#      x y z
#    x 1.929800 0.015470 0.034860 
#    y 0.015470 1.868170 -0.029200 
#    z 0.034860 -0.029200 1.891950 
# 
# From -- ./inp_files/124352.got.cif
#   From: 2010.05.17/outbox.cif.g08.bks.cpg/sg2_63_cif.got.tgz:124352.got - 2010.06.03 11:33:40.
