data_PCOD9065234
_publ_section_title
;
Structure prediction by ZEFSAII (Michael W. Deem and Ramdas Pophale) SiO2 
 PCOD9065234
Probable space group: P -1
;
_chemical_formula_sum "Si O2"
_cell_formula_units_Z 13
_cell_length_a 6.807133
_cell_length_b 8.902067
_cell_length_c 10.228612
_cell_angle_alpha 120.126995
_cell_angle_beta 62.049247
_cell_angle_gamma 100.967333
_cell_volume 472.741401
_symmetry_space_group_name_H-M "P -1"
_symmetry_group_IT_number 2
_symmetry_cell_setting 'triclinic'
loop_
_space_group_symop_operation_xyz
x,y,z
-x,-y,-z
loop_
_atom_site_type_symbol
_atom_site_label
_atom_site_fract_x
_atom_site_fract_y
_atom_site_fract_z
Si Si1 0.330408 0.435663 0.814276
Si Si2 0.137288 0.252080 0.331825
Si Si3 0.000000 0.000000 0.000000
Si Si4 0.476605 0.904313 0.710529
Si Si5 0.105277 0.766612 0.114991
Si Si6 0.789405 0.419673 0.369064
Si Si7 0.748291 0.170792 0.613760
O O1 0.261334 0.489807 0.711654
O O2 0.562137 0.328302 0.719715
O O3 0.124418 0.327009 0.875280
O O4 0.311150 0.622947 0.971370
O O5 0.023305 0.297120 0.246613
O O6 0.933045 0.181893 0.449027
O O7 0.357274 0.134382 0.237427
O O8 0.193451 0.435101 0.462641
O O9 0.894223 0.092274 0.937255
O O10 0.745532 0.989152 0.134017
O O11 0.393252 0.718693 0.611658
O O12 0.615038 0.996806 0.596265
O O13 0.124449 0.817541 0.282681
#
# Coordination Sequence:
#
# PCOD9065234 Si02
#       7
#     2   2   1   2   2   2   2
#     4  11  24  47  75 109 153 201 245 308 368 448
#     4  11  28  48  78 112 148 200 251 305 371 451
#     4  12  26  52  72 108 148 202 242 310 376 430
#     4  12  28  49  75 110 152 196 244 319 366 443
#     4  11  25  47  74 111 151 197 251 304 374 445
#     4  11  26  49  78 109 150 200 252 302 374 444
#     4  12  27  47  77 115 150 195 249 309 379 439
#
# _framework density 27.499178000000001
#
# number of rings (size 3 to 8) (size 9 to 14) (size 15 to 20)
#    0.000    0.615    4.615    1.385    8.615    1.231 
#    8.308    0.000    0.000    0.000    0.000    0.000 
#    0.000    0.000    0.000    0.000    0.000    0.000 
#
# Total GULP energy -72719.442577 kJ/mol
# GULP energy per Si atom -5593.803275 kJ/mol
# Density = 2.743659 g / cm^3
# Si number density = 27.499178 Si / 1000 Ang^3
#
#
#
# Elastic Constant Matrix: (Units=GPa)
#
#
# Indices 1 2 3 4 5 6 
#
# 1 168.2923 67.5046 46.1802 0.7455 -20.3403 -30.2246
# 2 67.5046 167.6081 35.9579 -21.1314 -9.9121 -13.3601
# 3 46.1802 35.9579 67.5913 -10.0004 -14.1893 -12.3241
# 4 0.7455 -21.1314 -10.0004 25.8800 -21.4306 -15.3371
# 5 -20.3403 -9.9121 -14.1893 -21.4306 66.2460 0.0341
# 6 -30.2246 -13.3601 -12.3241 -15.3371 0.0341 61.7239
#
#
#
# Elastic Compliance Matrix: (Units=1/GPa)
#
#
# Indices 1 2 3 4 5 6 
#
# 1 0.008671 -0.002622 -0.004296 -0.002159 0.000650 0.002284
# 2 -0.002622 0.009666 0.001526 0.017123 0.006504 0.005364
# 3 -0.004296 0.001526 0.026217 0.029562 0.014083 0.010799
# 4 -0.002159 0.017123 0.029562 0.129870 0.050223 0.040794
# 5 0.000650 0.006504 0.014083 0.050223 0.035523 0.016998
# 6 0.002284 0.005364 0.010799 0.040794 0.016998 0.030764
#
#
# Mechanical properties :
#
#
# Convention : Reuss Voigt Hill
#
# Bulk Modulus (GPa) = 29.61160 78.08635 53.84897
# Shear Modulus (GPa) = 19.02941 47.69326 33.36133
#
# Velocity S-wave (km/s) = 2.63344 4.16907 3.48685
# Velocity P-wave (km/s) = 4.47641 7.18557 5.98626
#
# Compressibility (1/GPa) = 0.03377055
#
# Stress axis : x y z
#
# Youngs Moduli (GPa) = 115.32693 103.45521 38.14317
#
# Poissons Ratio (x) = 0.27130 0.16385
# Poissons Ratio (y) = 0.30243 -0.05822
# Poissons Ratio (z) = 0.49541 -0.15791
#
# Static dielectric constant tensor:
#      x y z
#    x 2.032440 -0.073760 -0.047890 
#    y -0.073760 2.043620 0.003960 
#    z -0.047890 0.003960 2.106750 
# 
# From -- ./inp_files/360906.got.cif
#   From: 2010.05.17/outbox.cif.g08.bks.cpg/sg2_181_cif.got.tgz:360906.got - 2010.06.03 11:33:40.
