data_PCOD9065869
_publ_section_title
;
Structure prediction by ZEFSAII (Michael W. Deem and Ramdas Pophale) SiO2 
 PCOD9065869
Probable space group: P -1
;
_chemical_formula_sum "Si O2"
_cell_formula_units_Z 16
_cell_length_a 9.302939
_cell_length_b 17.605301
_cell_length_c 6.375389
_cell_angle_alpha 57.515835
_cell_angle_beta 64.442531
_cell_angle_gamma 56.825557
_cell_volume 723.111490
_symmetry_space_group_name_H-M "P -1"
_symmetry_group_IT_number 2
_symmetry_cell_setting 'triclinic'
loop_
_space_group_symop_operation_xyz
x,y,z
-x,-y,-z
loop_
_atom_site_type_symbol
_atom_site_label
_atom_site_fract_x
_atom_site_fract_y
_atom_site_fract_z
Si Si1 0.078839 0.555177 0.210036
Si Si2 0.803051 0.724309 0.871700
Si Si3 0.613119 0.640214 0.800069
Si Si4 0.561558 0.796217 0.284353
Si Si5 0.768547 0.143423 0.888353
Si Si6 0.618451 0.044228 0.483615
Si Si7 0.798615 0.281383 0.002379
Si Si8 0.039776 0.132929 0.427622
O O1 0.253733 0.473511 0.116335
O O2 0.000000 0.500000 0.500000
O O3 0.126045 0.636305 0.178894
O O4 0.944206 0.619809 0.021249
O O5 0.666971 0.699409 0.857302
O O6 0.894007 0.790077 0.614692
O O7 0.704141 0.792078 0.032017
O O8 0.640897 0.688855 0.497348
O O9 0.408545 0.665190 0.896479
O O10 0.389600 0.811500 0.241304
O O11 0.500690 0.877513 0.385576
O O12 0.937545 0.090933 0.713428
O O13 0.701230 0.090476 0.186712
O O14 0.807192 0.225877 0.864250
O O15 0.500000 0.000000 0.500000
O O16 0.786409 0.960239 0.614061
O O17 0.908638 0.199285 0.230069
#
# Coordination Sequence:
#
# PCOD9065869 Si02
#       8
#     2   2   2   2   2   2   2   2
#     4  11  25  43  72 107 139 185 237 290 346 420
#     4  11  25  45  73 103 142 187 230 293 352 414
#     4  12  22  47  68 100 142 184 233 288 352 415
#     4  12  23  45  72  99 145 180 236 288 346 421
#     4  12  24  45  71 101 143 187 231 289 350 414
#     4  12  27  46  72 107 140 188 233 287 354 419
#     4  11  25  46  69 103 143 186 230 288 353 408
#     4  11  26  44  69 105 139 184 234 288 348 416
#
# _framework density 22.126601999999998
#
# number of rings (size 3 to 8) (size 9 to 14) (size 15 to 20)
#    0.000    0.500    5.000    2.625    1.750    7.000 
#    0.000    1.250    0.000    0.000    0.000    0.000 
#    0.000    0.000    0.000    0.000    0.000    0.000 
#
# Total GULP energy -89445.962203 kJ/mol
# GULP energy per Si atom -5590.372638 kJ/mol
# Density = 2.207624 g / cm^3
# Si number density = 22.126602 Si / 1000 Ang^3
#
#
#
# Elastic Constant Matrix: (Units=GPa)
#
#
# Indices 1 2 3 4 5 6 
#
# 1 132.4475 52.6402 38.1343 -7.7653 4.5259 1.0689
# 2 52.6402 111.9418 33.0116 -2.4883 13.5035 -20.8137
# 3 38.1343 33.0116 84.0771 -9.3179 -13.7561 2.4023
# 4 -7.7653 -2.4883 -9.3179 27.2576 -1.2834 -0.6717
# 5 4.5259 13.5035 -13.7561 -1.2834 32.5404 0.6610
# 6 1.0689 -20.8137 2.4023 -0.6717 0.6610 50.4390
#
#
#
# Elastic Compliance Matrix: (Units=1/GPa)
#
#
# Indices 1 2 3 4 5 6 
#
# 1 0.010148 -0.004097 -0.002926 0.001434 -0.000856 -0.001736
# 2 -0.004097 0.014658 -0.005626 -0.001974 -0.008101 0.006483
# 3 -0.002926 -0.005626 0.017818 0.005162 0.010542 -0.003178
# 4 0.001434 -0.001974 0.005162 0.038869 0.004348 -0.000630
# 5 -0.000856 -0.008101 0.010542 0.004348 0.038927 -0.004279
# 6 -0.001736 0.006483 -0.003178 -0.000630 -0.004279 0.022737
#
#
# Mechanical properties :
#
#
# Convention : Reuss Voigt Hill
#
# Bulk Modulus (GPa) = 57.71886 64.00427 60.86157
# Shear Modulus (GPa) = 28.69772 35.69274 32.19523
#
# Velocity S-wave (km/s) = 3.60527 4.02072 3.81865
# Velocity P-wave (km/s) = 6.59340 7.10944 6.85628
#
# Compressibility (1/GPa) = 0.01732536
#
# Stress axis : x y z
#
# Youngs Moduli (GPa) = 98.53959 68.22338 56.12394
#
# Poissons Ratio (x) = 0.27950 0.16421
# Poissons Ratio (y) = 0.40371 0.31577
# Poissons Ratio (z) = 0.28832 0.38385
#
# Static dielectric constant tensor:
#      x y z
#    x 1.813070 -0.023870 -0.016730 
#    y -0.023870 1.809270 0.013660 
#    z -0.016730 0.013660 1.819050 
# 
# From -- ./inp_files/46609.got.cif
#   From: 2010.05.17/outbox.cif.g08.bks.cpg/sg2_24_cif.got.tgz:46609.got - 2010.06.03 11:33:40.
