data_PCOD9065934
_publ_section_title
;
Structure prediction by ZEFSAII (Michael W. Deem and Ramdas Pophale) SiO2 
 PCOD9065934
Probable space group: P -1
;
_chemical_formula_sum "Si O2"
_cell_formula_units_Z 10
_cell_length_a 5.081103
_cell_length_b 7.843947
_cell_length_c 15.485918
_cell_angle_alpha 59.532913
_cell_angle_beta 113.143975
_cell_angle_gamma 130.024306
_cell_volume 405.275085
_symmetry_space_group_name_H-M "P -1"
_symmetry_group_IT_number 2
_symmetry_cell_setting 'triclinic'
loop_
_space_group_symop_operation_xyz
x,y,z
-x,-y,-z
loop_
_atom_site_type_symbol
_atom_site_label
_atom_site_fract_x
_atom_site_fract_y
_atom_site_fract_z
Si Si1 0.060405 0.162341 0.883649
Si Si2 0.560095 0.671573 0.385510
Si Si3 0.812788 0.466680 0.073775
Si Si4 0.720449 0.573064 0.764249
Si Si5 0.282171 0.990444 0.300890
O O1 0.827511 0.008680 0.813331
O O2 0.981566 0.335717 0.876327
O O3 0.435072 0.344299 0.844075
O O4 0.000000 0.000000 0.000000
O O5 0.500000 0.500000 0.500000
O O6 0.306664 0.507681 0.316884
O O7 0.499610 0.873293 0.356838
O O8 0.938011 0.803588 0.358280
O O9 0.896528 0.287635 0.177542
O O10 0.500000 0.500000 0.000000
O O11 0.000000 0.500000 0.000000
O O12 0.592976 0.752893 0.710239
#
# Coordination Sequence:
#
# PCOD9065934 Si02
#       5
#     2   2   2   2   2
#     4  11  25  44  68 104 148 195 244 287 354 430
#     4  11  26  49  76 109 142 185 245 306 369 436
#     4  12  24  42  67  97 141 194 238 289 349 419
#     4  11  26  48  72 105 154 189 246 304 353 435
#     4  11  26  45  76 105 145 192 240 298 369 429
#
# _framework density 24.674598
#
# number of rings (size 3 to 8) (size 9 to 14) (size 15 to 20)
#    0.000    0.800    4.000    1.800    2.800    2.400 
#    0.000    0.000    0.000    0.000    0.000    0.000 
#    0.000    0.000    0.000    0.000    0.000    0.000 
#
# Total GULP energy -55752.333750 kJ/mol
# GULP energy per Si atom -5575.233375 kJ/mol
# Density = 2.461844 g / cm^3
# Si number density = 24.674598 Si / 1000 Ang^3
#
#
#
# Elastic Constant Matrix: (Units=GPa)
#
#
# Indices 1 2 3 4 5 6 
#
# 1 177.8069 33.4292 56.0938 -3.5828 -10.4754 -15.9513
# 2 33.4292 48.4571 17.8724 6.7608 -0.3613 9.2559
# 3 56.0938 17.8724 210.1453 -4.1286 -4.5271 17.7787
# 4 -3.5828 6.7608 -4.1286 33.9609 -8.1199 -7.2083
# 5 -10.4754 -0.3613 -4.5271 -8.1199 33.9849 -9.6160
# 6 -15.9513 9.2559 17.7787 -7.2083 -9.6160 30.4598
#
#
#
# Elastic Compliance Matrix: (Units=1/GPa)
#
#
# Indices 1 2 3 4 5 6 
#
# 1 0.010420 -0.010032 -0.002837 0.008018 0.008845 0.014851
# 2 -0.010032 0.033849 0.001250 -0.015949 -0.013229 -0.024219
# 3 -0.002837 0.001250 0.005870 -0.001756 -0.002321 -0.006439
# 4 0.008018 -0.015949 -0.001756 0.043737 0.020091 0.026763
# 5 0.008845 -0.013229 -0.002321 0.020091 0.044668 0.028863
# 6 0.014851 -0.024219 -0.006439 0.026763 0.028863 0.067171
#
#
# Mechanical properties :
#
#
# Convention : Reuss Voigt Hill
#
# Bulk Modulus (GPa) = 37.17225 72.35555 54.76390
# Shear Modulus (GPa) = 21.01550 41.61539 31.31544
#
# Velocity S-wave (km/s) = 2.92157 4.11124 3.56636
# Velocity P-wave (km/s) = 5.14572 7.20583 6.26109
#
# Compressibility (1/GPa) = 0.02690179
#
# Stress axis : x y z
#
# Youngs Moduli (GPa) = 95.97004 29.54278 170.36423
#
# Poissons Ratio (x) = 0.29636 0.48324
# Poissons Ratio (y) = 0.96274 -0.21289
# Poissons Ratio (z) = 0.27222 -0.03692
#
# Static dielectric constant tensor:
#      x y z
#    x 1.835450 0.016220 0.007860 
#    y 0.016220 2.056330 -0.102580 
#    z 0.007860 -0.102580 1.986910 
# 
# From -- ./inp_files/478825.got.cif
#   From: 2010.05.17/outbox.cif.g08.bks.cpg/sg2_240_cif.got.tgz:478825.got - 2010.06.03 11:33:40.
