data_PCOD9065563
_publ_section_title
;
Structure prediction by ZEFSAII (Michael W. Deem and Ramdas Pophale) SiO2 
 PCOD9065563
Probable space group: P -1
;
_chemical_formula_sum "Si O2"
_cell_formula_units_Z 15
_cell_length_a 18.126716
_cell_length_b 7.919322
_cell_length_c 11.337780
_cell_angle_alpha 55.579871
_cell_angle_beta 143.974191
_cell_angle_gamma 133.409767
_cell_volume 695.226690
_symmetry_space_group_name_H-M "P -1"
_symmetry_group_IT_number 2
_symmetry_cell_setting 'triclinic'
loop_
_space_group_symop_operation_xyz
x,y,z
-x,-y,-z
loop_
_atom_site_type_symbol
_atom_site_label
_atom_site_fract_x
_atom_site_fract_y
_atom_site_fract_z
Si Si1 0.234085 0.074979 0.066539
Si Si2 0.172723 0.437836 0.962991
Si Si3 0.336332 0.912298 0.859483
Si Si4 0.139902 0.846838 0.411082
Si Si5 0.500000 0.000000 0.500000
Si Si6 0.742418 0.370585 0.528712
Si Si7 0.091758 0.289630 0.180263
Si Si8 0.666687 0.682652 0.152407
O O1 0.347353 0.989882 0.276901
O O2 0.239892 0.268217 0.089630
O O3 0.267316 0.198287 0.933447
O O4 0.075567 0.862269 0.952453
O O5 0.281809 0.696539 0.963698
O O6 0.027922 0.336916 0.737877
O O7 0.127782 0.413237 0.050950
O O8 0.231900 0.832250 0.643680
O O9 0.321640 0.119132 0.821334
O O10 0.500000 0.000000 0.000000
O O11 0.203386 0.795085 0.395996
O O12 0.149255 0.100056 0.325308
O O13 0.417851 0.781905 0.572819
O O14 0.836619 0.529445 0.694164
O O15 0.744697 0.546064 0.361106
O O16 0.500000 0.500000 0.000000
#
# Coordination Sequence:
#
# PCOD9065563 Si02
#       8
#     2   2   2   2   1   2   2   2
#     4  11  25  47  74 103 145 189 241 302 361 429
#     4  11  25  48  73 104 149 188 238 303 360 429
#     4  12  27  45  73 107 144 195 245 293 362 433
#     4  11  24  49  72 106 144 191 242 294 364 428
#     4  12  26  42  72 108 136 188 238 292 372 422
#     4  12  26  45  76 105 147 189 240 302 358 430
#     4  11  26  48  73 109 145 191 243 297 362 432
#     4  12  25  48  70 106 147 188 244 296 360 430
#
# _framework density 21.575697000000002
#
# number of rings (size 3 to 8) (size 9 to 14) (size 15 to 20)
#    0.000    0.533    2.667    6.000    3.733    2.667 
#    0.000    2.000    0.000    0.000    0.000    0.000 
#    0.000    0.000    0.000    0.000    0.000    0.000 
#
# Total GULP energy -83767.937633 kJ/mol
# GULP energy per Si atom -5584.529176 kJ/mol
# Density = 2.152659 g / cm^3
# Si number density = 21.575697 Si / 1000 Ang^3
#
#
#
# Elastic Constant Matrix: (Units=GPa)
#
#
# Indices 1 2 3 4 5 6 
#
# 1 137.6524 69.0454 59.3684 6.6340 -11.8060 7.5724
# 2 69.0454 123.8722 44.4977 3.0404 5.5108 18.7678
# 3 59.3684 44.4977 123.2474 -11.6100 -2.4520 12.1606
# 4 6.6340 3.0404 -11.6100 27.5049 3.3663 -4.8602
# 5 -11.8060 5.5108 -2.4520 3.3663 30.5178 -3.7814
# 6 7.5724 18.7678 12.1606 -4.8602 -3.7814 57.1438
#
#
#
# Elastic Compliance Matrix: (Units=1/GPa)
#
#
# Indices 1 2 3 4 5 6 
#
# 1 0.012907 -0.005907 -0.004542 -0.004947 0.006389 0.001198
# 2 -0.005907 0.012685 -0.001554 -0.000622 -0.005058 -0.003440
# 3 -0.004542 -0.001554 0.011502 0.006127 -0.001340 -0.000903
# 4 -0.004947 -0.000622 0.006127 0.041362 -0.005536 0.002708
# 5 0.006389 -0.005058 -0.001340 -0.005536 0.037037 0.003080
# 6 0.001198 -0.003440 -0.000903 0.002708 0.003080 0.019097
#
#
# Mechanical properties :
#
#
# Convention : Reuss Voigt Hill
#
# Bulk Modulus (GPa) = 76.40431 81.17721 78.79076
# Shear Modulus (GPa) = 30.68248 37.15735 33.91992
#
# Velocity S-wave (km/s) = 3.77515 4.15442 3.96932
# Velocity P-wave (km/s) = 7.38183 7.79220 7.58979
#
# Compressibility (1/GPa) = 0.01308827
#
# Stress axis : x y z
#
# Youngs Moduli (GPa) = 77.47796 78.83154 86.93917
#
# Poissons Ratio (x) = 0.46566 0.39485
# Poissons Ratio (y) = 0.45767 0.13513
# Poissons Ratio (z) = 0.35188 0.12253
#
# Static dielectric constant tensor:
#      x y z
#    x 1.775420 -0.004780 -0.012660 
#    y -0.004780 1.774000 -0.032360 
#    z -0.012660 -0.032360 1.774410 
# 
# From -- ./inp_files/298923.got.cif
#   From: 2010.05.17/outbox.cif.g08.bks.cpg/sg2_150_cif.got.tgz:298923.got - 2010.06.03 11:33:40.
