data_PCOD9065839
_publ_section_title
;
Structure prediction by ZEFSAII (Michael W. Deem and Ramdas Pophale) SiO2 
 PCOD9065839
Probable space group: P -1
;
_chemical_formula_sum "Si O2"
_cell_formula_units_Z 12
_cell_length_a 9.068176
_cell_length_b 5.620075
_cell_length_c 15.473346
_cell_angle_alpha 79.576468
_cell_angle_beta 122.130891
_cell_angle_gamma 125.654495
_cell_volume 532.982298
_symmetry_space_group_name_H-M "P -1"
_symmetry_group_IT_number 2
_symmetry_cell_setting 'triclinic'
loop_
_space_group_symop_operation_xyz
x,y,z
-x,-y,-z
loop_
_atom_site_type_symbol
_atom_site_label
_atom_site_fract_x
_atom_site_fract_y
_atom_site_fract_z
Si Si1 0.250383 0.366836 0.431587
Si Si2 0.210604 0.792451 0.510468
Si Si3 0.401517 0.006084 0.254984
Si Si4 0.168021 0.462777 0.098399
Si Si5 0.967825 0.982427 0.778898
Si Si6 0.536690 0.497555 0.114741
O O1 0.500000 0.500000 0.500000
O O2 0.252656 0.639046 0.454434
O O3 0.115775 0.255380 0.308678
O O4 0.166166 0.042446 0.467933
O O5 0.397979 0.907705 0.630899
O O6 0.000000 0.500000 0.500000
O O7 0.230305 0.997841 0.265148
O O8 0.472309 0.223099 0.178099
O O9 0.283115 0.683101 0.199391
O O10 0.025055 0.134573 0.116571
O O11 0.365472 0.552319 0.093762
O O12 0.000000 0.500000 0.000000
O O13 0.205757 0.263639 0.810317
O O14 0.500000 0.500000 0.000000
#
# Coordination Sequence:
#
# PCOD9065839 Si02
#       6
#     2   2   2   2   2   2
#     4  12  25  46  72 106 142 192 233 288 353 426
#     4  12  27  45  73 105 148 184 240 290 352 421
#     4  11  25  44  68  99 138 182 226 293 348 416
#     4  11  25  44  69  99 137 176 229 295 351 415
#     4  11  25  43  70  98 139 180 232 284 353 418
#     4  11  25  45  68 100 134 178 234 287 353 423
#
# _framework density 22.514818000000002
#
# number of rings (size 3 to 8) (size 9 to 14) (size 15 to 20)
#    0.000    0.667    1.667    5.000    7.000    6.667 
#    0.000    0.000    0.000    0.000    0.000    0.000 
#    0.000    0.000    0.000    0.000    0.000    0.000 
#
# Total GULP energy -66874.959596 kJ/mol
# GULP energy per Si atom -5572.913300 kJ/mol
# Density = 2.246357 g / cm^3
# Si number density = 22.514818 Si / 1000 Ang^3
#
#
#
# Elastic Constant Matrix: (Units=GPa)
#
#
# Indices 1 2 3 4 5 6 
#
# 1 56.0579 27.6817 34.4991 -7.4780 5.7474 14.6750
# 2 27.6817 114.1790 51.6419 -3.9177 7.0969 27.2788
# 3 34.4991 51.6419 123.7141 -18.3801 1.2706 3.1764
# 4 -7.4780 -3.9177 -18.3801 33.8071 -7.1047 7.6019
# 5 5.7474 7.0969 1.2706 -7.1047 35.9845 14.2139
# 6 14.6750 27.2788 3.1764 7.6019 14.2139 39.9602
#
#
#
# Elastic Compliance Matrix: (Units=1/GPa)
#
#
# Indices 1 2 3 4 5 6 
#
# 1 0.024683 -0.001280 -0.005451 0.004561 0.000942 -0.008960
# 2 -0.001280 0.013348 -0.004859 0.000944 0.001468 -0.008957
# 3 -0.005451 -0.004859 0.012188 0.004359 0.001010 0.003162
# 4 0.004561 0.000944 0.004359 0.038906 0.012321 -0.014450
# 5 0.000942 0.001468 0.001010 0.012321 0.036343 -0.016700
# 6 -0.008960 -0.008957 0.003162 -0.014450 -0.016700 0.042868
#
#
# Mechanical properties :
#
#
# Convention : Reuss Voigt Hill
#
# Bulk Modulus (GPa) = 36.98612 57.95514 47.47063
# Shear Modulus (GPa) = 24.93422 33.95893 29.44658
#
# Velocity S-wave (km/s) = 3.33146 3.88789 3.62038
# Velocity P-wave (km/s) = 5.59118 6.77872 6.21338
#
# Compressibility (1/GPa) = 0.02703717
#
# Stress axis : x y z
#
# Youngs Moduli (GPa) = 40.51413 74.92001 82.05041
#
# Poissons Ratio (x) = 0.09592 0.44723
# Poissons Ratio (y) = 0.05187 0.39872
# Poissons Ratio (z) = 0.22083 0.36407
#
# Static dielectric constant tensor:
#      x y z
#    x 2.103440 -0.086850 -0.116890 
#    y -0.086850 1.973080 -0.058310 
#    z -0.116890 -0.058310 1.843060 
# 
# From -- ./inp_files/21254.got.cif
#   From: 2010.05.17/outbox.cif.g08.bks.cpg/sg2_11_cif.got.tgz:21254.got - 2010.06.03 11:33:40.
