data_PCOD9065832
_publ_section_title
;
Structure prediction by ZEFSAII (Michael W. Deem and Ramdas Pophale) SiO2 
 PCOD9065832
Probable space group: P -1
;
_chemical_formula_sum "Si O2"
_cell_formula_units_Z 16
_cell_length_a 12.414598
_cell_length_b 5.674800
_cell_length_c 11.954799
_cell_angle_alpha 70.542848
_cell_angle_beta 69.325984
_cell_angle_gamma 83.712512
_cell_volume 742.952192
_symmetry_space_group_name_H-M "P -1"
_symmetry_group_IT_number 2
_symmetry_cell_setting 'triclinic'
loop_
_space_group_symop_operation_xyz
x,y,z
-x,-y,-z
loop_
_atom_site_type_symbol
_atom_site_label
_atom_site_fract_x
_atom_site_fract_y
_atom_site_fract_z
Si Si1 0.621265 0.365116 0.124455
Si Si2 0.822077 0.824815 0.731530
Si Si3 0.582048 0.815531 0.932261
Si Si4 0.181395 0.036543 0.848273
Si Si5 0.047356 0.246276 0.075995
Si Si6 0.128211 0.589815 0.417446
Si Si7 0.706607 0.570644 0.431711
Si Si8 0.509376 0.280690 0.413875
O O1 0.516159 0.294379 0.094029
O O2 0.564745 0.348672 0.267015
O O3 0.729983 0.183604 0.117403
O O4 0.644203 0.642610 0.029211
O O5 0.689154 0.883384 0.803289
O O6 0.891926 0.725880 0.830632
O O7 0.828958 0.605768 0.666916
O O8 0.869485 0.109904 0.651557
O O9 0.500000 0.000000 0.000000
O O10 0.245775 0.232725 0.709624
O O11 0.134020 0.143844 0.965587
O O12 0.066377 0.931304 0.846131
O O13 0.000000 0.500000 0.000000
O O14 0.192464 0.557974 0.518281
O O15 0.000000 0.500000 0.500000
O O16 0.605991 0.404714 0.438854
O O17 0.626185 0.665861 0.546658
O O18 0.500000 0.000000 0.500000
#
# Coordination Sequence:
#
# PCOD9065832 Si02
#       8
#     2   2   2   2   2   2   2   2
#     4  11  25  43  70 104 148 183 246 302 377 442
#     4  12  29  49  79 109 153 198 256 309 379 450
#     4  11  27  43  72 104 151 197 241 304 380 452
#     4  11  25  45  72 107 145 188 250 311 370 446
#     4  11  27  45  75 104 147 193 251 310 375 437
#     4  12  30  52  78 109 153 201 256 311 376 453
#     4  11  27  44  74 104 143 193 243 307 369 442
#     4  11  25  44  71 106 141 185 244 302 373 441
#
# _framework density 21.535708
#
# number of rings (size 3 to 8) (size 9 to 14) (size 15 to 20)
#    0.000    0.750    1.250    3.375   21.000    0.000 
#    0.000    0.000    0.000    0.000    0.000    0.000 
#    0.000    0.000    0.000    0.000    0.000    0.000 
#
# Total GULP energy -89091.999026 kJ/mol
# GULP energy per Si atom -5568.249939 kJ/mol
# Density = 2.148669 g / cm^3
# Si number density = 21.535708 Si / 1000 Ang^3
#
#
#
# Elastic Constant Matrix: (Units=GPa)
#
#
# Indices 1 2 3 4 5 6 
#
# 1 115.1207 0.8724 35.0798 -13.1483 3.5440 -8.4449
# 2 0.8724 -39.5230 -16.8486 -60.5084 8.7417 24.1118
# 3 35.0798 -16.8486 64.4638 -29.2610 1.5596 8.3940
# 4 -13.1483 -60.5084 -29.2610 6.0276 2.1514 14.6014
# 5 3.5440 8.7417 1.5596 2.1514 54.5945 -5.9935
# 6 -8.4449 24.1118 8.3940 14.6014 -5.9935 24.3090
#
#
#
# Elastic Compliance Matrix: (Units=1/GPa)
#
#
# Indices 1 2 3 4 5 6 
#
# 1 0.010677 0.001031 -0.005007 0.002036 -0.000457 0.003080
# 2 0.001031 0.003614 -0.006886 -0.013771 0.000934 0.007653
# 3 -0.005007 -0.006886 0.016398 -0.000114 0.000934 -0.000273
# 4 0.002036 -0.013771 -0.000114 0.012412 0.002415 0.007546
# 5 -0.000457 0.000934 0.000934 0.002415 0.018255 0.001643
# 6 0.003080 0.007653 -0.000273 0.007546 0.001643 0.030583
#
#
# Mechanical properties :
#
#
# Convention : Reuss Voigt Hill
#
# Bulk Modulus (GPa) = 111.53571 19.80764 65.67168
# Shear Modulus (GPa) = 42.86268 25.05007 33.95637
#
# Velocity S-wave (km/s) = 4.46613 3.41425 3.97514
# Velocity P-wave (km/s) = 8.85994 4.97598 7.18536
#
# Compressibility (1/GPa) = 0.00896574
#
# Stress axis : x y z
#
# Youngs Moduli (GPa) = 93.66058 276.68998 60.98183
#
# Poissons Ratio (x) = -0.28521 0.30531
# Poissons Ratio (y) = -0.09654 0.41992
# Poissons Ratio (z) = 0.46891 1.90530
#
# Static dielectric constant tensor:
#      x y z
#    x 1.574000 0.027590 0.148150 
#    y 0.027590 1.898770 0.015540 
#    z 0.148150 0.015540 1.709830 
# 
# From -- ./inp_files/410030.got.cif
#   From: 2010.05.17/outbox.cif.g08.bks.cpg/sg2_206_cif.got.tgz:410030.got - 2010.06.03 11:33:40.
