data_PCOD9065817
_publ_section_title
;
Structure prediction by ZEFSAII (Michael W. Deem and Ramdas Pophale) SiO2 
 PCOD9065817
Probable space group: P -1
;
_chemical_formula_sum "Si O2"
_cell_formula_units_Z 14
_cell_length_a 11.850894
_cell_length_b 10.809946
_cell_length_c 9.251585
_cell_angle_alpha 122.788794
_cell_angle_beta 143.386864
_cell_angle_gamma 48.398465
_cell_volume 528.479374
_symmetry_space_group_name_H-M "P -1"
_symmetry_group_IT_number 2
_symmetry_cell_setting 'triclinic'
loop_
_space_group_symop_operation_xyz
x,y,z
-x,-y,-z
loop_
_atom_site_type_symbol
_atom_site_label
_atom_site_fract_x
_atom_site_fract_y
_atom_site_fract_z
Si Si1 0.713512 0.970964 0.865306
Si Si2 0.855583 0.752995 0.339311
Si Si3 0.595700 0.334730 0.897401
Si Si4 0.883677 0.075898 0.578087
Si Si5 0.071743 0.273164 0.295335
Si Si6 0.589034 0.744598 0.798156
Si Si7 0.786856 0.520460 0.620478
O O1 0.754763 0.902472 0.700929
O O2 0.611100 0.879793 0.801014
O O3 0.605855 0.169680 0.877293
O O4 0.949676 0.907204 0.135411
O O5 0.867848 0.672591 0.456193
O O6 0.070476 0.663568 0.406825
O O7 0.837966 0.925572 0.484767
O O8 0.670311 0.766687 0.051985
O O9 0.441929 0.387606 0.634155
O O10 0.500000 0.500000 0.000000
O O11 0.839116 0.286813 0.080523
O O12 0.650861 0.227548 0.422055
O O13 0.000000 0.000000 0.500000
O O14 0.076704 0.395437 0.255279
O O15 0.741556 0.568955 0.770970
#
# Coordination Sequence:
#
# PCOD9065817 Si02
#       7
#     2   2   2   2   2   2   2
#     4  11  25  44  71 103 137 176 232 284 338 401
#     4  12  24  46  69 100 140 182 226 280 341 406
#     4  12  24  41  70 103 137 178 226 282 344 398
#     4  12  25  45  70 101 136 175 233 282 337 411
#     4  11  25  43  69 102 139 180 227 284 335 405
#     4  11  27  46  72 100 137 186 226 281 343 406
#     4  11  26  46  69 102 141 178 230 281 342 404
#
# _framework density 26.491099999999999
#
# number of rings (size 3 to 8) (size 9 to 14) (size 15 to 20)
#    0.000    0.571    4.286    2.571    4.000    1.143 
#    2.571    0.714    0.000    0.000    0.000    0.000 
#    0.000    0.000    0.000    0.000    0.000    0.000 
#
# Total GULP energy -78491.611733 kJ/mol
# GULP energy per Si atom -5606.543695 kJ/mol
# Density = 2.643080 g / cm^3
# Si number density = 26.491100 Si / 1000 Ang^3
#
#
#
# Elastic Constant Matrix: (Units=GPa)
#
#
# Indices 1 2 3 4 5 6 
#
# 1 126.7701 47.4520 61.8417 -0.2183 -5.4761 -38.7614
# 2 47.4520 117.7093 24.7614 5.7384 1.9878 -21.4039
# 3 61.8417 24.7614 128.7959 -3.1286 3.4274 -11.0027
# 4 -0.2183 5.7384 -3.1286 37.6861 -13.4215 3.7428
# 5 -5.4761 1.9878 3.4274 -13.4215 53.2393 -6.3880
# 6 -38.7614 -21.4039 -11.0027 3.7428 -6.3880 33.9105
#
#
#
# Elastic Compliance Matrix: (Units=1/GPa)
#
#
# Indices 1 2 3 4 5 6 
#
# 1 0.017441 -0.002630 -0.006537 -0.000196 0.004302 0.016987
# 2 -0.002630 0.010419 -0.000474 -0.002268 -0.000778 0.003520
# 3 -0.006537 -0.000474 0.010655 0.000778 -0.001711 -0.004722
# 4 -0.000196 -0.002268 0.000778 0.029815 0.007129 -0.003351
# 5 0.004302 -0.000778 -0.001711 0.007129 0.022030 0.007234
# 6 0.016987 0.003520 -0.004722 -0.003351 0.007234 0.051329
#
#
# Mechanical properties :
#
#
# Convention : Reuss Voigt Hill
#
# Bulk Modulus (GPa) = 51.99228 71.26506 61.62867
# Shear Modulus (GPa) = 29.87175 40.91519 35.39347
#
# Velocity S-wave (km/s) = 3.36164 3.93426 3.65917
# Velocity P-wave (km/s) = 5.89376 6.89912 6.41616
#
# Compressibility (1/GPa) = 0.01923362
#
# Stress axis : x y z
#
# Youngs Moduli (GPa) = 57.33592 95.97605 93.85217
#
# Poissons Ratio (x) = 0.25243 0.61349
# Poissons Ratio (y) = 0.15080 0.04448
# Poissons Ratio (z) = 0.37479 0.04549
#
# Static dielectric constant tensor:
#      x y z
#    x 2.051300 0.050450 -0.015070 
#    y 0.050450 2.283970 0.023930 
#    z -0.015070 0.023930 2.074500 
# 
# From -- ./inp_files/263242.got.cif
#   From: 2010.05.17/outbox.cif.g08.bks.cpg/sg2_132_cif.got.tgz:263242.got - 2010.06.03 11:33:40.
