data_PCOD9065204
_publ_section_title
;
Structure prediction by ZEFSAII (Michael W. Deem and Ramdas Pophale) SiO2 
 PCOD9065204
Probable space group: P -1
;
_chemical_formula_sum "Si O2"
_cell_formula_units_Z 15
_cell_length_a 9.416826
_cell_length_b 12.109363
_cell_length_c 8.667535
_cell_angle_alpha 81.149012
_cell_angle_beta 118.969782
_cell_angle_gamma 61.557885
_cell_volume 658.520641
_symmetry_space_group_name_H-M "P -1"
_symmetry_group_IT_number 2
_symmetry_cell_setting 'triclinic'
loop_
_space_group_symop_operation_xyz
x,y,z
-x,-y,-z
loop_
_atom_site_type_symbol
_atom_site_label
_atom_site_fract_x
_atom_site_fract_y
_atom_site_fract_z
Si Si1 0.962814 0.044556 0.292928
Si Si2 0.500000 0.500000 0.500000
Si Si3 0.254724 0.619269 0.884006
Si Si4 0.612689 0.214830 0.580495
Si Si5 0.368065 0.943242 0.083503
Si Si6 0.871811 0.438648 0.487831
Si Si7 0.759908 0.581580 0.891081
Si Si8 0.265017 0.219817 0.929943
O O1 0.843125 0.215903 0.178631
O O2 0.815741 0.019742 0.133593
O O3 0.000000 0.000000 0.500000
O O4 0.194218 0.934063 0.366193
O O5 0.655518 0.327776 0.590714
O O6 0.647659 0.518015 0.443754
O O7 0.143480 0.614511 0.675687
O O8 0.500000 0.500000 0.000000
O O9 0.244817 0.547988 0.048836
O O10 0.592866 0.161819 0.741425
O O11 0.399575 0.309710 0.346949
O O12 0.578511 0.857796 0.113528
O O13 0.311025 0.091048 0.084907
O O14 0.000000 0.500000 0.500000
O O15 0.033533 0.316362 0.721337
O O16 0.697104 0.680367 0.986038
O O17 0.000000 0.500000 0.000000
#
# Coordination Sequence:
#
# PCOD9065204 Si02
#       8
#     2   1   2   2   2   2   2   2
#     4  12  26  49  75 111 155 201 263 327 407 483
#     4  12  26  46  78 112 158 206 272 330 400 478
#     4  12  27  48  80 112 157 208 265 328 408 487
#     4  12  28  47  75 111 153 209 268 330 401 485
#     4  11  26  45  75 111 151 205 256 330 407 478
#     4  12  25  47  80 114 155 212 271 330 405 485
#     4  12  28  47  73 113 152 206 262 328 399 481
#     4  11  24  47  74 106 155 198 262 324 401 486
#
# _framework density 22.778327000000001
#
# number of rings (size 3 to 8) (size 9 to 14) (size 15 to 20)
#    0.000    0.267    1.333    7.600    7.467    1.600 
#    0.000    0.000    0.000    0.000    0.000    0.000 
#    0.000    0.000    0.000    0.000    0.000    0.000 
#
# Total GULP energy -83577.202815 kJ/mol
# GULP energy per Si atom -5571.813521 kJ/mol
# Density = 2.272648 g / cm^3
# Si number density = 22.778327 Si / 1000 Ang^3
#
#
#
# Elastic Constant Matrix: (Units=GPa)
#
#
# Indices 1 2 3 4 5 6 
#
# 1 116.3150 20.2383 24.2618 -22.3251 -1.8075 -0.8389
# 2 20.2383 111.9031 18.1371 -37.0563 -8.9840 13.0334
# 3 24.2618 18.1371 103.5304 -23.3706 -7.8070 3.3640
# 4 -22.3251 -37.0563 -23.3706 46.2326 8.4862 -5.0079
# 5 -1.8075 -8.9840 -7.8070 8.4862 30.3302 -5.8832
# 6 -0.8389 13.0334 3.3640 -5.0079 -5.8832 30.3384
#
#
#
# Elastic Compliance Matrix: (Units=1/GPa)
#
#
# Indices 1 2 3 4 5 6 
#
# 1 0.009710 -0.000429 -0.001417 0.003893 -0.000789 0.001099
# 2 -0.000429 0.012606 0.000191 0.009515 0.000356 -0.003809
# 3 -0.001417 0.000191 0.011163 0.004816 0.001443 -0.000284
# 4 0.003893 0.009515 0.004816 0.034570 -0.005353 0.000154
# 5 -0.000789 0.000356 0.001443 -0.005353 0.036016 0.005766
# 6 0.001099 -0.003809 -0.000284 0.000154 0.005766 0.035803
#
#
# Mechanical properties :
#
#
# Convention : Reuss Voigt Hill
#
# Bulk Modulus (GPa) = 33.14623 50.78033 41.96328
# Shear Modulus (GPa) = 32.62956 39.32100 35.97528
#
# Velocity S-wave (km/s) = 3.78892 4.15932 3.97843
# Velocity P-wave (km/s) = 5.80728 6.73856 6.29018
#
# Compressibility (1/GPa) = 0.03016935
#
# Stress axis : x y z
#
# Youngs Moduli (GPa) = 102.98271 79.32618 89.58350
#
# Poissons Ratio (x) = 0.03401 0.12693
# Poissons Ratio (y) = 0.04416 -0.01708
# Poissons Ratio (z) = 0.14591 -0.01513
#
# Static dielectric constant tensor:
#      x y z
#    x 2.016630 0.081370 -0.065730 
#    y 0.081370 1.964310 -0.023720 
#    z -0.065730 -0.023720 1.853000 
# 
# From -- ./inp_files/186020.got.cif
#   From: 2010.05.17/outbox.cif.g08.bks.cpg/sg2_94_cif.got.tgz:186020.got - 2010.06.03 11:33:40.
