data_PCOD9065532
_publ_section_title
;
Structure prediction by ZEFSAII (Michael W. Deem and Ramdas Pophale) SiO2 
 PCOD9065532
Probable space group: P -1
;
_chemical_formula_sum "Si O2"
_cell_formula_units_Z 8
_cell_length_a 7.291088
_cell_length_b 4.995599
_cell_length_c 12.067699
_cell_angle_alpha 94.078690
_cell_angle_beta 47.015290
_cell_angle_gamma 69.656485
_cell_volume 269.348350
_symmetry_space_group_name_H-M "P -1"
_symmetry_group_IT_number 2
_symmetry_cell_setting 'triclinic'
loop_
_space_group_symop_operation_xyz
x,y,z
-x,-y,-z
loop_
_atom_site_type_symbol
_atom_site_label
_atom_site_fract_x
_atom_site_fract_y
_atom_site_fract_z
Si Si1 0.669382 0.665099 0.980807
Si Si2 0.807453 0.297267 0.299348
Si Si3 0.992955 0.799886 0.394844
Si Si4 0.496428 0.883326 0.740999
O O1 0.743309 0.567736 0.699860
O O2 0.500000 0.500000 0.000000
O O3 0.500000 0.000000 0.000000
O O4 0.620650 0.791145 0.132402
O O5 0.500000 0.500000 0.500000
O O6 0.990865 0.995931 0.296650
O O7 0.755557 0.171250 0.201491
O O8 0.987258 0.467269 0.201937
O O9 0.673578 0.855904 0.555182
O O10 0.000000 0.000000 0.500000
#
# Coordination Sequence:
#
# PCOD9065532 Si02
#       4
#     2   2   2   2
#     4  12  32  56  88 124 181 237 286 364 449 516
#     4  12  27  52  92 133 172 228 299 360 434 532
#     4  11  24  48  89 128 178 223 289 362 449 512
#     4  11  27  51  87 129 176 230 289 367 436 522
#
# _framework density 29.701315000000001
#
# number of rings (size 3 to 8) (size 9 to 14) (size 15 to 20)
#    0.000    0.500    2.500    3.000   10.500    2.000 
#    0.000    3.750    0.000    0.000    0.000    0.000 
#    0.000    0.000    0.000    0.000    0.000    0.000 
#
# Total GULP energy -44818.637524 kJ/mol
# GULP energy per Si atom -5602.329690 kJ/mol
# Density = 2.963371 g / cm^3
# Si number density = 29.701315 Si / 1000 Ang^3
#
#
#
# Elastic Constant Matrix: (Units=GPa)
#
#
# Indices 1 2 3 4 5 6 
#
# 1 214.4212 81.6246 101.1641 6.4205 21.4150 60.8136
# 2 81.6246 182.6878 72.1986 1.1263 -0.4087 30.9421
# 3 101.1641 72.1986 238.6061 20.1172 -24.2899 21.4367
# 4 6.4205 1.1263 20.1172 53.4045 11.0867 7.1160
# 5 21.4150 -0.4087 -24.2899 11.0867 65.5371 5.6271
# 6 60.8136 30.9421 21.4367 7.1160 5.6271 82.2409
#
#
#
# Elastic Compliance Matrix: (Units=1/GPa)
#
#
# Indices 1 2 3 4 5 6 
#
# 1 0.008492 -0.001768 -0.003175 0.001631 -0.003838 -0.004665
# 2 -0.001768 0.006951 -0.001306 0.000672 0.000112 -0.001033
# 3 -0.003175 -0.001306 0.006470 -0.002977 0.003832 0.001148
# 4 0.001631 0.000672 -0.002977 0.020960 -0.004992 -0.002155
# 5 -0.003838 0.000112 0.003832 -0.004992 0.018697 0.000950
# 6 -0.004665 -0.001033 0.001148 -0.002155 0.000950 0.015820
#
#
# Mechanical properties :
#
#
# Convention : Reuss Voigt Hill
#
# Bulk Modulus (GPa) = 106.20394 127.29887 116.75140
# Shear Modulus (GPa) = 53.74833 65.61833 59.68333
#
# Velocity S-wave (km/s) = 4.25859 4.70539 4.48755
# Velocity P-wave (km/s) = 7.74698 8.51315 8.13908
#
# Compressibility (1/GPa) = 0.00941585
#
# Stress axis : x y z
#
# Youngs Moduli (GPa) = 117.75494 143.86201 154.55726
#
# Poissons Ratio (x) = 0.25438 0.49064
# Poissons Ratio (y) = 0.20821 0.20187
# Poissons Ratio (z) = 0.37381 0.18790
#
# Static dielectric constant tensor:
#      x y z
#    x 2.757540 0.158720 -0.234780 
#    y 0.158720 2.354410 -0.039730 
#    z -0.234780 -0.039730 2.660970 
# 
# From -- ./inp_files/1586.got.cif
#   From: 2010.05.17/outbox.cif.g08.bks.cpg/sg2_1_cif.got.tgz:1586.got - 2010.06.03 11:33:40.
