data_PCOD9065885
_publ_section_title
;
Structure prediction by ZEFSAII (Michael W. Deem and Ramdas Pophale) SiO2 
 PCOD9065885
Probable space group: P -1
;
_chemical_formula_sum "Si O2"
_cell_formula_units_Z 12
_cell_length_a 9.518256
_cell_length_b 12.449242
_cell_length_c 8.076712
_cell_angle_alpha 146.240066
_cell_angle_beta 78.919064
_cell_angle_gamma 92.663157
_cell_volume 510.538823
_symmetry_space_group_name_H-M "P -1"
_symmetry_group_IT_number 2
_symmetry_cell_setting 'triclinic'
loop_
_space_group_symop_operation_xyz
x,y,z
-x,-y,-z
loop_
_atom_site_type_symbol
_atom_site_label
_atom_site_fract_x
_atom_site_fract_y
_atom_site_fract_z
Si Si1 0.904030 0.350404 0.260247
Si Si2 0.589938 0.979666 0.122302
Si Si3 0.852206 0.430470 0.992534
Si Si4 0.610769 0.555895 0.679052
Si Si5 0.641808 0.759077 0.252493
Si Si6 0.161559 0.994878 0.694592
O O1 0.754918 0.387560 0.444734
O O2 0.000000 0.500000 0.500000
O O3 0.850434 0.413314 0.168019
O O4 0.006487 0.134210 0.952768
O O5 0.734813 0.055580 0.233367
O O6 0.473970 0.079186 0.415485
O O7 0.649978 0.748022 0.834004
O O8 0.500000 0.000000 0.000000
O O9 0.853472 0.210852 0.645034
O O10 0.724935 0.595359 0.151341
O O11 0.000000 0.500000 0.000000
O O12 0.500000 0.500000 0.500000
O O13 0.565147 0.640685 0.981033
O O14 0.756130 0.873315 0.279657
#
# Coordination Sequence:
#
# PCOD9065885 Si02
#       6
#     2   2   2   2   2   2
#     4  12  23  47  71 102 148 185 242 295 356 429
#     4  11  25  46  70 107 142 187 243 295 364 432
#     4  12  26  44  72 105 139 191 243 294 358 424
#     4  11  25  43  73 105 142 189 235 300 358 422
#     4  11  25  47  70 102 147 185 245 291 362 431
#     4  11  25  46  73 101 146 193 234 301 360 423
#
# _framework density 23.504579
#
# number of rings (size 3 to 8) (size 9 to 14) (size 15 to 20)
#    0.000    0.667    5.000    3.500    7.000    0.667 
#    0.000    3.333    0.000    0.000    0.000    0.000 
#    0.000    0.000    0.000    0.000    0.000    0.000 
#
# Total GULP energy -67105.582729 kJ/mol
# GULP energy per Si atom -5592.131894 kJ/mol
# Density = 2.345108 g / cm^3
# Si number density = 23.504579 Si / 1000 Ang^3
#
#
#
# Elastic Constant Matrix: (Units=GPa)
#
#
# Indices 1 2 3 4 5 6 
#
# 1 107.6294 41.7586 86.6046 3.2339 8.0578 -27.9848
# 2 41.7586 123.9665 63.8567 11.1635 11.6118 -27.0881
# 3 86.6046 63.8567 195.6773 4.5070 5.6168 -9.2614
# 4 3.2339 11.1635 4.5070 44.9242 -12.3078 8.5433
# 5 8.0578 11.6118 5.6168 -12.3078 62.9702 -1.9694
# 6 -27.9848 -27.0881 -9.2614 8.5433 -1.9694 36.8843
#
#
#
# Elastic Compliance Matrix: (Units=1/GPa)
#
#
# Indices 1 2 3 4 5 6 
#
# 1 0.019485 0.001536 -0.008256 -0.004428 -0.002445 0.014734
# 2 0.001536 0.012815 -0.004138 -0.005731 -0.002976 0.010707
# 3 -0.008256 -0.004138 0.009677 0.002377 0.001191 -0.007360
# 4 -0.004428 -0.005731 0.002377 0.028035 0.006481 -0.013119
# 5 -0.002445 -0.002976 0.001191 0.006481 0.017768 -0.004294
# 6 0.014734 0.010707 -0.007360 -0.013119 -0.004294 0.047116
#
#
# Mechanical properties :
#
#
# Convention : Reuss Voigt Hill
#
# Bulk Modulus (GPa) = 49.35050 90.19034 69.77042
# Shear Modulus (GPa) = 30.60632 44.62595 37.61613
#
# Velocity S-wave (km/s) = 3.61244 4.36203 4.00481
# Velocity P-wave (km/s) = 6.20010 7.98902 7.15072
#
# Compressibility (1/GPa) = 0.02026322
#
# Stress axis : x y z
#
# Youngs Moduli (GPa) = 51.32089 78.03328 103.33352
#
# Poissons Ratio (x) = -0.11988 0.85310
# Poissons Ratio (y) = -0.07885 0.42757
# Poissons Ratio (z) = 0.42369 0.32289
#
# Static dielectric constant tensor:
#      x y z
#    x 1.931470 -0.021350 0.035360 
#    y -0.021350 1.970750 -0.082050 
#    z 0.035360 -0.082050 1.893380 
# 
# From -- ./inp_files/204923.got.cif
#   From: 2010.05.17/outbox.cif.g08.bks.cpg/sg2_103_cif.got.tgz:204923.got - 2010.06.03 11:33:40.
