data_PCOD9065718
_publ_section_title
;
Structure prediction by ZEFSAII (Michael W. Deem and Ramdas Pophale) SiO2 
 PCOD9065718
Probable space group: P -1
;
_chemical_formula_sum "Si O2"
_cell_formula_units_Z 14
_cell_length_a 11.258088
_cell_length_b 17.276196
_cell_length_c 8.028806
_cell_angle_alpha 37.308434
_cell_angle_beta 77.747078
_cell_angle_gamma 53.070444
_cell_volume 632.713772
_symmetry_space_group_name_H-M "P -1"
_symmetry_group_IT_number 2
_symmetry_cell_setting 'triclinic'
loop_
_space_group_symop_operation_xyz
x,y,z
-x,-y,-z
loop_
_atom_site_type_symbol
_atom_site_label
_atom_site_fract_x
_atom_site_fract_y
_atom_site_fract_z
Si Si1 0.494061 0.165287 0.787052
Si Si2 0.860592 0.949593 0.121619
Si Si3 0.750286 0.931909 0.530548
Si Si4 0.927356 0.198145 0.201385
Si Si5 0.441660 0.117370 0.535268
Si Si6 0.565397 0.502434 0.649252
Si Si7 0.781386 0.297959 0.436606
O O1 0.401983 0.223714 0.534634
O O2 0.464168 0.326117 0.597512
O O3 0.709676 0.985083 0.010131
O O4 0.453346 0.086201 0.068615
O O5 0.794885 0.994895 0.257819
O O6 0.066284 0.749124 0.416177
O O7 0.836994 0.107782 0.780592
O O8 0.716286 0.824738 0.625368
O O9 0.911427 0.826122 0.792006
O O10 0.570582 0.091857 0.413903
O O11 0.821834 0.296230 0.237570
O O12 0.775203 0.325238 0.894506
O O13 0.000000 0.000000 0.500000
O O14 0.500000 0.500000 0.500000
O O15 0.427927 0.532045 0.760032
#
# Coordination Sequence:
#
# PCOD9065718 Si02
#       7
#     2   2   2   2   2   2   2
#     4   9  19  36  59  89 122 161 214 247 314 361
#     4   8  16  31  59  84 118 157 199 249 296 374
#     4   9  19  35  58  93 117 155 215 249 304 365
#     4  11  25  38  61  92 126 166 207 254 315 376
#     4   9  18  36  63  89 115 166 206 260 296 376
#     4  11  25  39  59  92 132 162 205 260 310 369
#     4   9  19  37  55  84 126 161 201 246 314 361
#
# _framework density 22.126906999999999
#
# number of rings (size 3 to 8) (size 9 to 14) (size 15 to 20)
#    0.000    2.571    0.000    0.429   16.000    0.000 
#    0.000    1.429    0.000    0.000    0.000    0.000 
#    0.000    0.000    0.000    0.000    0.000    0.000 
#
# Total GULP energy -77953.539750 kJ/mol
# GULP energy per Si atom -5568.109982 kJ/mol
# Density = 2.207655 g / cm^3
# Si number density = 22.126907 Si / 1000 Ang^3
#
#
#
# Elastic Constant Matrix: (Units=GPa)
#
#
# Indices 1 2 3 4 5 6 
#
# 1 133.0595 33.8611 42.6107 -4.4343 34.4385 22.0475
# 2 33.8611 61.1762 3.4178 5.9035 -4.3123 12.7610
# 3 42.6107 3.4178 44.6440 -4.1817 20.8010 15.8842
# 4 -4.4343 5.9035 -4.1817 21.0902 2.7868 -2.9554
# 5 34.4385 -4.3123 20.8010 2.7868 39.4654 10.7799
# 6 22.0475 12.7610 15.8842 -2.9554 10.7799 41.2908
#
#
#
# Elastic Compliance Matrix: (Units=1/GPa)
#
#
# Indices 1 2 3 4 5 6 
#
# 1 0.015671 -0.009767 -0.009175 0.005818 -0.010697 0.001389
# 2 -0.009767 0.025171 0.003358 -0.011187 0.012453 -0.007908
# 3 -0.009175 0.003358 0.039100 0.005120 -0.010383 -0.008103
# 4 0.005818 -0.011187 0.005120 0.055581 -0.014609 0.006174
# 5 -0.010697 0.012453 -0.010383 -0.014609 0.044389 -0.006777
# 6 0.001389 -0.007908 -0.008103 0.006174 -0.006777 0.031249
#
#
# Mechanical properties :
#
#
# Convention : Reuss Voigt Hill
#
# Bulk Modulus (GPa) = 20.50206 44.29542 32.39874
# Shear Modulus (GPa) = 19.33579 30.96862 25.15221
#
# Velocity S-wave (km/s) = 2.95932 3.74517 3.37519
# Velocity P-wave (km/s) = 4.57849 6.22607 5.46473
#
# Compressibility (1/GPa) = 0.04877558
#
# Stress axis : x y z
#
# Youngs Moduli (GPa) = 63.81056 39.72749 25.57535
#
# Poissons Ratio (x) = 0.38801 0.23466
# Poissons Ratio (y) = 0.62322 -0.08589
# Poissons Ratio (z) = 0.58549 -0.13342
#
# Static dielectric constant tensor:
#      x y z
#    x 1.927450 -0.034370 0.042070 
#    y -0.034370 1.869150 0.016590 
#    z 0.042070 0.016590 1.882170 
# 
# From -- ./inp_files/278797.got.cif
#   From: 2010.05.17/outbox.cif.g08.bks.cpg/sg2_140_cif.got.tgz:278797.got - 2010.06.03 11:33:40.
