data_PCOD9065235
_publ_section_title
;
Structure prediction by ZEFSAII (Michael W. Deem and Ramdas Pophale) SiO2 
 PCOD9065235
Probable space group: P -1
;
_chemical_formula_sum "Si O2"
_cell_formula_units_Z 13
_cell_length_a 11.680260
_cell_length_b 25.058481
_cell_length_c 17.751359
_cell_angle_alpha 161.555759
_cell_angle_beta 148.900067
_cell_angle_gamma 20.967208
_cell_volume 567.816587
_symmetry_space_group_name_H-M "P -1"
_symmetry_group_IT_number 2
_symmetry_cell_setting 'triclinic'
loop_
_space_group_symop_operation_xyz
x,y,z
-x,-y,-z
loop_
_atom_site_type_symbol
_atom_site_label
_atom_site_fract_x
_atom_site_fract_y
_atom_site_fract_z
Si Si1 0.794075 0.686870 0.901620
Si Si2 0.500000 0.000000 0.000000
Si Si3 0.180411 0.220516 0.717336
Si Si4 0.685536 0.571973 0.448385
Si Si5 0.902921 0.948491 0.948670
Si Si6 0.949134 0.811015 0.565875
Si Si7 0.860571 0.248768 0.719744
O O1 0.868771 0.446882 0.635379
O O2 0.708350 0.788647 0.904779
O O3 0.089374 0.627498 0.027164
O O4 0.465998 0.916172 0.073784
O O5 0.538170 0.161834 0.281375
O O6 0.059747 0.217067 0.565240
O O7 0.068625 0.172951 0.660553
O O8 0.572789 0.023224 0.668251
O O9 0.000000 0.500000 0.000000
O O10 0.506794 0.580238 0.289195
O O11 0.000000 0.500000 0.500000
O O12 0.828505 0.346392 0.280266
O O13 0.000000 0.000000 0.000000
O O14 0.906346 0.086572 0.201089
O O15 0.000000 0.000000 0.500000
#
# Coordination Sequence:
#
# PCOD9065235 Si02
#       7
#     2   1   2   2   2   2   2
#     4  12  26  48  74 113 154 197 258 308 378 454
#     4  12  26  50  72 106 150 198 248 308 376 452
#     4  11  24  47  75 109 155 191 252 319 375 448
#     4  12  27  50  76 107 154 195 250 311 383 450
#     4  12  26  46  77 110 152 205 249 315 377 447
#     4  11  26  45  78 114 146 204 255 307 382 450
#     4  12  25  46  77 110 147 200 245 312 377 445
#
# _framework density 22.894717
#
# number of rings (size 3 to 8) (size 9 to 14) (size 15 to 20)
#    0.000    0.308    4.615    3.231    6.462    1.231 
#    0.000    1.538    0.000    0.000    0.000    0.000 
#    0.000    0.000    0.000    0.000    0.000    0.000 
#
# Total GULP energy -72535.413100 kJ/mol
# GULP energy per Si atom -5579.647162 kJ/mol
# Density = 2.284261 g / cm^3
# Si number density = 22.894717 Si / 1000 Ang^3
#
#
#
# Elastic Constant Matrix: (Units=GPa)
#
#
# Indices 1 2 3 4 5 6 
#
# 1 98.2269 30.7651 7.8055 2.9872 19.5054 22.7034
# 2 30.7651 107.7377 21.0282 -10.8592 6.9978 15.3672
# 3 7.8055 21.0282 121.7489 13.0736 20.1698 13.1567
# 4 2.9872 -10.8592 13.0736 59.2425 12.8682 9.1858
# 5 19.5054 6.9978 20.1698 12.8682 38.1019 6.7273
# 6 22.7034 15.3672 13.1567 9.1858 6.7273 31.1155
#
#
#
# Elastic Compliance Matrix: (Units=1/GPa)
#
#
# Indices 1 2 3 4 5 6 
#
# 1 0.014077 -0.002525 0.001386 0.001240 -0.006377 -0.008598
# 2 -0.002525 0.011223 -0.001653 0.003216 -0.000293 -0.003888
# 3 0.001386 -0.001653 0.009606 -0.001031 -0.004621 -0.002953
# 4 0.001240 0.003216 -0.001031 0.020022 -0.006274 -0.006611
# 5 -0.006377 -0.000293 -0.004621 -0.006274 0.033904 0.001274
# 6 -0.008598 -0.003888 -0.002953 -0.006611 0.001274 0.043257
#
#
# Mechanical properties :
#
#
# Convention : Reuss Voigt Hill
#
# Bulk Modulus (GPa) = 34.10415 49.65678 41.88047
# Shear Modulus (GPa) = 33.91052 43.56627 38.73839
#
# Velocity S-wave (km/s) = 3.85275 4.36695 4.11788
# Velocity P-wave (km/s) = 5.89236 6.86755 6.39856
#
# Compressibility (1/GPa) = 0.02932194
#
# Stress axis : x y z
#
# Youngs Moduli (GPa) = 71.03797 89.10170 104.10461
#
# Poissons Ratio (x) = 0.22496 -0.14429
# Poissons Ratio (y) = 0.17936 0.17210
# Poissons Ratio (z) = -0.09846 0.14730
#
# Static dielectric constant tensor:
#      x y z
#    x 1.845580 -0.026110 -0.024310 
#    y -0.026110 1.955310 -0.115760 
#    z -0.024310 -0.115760 1.971020 
# 
# From -- ./inp_files/570988.got.cif
#   From: 2010.05.17/outbox.cif.g08.bks.cpg/sg2_286_cif.got.tgz:570988.got - 2010.06.03 11:33:40.
