data_PCOD9065175
_publ_section_title
;
Structure prediction by ZEFSAII (Michael W. Deem and Ramdas Pophale) SiO2 
 PCOD9065175
Probable space group: P -1
;
_chemical_formula_sum "Si O2"
_cell_formula_units_Z 16
_cell_length_a 15.924842
_cell_length_b 9.699427
_cell_length_c 6.947525
_cell_angle_alpha 135.034584
_cell_angle_beta 77.814164
_cell_angle_gamma 95.645464
_cell_volume 739.249109
_symmetry_space_group_name_H-M "P -1"
_symmetry_group_IT_number 2
_symmetry_cell_setting 'triclinic'
loop_
_space_group_symop_operation_xyz
x,y,z
-x,-y,-z
loop_
_atom_site_type_symbol
_atom_site_label
_atom_site_fract_x
_atom_site_fract_y
_atom_site_fract_z
Si Si1 0.920892 0.600506 0.515216
Si Si2 0.641066 0.428853 0.380335
Si Si3 0.544716 0.107660 0.911488
Si Si4 0.427170 0.375530 0.005625
Si Si5 0.087831 0.041035 0.883565
Si Si6 0.881185 0.884571 0.487286
Si Si7 0.312818 0.231451 0.589957
Si Si8 0.179162 0.775597 0.852439
O O1 0.934695 0.722962 0.433936
O O2 0.862971 0.428896 0.317350
O O3 0.000000 0.500000 0.500000
O O4 0.879944 0.762470 0.843194
O O5 0.669536 0.617174 0.439069
O O6 0.720631 0.269020 0.210620
O O7 0.607983 0.503662 0.674852
O O8 0.572770 0.314794 0.181488
O O9 0.474407 0.169090 0.845172
O O10 0.626311 0.967934 0.665639
O O11 0.500000 0.000000 0.000000
O O12 0.348795 0.333727 0.862268
O O13 0.500000 0.500000 0.000000
O O14 0.076064 0.066226 0.687460
O O15 0.155354 0.867104 0.745506
O O16 0.000000 0.000000 0.000000
O O17 0.787540 0.808600 0.404664
O O18 0.860294 0.073244 0.819350
#
# Coordination Sequence:
#
# PCOD9065175 Si02
#       8
#     2   2   2   2   2   2   2   2
#     4  11  24  47  73 108 138 182 234 289 353 420
#     4  12  25  46  71 101 148 182 235 302 350 412
#     4  12  24  45  72 100 143 189 231 294 356 408
#     4  12  26  43  71 104 140 187 241 292 352 421
#     4  11  26  48  70 109 145 180 233 291 353 427
#     4  11  27  45  75 104 143 188 239 288 357 431
#     4  12  25  45  69 106 139 187 243 288 358 421
#     4  11  25  46  71 103 142 183 235 293 358 413
#
# _framework density 21.643584000000001
#
# number of rings (size 3 to 8) (size 9 to 14) (size 15 to 20)
#    0.000    0.500    6.250    1.500    1.750    6.500 
#    0.000    0.000    0.000    0.000    0.000    0.000 
#    0.000    0.000    0.000    0.000    0.000    0.000 
#
# Total GULP energy -89501.430961 kJ/mol
# GULP energy per Si atom -5593.839435 kJ/mol
# Density = 2.159432 g / cm^3
# Si number density = 21.643584 Si / 1000 Ang^3
#
#
#
# Elastic Constant Matrix: (Units=GPa)
#
#
# Indices 1 2 3 4 5 6 
#
# 1 91.0880 30.2088 29.2909 -13.7346 12.4630 -2.0779
# 2 30.2088 139.8908 46.1991 -16.5769 -7.3380 -18.1664
# 3 29.2909 46.1991 98.5165 -4.4048 7.9693 -5.1139
# 4 -13.7346 -16.5769 -4.4048 39.7730 1.9643 9.9991
# 5 12.4630 -7.3380 7.9693 1.9643 33.8635 3.6777
# 6 -2.0779 -18.1664 -5.1139 9.9991 3.6777 37.1947
#
#
#
# Elastic Compliance Matrix: (Units=1/GPa)
#
#
# Indices 1 2 3 4 5 6 
#
# 1 0.013782 -0.002039 -0.002612 0.004172 -0.005010 -0.001211
# 2 -0.002039 0.009723 -0.003968 0.001930 0.003327 0.003242
# 3 -0.002612 -0.003968 0.012992 -0.001041 -0.002925 0.000271
# 4 0.004172 0.001930 -0.001041 0.029019 -0.001840 -0.006587
# 5 -0.005010 0.003327 -0.002925 -0.001840 0.033089 -0.001834
# 6 -0.001211 0.003242 0.000271 -0.006587 -0.001834 0.030391
#
#
# Mechanical properties :
#
#
# Convention : Reuss Voigt Hill
#
# Bulk Modulus (GPa) = 51.92620 60.09920 56.01270
# Shear Modulus (GPa) = 32.75362 37.08601 34.91982
#
# Velocity S-wave (km/s) = 3.89436 4.14392 4.02108
# Velocity P-wave (km/s) = 6.65319 7.12208 6.89163
#
# Compressibility (1/GPa) = 0.01925810
#
# Stress axis : x y z
#
# Youngs Moduli (GPa) = 72.56088 102.84451 76.96851
#
# Poissons Ratio (x) = 0.20970 0.20107
# Poissons Ratio (y) = 0.14795 0.30542
# Poissons Ratio (z) = 0.18956 0.40810
#
# Static dielectric constant tensor:
#      x y z
#    x 1.793530 -0.001380 -0.003710 
#    y -0.001380 1.781950 0.022560 
#    z -0.003710 0.022560 1.742480 
# 
# From -- ./inp_files/107772.got.cif
#   From: 2010.05.17/outbox.cif.g08.bks.cpg/sg2_54_cif.got.tgz:107772.got - 2010.06.03 11:33:40.
