data_PCOD9065690
_publ_section_title
;
Structure prediction by ZEFSAII (Michael W. Deem and Ramdas Pophale) SiO2 
 PCOD9065690
Probable space group: P -1
;
_chemical_formula_sum "Si O2"
_cell_formula_units_Z 12
_cell_length_a 10.145366
_cell_length_b 7.658709
_cell_length_c 9.406312
_cell_angle_alpha 82.315641
_cell_angle_beta 47.896879
_cell_angle_gamma 58.366076
_cell_volume 433.345768
_symmetry_space_group_name_H-M "P -1"
_symmetry_group_IT_number 2
_symmetry_cell_setting 'triclinic'
loop_
_space_group_symop_operation_xyz
x,y,z
-x,-y,-z
loop_
_atom_site_type_symbol
_atom_site_label
_atom_site_fract_x
_atom_site_fract_y
_atom_site_fract_z
Si Si1 0.764832 0.339645 0.714943
Si Si2 0.114964 0.209778 0.248660
Si Si3 0.487979 0.158061 0.148877
Si Si4 0.819363 0.620494 0.238625
Si Si5 0.616551 0.158174 0.618820
Si Si6 0.025587 0.094690 0.823885
O O1 0.001347 0.211190 0.476594
O O2 0.605436 0.597562 0.766382
O O3 0.645614 0.242283 0.738321
O O4 0.830903 0.288376 0.840187
O O5 0.919868 0.441261 0.306087
O O6 0.821518 0.095917 0.379826
O O7 0.319869 0.216237 0.135447
O O8 0.428343 0.025196 0.305020
O O9 0.748969 0.991093 0.940560
O O10 0.598721 0.666981 0.332798
O O11 0.824777 0.821805 0.254547
O O12 0.000000 0.500000 0.000000
O O13 0.000000 0.000000 0.000000
#
# Coordination Sequence:
#
# PCOD9065690 Si02
#       6
#     2   2   2   2   2   2
#     4  12  27  55  91 128 168 224 293 351 422 514
#     4  11  24  50  90 121 169 225 285 348 423 511
#     4  11  24  51  90 124 164 227 280 351 423 502
#     4  12  27  54  81 125 173 221 279 352 431 501
#     4  12  28  54  88 126 171 222 290 349 426 517
#     4  12  29  56  86 124 176 225 282 358 428 506
#
# _framework density 27.691514999999999
#
# number of rings (size 3 to 8) (size 9 to 14) (size 15 to 20)
#    0.000    0.333    5.000    2.500    2.333    0.667 
#    6.000    5.000    3.667    0.000    0.000    0.000 
#    0.000    0.000    0.000    0.000    0.000    0.000 
#
# Total GULP energy -67125.277279 kJ/mol
# GULP energy per Si atom -5593.773107 kJ/mol
# Density = 2.762849 g / cm^3
# Si number density = 27.691515 Si / 1000 Ang^3
#
#
#
# Elastic Constant Matrix: (Units=GPa)
#
#
# Indices 1 2 3 4 5 6 
#
# 1 129.8317 52.2389 38.3059 -14.2697 1.2319 -29.3762
# 2 52.2389 162.6314 72.3316 -10.7151 -2.4185 -10.7986
# 3 38.3059 72.3316 210.8879 -1.6627 -2.2271 -16.7697
# 4 -14.2697 -10.7151 -1.6627 44.6363 -11.5429 -0.8817
# 5 1.2319 -2.4185 -2.2271 -11.5429 47.6217 2.6098
# 6 -29.3762 -10.7986 -16.7697 -0.8817 2.6098 61.5092
#
#
#
# Elastic Compliance Matrix: (Units=1/GPa)
#
#
# Indices 1 2 3 4 5 6 
#
# 1 0.010168 -0.002529 -0.000618 0.002705 0.000001 0.004283
# 2 -0.002529 0.008054 -0.002321 0.001206 0.000682 -0.000438
# 3 -0.000618 -0.002321 0.005713 -0.000527 -0.000009 0.000848
# 4 0.002705 0.001206 -0.000527 0.025112 0.005973 0.001467
# 5 0.000001 0.000682 -0.000009 0.005973 0.022522 -0.000752
# 6 0.004283 -0.000438 0.000848 0.001467 -0.000752 0.018510
#
#
# Mechanical properties :
#
#
# Convention : Reuss Voigt Hill
#
# Bulk Modulus (GPa) = 76.92159 92.12263 84.52211
# Shear Modulus (GPa) = 47.46136 53.45176 50.45656
#
# Velocity S-wave (km/s) = 4.14446 4.39824 4.27323
# Velocity P-wave (km/s) = 7.12323 7.68975 7.41191
#
# Compressibility (1/GPa) = 0.01300025
#
# Stress axis : x y z
#
# Youngs Moduli (GPa) = 98.34395 124.16089 175.02742
#
# Poissons Ratio (x) = 0.31398 0.10812
# Poissons Ratio (y) = 0.24869 0.40628
# Poissons Ratio (z) = 0.06075 0.28821
#
# Static dielectric constant tensor:
#      x y z
#    x 1.485330 0.294610 -0.268380 
#    y 0.294610 2.270370 -0.005290 
#    z -0.268380 -0.005290 2.078550 
# 
# From -- ./inp_files/381859.got.cif
#   From: 2010.05.17/outbox.cif.g08.bks.cpg/sg2_191_cif.got.tgz:381859.got - 2010.06.03 11:33:40.
