data_PCOD9065236
_publ_section_title
;
Structure prediction by ZEFSAII (Michael W. Deem and Ramdas Pophale) SiO2 
 PCOD9065236
Probable space group: P -1
;
_chemical_formula_sum "Si O2"
_cell_formula_units_Z 16
_cell_length_a 9.770448
_cell_length_b 6.794907
_cell_length_c 9.138995
_cell_angle_alpha 91.603918
_cell_angle_beta 103.063968
_cell_angle_gamma 102.949035
_cell_volume 574.018459
_symmetry_space_group_name_H-M "P -1"
_symmetry_group_IT_number 2
_symmetry_cell_setting 'triclinic'
loop_
_space_group_symop_operation_xyz
x,y,z
-x,-y,-z
loop_
_atom_site_type_symbol
_atom_site_label
_atom_site_fract_x
_atom_site_fract_y
_atom_site_fract_z
Si Si1 0.756564 0.693946 0.231503
Si Si2 0.162149 0.543084 0.967504
Si Si3 0.558831 0.409463 0.754375
Si Si4 0.881587 0.638426 0.578564
Si Si5 0.207579 0.789589 0.743113
Si Si6 0.692777 0.839411 0.727234
Si Si7 0.150939 0.032303 0.951706
Si Si8 0.671821 0.210494 0.531053
O O1 0.583489 0.664806 0.187201
O O2 0.821294 0.696320 0.411373
O O3 0.761944 0.439026 0.193034
O O4 0.799591 0.959337 0.217809
O O5 0.296505 0.585466 0.116649
O O6 0.158199 0.290090 0.912837
O O7 0.158268 0.784378 0.915405
O O8 0.000000 0.500000 0.000000
O O9 0.569285 0.636399 0.706366
O O10 0.552239 0.281427 0.601690
O O11 0.829574 0.762614 0.698247
O O12 0.808117 0.404432 0.589412
O O13 0.052440 0.698982 0.625375
O O14 0.327751 0.833859 0.642080
O O15 0.719387 0.921754 0.898028
O O16 0.684398 0.014056 0.617969
O O17 0.000000 0.000000 0.000000
#
# Coordination Sequence:
#
# PCOD9065236 Si02
#       8
#     2   2   2   2   2   2   2   2
#     4  12  27  49  78 110 155 207 252 315 396 462
#     4  12  24  46  78 110 148 198 257 318 375 451
#     4  11  27  53  77 112 156 203 259 317 388 462
#     4  11  25  47  73 112 158 198 254 315 391 459
#     4  12  25  45  74 115 152 198 256 324 384 458
#     4  11  24  47  75 110 153 203 250 321 381 456
#     4  12  25  44  73 114 149 198 260 314 381 454
#     4  11  25  45  74 108 150 200 252 314 380 460
#
# _framework density 27.873669
#
# number of rings (size 3 to 8) (size 9 to 14) (size 15 to 20)
#    0.000    0.500    3.750    4.500    3.500    3.000 
#    2.250    3.125    0.000    0.000    0.000    0.000 
#    0.000    0.000    0.000    0.000    0.000    0.000 
#
# Total GULP energy -89570.978753 kJ/mol
# GULP energy per Si atom -5598.186172 kJ/mol
# Density = 2.781023 g / cm^3
# Si number density = 27.873669 Si / 1000 Ang^3
#
#
#
# Elastic Constant Matrix: (Units=GPa)
#
#
# Indices 1 2 3 4 5 6 
#
# 1 195.9441 84.7924 73.3537 7.6172 -13.2834 -1.8332
# 2 84.7924 265.4137 68.4138 -40.0993 -27.8195 5.3024
# 3 73.3537 68.4138 184.9891 -22.2550 -20.4444 -4.2498
# 4 7.6172 -40.0993 -22.2550 57.3110 -6.5954 -45.5679
# 5 -13.2834 -27.8195 -20.4444 -6.5954 54.2399 6.7994
# 6 -1.8332 5.3024 -4.2498 -45.5679 6.7994 54.1851
#
#
#
# Elastic Compliance Matrix: (Units=1/GPa)
#
#
# Indices 1 2 3 4 5 6 
#
# 1 0.009102 -0.004266 -0.004672 -0.017371 -0.002079 -0.013988
# 2 -0.004266 0.007540 0.001859 0.018229 0.003973 0.014095
# 3 -0.004672 0.001859 0.009502 0.018078 0.003690 0.015145
# 4 -0.017371 0.018229 0.018078 0.117672 0.014155 0.096228
# 5 -0.002079 0.003973 0.003690 0.014155 0.021952 0.008980
# 6 -0.013988 0.014095 0.015145 0.096228 0.008980 0.097589
#
#
# Mechanical properties :
#
#
# Convention : Reuss Voigt Hill
#
# Bulk Modulus (GPa) = 83.43882 122.16296 102.80089
# Shear Modulus (GPa) = 17.76129 61.13300 39.44715
#
# Velocity S-wave (km/s) = 2.52703 4.68826 3.76601
# Velocity P-wave (km/s) = 6.20598 8.55739 7.47473
#
# Compressibility (1/GPa) = 0.01198483
#
# Stress axis : x y z
#
# Youngs Moduli (GPa) = 109.86180 132.61848 105.24584
#
# Poissons Ratio (x) = 0.56580 0.49175
# Poissons Ratio (y) = 0.46871 -0.19565
# Poissons Ratio (z) = 0.51332 -0.24654
#
# Static dielectric constant tensor:
#      x y z
#    x 2.053140 -0.104080 -0.019020 
#    y -0.104080 2.379590 -0.016390 
#    z -0.019020 -0.016390 2.119480 
# 
# From -- ./inp_files/93932.got.cif
#   From: 2010.05.17/outbox.cif.g08.bks.cpg/sg2_47_cif.got.tgz:93932.got - 2010.06.03 11:33:40.
