data_PCOD9065150
_publ_section_title
;
Structure prediction by ZEFSAII (Michael W. Deem and Ramdas Pophale) SiO2 
 PCOD9065150
Probable space group: P -1
;
_chemical_formula_sum "Si O2"
_cell_formula_units_Z 9
_cell_length_a 11.983043
_cell_length_b 11.464802
_cell_length_c 9.341851
_cell_angle_alpha 139.601711
_cell_angle_beta 33.294205
_cell_angle_gamma 148.753483
_cell_volume 360.446633
_symmetry_space_group_name_H-M "P -1"
_symmetry_group_IT_number 2
_symmetry_cell_setting 'triclinic'
loop_
_space_group_symop_operation_xyz
x,y,z
-x,-y,-z
loop_
_atom_site_type_symbol
_atom_site_label
_atom_site_fract_x
_atom_site_fract_y
_atom_site_fract_z
Si Si1 0.597689 0.233489 0.309282
Si Si2 0.500000 0.000000 0.500000
Si Si3 0.927508 0.752833 0.818243
Si Si4 0.560861 0.588389 0.786100
Si Si5 0.770367 0.011382 0.780679
O O1 0.543522 0.149739 0.451346
O O2 0.608115 0.453814 0.497366
O O3 0.366462 0.045127 0.277746
O O4 0.825938 0.232574 0.001717
O O5 0.803864 0.203012 0.414063
O O6 0.776788 0.673800 0.756080
O O7 0.716693 0.581296 0.001642
O O8 0.000000 0.000000 0.000000
O O9 0.592220 0.802776 0.887680
O O10 0.000000 0.000000 0.500000
#
# Coordination Sequence:
#
# PCOD9065150 Si02
#       5
#     2   1   2   2   2
#     4  11  26  46  73 113 145 197 254 302 375 448
#     4  12  24  46  76 108 150 190 244 320 362 438
#     4  11  24  47  72 116 156 187 251 316 372 447
#     4  11  25  49  79 108 151 207 244 307 386 441
#     4  11  26  50  74 107 156 197 250 316 365 449
#
# _framework density 24.969021999999999
#
# number of rings (size 3 to 8) (size 9 to 14) (size 15 to 20)
#    0.000    0.889    2.222    3.333    6.222    1.778 
#    8.000    0.000    0.000    0.000    0.000    0.000 
#    0.000    0.000    0.000    0.000    0.000    0.000 
#
# Total GULP energy -50140.924093 kJ/mol
# GULP energy per Si atom -5571.213788 kJ/mol
# Density = 2.491219 g / cm^3
# Si number density = 24.969022 Si / 1000 Ang^3
#
#
#
# Elastic Constant Matrix: (Units=GPa)
#
#
# Indices 1 2 3 4 5 6 
#
# 1 135.1291 31.5428 12.3243 -16.9569 -13.7392 -4.6923
# 2 31.5428 105.8822 38.5557 -6.8420 -2.8245 -1.9914
# 3 12.3243 38.5557 97.4970 17.2242 -20.4286 8.5331
# 4 -16.9569 -6.8420 17.2242 55.5063 4.9672 -6.3525
# 5 -13.7392 -2.8245 -20.4286 4.9672 20.3076 -4.5290
# 6 -4.6923 -1.9914 8.5331 -6.3525 -4.5290 42.6357
#
#
#
# Elastic Compliance Matrix: (Units=1/GPa)
#
#
# Indices 1 2 3 4 5 6 
#
# 1 0.008863 -0.002616 0.000795 0.001755 0.006367 0.001632
# 2 -0.002616 0.012944 -0.007274 0.003935 -0.007910 0.001519
# 3 0.000795 -0.007274 0.019081 -0.008747 0.020139 -0.003235
# 4 0.001755 0.003935 -0.008747 0.023305 -0.011795 0.004347
# 5 0.006367 -0.007910 0.020139 -0.011795 0.076182 0.002636
# 6 0.001632 0.001519 -0.003235 0.004347 0.002636 0.025280
#
#
# Mechanical properties :
#
#
# Convention : Reuss Voigt Hill
#
# Bulk Modulus (GPa) = 44.05490 55.92820 49.99155
# Shear Modulus (GPa) = 26.12203 40.76229 33.44216
#
# Velocity S-wave (km/s) = 3.23798 4.04482 3.66368
# Velocity P-wave (km/s) = 5.62685 6.65295 6.16130
#
# Compressibility (1/GPa) = 0.02269895
#
# Stress axis : x y z
#
# Youngs Moduli (GPa) = 112.83240 77.25440 52.40878
#
# Poissons Ratio (x) = 0.20209 -0.04168
# Poissons Ratio (y) = 0.29516 0.38121
# Poissons Ratio (z) = -0.08974 0.56193
#
# Static dielectric constant tensor:
#      x y z
#    x 1.984390 0.013350 -0.051250 
#    y 0.013350 1.983910 0.011240 
#    z -0.051250 0.011240 2.137150 
# 
# From -- ./inp_files/1344.got.cif
#   From: 2010.05.17/outbox.cif.g08.bks.cpg/sg2_1_cif.got.tgz:1344.got - 2010.06.03 11:33:40.
