data_PCOD9065027
_publ_section_title
;
Structure prediction by ZEFSAII (Michael W. Deem and Ramdas Pophale) SiO2 
 PCOD9065027
Probable space group: P -1
;
_chemical_formula_sum "Si O2"
_cell_formula_units_Z 16
_cell_length_a 11.482865
_cell_length_b 13.110559
_cell_length_c 14.706739
_cell_angle_alpha 45.143618
_cell_angle_beta 151.701973
_cell_angle_gamma 123.401916
_cell_volume 727.456870
_symmetry_space_group_name_H-M "P -1"
_symmetry_group_IT_number 2
_symmetry_cell_setting 'triclinic'
loop_
_space_group_symop_operation_xyz
x,y,z
-x,-y,-z
loop_
_atom_site_type_symbol
_atom_site_label
_atom_site_fract_x
_atom_site_fract_y
_atom_site_fract_z
Si Si1 0.612171 0.780967 0.544877
Si Si2 0.793193 0.632854 0.074635
Si Si3 0.003805 0.064158 0.231595
Si Si4 0.466885 0.209979 0.727763
Si Si5 0.210373 0.036729 0.188348
Si Si6 0.056223 0.863601 0.555536
Si Si7 0.381022 0.501355 0.580861
Si Si8 0.503250 0.407241 0.925807
O O1 0.896235 0.796289 0.747608
O O2 0.540094 0.815845 0.368541
O O3 0.542514 0.626790 0.614677
O O4 0.449517 0.906742 0.417374
O O5 0.636514 0.540727 0.962844
O O6 0.092726 0.572134 0.312671
O O7 0.739697 0.803582 0.902669
O O8 0.703509 0.608840 0.130714
O O9 0.100080 0.038116 0.212175
O O10 0.113195 0.927675 0.457463
O O11 0.702939 0.099250 0.002336
O O12 0.491203 0.374683 0.664504
O O13 0.198408 0.195646 0.590475
O O14 0.000000 0.000000 0.000000
O O15 0.280654 0.739512 0.824810
O O16 0.000000 0.000000 0.500000
O O17 0.395553 0.431810 0.735327
#
# Coordination Sequence:
#
# PCOD9065027 Si02
#       8
#     2   2   2   2   2   2   2   2
#     4  12  26  47  71 106 143 182 234 291 348 419
#     4  11  24  47  69 102 144 181 232 293 348 414
#     4  12  26  45  75 103 140 187 231 289 358 405
#     4  12  26  46  70 106 140 187 232 287 353 415
#     4  12  24  46  74 105 138 180 236 291 347 415
#     4  12  25  48  72 102 146 182 236 287 340 421
#     4  12  25  44  72 102 141 186 235 284 353 414
#     4  11  26  46  71 102 140 188 234 289 344 417
#
# _framework density 21.994430999999999
#
# number of rings (size 3 to 8) (size 9 to 14) (size 15 to 20)
#    0.000    0.250    5.000    3.750    0.000    3.500 
#    0.000    0.000    0.000    0.000    0.000    0.000 
#    0.000    0.000    0.000    0.000    0.000    0.000 
#
# Total GULP energy -89632.856591 kJ/mol
# GULP energy per Si atom -5602.053537 kJ/mol
# Density = 2.194437 g / cm^3
# Si number density = 21.994431 Si / 1000 Ang^3
#
#
#
# Elastic Constant Matrix: (Units=GPa)
#
#
# Indices 1 2 3 4 5 6 
#
# 1 46.2095 13.8929 4.9991 1.5443 -12.8440 11.5357
# 2 13.8929 89.0725 14.8384 -22.5821 -9.0458 -0.3174
# 3 4.9991 14.8384 58.0188 4.4363 -0.1009 -4.3730
# 4 1.5443 -22.5821 4.4363 28.9290 0.6462 -3.7931
# 5 -12.8440 -9.0458 -0.1009 0.6462 29.8904 -0.5919
# 6 11.5357 -0.3174 -4.3730 -3.7931 -0.5919 31.8258
#
#
#
# Elastic Compliance Matrix: (Units=1/GPa)
#
#
# Indices 1 2 3 4 5 6 
#
# 1 0.029542 -0.005048 -0.001571 -0.007046 0.011084 -0.011608
# 2 -0.005048 0.016726 -0.004704 0.014397 0.002627 0.003115
# 3 -0.001571 -0.004704 0.019224 -0.006181 -0.001853 0.002393
# 4 -0.007046 0.014397 -0.006181 0.048116 0.000418 0.007591
# 5 0.011084 0.002627 -0.001853 0.000418 0.038929 -0.003472
# 6 -0.011608 0.003115 0.002393 0.007591 -0.003472 0.036828
#
#
# Mechanical properties :
#
#
# Convention : Reuss Voigt Hill
#
# Bulk Modulus (GPa) = 23.34002 28.97352 26.15677
# Shear Modulus (GPa) = 22.09512 28.76706 25.43109
#
# Velocity S-wave (km/s) = 3.17295 3.62045 3.40406
# Velocity P-wave (km/s) = 4.90492 5.53882 5.23148
#
# Compressibility (1/GPa) = 0.04284486
#
# Stress axis : x y z
#
# Youngs Moduli (GPa) = 33.84975 59.78825 52.01821
#
# Poissons Ratio (x) = 0.30182 0.08173
# Poissons Ratio (y) = 0.17088 0.24470
# Poissons Ratio (z) = 0.05319 0.28125
#
# Static dielectric constant tensor:
#      x y z
#    x 1.800000 0.023910 0.027080 
#    y 0.023910 1.810610 0.016540 
#    z 0.027080 0.016540 1.788750 
# 
# From -- ./inp_files/518797.got.cif
#   From: 2010.05.17/outbox.cif.g08.bks.cpg/sg2_260_cif.got.tgz:518797.got - 2010.06.03 11:33:40.
