data_PCOD9065201
_publ_section_title
;
Structure prediction by ZEFSAII (Michael W. Deem and Ramdas Pophale) SiO2 
 PCOD9065201
Probable space group: P -1
;
_chemical_formula_sum "Si O2"
_cell_formula_units_Z 12
_cell_length_a 30.319029
_cell_length_b 24.292158
_cell_length_c 5.180522
_cell_angle_alpha 126.854229
_cell_angle_beta 126.819222
_cell_angle_gamma 10.799005
_cell_volume 570.724452
_symmetry_space_group_name_H-M "P -1"
_symmetry_group_IT_number 2
_symmetry_cell_setting 'triclinic'
loop_
_space_group_symop_operation_xyz
x,y,z
-x,-y,-z
loop_
_atom_site_type_symbol
_atom_site_label
_atom_site_fract_x
_atom_site_fract_y
_atom_site_fract_z
Si Si1 0.747928 0.297574 0.312997
Si Si2 0.944676 0.614142 0.880369
Si Si3 0.363741 0.194861 0.316962
Si Si4 0.411565 0.297433 0.835069
Si Si5 0.667949 0.257498 0.609868
Si Si6 0.807379 0.369602 0.491677
O O1 0.500433 0.597725 0.452383
O O2 0.764213 0.339693 0.282177
O O3 0.738702 0.231124 0.987263
O O4 0.000000 0.000000 0.500000
O O5 0.000000 0.500000 0.500000
O O6 0.685730 0.958350 0.909017
O O7 0.000000 0.500000 0.000000
O O8 0.107210 0.480224 0.147631
O O9 0.347580 0.295563 0.568735
O O10 0.500000 0.000000 0.500000
O O11 0.500000 0.000000 0.000000
O O12 0.349817 0.411714 0.678327
O O13 0.275303 0.498063 0.156145
O O14 0.500000 0.500000 0.500000
O O15 0.922140 0.934591 0.465478
#
# Coordination Sequence:
#
# PCOD9065201 Si02
#       6
#     2   2   2   2   2   2
#     4  11  24  47  74 106 140 197 247 295 351 439
#     4  12  23  45  75 101 132 188 242 283 353 440
#     4  12  23  45  75 101 137 186 241 294 346 433
#     4  12  27  45  69 111 151 183 236 309 370 417
#     4  11  25  45  78 103 138 195 257 282 355 448
#     4  12  27  47  71 108 158 184 236 314 370 417
#
# _framework density 21.025908000000001
#
# number of rings (size 3 to 8) (size 9 to 14) (size 15 to 20)
#    0.000    0.333    5.000    3.500    4.667    1.333 
#    0.000    0.000    0.000    0.000    0.000    0.000 
#    0.000    0.000    0.000    0.000    0.000    0.000 
#
# Total GULP energy -66992.306492 kJ/mol
# GULP energy per Si atom -5582.692208 kJ/mol
# Density = 2.097805 g / cm^3
# Si number density = 21.025908 Si / 1000 Ang^3
#
#
#
# Elastic Constant Matrix: (Units=GPa)
#
#
# Indices 1 2 3 4 5 6 
#
# 1 132.8082 33.7466 24.7687 -24.7798 7.3174 10.7939
# 2 33.7466 74.3317 2.9790 -46.2924 38.5206 -9.2133
# 3 24.7687 2.9790 100.1920 -25.2262 5.7330 -4.8142
# 4 -24.7798 -46.2924 -25.2262 47.7518 -3.7760 2.9353
# 5 7.3174 38.5206 5.7330 -3.7760 32.4148 -13.6501
# 6 10.7939 -9.2133 -4.8142 2.9353 -13.6501 45.6051
#
#
#
# Elastic Compliance Matrix: (Units=1/GPa)
#
#
# Indices 1 2 3 4 5 6 
#
# 1 0.008832 0.002189 -0.000556 0.006218 -0.005332 -0.003703
# 2 0.002189 -0.056878 -0.016883 -0.058203 0.067593 0.010186
# 3 -0.000556 -0.016883 0.006732 -0.011817 0.019291 0.003966
# 4 0.006218 -0.058203 -0.011817 -0.033523 0.069523 0.008489
# 5 -0.005332 0.067593 0.019291 0.069523 -0.043857 -0.000648
# 6 -0.003703 0.010186 0.003966 0.008489 -0.000648 0.024540
#
#
# Mechanical properties :
#
#
# Convention : Reuss Voigt Hill
#
# Bulk Modulus (GPa) = -13.92520 47.81338 16.94409
# Shear Modulus (GPa) = -57.08135 41.54353 -7.76891
#
# Velocity S-wave (km/s) = -5.21604 4.44985 -1.92430
# Velocity P-wave (km/s) = 6.55082 7.01364 1.77170
#
# Compressibility (1/GPa) = -0.07181223
#
# Stress axis : x y z
#
# Youngs Moduli (GPa) = 113.22606 -17.58152 148.55307
#
# Poissons Ratio (x) = 0.03849 0.08255
# Poissons Ratio (y) = -0.24790 2.50797
# Poissons Ratio (z) = 0.06292 -0.29682
#
# Static dielectric constant tensor:
#      x y z
#    x 1.736700 -0.050760 -0.054380 
#    y -0.050760 1.664890 0.041330 
#    z -0.054380 0.041330 1.732830 
# 
# From -- ./inp_files/128832.got.cif
#   From: 2010.05.17/outbox.cif.g08.bks.cpg/sg2_65_cif.got.tgz:128832.got - 2010.06.03 11:33:40.
