data_PCOD9065714
_publ_section_title
;
Structure prediction by ZEFSAII (Michael W. Deem and Ramdas Pophale) SiO2 
 PCOD9065714
Probable space group: P -1
;
_chemical_formula_sum "Si O2"
_cell_formula_units_Z 12
_cell_length_a 4.827993
_cell_length_b 8.722103
_cell_length_c 11.995830
_cell_angle_alpha 73.425783
_cell_angle_beta 80.507034
_cell_angle_gamma 71.110009
_cell_volume 456.613868
_symmetry_space_group_name_H-M "P -1"
_symmetry_group_IT_number 2
_symmetry_cell_setting 'triclinic'
loop_
_space_group_symop_operation_xyz
x,y,z
-x,-y,-z
loop_
_atom_site_type_symbol
_atom_site_label
_atom_site_fract_x
_atom_site_fract_y
_atom_site_fract_z
Si Si1 0.219882 0.648862 0.055864
Si Si2 0.756204 0.024353 0.686901
Si Si3 0.225542 0.539549 0.597507
Si Si4 0.787585 0.792094 0.423840
Si Si5 0.035975 0.651430 0.814614
Si Si6 0.400462 0.164213 0.898614
O O1 0.947246 0.789090 0.098208
O O2 0.156368 0.477210 0.130381
O O3 0.507980 0.689285 0.072753
O O4 0.176992 0.669801 0.921032
O O5 0.556452 0.107852 0.576381
O O6 0.566594 0.125186 0.780039
O O7 0.054237 0.072452 0.648831
O O8 0.828839 0.831057 0.751396
O O9 0.500000 0.500000 0.500000
O O10 0.142002 0.367165 0.631420
O O11 0.954601 0.692899 0.540529
O O12 0.268485 0.583033 0.712840
O O13 0.500000 0.000000 0.000000
#
# Coordination Sequence:
#
# PCOD9065714 Si02
#       6
#     2   2   2   2   2   2
#     4  11  27  49  72 111 148 204 238 301 372 447
#     4  12  25  45  73 114 144 195 238 317 357 439
#     4  11  24  53  75 108 142 203 243 304 370 445
#     4  11  26  48  76 103 146 195 251 291 380 436
#     4  11  27  47  75 111 154 191 249 310 367 435
#     4  12  24  46  75 105 149 194 249 294 373 439
#
# _framework density 26.28041
#
# number of rings (size 3 to 8) (size 9 to 14) (size 15 to 20)
#    0.000    0.667    3.333    3.500    2.333    5.333 
#   12.000    0.000    0.000    0.000    0.000    0.000 
#    0.000    0.000    0.000    0.000    0.000    0.000 
#
# Total GULP energy -67275.531028 kJ/mol
# GULP energy per Si atom -5606.294252 kJ/mol
# Density = 2.622059 g / cm^3
# Si number density = 26.280410 Si / 1000 Ang^3
#
#
#
# Elastic Constant Matrix: (Units=GPa)
#
#
# Indices 1 2 3 4 5 6 
#
# 1 90.7040 13.3710 16.1154 -1.3863 -1.0035 -8.2059
# 2 13.3710 104.3577 62.9579 -21.7194 7.6464 -9.2402
# 3 16.1154 62.9579 141.5297 10.7723 9.6674 -2.2822
# 4 -1.3863 -21.7194 10.7723 75.8179 -13.4964 0.0960
# 5 -1.0035 7.6464 9.6674 -13.4964 29.4313 -0.5374
# 6 -8.2059 -9.2402 -2.2822 0.0960 -0.5374 29.4063
#
#
#
# Elastic Compliance Matrix: (Units=1/GPa)
#
#
# Indices 1 2 3 4 5 6 
#
# 1 0.011597 -0.000520 -0.001153 0.000430 0.001161 0.003003
# 2 -0.000520 0.015501 -0.007267 0.005637 0.001003 0.004162
# 3 -0.001153 -0.007267 0.010989 -0.004335 -0.003782 -0.001807
# 4 0.000430 0.005637 -0.004335 0.016798 0.007707 0.001641
# 5 0.001161 0.001003 -0.003782 0.007707 0.038552 0.001025
# 6 0.003003 0.004162 -0.001807 0.001641 0.001025 0.036025
#
#
# Mechanical properties :
#
#
# Convention : Reuss Voigt Hill
#
# Bulk Modulus (GPa) = 49.48573 57.94220 53.71396
# Shear Modulus (GPa) = 32.45124 43.20756 37.82940
#
# Velocity S-wave (km/s) = 3.51779 4.05915 3.79813
# Velocity P-wave (km/s) = 5.94732 6.63810 6.30218
#
# Compressibility (1/GPa) = 0.02020784
#
# Stress axis : x y z
#
# Youngs Moduli (GPa) = 86.22560 64.51127 91.00396
#
# Poissons Ratio (x) = 0.03356 0.10490
# Poissons Ratio (y) = 0.04486 0.66130
# Poissons Ratio (z) = 0.09939 0.46878
#
# Static dielectric constant tensor:
#      x y z
#    x 2.010950 -0.002230 0.036020 
#    y -0.002230 2.048440 0.036320 
#    z 0.036020 0.036320 2.066350 
# 
# From -- ./inp_files/360090.got.cif
#   From: 2010.05.17/outbox.cif.g08.bks.cpg/sg2_181_cif.got.tgz:360090.got - 2010.06.03 11:33:40.
