data_PCOD9065007
_publ_section_title
;
Structure prediction by ZEFSAII (Michael W. Deem and Ramdas Pophale) SiO2 
 PCOD9065007
Probable space group: P -1
;
_chemical_formula_sum "Si O2"
_cell_formula_units_Z 12
_cell_length_a 11.168889
_cell_length_b 7.123795
_cell_length_c 9.319243
_cell_angle_alpha 52.249079
_cell_angle_beta 109.231806
_cell_angle_gamma 100.645144
_cell_volume 553.416263
_symmetry_space_group_name_H-M "P -1"
_symmetry_group_IT_number 2
_symmetry_cell_setting 'triclinic'
loop_
_space_group_symop_operation_xyz
x,y,z
-x,-y,-z
loop_
_atom_site_type_symbol
_atom_site_label
_atom_site_fract_x
_atom_site_fract_y
_atom_site_fract_z
Si Si1 0.850406 0.246513 0.301806
Si Si2 0.867473 0.710868 0.653480
Si Si3 0.327502 0.443218 0.107789
Si Si4 0.466528 0.249243 0.796149
Si Si5 0.777637 0.441980 0.473436
Si Si6 0.576964 0.052179 0.649857
O O1 0.860444 0.376115 0.398814
O O2 0.983405 0.274655 0.259075
O O3 0.829573 0.970827 0.455359
O O4 0.735496 0.366159 0.113228
O O5 0.779433 0.643035 0.782962
O O6 0.847595 0.525134 0.604338
O O7 0.438891 0.561387 0.186948
O O8 0.379903 0.208963 0.156514
O O9 0.324823 0.352187 0.705472
O O10 0.495825 0.200249 0.663534
O O11 0.500000 0.000000 0.000000
O O12 0.696760 0.210351 0.586507
O O13 0.500000 0.000000 0.500000
#
# Coordination Sequence:
#
# PCOD9065007 Si02
#       6
#     2   2   2   2   2   2
#     4  11  26  43  70  97 127 179 221 266 322 388
#     4  11  24  47  67  94 134 173 221 271 322 377
#     4  12  24  44  68  98 135 168 219 269 327 390
#     4  12  26  40  66 100 130 169 216 272 327 391
#     4  12  23  43  67  95 134 170 218 267 328 387
#     4  12  24  41  66  98 132 176 209 263 337 388
#
# _framework density 21.683495000000001
#
# number of rings (size 3 to 8) (size 9 to 14) (size 15 to 20)
#    0.000    0.333    5.000    4.500    2.333    1.333 
#    0.000    0.833    0.000    0.000    0.000    0.000 
#    0.000    0.000    0.000    0.000    0.000    0.000 
#
# Total GULP energy -67220.034490 kJ/mol
# GULP energy per Si atom -5601.669541 kJ/mol
# Density = 2.163414 g / cm^3
# Si number density = 21.683495 Si / 1000 Ang^3
#
#
#
# Elastic Constant Matrix: (Units=GPa)
#
#
# Indices 1 2 3 4 5 6 
#
# 1 44.8662 5.7564 -20.3867 -7.8172 -8.8219 -4.3120
# 2 5.7564 111.4783 11.1998 -4.2934 0.7616 -5.0586
# 3 -20.3867 11.1998 49.5647 -10.4744 13.9586 3.3917
# 4 -7.8172 -4.2934 -10.4744 38.6047 -5.6671 0.5668
# 5 -8.8219 0.7616 13.9586 -5.6671 30.5363 3.5277
# 6 -4.3120 -5.0586 3.3917 0.5668 3.5277 22.6943
#
#
#
# Elastic Compliance Matrix: (Units=1/GPa)
#
#
# Indices 1 2 3 4 5 6 
#
# 1 0.032345 -0.002660 0.014806 0.010880 0.004386 0.002386
# 2 -0.002660 0.009544 -0.003572 -0.000433 0.000301 0.002120
# 3 0.014806 -0.003572 0.031560 0.010014 -0.008005 -0.001706
# 4 0.010880 -0.000433 0.010014 0.031456 0.004532 -0.001016
# 5 0.004386 0.000301 -0.008005 0.004532 0.038978 -0.004075
# 6 0.002386 0.002120 -0.001706 -0.001016 -0.004075 0.045904
#
#
# Mechanical properties :
#
#
# Convention : Reuss Voigt Hill
#
# Bulk Modulus (GPa) = 11.03814 22.11646 16.57730
# Shear Modulus (GPa) = 24.65014 32.32304 28.48659
#
# Velocity S-wave (km/s) = 3.37533 3.86511 3.62849
# Velocity P-wave (km/s) = 4.50467 5.49005 5.02159
#
# Compressibility (1/GPa) = 0.09059498
#
# Stress axis : x y z
#
# Youngs Moduli (GPa) = 30.91684 104.77722 31.68583
#
# Poissons Ratio (x) = 0.27874 -0.46913
# Poissons Ratio (y) = 0.08225 0.11319
# Poissons Ratio (z) = -0.45775 0.37429
#
# Static dielectric constant tensor:
#      x y z
#    x 1.785820 -0.016190 -0.008730 
#    y -0.016190 1.758070 -0.012040 
#    z -0.008730 -0.012040 1.793920 
# 
# From -- ./inp_files/20138.got.cif
#   From: 2010.05.17/outbox.cif.g08.bks.cpg/sg2_11_cif.got.tgz:20138.got - 2010.06.03 11:33:40.
