data_PCOD9065836
_publ_section_title
;
Structure prediction by ZEFSAII (Michael W. Deem and Ramdas Pophale) SiO2 
 PCOD9065836
Probable space group: P -1
;
_chemical_formula_sum "Si O2"
_cell_formula_units_Z 16
_cell_length_a 12.002520
_cell_length_b 11.392102
_cell_length_c 5.832992
_cell_angle_alpha 70.886468
_cell_angle_beta 94.233448
_cell_angle_gamma 111.482545
_cell_volume 700.281792
_symmetry_space_group_name_H-M "P -1"
_symmetry_group_IT_number 2
_symmetry_cell_setting 'triclinic'
loop_
_space_group_symop_operation_xyz
x,y,z
-x,-y,-z
loop_
_atom_site_type_symbol
_atom_site_label
_atom_site_fract_x
_atom_site_fract_y
_atom_site_fract_z
Si Si1 0.501742 0.883550 0.904213
Si Si2 0.593654 0.720435 0.370355
Si Si3 0.956959 0.034215 0.723669
Si Si4 0.773476 0.214719 0.124458
Si Si5 0.283637 0.048350 0.435745
Si Si6 0.065838 0.708537 0.293384
Si Si7 0.408623 0.517824 0.779029
Si Si8 0.850119 0.468346 0.235667
O O1 0.364417 0.801398 0.880838
O O2 0.590832 0.937562 0.670855
O O3 0.552114 0.789556 0.113917
O O4 0.500000 0.000000 0.000000
O O5 0.693905 0.835042 0.450797
O O6 0.485311 0.653724 0.574157
O O7 0.621039 0.599750 0.338744
O O8 0.979775 0.192551 0.630204
O O9 0.814883 0.947251 0.759708
O O10 0.000000 0.000000 0.500000
O O11 0.000000 0.000000 0.000000
O O12 0.852786 0.366616 0.101586
O O13 0.772851 0.096230 0.364681
O O14 0.826591 0.193466 0.906015
O O15 0.127136 0.616857 0.492094
O O16 0.952715 0.611679 0.194410
O O17 0.279096 0.519312 0.822929
O O18 0.500000 0.500000 0.000000
#
# Coordination Sequence:
#
# PCOD9065836 Si02
#       8
#     2   2   2   2   2   2   2   2
#     4  12  25  40  74 110 150 192 244 317 390 463
#     4  11  25  43  70 106 153 191 255 302 389 460
#     4  12  29  50  79 110 156 204 259 329 391 462
#     4  12  23  44  73 110 154 194 251 317 382 460
#     4  12  26  44  72 109 150 193 255 313 384 469
#     4  11  26  48  72 111 146 200 263 313 384 464
#     4  11  25  47  71 107 151 203 248 315 378 471
#     4  11  25  45  76  99 152 195 260 314 386 454
#
# _framework density 22.847943000000001
#
# number of rings (size 3 to 8) (size 9 to 14) (size 15 to 20)
#    0.000    0.500    2.500    5.250    5.250    2.000 
#    0.000    0.000    0.000    0.000    0.000    0.000 
#    0.000    0.000    0.000    0.000    0.000    0.000 
#
# Total GULP energy -89365.335034 kJ/mol
# GULP energy per Si atom -5585.333440 kJ/mol
# Density = 2.279594 g / cm^3
# Si number density = 22.847943 Si / 1000 Ang^3
#
#
#
# Elastic Constant Matrix: (Units=GPa)
#
#
# Indices 1 2 3 4 5 6 
#
# 1 123.6483 50.4949 48.9983 13.4376 4.2995 11.4008
# 2 50.4949 142.1944 14.7885 27.2253 -3.0323 -2.3212
# 3 48.9983 14.7885 77.2676 5.0139 -7.6395 2.7268
# 4 13.4376 27.2253 5.0139 38.2336 1.6304 6.2353
# 5 4.2995 -3.0323 -7.6395 1.6304 42.8256 14.3136
# 6 11.4008 -2.3212 2.7268 6.2353 14.3136 25.4421
#
#
#
# Elastic Compliance Matrix: (Units=1/GPa)
#
#
# Indices 1 2 3 4 5 6 
#
# 1 0.013210 -0.004016 -0.007583 0.000037 -0.001395 -0.004698
# 2 -0.004016 0.009617 0.000984 -0.006226 0.000157 0.004009
# 3 -0.007583 0.000984 0.018047 -0.000462 0.004324 -0.000766
# 4 0.000037 -0.006226 -0.000462 0.032069 0.001303 -0.009128
# 5 -0.001395 0.000157 0.004324 0.001303 0.029892 -0.016961
# 6 -0.004698 0.004009 -0.000766 -0.009128 -0.016961 0.053637
#
#
# Mechanical properties :
#
#
# Convention : Reuss Voigt Hill
#
# Bulk Modulus (GPa) = 50.90461 63.51931 57.21196
# Shear Modulus (GPa) = 27.13707 36.55550 31.84628
#
# Velocity S-wave (km/s) = 3.45008 4.00427 3.73746
# Velocity P-wave (km/s) = 6.18052 7.01713 6.61207
#
# Compressibility (1/GPa) = 0.01964459
#
# Stress axis : x y z
#
# Youngs Moduli (GPa) = 75.70086 103.97928 55.41167
#
# Poissons Ratio (x) = 0.41756 0.42017
# Poissons Ratio (y) = 0.30400 -0.05452
# Poissons Ratio (z) = 0.57402 -0.10231
#
# Static dielectric constant tensor:
#      x y z
#    x 1.877960 -0.008630 0.020410 
#    y -0.008630 1.841240 0.033930 
#    z 0.020410 0.033930 1.884060 
# 
# From -- ./inp_files/69909.got.cif
#   From: 2010.05.17/outbox.cif.g08.bks.cpg/sg2_35_cif.got.tgz:69909.got - 2010.06.03 11:33:40.
