data_PCOD9065031
_publ_section_title
;
Structure prediction by ZEFSAII (Michael W. Deem and Ramdas Pophale) SiO2 
 PCOD9065031
Probable space group: P -1
;
_chemical_formula_sum "Si O2"
_cell_formula_units_Z 14
_cell_length_a 11.309461
_cell_length_b 8.673359
_cell_length_c 16.641557
_cell_angle_alpha 143.822062
_cell_angle_beta 142.971553
_cell_angle_gamma 41.994527
_cell_volume 557.421435
_symmetry_space_group_name_H-M "P -1"
_symmetry_group_IT_number 2
_symmetry_cell_setting 'triclinic'
loop_
_space_group_symop_operation_xyz
x,y,z
-x,-y,-z
loop_
_atom_site_type_symbol
_atom_site_label
_atom_site_fract_x
_atom_site_fract_y
_atom_site_fract_z
Si Si1 0.657357 0.744192 0.208718
Si Si2 0.762300 0.095859 0.885002
Si Si3 0.891419 0.496275 0.672580
Si Si4 0.008515 0.859724 0.109166
Si Si5 0.171265 0.573938 0.678553
Si Si6 0.331146 0.726618 0.668909
Si Si7 0.778351 0.444523 0.755681
O O1 0.416437 0.758925 0.090818
O O2 0.708293 0.677931 0.305094
O O3 0.866700 0.545265 0.201818
O O4 0.651276 0.007601 0.259555
O O5 0.786917 0.241630 0.876403
O O6 0.740075 0.799275 0.724134
O O7 0.000000 0.000000 0.000000
O O8 0.849510 0.357087 0.510511
O O9 0.823884 0.348884 0.649662
O O10 0.070182 0.758329 0.188843
O O11 0.930307 0.182140 0.212141
O O12 0.842966 0.723472 0.924995
O O13 0.296160 0.706755 0.737332
O O14 0.000000 0.500000 0.500000
O O15 0.543579 0.501487 0.672305
#
# Coordination Sequence:
#
# PCOD9065031 Si02
#       7
#     2   2   2   2   2   2   2
#     4  12  26  44  76 106 142 196 234 300 371 417
#     4  12  24  47  68 105 147 184 244 294 359 439
#     4  12  24  46  72 102 144 188 240 301 357 430
#     4  11  24  47  69 103 154 183 246 304 354 441
#     4  12  26  46  72 108 150 190 244 300 360 435
#     4  12  25  47  71 107 147 188 249 299 360 435
#     4  11  25  45  74 104 143 200 236 303 370 418
#
# _framework density 25.115645000000001
#
# number of rings (size 3 to 8) (size 9 to 14) (size 15 to 20)
#    0.000    0.286    5.714    2.571    2.000    1.143 
#    2.571    2.857    0.000    0.000    0.000    0.000 
#    0.000    0.000    0.000    0.000    0.000    0.000 
#
# Total GULP energy -78070.243503 kJ/mol
# GULP energy per Si atom -5576.445964 kJ/mol
# Density = 2.505848 g / cm^3
# Si number density = 25.115645 Si / 1000 Ang^3
#
#
#
# Elastic Constant Matrix: (Units=GPa)
#
#
# Indices 1 2 3 4 5 6 
#
# 1 171.5072 33.9330 5.4316 -3.6700 -2.3799 -4.1145
# 2 33.9330 91.6775 16.9215 -13.9310 0.1002 1.5464
# 3 5.4316 16.9215 27.7168 -9.6211 8.5418 -6.9842
# 4 -3.6700 -13.9310 -9.6211 27.5740 -0.4892 -7.5203
# 5 -2.3799 0.1002 8.5418 -0.4892 43.1564 -13.8492
# 6 -4.1145 1.5464 -6.9842 -7.5203 -13.8492 64.0933
#
#
#
# Elastic Compliance Matrix: (Units=1/GPa)
#
#
# Indices 1 2 3 4 5 6 
#
# 1 0.006318 -0.002402 0.000166 -0.000150 0.000503 0.000573
# 2 -0.002402 0.013705 -0.006960 0.004050 0.001088 -0.000533
# 3 0.000166 -0.006960 0.049367 0.015136 -0.007758 0.005658
# 4 -0.000150 0.004050 0.015136 0.045423 -0.000315 0.006804
# 5 0.000503 0.001088 -0.007758 -0.000315 0.026269 0.004800
# 6 0.000573 -0.000533 0.005658 0.006804 0.004800 0.018104
#
#
# Mechanical properties :
#
#
# Convention : Reuss Voigt Hill
#
# Bulk Modulus (GPa) = 19.60927 44.83042 32.21985
# Shear Modulus (GPa) = 25.69666 42.60578 34.15122
#
# Velocity S-wave (km/s) = 3.20212 4.12319 3.69149
# Velocity P-wave (km/s) = 4.63637 6.36835 5.57009
#
# Compressibility (1/GPa) = 0.05099628
#
# Stress axis : x y z
#
# Youngs Moduli (GPa) = 158.27291 72.96736 20.25657
#
# Poissons Ratio (x) = 0.17528 -0.00335
# Poissons Ratio (y) = 0.38019 0.14099
# Poissons Ratio (z) = -0.02621 0.50787
#
# Static dielectric constant tensor:
#      x y z
#    x 2.062240 0.090590 0.000470 
#    y 0.090590 1.992650 0.052120 
#    z 0.000470 0.052120 2.035910 
# 
# From -- ./inp_files/566295.got.cif
#   From: 2010.05.17/outbox.cif.g08.bks.cpg/sg2_284_cif.got.tgz:566295.got - 2010.06.03 11:33:40.
