data_PCOD9065355
_publ_section_title
;
Structure prediction by ZEFSAII (Michael W. Deem and Ramdas Pophale) SiO2 
 PCOD9065355
Probable space group: P -1
;
_chemical_formula_sum "Si O2"
_cell_formula_units_Z 15
_cell_length_a 11.844386
_cell_length_b 14.810094
_cell_length_c 9.617412
_cell_angle_alpha 55.005947
_cell_angle_beta 122.562386
_cell_angle_gamma 150.832188
_cell_volume 670.600786
_symmetry_space_group_name_H-M "P -1"
_symmetry_group_IT_number 2
_symmetry_cell_setting 'triclinic'
loop_
_space_group_symop_operation_xyz
x,y,z
-x,-y,-z
loop_
_atom_site_type_symbol
_atom_site_label
_atom_site_fract_x
_atom_site_fract_y
_atom_site_fract_z
Si Si1 0.429241 0.289854 0.209262
Si Si2 0.367870 0.824687 0.163932
Si Si3 0.195047 0.817294 0.318045
Si Si4 0.219503 0.289321 0.836998
Si Si5 0.741932 0.725055 0.440610
Si Si6 0.000000 0.500000 0.000000
Si Si7 0.773583 0.961986 0.438973
Si Si8 0.300759 0.730692 0.712002
O O1 0.562495 0.480270 0.203427
O O2 0.284012 0.127898 0.370941
O O3 0.622622 0.338325 0.231197
O O4 0.260824 0.225638 0.037415
O O5 0.189477 0.758206 0.214390
O O6 0.569059 0.906308 0.316647
O O7 0.229473 0.652882 0.120408
O O8 0.500000 0.000000 0.000000
O O9 0.170293 0.712356 0.519944
O O10 0.007459 0.787948 0.229505
O O11 0.452163 0.041832 0.303082
O O12 0.226529 0.243205 0.730327
O O13 0.500000 0.500000 0.500000
O O14 0.755892 0.852581 0.411285
O O15 0.966934 0.814037 0.577436
O O16 0.833692 0.366141 0.146824
#
# Coordination Sequence:
#
# PCOD9065355 Si02
#       8
#     2   2   2   2   2   1   2   2
#     4  11  24  48  70 110 143 192 253 296 367 446
#     4  12  27  49  72 112 149 191 247 316 363 445
#     4  11  25  48  75 105 151 195 243 308 376 438
#     4  11  26  43  75 106 144 192 244 310 361 437
#     4  11  25  47  73 107 147 191 243 307 367 436
#     4  12  28  44  74 110 144 198 250 302 372 440
#     4  11  26  47  77 104 145 200 246 298 375 446
#     4  11  25  46  74 108 146 195 248 305 371 451
#
# _framework density 22.368002000000001
#
# number of rings (size 3 to 8) (size 9 to 14) (size 15 to 20)
#    0.000    0.800    4.000    1.600    5.600    6.400 
#    0.000    0.000    0.000    0.000    0.000    0.000 
#    0.000    0.000    0.000    0.000    0.000    0.000 
#
# Total GULP energy -83712.656637 kJ/mol
# GULP energy per Si atom -5580.843776 kJ/mol
# Density = 2.231709 g / cm^3
# Si number density = 22.368002 Si / 1000 Ang^3
#
#
#
# Elastic Constant Matrix: (Units=GPa)
#
#
# Indices 1 2 3 4 5 6 
#
# 1 113.3158 27.0212 89.9447 -0.3050 -13.3165 21.7228
# 2 27.0212 123.1333 52.7133 17.6074 -6.2477 19.1208
# 3 89.9447 52.7133 182.6804 9.9370 -13.9679 18.2937
# 4 -0.3050 17.6074 9.9370 28.6671 7.1517 -2.8456
# 5 -13.3165 -6.2477 -13.9679 7.1517 44.3169 3.4106
# 6 21.7228 19.1208 18.2937 -2.8456 3.4106 33.9307
#
#
#
# Elastic Compliance Matrix: (Units=1/GPa)
#
#
# Indices 1 2 3 4 5 6 
#
# 1 0.016121 0.000702 -0.007241 0.000782 0.003078 -0.007057
# 2 0.000702 0.011134 -0.002313 -0.007341 0.002726 -0.006367
# 3 -0.007241 -0.002313 0.009870 -0.002282 0.000952 0.000330
# 4 0.000782 -0.007341 -0.002282 0.043438 -0.009256 0.009441
# 5 0.003078 0.002726 0.000952 -0.009256 0.026240 -0.007434
# 6 -0.007057 -0.006367 0.000330 0.009441 -0.007434 0.038938
#
#
# Mechanical properties :
#
#
# Convention : Reuss Voigt Hill
#
# Bulk Modulus (GPa) = 51.48645 84.27643 67.88144
# Shear Modulus (GPa) = 29.42566 38.01296 33.71931
#
# Velocity S-wave (km/s) = 3.63095 4.12689 3.88684
# Velocity P-wave (km/s) = 6.37544 7.77608 7.11033
#
# Compressibility (1/GPa) = 0.01942258
#
# Stress axis : x y z
#
# Youngs Moduli (GPa) = 62.02953 89.81316 101.31300
#
# Poissons Ratio (x) = -0.06306 0.73357
# Poissons Ratio (y) = -0.04355 0.23436
# Poissons Ratio (z) = 0.44913 0.20776
#
# Static dielectric constant tensor:
#      x y z
#    x 1.868840 -0.027430 0.029190 
#    y -0.027430 1.856160 -0.013130 
#    z 0.029190 -0.013130 1.762940 
# 
# From -- ./inp_files/269877.got.cif
#   From: 2010.05.17/outbox.cif.g08.bks.cpg/sg2_135_cif.got.tgz:269877.got - 2010.06.03 11:33:40.
