data_PCOD9065638
_publ_section_title
;
Structure prediction by ZEFSAII (Michael W. Deem and Ramdas Pophale) SiO2 
 PCOD9065638
Probable space group: P -1
;
_chemical_formula_sum "Si O2"
_cell_formula_units_Z 14
_cell_length_a 9.549284
_cell_length_b 7.054333
_cell_length_c 18.018779
_cell_angle_alpha 124.140892
_cell_angle_beta 45.390803
_cell_angle_gamma 125.416022
_cell_volume 678.888464
_symmetry_space_group_name_H-M "P -1"
_symmetry_group_IT_number 2
_symmetry_cell_setting 'triclinic'
loop_
_space_group_symop_operation_xyz
x,y,z
-x,-y,-z
loop_
_atom_site_type_symbol
_atom_site_label
_atom_site_fract_x
_atom_site_fract_y
_atom_site_fract_z
Si Si1 0.530446 0.220724 0.141296
Si Si2 0.263016 0.874509 0.281093
Si Si3 0.931211 0.044602 0.953409
Si Si4 0.516529 0.143139 0.385368
Si Si5 0.278443 0.269242 0.757797
Si Si6 0.366871 0.405734 0.102447
Si Si7 0.199918 0.322787 0.633447
O O1 0.563311 0.466061 0.228965
O O2 0.477527 0.274734 0.089394
O O3 0.350930 0.010962 0.201683
O O4 0.740255 0.150468 0.051872
O O5 0.330352 0.634077 0.205434
O O6 0.015330 0.791121 0.354155
O O7 0.376504 0.046696 0.343453
O O8 0.119090 0.214281 0.873560
O O9 0.845524 0.789260 0.887193
O O10 0.000000 0.000000 0.000000
O O11 0.369907 0.205018 0.514868
O O12 0.699105 0.390606 0.354135
O O13 0.610782 0.935508 0.328750
O O14 0.166754 0.272876 0.722209
O O15 0.500000 0.500000 0.000000
#
# Coordination Sequence:
#
# PCOD9065638 Si02
#       7
#     2   2   2   2   2   2   2
#     4  12  25  44  66 100 141 182 217 281 339 406
#     4  12  24  45  71 100 138 178 229 276 347 404
#     4  12  26  43  69 102 138 183 230 274 338 413
#     4  11  24  50  67 101 137 174 233 287 343 398
#     4  12  24  44  69  98 141 178 225 280 344 402
#     4  12  25  42  66  94 139 181 221 275 335 403
#     4  11  26  43  76  99 131 183 228 288 341 401
#
# _framework density 20.621943999999999
#
# number of rings (size 3 to 8) (size 9 to 14) (size 15 to 20)
#    0.000    0.286    4.286    5.143    4.000    0.000 
#    0.000    0.714    0.000    0.000    0.000    0.000 
#    0.000    0.000    0.000    0.000    0.000    0.000 
#
# Total GULP energy -78387.703503 kJ/mol
# GULP energy per Si atom -5599.121679 kJ/mol
# Density = 2.057501 g / cm^3
# Si number density = 20.621944 Si / 1000 Ang^3
#
#
#
# Elastic Constant Matrix: (Units=GPa)
#
#
# Indices 1 2 3 4 5 6 
#
# 1 90.9515 39.0689 8.3183 -9.2437 1.8582 3.1306
# 2 39.0689 117.5233 32.5986 7.9967 -13.1704 3.3713
# 3 8.3183 32.5986 60.9981 6.4175 -11.0375 -7.1658
# 4 -9.2437 7.9967 6.4175 33.5821 1.3933 8.9896
# 5 1.8582 -13.1704 -11.0375 1.3933 36.7177 -5.5228
# 6 3.1306 3.3713 -7.1658 8.9896 -5.5228 32.2101
#
#
#
# Elastic Compliance Matrix: (Units=1/GPa)
#
#
# Indices 1 2 3 4 5 6 
#
# 1 0.014146 -0.005199 -0.000873 0.006363 -0.003598 -0.003418
# 2 -0.005199 0.012206 -0.004905 -0.003442 0.003245 -0.000347
# 3 -0.000873 -0.004905 0.021821 -0.005674 0.006280 0.008113
# 4 0.006363 -0.003442 -0.005674 0.037199 -0.006635 -0.013040
# 5 -0.003598 0.003245 0.006280 -0.006635 0.032037 0.008752
# 6 -0.003418 -0.000347 0.008113 -0.013040 0.008752 0.038360
#
#
# Mechanical properties :
#
#
# Convention : Reuss Voigt Hill
#
# Bulk Modulus (GPa) = 38.14095 47.71605 42.92850
# Shear Modulus (GPa) = 26.81530 33.13445 29.97487
#
# Velocity S-wave (km/s) = 3.60992 4.01279 3.81667
# Velocity P-wave (km/s) = 5.99256 6.68271 6.34703
#
# Compressibility (1/GPa) = 0.02621854
#
# Stress axis : x y z
#
# Youngs Moduli (GPa) = 70.69342 81.92962 45.82760
#
# Poissons Ratio (x) = 0.42592 0.04000
# Poissons Ratio (y) = 0.36750 0.22480
# Poissons Ratio (z) = 0.06170 0.40190
#
# Static dielectric constant tensor:
#      x y z
#    x 1.719200 0.017590 0.010560 
#    y 0.017590 1.748940 0.002590 
#    z 0.010560 0.002590 1.722280 
# 
# From -- ./inp_files/27248.got.cif
#   From: 2010.05.17/outbox.cif.g08.bks.cpg/sg2_14_cif.got.tgz:27248.got - 2010.06.03 11:33:40.
