data_PCOD9065819
_publ_section_title
;
Structure prediction by ZEFSAII (Michael W. Deem and Ramdas Pophale) SiO2 
 PCOD9065819
Probable space group: P -1
;
_chemical_formula_sum "Si O2"
_cell_formula_units_Z 16
_cell_length_a 9.662614
_cell_length_b 12.274697
_cell_length_c 18.817665
_cell_angle_alpha 152.348633
_cell_angle_beta 124.677391
_cell_angle_gamma 44.869407
_cell_volume 718.858234
_symmetry_space_group_name_H-M "P -1"
_symmetry_group_IT_number 2
_symmetry_cell_setting 'triclinic'
loop_
_space_group_symop_operation_xyz
x,y,z
-x,-y,-z
loop_
_atom_site_type_symbol
_atom_site_label
_atom_site_fract_x
_atom_site_fract_y
_atom_site_fract_z
Si Si1 0.179198 0.710127 0.353304
Si Si2 0.712013 0.872356 0.154538
Si Si3 0.204990 0.340993 0.426148
Si Si4 0.863202 0.395279 0.147420
Si Si5 0.573500 0.042014 0.469823
Si Si6 0.729156 0.994787 0.877400
Si Si7 0.031783 0.356907 0.027744
Si Si8 0.272319 0.655798 0.505213
O O1 0.122591 0.528017 0.186101
O O2 0.266650 0.568451 0.373060
O O3 0.315109 0.791491 0.397182
O O4 0.000000 0.000000 0.500000
O O5 0.844870 0.554075 0.035945
O O6 0.480708 0.972504 0.145688
O O7 0.779645 0.031654 0.319103
O O8 0.793923 0.884452 0.108207
O O9 0.245824 0.075822 0.239646
O O10 0.185291 0.555465 0.482984
O O11 0.000000 0.500000 0.500000
O O12 0.391204 0.220459 0.464842
O O13 0.732424 0.729550 0.306647
O O14 0.063668 0.253776 0.171399
O O15 0.946121 0.288944 0.031170
O O16 0.730636 0.268694 0.055399
O O17 0.500000 0.000000 0.500000
O O18 0.500000 0.500000 0.500000
#
# Coordination Sequence:
#
# PCOD9065819 Si02
#       8
#     2   2   2   2   2   2   2   2
#     4  12  23  44  74 100 135 181 231 285 342 402
#     4  11  25  44  68 102 137 176 229 278 343 405
#     4  12  27  44  71 103 138 181 228 283 343 408
#     4  11  25  46  67  97 138 179 224 279 343 407
#     4  12  27  45  70 103 137 180 231 283 342 410
#     4  11  25  46  67  97 139 179 222 282 343 405
#     4  11  25  43  69 103 135 178 228 280 337 411
#     4  12  23  46  72 100 135 182 229 287 341 405
#
# _framework density 22.257517
#
# number of rings (size 3 to 8) (size 9 to 14) (size 15 to 20)
#    0.000    0.500    5.000    2.250    5.250    2.500 
#    0.000    0.000    0.000    0.000    0.000    0.000 
#    0.000    0.000    0.000    0.000    0.000    0.000 
#
# Total GULP energy -89340.232318 kJ/mol
# GULP energy per Si atom -5583.764520 kJ/mol
# Density = 2.220686 g / cm^3
# Si number density = 22.257517 Si / 1000 Ang^3
#
#
#
# Elastic Constant Matrix: (Units=GPa)
#
#
# Indices 1 2 3 4 5 6 
#
# 1 143.8613 25.6285 28.6080 -5.5557 2.5603 4.9265
# 2 25.6285 80.4724 0.0014 -5.1920 2.5901 -7.0294
# 3 28.6080 0.0014 61.9499 -2.2443 7.6860 -15.5552
# 4 -5.5557 -5.1920 -2.2443 25.1703 5.5504 -3.6173
# 5 2.5603 2.5901 7.6860 5.5504 46.7299 -1.0018
# 6 4.9265 -7.0294 -15.5552 -3.6173 -1.0018 32.1029
#
#
#
# Elastic Compliance Matrix: (Units=1/GPa)
#
#
# Indices 1 2 3 4 5 6 
#
# 1 0.008703 -0.003180 -0.005213 0.000048 0.000454 -0.004538
# 2 -0.003180 0.014198 0.003156 0.003616 -0.001444 0.005489
# 3 -0.005213 0.003156 0.022351 0.004149 -0.003787 0.012671
# 4 0.000048 0.003616 0.004149 0.043223 -0.005859 0.007482
# 5 0.000454 -0.001444 -0.003787 -0.005859 0.022727 -0.002172
# 6 -0.004538 0.005489 0.012671 0.007482 -0.002172 0.039963
#
#
# Mechanical properties :
#
#
# Convention : Reuss Voigt Hill
#
# Bulk Modulus (GPa) = 28.75247 43.86216 36.30731
# Shear Modulus (GPa) = 28.86298 36.27034 32.56666
#
# Velocity S-wave (km/s) = 3.60498 4.04118 3.82930
# Velocity P-wave (km/s) = 5.50218 6.44394 5.99159
#
# Compressibility (1/GPa) = 0.03477962
#
# Stress axis : x y z
#
# Youngs Moduli (GPa) = 114.89653 70.43051 44.74060
#
# Poissons Ratio (x) = 0.22395 0.23324
# Poissons Ratio (y) = 0.36534 -0.14121
# Poissons Ratio (z) = 0.59898 -0.22230
#
# Static dielectric constant tensor:
#      x y z
#    x 1.794410 -0.004700 0.006340 
#    y -0.004700 1.838320 0.024940 
#    z 0.006340 0.024940 1.778700 
# 
# From -- ./inp_files/307892.got.cif
#   From: 2010.05.17/outbox.cif.g08.bks.cpg/sg2_154_cif.got.tgz:307892.got - 2010.06.03 11:33:40.
