data_PCOD9065914
_publ_section_title
;
Structure prediction by ZEFSAII (Michael W. Deem and Ramdas Pophale) SiO2 
 PCOD9065914
Probable space group: P -1
;
_chemical_formula_sum "Si O2"
_cell_formula_units_Z 16
_cell_length_a 9.365311
_cell_length_b 14.412395
_cell_length_c 10.406227
_cell_angle_alpha 98.806349
_cell_angle_beta 134.519485
_cell_angle_gamma 111.996849
_cell_volume 722.028571
_symmetry_space_group_name_H-M "P -1"
_symmetry_group_IT_number 2
_symmetry_cell_setting 'triclinic'
loop_
_space_group_symop_operation_xyz
x,y,z
-x,-y,-z
loop_
_atom_site_type_symbol
_atom_site_label
_atom_site_fract_x
_atom_site_fract_y
_atom_site_fract_z
Si Si1 0.361154 0.299315 0.173380
Si Si2 0.873556 0.454795 0.710424
Si Si3 0.907812 0.049862 0.357233
Si Si4 0.672663 0.475142 0.177718
Si Si5 0.679780 0.921926 0.924254
Si Si6 0.911051 0.317674 0.914582
Si Si7 0.069535 0.740273 0.626134
Si Si8 0.678270 0.124463 0.925313
O O1 0.607408 0.396569 0.448937
O O2 0.483036 0.346720 0.115881
O O3 0.267427 0.163601 0.114703
O O4 0.126453 0.302145 0.031671
O O5 0.133283 0.519053 0.795703
O O6 0.947729 0.558346 0.881265
O O7 0.829658 0.343329 0.737741
O O8 0.596259 0.968613 0.185406
O O9 0.047453 0.196459 0.482731
O O10 0.886864 0.006173 0.190789
O O11 0.000000 0.000000 0.500000
O O12 0.870288 0.594076 0.426595
O O13 0.500000 0.500000 0.000000
O O14 0.364867 0.817691 0.759732
O O15 0.715504 0.028204 0.887090
O O16 0.667082 0.192471 0.815473
O O17 0.108105 0.767952 0.809645
#
# Coordination Sequence:
#
# PCOD9065914 Si02
#       8
#     2   2   2   2   2   2   2   2
#     4  12  24  42  68  92 129 171 215 267 322 374
#     4  11  25  44  62  94 132 169 217 265 318 382
#     4   9  19  34  62  96 121 158 209 266 313 370
#     4  12  24  39  67  99 124 167 216 270 318 370
#     4   9  20  38  63  91 120 160 216 262 311 373
#     4  11  25  44  63  91 135 171 211 261 321 398
#     4   9  19  38  61  89 125 158 209 265 313 368
#     4   9  20  42  63  89 129 169 204 261 325 380
#
# _framework density 22.159787999999999
#
# number of rings (size 3 to 8) (size 9 to 14) (size 15 to 20)
#    0.000    1.750    2.500    3.000    5.250    0.500 
#    4.500    0.625    0.000    0.000    0.000    0.000 
#    0.000    0.000    0.000    0.000    0.000    0.000 
#
# Total GULP energy -89384.603052 kJ/mol
# GULP energy per Si atom -5586.537691 kJ/mol
# Density = 2.210935 g / cm^3
# Si number density = 22.159788 Si / 1000 Ang^3
#
#
#
# Elastic Constant Matrix: (Units=GPa)
#
#
# Indices 1 2 3 4 5 6 
#
# 1 37.3801 12.0074 -5.7384 15.6204 -8.6417 -10.7481
# 2 12.0074 81.1975 4.1483 -14.4272 -8.3036 -15.2722
# 3 -5.7384 4.1483 27.1082 -11.3319 1.9544 -4.4388
# 4 15.6204 -14.4272 -11.3319 26.2515 -4.0954 -1.7993
# 5 -8.6417 -8.3036 1.9544 -4.0954 14.0748 -5.3866
# 6 -10.7481 -15.2722 -4.4388 -1.7993 -5.3866 33.9444
#
#
#
# Elastic Compliance Matrix: (Units=1/GPa)
#
#
# Indices 1 2 3 4 5 6 
#
# 1 0.051867 -0.007662 0.000323 -0.030082 0.024379 0.015292
# 2 -0.007662 0.021130 0.004928 0.021902 0.017940 0.011733
# 3 0.000323 0.004928 0.048025 0.025278 0.008087 0.011223
# 4 -0.030082 0.021902 0.025278 0.082702 0.019243 0.011072
# 5 0.024379 0.017940 0.008087 0.019243 0.114894 0.036101
# 6 0.015292 0.011733 0.011223 0.011072 0.036101 0.047364
#
#
# Mechanical properties :
#
#
# Convention : Reuss Voigt Hill
#
# Bulk Modulus (GPa) = 8.60591 18.50228 13.55410
# Shear Modulus (GPa) = 12.20889 23.87205 18.04047
#
# Velocity S-wave (km/s) = 2.34977 3.28574 2.85635
# Velocity P-wave (km/s) = 3.35469 4.77099 4.12409
#
# Compressibility (1/GPa) = 0.11619919
#
# Stress axis : x y z
#
# Youngs Moduli (GPa) = 19.28011 47.32614 20.82256
#
# Poissons Ratio (x) = 0.36262 -0.00673
# Poissons Ratio (y) = 0.14773 -0.10261
# Poissons Ratio (z) = -0.00623 -0.23322
#
# Static dielectric constant tensor:
#      x y z
#    x 1.835980 0.023520 -0.043460 
#    y 0.023520 1.795090 0.084690 
#    z -0.043460 0.084690 1.589060 
# 
# From -- ./inp_files/208040.got.cif
#   From: 2010.05.17/outbox.cif.g08.bks.cpg/sg2_105_cif.got.tgz:208040.got - 2010.06.03 11:33:40.
