data_PCOD9065425
_publ_section_title
;
Structure prediction by ZEFSAII (Michael W. Deem and Ramdas Pophale) SiO2 
 PCOD9065425
Probable space group: P -1
;
_chemical_formula_sum "Si O2"
_cell_formula_units_Z 16
_cell_length_a 19.691618
_cell_length_b 9.064201
_cell_length_c 9.538839
_cell_angle_alpha 105.348267
_cell_angle_beta 52.855979
_cell_angle_gamma 61.197863
_cell_volume 720.781981
_symmetry_space_group_name_H-M "P -1"
_symmetry_group_IT_number 2
_symmetry_cell_setting 'triclinic'
loop_
_space_group_symop_operation_xyz
x,y,z
-x,-y,-z
loop_
_atom_site_type_symbol
_atom_site_label
_atom_site_fract_x
_atom_site_fract_y
_atom_site_fract_z
Si Si1 0.336327 0.438019 0.257585
Si Si2 0.696345 0.147572 0.254714
Si Si3 0.160866 0.677774 0.263013
Si Si4 0.131555 0.366321 0.206883
Si Si5 0.921525 0.485827 0.008021
Si Si6 0.580123 0.625511 0.366192
Si Si7 0.886705 0.031069 0.199552
Si Si8 0.603054 0.859167 0.623337
O O1 0.205156 0.658923 0.359627
O O2 0.290119 0.657417 0.459970
O O3 0.335812 0.316265 0.354997
O O4 0.479997 0.166382 0.914436
O O5 0.637629 0.395810 0.329324
O O6 0.560688 0.243589 0.512296
O O7 0.847445 0.967719 0.110181
O O8 0.743139 0.956685 0.027250
O O9 0.169889 0.481491 0.225628
O O10 0.286757 0.525995 0.947110
O O11 0.000000 0.000000 0.500000
O O12 0.000000 0.500000 0.500000
O O13 0.077115 0.471748 0.143050
O O14 0.747759 0.720511 0.334628
O O15 0.000000 0.500000 0.000000
O O16 0.018956 0.190199 0.850163
O O17 0.546896 0.817348 0.564623
O O18 0.000000 0.000000 0.000000
#
# Coordination Sequence:
#
# PCOD9065425 Si02
#       8
#     2   2   2   2   2   2   2   2
#     4  11  26  42  76 107 142 188 252 302 355 448
#     4  11  25  45  73 105 145 195 242 302 379 430
#     4  12  27  45  74 110 147 195 251 308 373 445
#     4  12  27  44  70 107 147 185 244 311 361 433
#     4  12  25  44  75 107 146 191 244 302 376 441
#     4  11  24  48  74 100 147 195 245 300 374 456
#     4  12  24  46  76 108 147 198 245 304 367 443
#     4  11  24  48  73 109 143 198 246 298 377 444
#
# _framework density 22.198115000000001
#
# number of rings (size 3 to 8) (size 9 to 14) (size 15 to 20)
#    0.000    0.500    5.000    2.250    7.000    1.000 
#    0.000    3.750    0.000    0.000    0.000    0.000 
#    0.000    0.000    0.000    0.000    0.000    0.000 
#
# Total GULP energy -89124.654922 kJ/mol
# GULP energy per Si atom -5570.290933 kJ/mol
# Density = 2.214759 g / cm^3
# Si number density = 22.198115 Si / 1000 Ang^3
#
#
#
# Elastic Constant Matrix: (Units=GPa)
#
#
# Indices 1 2 3 4 5 6 
#
# 1 66.8926 6.0154 48.8857 -14.9183 -16.5516 13.7870
# 2 6.0154 91.8080 54.1741 5.1635 -1.7025 3.6360
# 3 48.8857 54.1741 120.3858 -11.8007 -3.4296 27.7088
# 4 -14.9183 5.1635 -11.8007 49.4290 5.2224 8.7056
# 5 -16.5516 -1.7025 -3.4296 5.2224 32.5753 -0.7985
# 6 13.7870 3.6360 27.7088 8.7056 -0.7985 47.1766
#
#
#
# Elastic Compliance Matrix: (Units=1/GPa)
#
#
# Indices 1 2 3 4 5 6 
#
# 1 0.028235 0.005950 -0.013074 0.003707 0.012650 -0.001501
# 2 0.005950 0.017456 -0.011601 -0.003959 0.003460 0.004518
# 3 -0.013074 -0.011601 0.021077 0.004439 -0.005952 -0.008585
# 4 0.003707 -0.003959 0.004439 0.024427 -0.001966 -0.007926
# 5 0.012650 0.003460 -0.005952 -0.001966 0.037008 0.000522
# 6 -0.001501 0.004518 -0.008585 -0.007926 0.000522 0.027801
#
#
# Mechanical properties :
#
#
# Convention : Reuss Voigt Hill
#
# Bulk Modulus (GPa) = 34.10763 55.24855 44.67809
# Shear Modulus (GPa) = 24.60323 37.17025 30.88674
#
# Velocity S-wave (km/s) = 3.33280 4.09648 3.73421
# Velocity P-wave (km/s) = 5.49623 6.87879 6.22600
#
# Compressibility (1/GPa) = 0.02931895
#
# Stress axis : x y z
#
# Youngs Moduli (GPa) = 35.41739 57.28788 47.44398
#
# Poissons Ratio (x) = -0.34087 0.62027
# Poissons Ratio (y) = -0.21074 0.55039
# Poissons Ratio (z) = 0.46304 0.66459
#
# Static dielectric constant tensor:
#      x y z
#    x 1.832620 -0.001280 -0.006910 
#    y -0.001280 1.894000 0.141290 
#    z -0.006910 0.141290 1.961820 
# 
# From -- ./inp_files/343627.got.cif
#   From: 2010.05.17/outbox.cif.g08.bks.cpg/sg2_172_cif.got.tgz:343627.got - 2010.06.03 11:33:40.
