data_PCOD9065023
_publ_section_title
;
Structure prediction by ZEFSAII (Michael W. Deem and Ramdas Pophale) SiO2 
 PCOD9065023
Probable space group: P -1
;
_chemical_formula_sum "Si O2"
_cell_formula_units_Z 14
_cell_length_a 8.178197
_cell_length_b 13.585633
_cell_length_c 14.508530
_cell_angle_alpha 43.097685
_cell_angle_beta 31.120499
_cell_angle_gamma 44.748277
_cell_volume 552.458169
_symmetry_space_group_name_H-M "P -1"
_symmetry_group_IT_number 2
_symmetry_cell_setting 'triclinic'
loop_
_space_group_symop_operation_xyz
x,y,z
-x,-y,-z
loop_
_atom_site_type_symbol
_atom_site_label
_atom_site_fract_x
_atom_site_fract_y
_atom_site_fract_z
Si Si1 0.771763 0.787169 0.602997
Si Si2 0.207144 0.021360 0.247395
Si Si3 0.173819 0.482915 0.119909
Si Si4 0.538037 0.423944 0.796429
Si Si5 0.740965 0.775756 0.063454
Si Si6 0.275149 0.296352 0.531414
Si Si7 0.357332 0.983703 0.795729
O O1 0.933763 0.643192 0.683712
O O2 0.746551 0.743381 0.539271
O O3 0.968456 0.912992 0.435427
O O4 0.420326 0.864975 0.763573
O O5 0.543008 0.915239 0.119696
O O6 0.341243 0.074774 0.239873
O O7 0.068086 0.156429 0.153317
O O8 0.929303 0.642692 0.125744
O O9 0.500000 0.500000 0.000000
O O10 0.279359 0.441554 0.991521
O O11 0.498747 0.297756 0.831258
O O12 0.516541 0.580368 0.648859
O O13 0.908188 0.374461 0.688584
O O14 0.387447 0.144489 0.636361
O O15 0.000000 0.000000 0.000000
#
# Coordination Sequence:
#
# PCOD9065023 Si02
#       7
#     2   2   2   2   2   2   2
#     4  12  26  48  73 111 147 190 256 297 371 437
#     4  11  27  48  75 110 144 200 246 303 365 438
#     4  12  27  44  74 111 146 192 243 307 366 439
#     4  11  24  47  68 108 149 192 244 295 378 430
#     4  11  26  47  77 101 153 192 249 297 372 434
#     4  11  25  44  75 105 148 192 245 304 361 441
#     4  12  28  45  76 107 152 195 247 304 371 434
#
# _framework density 25.341286
#
# number of rings (size 3 to 8) (size 9 to 14) (size 15 to 20)
#    0.000    0.571    2.857    3.857   10.000    0.571 
#    0.000    0.000    0.000    0.000    0.000    0.000 
#    0.000    0.000    0.000    0.000    0.000    0.000 
#
# Total GULP energy -78492.475414 kJ/mol
# GULP energy per Si atom -5606.605387 kJ/mol
# Density = 2.528361 g / cm^3
# Si number density = 25.341286 Si / 1000 Ang^3
#
#
#
# Elastic Constant Matrix: (Units=GPa)
#
#
# Indices 1 2 3 4 5 6 
#
# 1 64.1516 -2.8876 17.7117 -12.5309 0.4149 5.5995
# 2 -2.8876 98.4792 23.7160 -21.5460 12.1724 -15.3581
# 3 17.7117 23.7160 105.6343 -36.6842 6.2930 -5.5042
# 4 -12.5309 -21.5460 -36.6842 61.8656 4.1495 9.0071
# 5 0.4149 12.1724 6.2930 4.1495 28.8051 -6.4924
# 6 5.5995 -15.3581 -5.5042 9.0071 -6.4924 46.1972
#
#
#
# Elastic Compliance Matrix: (Units=1/GPa)
#
#
# Indices 1 2 3 4 5 6 
#
# 1 0.017114 0.001483 -0.002143 0.003199 -0.001467 -0.002666
# 2 0.001483 0.012319 -0.001264 0.003838 -0.004982 0.002317
# 3 -0.002143 -0.001264 0.012694 0.006943 -0.003314 -0.000467
# 4 0.003199 0.003838 0.006943 0.023327 -0.007419 -0.003875
# 5 -0.001467 -0.004982 -0.003314 -0.007419 0.039800 0.005166
# 6 -0.002666 0.002317 -0.000467 -0.003875 0.005166 0.024166
#
#
# Mechanical properties :
#
#
# Convention : Reuss Voigt Hill
#
# Bulk Modulus (GPa) = 26.12420 38.37170 32.24795
# Shear Modulus (GPa) = 34.24026 42.68858 38.46442
#
# Velocity S-wave (km/s) = 3.67981 4.10878 3.90019
# Velocity P-wave (km/s) = 5.32785 6.13875 5.74762
#
# Compressibility (1/GPa) = 0.03827869
#
# Stress axis : x y z
#
# Youngs Moduli (GPa) = 58.43309 81.17457 78.77749
#
# Poissons Ratio (x) = -0.12040 0.16883
# Poissons Ratio (y) = -0.08667 0.09958
# Poissons Ratio (z) = 0.12523 0.10261
#
# Static dielectric constant tensor:
#      x y z
#    x 1.972440 -0.013910 0.055550 
#    y -0.013910 1.962790 0.053370 
#    z 0.055550 0.053370 2.086220 
# 
# From -- ./inp_files/207955.got.cif
#   From: 2010.05.17/outbox.cif.g08.bks.cpg/sg2_104_cif.got.tgz:207955.got - 2010.06.03 11:33:40.
