data_PCOD9065091
_publ_section_title
;
Structure prediction by ZEFSAII (Michael W. Deem and Ramdas Pophale) SiO2 
 PCOD9065091
Probable space group: P -1
;
_chemical_formula_sum "Si O2"
_cell_formula_units_Z 14
_cell_length_a 11.592384
_cell_length_b 9.263565
_cell_length_c 9.006725
_cell_angle_alpha 112.857304
_cell_angle_beta 60.583769
_cell_angle_gamma 133.268636
_cell_volume 611.420710
_symmetry_space_group_name_H-M "P -1"
_symmetry_group_IT_number 2
_symmetry_cell_setting 'triclinic'
loop_
_space_group_symop_operation_xyz
x,y,z
-x,-y,-z
loop_
_atom_site_type_symbol
_atom_site_label
_atom_site_fract_x
_atom_site_fract_y
_atom_site_fract_z
Si Si1 0.376692 0.875066 0.169070
Si Si2 0.010885 0.481109 0.155916
Si Si3 0.106571 0.427073 0.484086
Si Si4 0.439943 0.290878 0.016553
Si Si5 0.631077 0.620168 0.601767
Si Si6 0.861478 0.030483 0.108780
Si Si7 0.215889 0.013988 0.528513
O O1 0.191865 0.683119 0.163078
O O2 0.346230 0.988584 0.355201
O O3 0.449403 0.767672 0.143768
O O4 0.500000 0.000000 0.000000
O O5 0.879286 0.491118 0.329270
O O6 0.961151 0.266883 0.135585
O O7 0.000000 0.500000 0.000000
O O8 0.284188 0.459488 0.386634
O O9 0.000000 0.500000 0.500000
O O10 0.968359 0.194021 0.452703
O O11 0.448364 0.322444 0.200840
O O12 0.500000 0.500000 0.000000
O O13 0.257113 0.097239 0.005845
O O14 0.500000 0.500000 0.500000
O O15 0.775306 0.820326 0.503262
O O16 0.757939 0.946215 0.295596
O O17 0.000000 0.000000 0.000000
#
# Coordination Sequence:
#
# PCOD9065091 Si02
#       7
#     2   2   2   2   2   2   2
#     4  11  24  47  71 105 150 190 250 304 378 442
#     4  11  26  42  74 103 142 198 249 307 368 446
#     4  11  25  48  74 105 145 193 250 306 372 449
#     4  12  27  44  71 104 152 197 243 317 376 448
#     4  12  28  47  75 109 150 198 252 311 382 451
#     4  12  26  45  73 107 148 191 256 310 375 450
#     4  11  25  48  73 107 149 199 248 310 378 453
#
# _framework density 22.897490999999999
#
# number of rings (size 3 to 8) (size 9 to 14) (size 15 to 20)
#    0.000    0.571    2.857    3.857   10.000    1.714 
#    0.000    0.000    0.000    0.000    0.000    0.000 
#    0.000    0.000    0.000    0.000    0.000    0.000 
#
# Total GULP energy -77971.409032 kJ/mol
# GULP energy per Si atom -5569.386359 kJ/mol
# Density = 2.284537 g / cm^3
# Si number density = 22.897491 Si / 1000 Ang^3
#
#
#
# Elastic Constant Matrix: (Units=GPa)
#
#
# Indices 1 2 3 4 5 6 
#
# 1 93.6575 9.4181 41.0308 6.7693 -12.2296 -7.6629
# 2 9.4181 109.5887 23.4279 -3.5925 8.1538 -16.0731
# 3 41.0308 23.4279 139.9273 0.8581 7.7684 -0.6817
# 4 6.7693 -3.5925 0.8581 36.3179 -4.6265 13.5922
# 5 -12.2296 8.1538 7.7684 -4.6265 42.8986 0.4118
# 6 -7.6629 -16.0731 -0.6817 13.5922 0.4118 30.8524
#
#
#
# Elastic Compliance Matrix: (Units=1/GPa)
#
#
# Indices 1 2 3 4 5 6 
#
# 1 0.013755 0.000005 -0.004222 -0.003769 0.004231 0.004930
# 2 0.000005 0.010454 -0.001607 -0.001445 -0.001909 0.006074
# 3 -0.004222 -0.001607 0.008770 0.000886 -0.002371 -0.002051
# 4 -0.003769 -0.001445 0.000886 0.034833 0.002960 -0.017055
# 5 0.004231 -0.001909 -0.002371 0.002960 0.025644 -0.001642
# 6 0.004930 0.006074 -0.002051 -0.017055 -0.001642 0.044292
#
#
# Mechanical properties :
#
#
# Convention : Reuss Voigt Hill
#
# Bulk Modulus (GPa) = 46.88233 54.54746 50.71490
# Shear Modulus (GPa) = 31.94783 39.96689 35.95736
#
# Velocity S-wave (km/s) = 3.73936 4.18242 3.96708
# Velocity P-wave (km/s) = 6.25804 6.87005 6.57118
#
# Compressibility (1/GPa) = 0.02133000
#
# Stress axis : x y z
#
# Youngs Moduli (GPa) = 72.70347 95.65999 114.02695
#
# Poissons Ratio (x) = -0.00050 0.48140
# Poissons Ratio (y) = -0.00038 0.18328
# Poissons Ratio (z) = 0.30694 0.15376
#
# Static dielectric constant tensor:
#      x y z
#    x 1.800420 -0.072960 0.062150 
#    y -0.072960 1.832540 -0.038640 
#    z 0.062150 -0.038640 1.850030 
# 
# From -- ./inp_files/155699.got.cif
#   From: 2010.05.17/outbox.cif.g08.bks.cpg/sg2_78_cif.got.tgz:155699.got - 2010.06.03 11:33:40.
