data_PCOD9065634
_publ_section_title
;
Structure prediction by ZEFSAII (Michael W. Deem and Ramdas Pophale) SiO2 
 PCOD9065634
Probable space group: P -1
;
_chemical_formula_sum "Si O2"
_cell_formula_units_Z 14
_cell_length_a 12.183623
_cell_length_b 7.110113
_cell_length_c 7.127728
_cell_angle_alpha 82.887859
_cell_angle_beta 122.057862
_cell_angle_gamma 115.636734
_cell_volume 467.235548
_symmetry_space_group_name_H-M "P -1"
_symmetry_group_IT_number 2
_symmetry_cell_setting 'triclinic'
loop_
_space_group_symop_operation_xyz
x,y,z
-x,-y,-z
loop_
_atom_site_type_symbol
_atom_site_label
_atom_site_fract_x
_atom_site_fract_y
_atom_site_fract_z
Si Si1 0.980978 0.723600 0.869077
Si Si2 0.171286 0.609391 0.523960
Si Si3 0.548058 0.079486 0.357456
Si Si4 0.294714 0.073220 0.139643
Si Si5 0.130319 0.028438 0.479558
Si Si6 0.755463 0.519027 0.995083
Si Si7 0.556023 0.744314 0.124975
O O1 0.942372 0.589972 0.661550
O O2 0.911935 0.889426 0.758308
O O3 0.872613 0.197311 0.536914
O O4 0.115060 0.437205 0.039711
O O5 0.320431 0.690745 0.530683
O O6 0.199087 0.544067 0.760798
O O7 0.276533 0.212777 0.670231
O O8 0.408298 0.043090 0.394067
O O9 0.597305 0.982081 0.243596
O O10 0.424382 0.129372 0.095419
O O11 0.152498 0.861889 0.023416
O O12 0.000000 0.000000 0.500000
O O13 0.741652 0.735699 0.933107
O O14 0.500000 0.500000 0.000000
O O15 0.590684 0.345420 0.849243
#
# Coordination Sequence:
#
# PCOD9065634 Si02
#       7
#     2   2   2   2   2   2   2
#     4  12  29  56  82 124 168 219 277 342 416 494
#     4  11  28  54  84 119 169 221 274 341 420 490
#     4  11  26  50  81 121 160 217 279 339 409 496
#     4  12  26  51  81 118 165 213 279 339 411 494
#     4  11  26  51  83 121 164 220 274 339 416 496
#     4  12  28  51  87 121 164 220 281 343 414 494
#     4  11  24  49  81 112 161 213 275 338 409 488
#
# _framework density 29.963474999999999
#
# number of rings (size 3 to 8) (size 9 to 14) (size 15 to 20)
#    0.000    0.571    2.857    3.000    8.000    1.143 
#    5.143    3.571    0.000    0.000    0.000    0.000 
#    0.000    0.000    0.000    0.000    0.000    0.000 
#
# Total GULP energy -78223.971264 kJ/mol
# GULP energy per Si atom -5587.426519 kJ/mol
# Density = 2.989528 g / cm^3
# Si number density = 29.963475 Si / 1000 Ang^3
#
#
#
# Elastic Constant Matrix: (Units=GPa)
#
#
# Indices 1 2 3 4 5 6 
#
# 1 227.0326 21.4362 81.3807 0.4938 3.0618 37.9113
# 2 21.4362 166.2013 64.1356 -24.6625 7.9011 12.6290
# 3 81.3807 64.1356 224.3958 -9.6240 14.1462 20.2806
# 4 0.4938 -24.6625 -9.6240 56.3157 21.0886 -5.0528
# 5 3.0618 7.9011 14.1462 21.0886 85.7486 -2.5725
# 6 37.9113 12.6290 20.2806 -5.0528 -2.5725 52.9094
#
#
#
# Elastic Compliance Matrix: (Units=1/GPa)
#
#
# Indices 1 2 3 4 5 6 
#
# 1 0.005607 0.000125 -0.001798 -0.000663 0.000145 -0.003414
# 2 0.000125 0.007319 -0.001842 0.003261 -0.001203 -0.000878
# 3 -0.001798 -0.001842 0.005751 0.000465 -0.000843 -0.000473
# 4 -0.000663 0.003261 0.000465 0.021483 -0.005598 0.001297
# 5 0.000145 -0.001203 -0.000843 -0.005598 0.013302 0.000618
# 6 -0.003414 -0.000878 -0.000473 0.001297 0.000618 0.021891
#
#
# Mechanical properties :
#
#
# Convention : Reuss Voigt Hill
#
# Bulk Modulus (GPa) = 85.86338 105.72606 95.79472
# Shear Modulus (GPa) = 57.95919 69.03990 63.49954
#
# Velocity S-wave (km/s) = 4.40287 4.80535 4.60851
# Velocity P-wave (km/s) = 7.38683 8.13327 7.76902
#
# Compressibility (1/GPa) = 0.01164641
#
# Stress axis : x y z
#
# Youngs Moduli (GPa) = 178.34634 136.62244 173.88437
#
# Poissons Ratio (x) = -0.01707 0.31268
# Poissons Ratio (y) = -0.02228 0.32034
# Poissons Ratio (z) = 0.32070 0.25170
#
# Static dielectric constant tensor:
#      x y z
#    x 2.580860 -0.252820 -0.262580 
#    y -0.252820 2.796060 0.236600 
#    z -0.262580 0.236600 2.847350 
# 
# From -- ./inp_files/444937.got.cif
#   From: 2010.05.17/outbox.cif.g08.bks.cpg/sg2_223_cif.got.tgz:444937.got - 2010.06.03 11:33:40.
