data_PCOD9065366
_publ_section_title
;
Structure prediction by ZEFSAII (Michael W. Deem and Ramdas Pophale) SiO2 
 PCOD9065366
Probable space group: P -1
;
_chemical_formula_sum "Si O2"
_cell_formula_units_Z 16
_cell_length_a 9.160164
_cell_length_b 5.695060
_cell_length_c 19.080552
_cell_angle_alpha 115.272770
_cell_angle_beta 120.611274
_cell_angle_gamma 58.979023
_cell_volume 715.656077
_symmetry_space_group_name_H-M "P -1"
_symmetry_group_IT_number 2
_symmetry_cell_setting 'triclinic'
loop_
_space_group_symop_operation_xyz
x,y,z
-x,-y,-z
loop_
_atom_site_type_symbol
_atom_site_label
_atom_site_fract_x
_atom_site_fract_y
_atom_site_fract_z
Si Si1 0.967906 0.098190 0.293239
Si Si2 0.367944 0.357680 0.734600
Si Si3 0.858249 0.849777 0.955328
Si Si4 0.347815 0.028141 0.340417
Si Si5 0.501263 0.503158 0.416146
Si Si6 0.089835 0.283562 0.884830
Si Si7 0.134506 0.974184 0.594469
Si Si8 0.456070 0.290244 0.909480
O O1 0.762779 0.328529 0.276909
O O2 0.988560 0.965386 0.357988
O O3 0.977719 0.905153 0.204667
O O4 0.135763 0.188859 0.329713
O O5 0.567203 0.212478 0.729254
O O6 0.392185 0.379282 0.826222
O O7 0.248391 0.177606 0.656246
O O8 0.933838 0.593037 0.887540
O O9 0.646178 0.028273 0.914370
O O10 0.876491 0.779464 0.033065
O O11 0.000000 0.000000 0.000000
O O12 0.425798 0.812330 0.400139
O O13 0.402141 0.280162 0.354411
O O14 0.500000 0.500000 0.500000
O O15 0.707017 0.336611 0.416194
O O16 0.285655 0.247380 0.897305
O O17 0.000000 0.000000 0.500000
O O18 0.500000 0.500000 0.000000
#
# Coordination Sequence:
#
# PCOD9065366 Si02
#       8
#     2   2   2   2   2   2   2   2
#     4  12  26  45  74 104 146 196 247 304 378 449
#     4  11  27  47  68 109 146 188 250 307 373 454
#     4  11  25  45  70 108 143 186 245 304 367 454
#     4  11  27  45  74 106 149 199 243 319 380 446
#     4  11  24  48  71 110 148 192 257 312 384 454
#     4  11  26  44  70 108 144 191 245 298 372 449
#     4  11  25  47  74 105 147 195 249 312 370 452
#     4  12  24  45  76 100 147 192 236 307 374 438
#
# _framework density 22.357106000000002
#
# number of rings (size 3 to 8) (size 9 to 14) (size 15 to 20)
#    0.000    0.750    3.750    2.250    5.250    4.500 
#    0.000    0.000    0.000    0.000    0.000    0.000 
#    0.000    0.000    0.000    0.000    0.000    0.000 
#
# Total GULP energy -89172.569636 kJ/mol
# GULP energy per Si atom -5573.285602 kJ/mol
# Density = 2.230622 g / cm^3
# Si number density = 22.357106 Si / 1000 Ang^3
#
#
#
# Elastic Constant Matrix: (Units=GPa)
#
#
# Indices 1 2 3 4 5 6 
#
# 1 100.6096 2.0684 -4.1597 -22.8868 -13.7745 -17.3682
# 2 2.0684 57.8944 12.2413 -3.1092 2.9025 -19.5249
# 3 -4.1597 12.2413 89.8432 -8.2108 -7.4875 4.2835
# 4 -22.8868 -3.1092 -8.2108 20.6976 -3.9859 -4.4194
# 5 -13.7745 2.9025 -7.4875 -3.9859 21.7189 -2.9954
# 6 -17.3682 -19.5249 4.2835 -4.4194 -2.9954 32.2867
#
#
#
# Elastic Compliance Matrix: (Units=1/GPa)
#
#
# Indices 1 2 3 4 5 6 
#
# 1 0.034164 0.010273 0.006866 0.056813 0.037911 0.034973
# 2 0.010273 0.026612 -0.001512 0.022204 0.010070 0.025793
# 3 0.006866 -0.001512 0.014025 0.016364 0.012997 0.004365
# 4 0.056813 0.022204 0.016364 0.150406 0.075886 0.069446
# 5 0.037911 0.010070 0.012997 0.075886 0.093188 0.043792
# 6 0.034973 0.025793 0.004365 0.069446 0.043792 0.078374
#
#
# Mechanical properties :
#
#
# Convention : Reuss Voigt Hill
#
# Bulk Modulus (GPa) = 9.42901 29.84970 19.63936
# Shear Modulus (GPa) = 12.47300 30.82046 21.64673
#
# Velocity S-wave (km/s) = 2.36455 3.71692 3.11501
# Velocity P-wave (km/s) = 3.41781 5.63923 4.66274
#
# Compressibility (1/GPa) = 0.10605562
#
# Stress axis : x y z
#
# Youngs Moduli (GPa) = 29.27072 37.57715 71.30154
#
# Poissons Ratio (x) = -0.38602 -0.48958
# Poissons Ratio (y) = -0.30069 0.10778
# Poissons Ratio (z) = -0.20098 0.05680
#
# Static dielectric constant tensor:
#      x y z
#    x 1.833030 0.040780 0.080340 
#    y 0.040780 1.921490 -0.008730 
#    z 0.080340 -0.008730 1.895880 
# 
# From -- ./inp_files/53988.got.cif
#   From: 2010.05.17/outbox.cif.g08.bks.cpg/sg2_27_cif.got.tgz:53988.got - 2010.06.03 11:33:40.
