data_PCOD9065783
_publ_section_title
;
Structure prediction by ZEFSAII (Michael W. Deem and Ramdas Pophale) SiO2 
 PCOD9065783
Probable space group: P -1
;
_chemical_formula_sum "Si O2"
_cell_formula_units_Z 14
_cell_length_a 6.476162
_cell_length_b 14.777336
_cell_length_c 11.453161
_cell_angle_alpha 40.000791
_cell_angle_beta 62.040242
_cell_angle_gamma 61.087553
_cell_volume 607.215308
_symmetry_space_group_name_H-M "P -1"
_symmetry_group_IT_number 2
_symmetry_cell_setting 'triclinic'
loop_
_space_group_symop_operation_xyz
x,y,z
-x,-y,-z
loop_
_atom_site_type_symbol
_atom_site_label
_atom_site_fract_x
_atom_site_fract_y
_atom_site_fract_z
Si Si1 0.364815 0.355978 0.295638
Si Si2 0.396189 0.714872 0.265383
Si Si3 0.908576 0.868079 0.356320
Si Si4 0.576039 0.005024 0.113023
Si Si5 0.723963 0.572061 0.493889
Si Si6 0.074990 0.066053 0.294670
Si Si7 0.886349 0.400145 0.038320
O O1 0.253149 0.216751 0.439223
O O2 0.369152 0.357628 0.430952
O O3 0.628277 0.366062 0.175300
O O4 0.177851 0.497041 0.158798
O O5 0.641342 0.688265 0.300148
O O6 0.397072 0.561836 0.361906
O O7 0.170164 0.765294 0.363011
O O8 0.378918 0.834208 0.054584
O O9 0.799246 0.907011 0.217524
O O10 0.933681 0.009647 0.281168
O O11 0.349132 0.997029 0.259421
O O12 0.500000 0.000000 0.000000
O O13 0.000000 0.500000 0.500000
O O14 0.043171 0.239184 0.137687
O O15 0.000000 0.000000 0.500000
O O16 0.000000 0.500000 0.000000
#
# Coordination Sequence:
#
# PCOD9065783 Si02
#       7
#     2   2   2   2   2   2   2
#     4  11  26  45  73 102 141 192 240 301 367 431
#     4  11  26  42  70 110 142 189 236 302 368 437
#     4  12  26  47  77 105 155 189 249 308 372 443
#     4  12  27  44  75 110 148 193 247 305 374 437
#     4  11  25  42  74 104 145 184 237 297 368 435
#     4  12  29  47  74 107 148 199 248 305 377 439
#     4  11  28  47  72 101 143 190 250 301 359 441
#
# _framework density 23.056075
#
# number of rings (size 3 to 8) (size 9 to 14) (size 15 to 20)
#    0.000    0.571    2.857    3.000   10.000    3.429 
#    0.000    0.000    0.000    0.000    0.000    0.000 
#    0.000    0.000    0.000    0.000    0.000    0.000 
#
# Total GULP energy -78208.136689 kJ/mol
# GULP energy per Si atom -5586.295478 kJ/mol
# Density = 2.300360 g / cm^3
# Si number density = 23.056075 Si / 1000 Ang^3
#
#
#
# Elastic Constant Matrix: (Units=GPa)
#
#
# Indices 1 2 3 4 5 6 
#
# 1 101.8125 23.2134 24.4133 -8.9495 7.7006 -5.2632
# 2 23.2134 75.3585 8.0298 -17.8912 -0.6533 10.4540
# 3 24.4133 8.0298 102.7012 -15.9632 -2.1164 -1.5828
# 4 -8.9495 -17.8912 -15.9632 44.9737 -4.1653 -10.7117
# 5 7.7006 -0.6533 -2.1164 -4.1653 41.7199 -6.5298
# 6 -5.2632 10.4540 -1.5828 -10.7117 -6.5298 42.9269
#
#
#
# Elastic Compliance Matrix: (Units=1/GPa)
#
#
# Indices 1 2 3 4 5 6 
#
# 1 0.011473 -0.003488 -0.002415 0.000321 -0.001958 0.001950
# 2 -0.003488 0.015942 0.000366 0.005189 0.000984 -0.002852
# 3 -0.002415 0.000366 0.010957 0.004003 0.001605 0.001262
# 4 0.000321 0.005189 0.004003 0.027689 0.003998 0.006441
# 5 -0.001958 0.000984 0.001605 0.003998 0.025525 0.004460
# 6 0.001950 -0.002852 0.001262 0.006441 0.004460 0.026561
#
#
# Mechanical properties :
#
#
# Convention : Reuss Voigt Hill
#
# Bulk Modulus (GPa) = 36.63343 43.46501 40.04922
# Shear Modulus (GPa) = 36.14790 40.87182 38.50986
#
# Velocity S-wave (km/s) = 3.96387 4.21493 4.09133
# Velocity P-wave (km/s) = 6.07232 6.52536 6.30291
#
# Compressibility (1/GPa) = 0.02729747
#
# Stress axis : x y z
#
# Youngs Moduli (GPa) = 87.15780 62.72903 91.26395
#
# Poissons Ratio (x) = 0.21880 0.22040
# Poissons Ratio (y) = 0.30401 -0.03337
# Poissons Ratio (z) = 0.21049 -0.02294
#
# Static dielectric constant tensor:
#      x y z
#    x 1.969070 0.064110 -0.047560 
#    y 0.064110 1.873960 -0.039980 
#    z -0.047560 -0.039980 1.889980 
# 
# From -- ./inp_files/89254.got.cif
#   From: 2010.05.17/outbox.cif.g08.bks.cpg/sg2_45_cif.got.tgz:89254.got - 2010.06.03 11:33:40.
