data_PCOD9065217
_publ_section_title
;
Structure prediction by ZEFSAII (Michael W. Deem and Ramdas Pophale) SiO2 
 PCOD9065217
Probable space group: P -1
;
_chemical_formula_sum "Si O2"
_cell_formula_units_Z 14
_cell_length_a 11.950444
_cell_length_b 11.110032
_cell_length_c 8.876707
_cell_angle_alpha 58.188422
_cell_angle_beta 141.101334
_cell_angle_gamma 127.104887
_cell_volume 586.309807
_symmetry_space_group_name_H-M "P -1"
_symmetry_group_IT_number 2
_symmetry_cell_setting 'triclinic'
loop_
_space_group_symop_operation_xyz
x,y,z
-x,-y,-z
loop_
_atom_site_type_symbol
_atom_site_label
_atom_site_fract_x
_atom_site_fract_y
_atom_site_fract_z
Si Si1 0.510214 0.875752 0.719556
Si Si2 0.148362 0.643853 0.147132
Si Si3 0.090791 0.757972 0.334261
Si Si4 0.548011 0.627489 0.588691
Si Si5 0.680223 0.621042 0.030514
Si Si6 0.157934 0.043147 0.411162
Si Si7 0.232102 0.936445 0.877266
O O1 0.295858 0.757082 0.597640
O O2 0.643228 0.780518 0.881417
O O3 0.500000 0.000000 0.500000
O O4 0.595188 0.958816 0.908459
O O5 0.076295 0.715920 0.168603
O O6 0.339985 0.624007 0.422950
O O7 0.219152 0.767850 0.007933
O O8 0.000000 0.500000 0.000000
O O9 0.115203 0.928913 0.299675
O O10 0.897193 0.653063 0.284044
O O11 0.500000 0.500000 0.500000
O O12 0.657664 0.572536 0.866959
O O13 0.685713 0.793345 0.570910
O O14 0.500000 0.500000 0.000000
O O15 0.234708 0.977596 0.678860
O O16 0.960974 0.053502 0.258109
#
# Coordination Sequence:
#
# PCOD9065217 Si02
#       7
#     2   2   2   2   2   2   2
#     4  12  24  46  78 110 148 194 255 312 373 459
#     4  12  26  47  72 108 152 196 256 313 384 461
#     4  12  25  48  77 109 147 204 251 315 382 448
#     4  12  27  48  71 106 152 201 246 314 394 445
#     4  12  28  48  74 108 152 199 258 315 382 457
#     4  11  26  45  78 109 151 200 250 316 377 455
#     4  11  24  47  74 113 150 193 258 307 375 463
#
# _framework density 23.878163000000001
#
# number of rings (size 3 to 8) (size 9 to 14) (size 15 to 20)
#    0.000    0.286    4.286    4.286    2.000    5.714 
#    2.571    0.000    0.000    0.000    0.000    0.000 
#    0.000    0.000    0.000    0.000    0.000    0.000 
#
# Total GULP energy -78268.719576 kJ/mol
# GULP energy per Si atom -5590.622827 kJ/mol
# Density = 2.382382 g / cm^3
# Si number density = 23.878163 Si / 1000 Ang^3
#
#
#
# Elastic Constant Matrix: (Units=GPa)
#
#
# Indices 1 2 3 4 5 6 
#
# 1 109.8635 51.6573 30.6915 29.6656 11.1822 3.2939
# 2 51.6573 127.0548 38.6288 51.4903 -21.3637 5.9712
# 3 30.6915 38.6288 118.5015 38.7557 5.1596 17.3996
# 4 29.6656 51.4903 38.7557 44.1594 5.2117 5.7710
# 5 11.1822 -21.3637 5.1596 5.2117 41.8503 9.9919
# 6 3.2939 5.9712 17.3996 5.7710 9.9919 45.8541
#
#
#
# Elastic Compliance Matrix: (Units=1/GPa)
#
#
# Indices 1 2 3 4 5 6 
#
# 1 0.013004 -0.006310 -0.001436 0.000463 -0.007031 0.001906
# 2 -0.006310 0.024188 0.002709 -0.027942 0.018174 -0.004168
# 3 -0.001436 0.002709 0.012693 -0.013138 0.002798 -0.004022
# 4 0.000463 -0.027942 -0.013138 0.068460 -0.022456 0.004868
# 5 -0.007031 0.018174 0.002798 -0.022456 0.039585 -0.008723
# 6 0.001906 -0.004168 -0.004022 0.004868 -0.008723 0.025029
#
#
# Mechanical properties :
#
#
# Convention : Reuss Voigt Hill
#
# Bulk Modulus (GPa) = 25.11888 66.37500 45.74694
# Shear Modulus (GPa) = 24.23609 42.00224 33.11917
#
# Velocity S-wave (km/s) = 3.18935 4.19862 3.72829
# Velocity P-wave (km/s) = 4.90969 7.16675 6.14277
#
# Compressibility (1/GPa) = 0.03981070
#
# Stress axis : x y z
#
# Youngs Moduli (GPa) = 76.90058 41.34237 78.78197
#
# Poissons Ratio (x) = 0.26086 0.11314
# Poissons Ratio (y) = 0.48522 -0.21338
# Poissons Ratio (z) = 0.11044 -0.11198
#
# Static dielectric constant tensor:
#      x y z
#    x 1.997120 -0.037110 0.030540 
#    y -0.037110 1.955680 -0.008960 
#    z 0.030540 -0.008960 1.538580 
# 
# From -- ./inp_files/262233.got.cif
#   From: 2010.05.17/outbox.cif.g08.bks.cpg/sg2_132_cif.got.tgz:262233.got - 2010.06.03 11:33:40.
