data_PCOD9065029
_publ_section_title
;
Structure prediction by ZEFSAII (Michael W. Deem and Ramdas Pophale) SiO2 
 PCOD9065029
Probable space group: P -1
;
_chemical_formula_sum "Si O2"
_cell_formula_units_Z 16
_cell_length_a 11.842739
_cell_length_b 5.878464
_cell_length_c 19.366399
_cell_angle_alpha 123.419857
_cell_angle_beta 142.198783
_cell_angle_gamma 51.695831
_cell_volume 643.235426
_symmetry_space_group_name_H-M "P -1"
_symmetry_group_IT_number 2
_symmetry_cell_setting 'triclinic'
loop_
_space_group_symop_operation_xyz
x,y,z
-x,-y,-z
loop_
_atom_site_type_symbol
_atom_site_label
_atom_site_fract_x
_atom_site_fract_y
_atom_site_fract_z
Si Si1 0.871026 0.298202 0.399416
Si Si2 0.140778 0.305226 0.976766
Si Si3 0.224237 0.754840 0.266903
Si Si4 0.702817 0.368449 0.002926
Si Si5 0.305256 0.449576 0.774252
Si Si6 0.409355 0.811831 0.658764
Si Si7 0.039738 0.366056 0.261284
Si Si8 0.762887 0.191051 0.563710
O O1 0.697063 0.417808 0.280341
O O2 0.775595 0.274263 0.421507
O O3 0.000000 0.500000 0.500000
O O4 0.020330 0.005649 0.390443
O O5 0.250525 0.506503 0.028112
O O6 0.988807 0.276033 0.839622
O O7 0.244710 0.977306 0.006506
O O8 0.000000 0.500000 0.000000
O O9 0.390151 0.456013 0.274601
O O10 0.280167 0.850502 0.384528
O O11 0.166287 0.041693 0.240529
O O12 0.842520 0.474900 0.137254
O O13 0.464899 0.506012 0.909774
O O14 0.080787 0.588513 0.716774
O O15 0.375904 0.104052 0.734603
O O16 0.383525 0.855672 0.571261
O O17 0.207218 0.502466 0.369928
#
# Coordination Sequence:
#
# PCOD9065029 Si02
#       8
#     2   2   2   2   2   2   2   2
#     4  12  25  46  72 105 141 190 241 302 371 431
#     4  11  24  47  71 104 153 197 241 302 379 438
#     4  11  26  45  69 105 145 191 236 302 372 441
#     4  11  26  44  73 109 144 195 250 306 363 442
#     4  12  25  44  74 104 142 188 250 302 360 439
#     4  12  27  43  72 107 138 186 250 303 358 442
#     4  11  24  47  69 102 147 192 234 300 377 439
#     4  12  23  46  72  99 146 186 243 294 375 437
#
# _framework density 24.874254000000001
#
# number of rings (size 3 to 8) (size 9 to 14) (size 15 to 20)
#    0.000    0.500    5.000    3.000    3.500    1.500 
#    0.000    2.500    0.000    0.000    0.000    0.000 
#    0.000    0.000    0.000    0.000    0.000    0.000 
#
# Total GULP energy -89219.061858 kJ/mol
# GULP energy per Si atom -5576.191366 kJ/mol
# Density = 2.481764 g / cm^3
# Si number density = 24.874254 Si / 1000 Ang^3
#
#
#
# Elastic Constant Matrix: (Units=GPa)
#
#
# Indices 1 2 3 4 5 6 
#
# 1 75.2379 17.6334 -4.3554 -9.2624 -0.1708 11.6660
# 2 17.6334 93.5204 -7.3103 -4.4981 17.5695 -16.3513
# 3 -4.3554 -7.3103 83.4421 -2.0471 -14.8965 1.2368
# 4 -9.2624 -4.4981 -2.0471 23.6697 -6.1217 6.1204
# 5 -0.1708 17.5695 -14.8965 -6.1217 28.6078 -3.9172
# 6 11.6660 -16.3513 1.2368 6.1204 -3.9172 19.5222
#
#
#
# Elastic Compliance Matrix: (Units=1/GPa)
#
#
# Indices 1 2 3 4 5 6 
#
# 1 0.020516 -0.008086 0.002135 0.014042 0.006147 -0.022337
# 2 -0.008086 0.017084 -0.001215 -0.007714 -0.010140 0.019602
# 3 0.002135 -0.001215 0.013664 0.004742 0.008486 -0.002944
# 4 0.014042 -0.007714 0.004742 0.058595 0.015670 -0.030379
# 5 0.006147 -0.010140 0.008486 0.015670 0.047895 -0.008006
# 6 -0.022337 0.019602 -0.002944 -0.030379 -0.008006 0.089094
#
#
# Mechanical properties :
#
#
# Convention : Reuss Voigt Hill
#
# Bulk Modulus (GPa) = 27.07714 29.34841 28.21278
# Shear Modulus (GPa) = 18.28211 30.77545 24.52878
#
# Velocity S-wave (km/s) = 2.71399 3.52126 3.14365
# Velocity P-wave (km/s) = 4.55305 5.32510 4.95414
#
# Compressibility (1/GPa) = 0.03693152
#
# Stress axis : x y z
#
# Youngs Moduli (GPa) = 48.74230 58.53548 73.18336
#
# Poissons Ratio (x) = 0.47333 -0.15628
# Poissons Ratio (y) = 0.39414 0.08895
# Poissons Ratio (z) = -0.10408 0.07114
#
# Static dielectric constant tensor:
#      x y z
#    x 2.208330 0.243400 -0.041910 
#    y 0.243400 2.222760 0.047250 
#    z -0.041910 0.047250 2.016210 
# 
# From -- ./inp_files/77608.got.cif
#   From: 2010.05.17/outbox.cif.g08.bks.cpg/sg2_39_cif.got.tgz:77608.got - 2010.06.03 11:33:40.
