data_PCOD9065624
_publ_section_title
;
Structure prediction by ZEFSAII (Michael W. Deem and Ramdas Pophale) SiO2 
 PCOD9065624
Probable space group: P -1
;
_chemical_formula_sum "Si O2"
_cell_formula_units_Z 12
_cell_length_a 5.137444
_cell_length_b 12.298755
_cell_length_c 10.685397
_cell_angle_alpha 121.116249
_cell_angle_beta 112.382314
_cell_angle_gamma 96.303708
_cell_volume 492.754826
_symmetry_space_group_name_H-M "P -1"
_symmetry_group_IT_number 2
_symmetry_cell_setting 'triclinic'
loop_
_space_group_symop_operation_xyz
x,y,z
-x,-y,-z
loop_
_atom_site_type_symbol
_atom_site_label
_atom_site_fract_x
_atom_site_fract_y
_atom_site_fract_z
Si Si1 0.266863 0.400414 0.639675
Si Si2 0.196513 0.066128 0.198542
Si Si3 0.566596 0.635551 0.006642
Si Si4 0.609955 0.373735 0.468095
Si Si5 0.268054 0.820255 0.193826
Si Si6 0.181459 0.122392 0.512934
O O1 0.422736 0.556021 0.805826
O O2 0.529905 0.366601 0.596822
O O3 0.149756 0.265906 0.627462
O O4 0.953662 0.392878 0.515641
O O5 0.402687 0.222610 0.290748
O O6 0.072644 0.087430 0.327718
O O7 0.336587 0.956718 0.204365
O O8 0.000000 0.000000 0.000000
O O9 0.500000 0.500000 0.000000
O O10 0.376161 0.717887 0.074497
O O11 0.911170 0.739294 0.107494
O O12 0.500000 0.500000 0.500000
O O13 0.470716 0.855820 0.377468
O O14 0.000000 0.000000 0.500000
#
# Coordination Sequence:
#
# PCOD9065624 Si02
#       6
#     2   2   2   2   2   2
#     4  11  25  44  75 107 148 194 259 315 382 456
#     4  11  28  48  76 113 152 202 260 317 388 457
#     4  12  26  43  76 113 152 193 258 320 384 452
#     4  11  26  50  74 104 151 206 251 312 386 466
#     4  12  26  47  76 112 155 200 253 322 382 461
#     4  11  24  49  78 110 153 204 258 319 392 463
#
# _framework density 24.352886000000002
#
# number of rings (size 3 to 8) (size 9 to 14) (size 15 to 20)
#    0.000    0.667    1.667    4.500    9.333    1.333 
#    0.000    6.667    0.000    0.000    0.000    0.000 
#    0.000    0.000    0.000    0.000    0.000    0.000 
#
# Total GULP energy -66929.245615 kJ/mol
# GULP energy per Si atom -5577.437135 kJ/mol
# Density = 2.429746 g / cm^3
# Si number density = 24.352886 Si / 1000 Ang^3
#
#
#
# Elastic Constant Matrix: (Units=GPa)
#
#
# Indices 1 2 3 4 5 6 
#
# 1 63.0319 6.5035 16.6092 8.1603 -10.3741 -2.5455
# 2 6.5035 192.0313 35.4949 13.2058 7.9328 -20.2140
# 3 16.6092 35.4949 144.1948 6.1474 -10.6982 9.9538
# 4 8.1603 13.2058 6.1474 46.4281 -7.3058 -7.6795
# 5 -10.3741 7.9328 -10.6982 -7.3058 39.2955 15.5356
# 6 -2.5455 -20.2140 9.9538 -7.6795 15.5356 41.7129
#
#
#
# Elastic Compliance Matrix: (Units=1/GPa)
#
#
# Indices 1 2 3 4 5 6 
#
# 1 0.017218 -0.000418 -0.001428 -0.002193 0.004131 -0.000754
# 2 -0.000418 0.006387 -0.002112 -0.001309 -0.004146 0.004877
# 3 -0.001428 -0.002112 0.008260 -0.000373 0.004074 -0.004668
# 4 -0.002193 -0.001309 -0.000373 0.023219 0.002907 0.002513
# 5 0.004131 -0.004146 0.004074 0.002907 0.035055 -0.015250
# 6 -0.000754 0.004877 -0.004668 0.002513 -0.015250 0.033547
#
#
# Mechanical properties :
#
#
# Convention : Reuss Voigt Hill
#
# Bulk Modulus (GPa) = 41.75955 57.38591 49.57273
# Shear Modulus (GPa) = 35.82027 48.19731 42.00879
#
# Velocity S-wave (km/s) = 3.83937 4.45356 4.15782
# Velocity P-wave (km/s) = 6.06954 7.07538 6.59167
#
# Compressibility (1/GPa) = 0.02394662
#
# Stress axis : x y z
#
# Youngs Moduli (GPa) = 58.07906 156.57317 121.06550
#
# Poissons Ratio (x) = 0.06550 0.17291
# Poissons Ratio (y) = 0.02430 0.25574
# Poissons Ratio (z) = 0.08295 0.33075
#
# Static dielectric constant tensor:
#      x y z
#    x 2.022110 0.156350 -0.112120 
#    y 0.156350 2.163470 -0.111560 
#    z -0.112120 -0.111560 2.123820 
# 
# From -- ./inp_files/362438.got.cif
#   From: 2010.05.17/outbox.cif.g08.bks.cpg/sg2_182_cif.got.tgz:362438.got - 2010.06.03 11:33:40.
