data_PCOD9065549
_publ_section_title
;
Structure prediction by ZEFSAII (Michael W. Deem and Ramdas Pophale) SiO2 
 PCOD9065549
Probable space group: P -1
;
_chemical_formula_sum "Si O2"
_cell_formula_units_Z 14
_cell_length_a 8.793534
_cell_length_b 20.425489
_cell_length_c 6.619368
_cell_angle_alpha 132.773465
_cell_angle_beta 129.470683
_cell_angle_gamma 49.914370
_cell_volume 624.654828
_symmetry_space_group_name_H-M "P -1"
_symmetry_group_IT_number 2
_symmetry_cell_setting 'triclinic'
loop_
_space_group_symop_operation_xyz
x,y,z
-x,-y,-z
loop_
_atom_site_type_symbol
_atom_site_label
_atom_site_fract_x
_atom_site_fract_y
_atom_site_fract_z
Si Si1 0.415959 0.103295 0.880724
Si Si2 0.477264 0.706197 0.651681
Si Si3 0.219474 0.462358 0.728383
Si Si4 0.898224 0.331013 0.896018
Si Si5 0.765994 0.655277 0.125893
Si Si6 0.145956 0.201895 0.209573
Si Si7 0.146994 0.060842 0.218426
O O1 0.228465 0.100037 0.567989
O O2 0.628441 0.012582 0.832965
O O3 0.474620 0.197150 0.095947
O O4 0.320064 0.119501 0.055768
O O5 0.620726 0.630963 0.447765
O O6 0.236714 0.724703 0.434903
O O7 0.556149 0.660193 0.840345
O O8 0.176582 0.431744 0.851175
O O9 0.000000 0.500000 0.500000
O O10 0.265624 0.559735 0.976381
O O11 0.067091 0.343072 0.903621
O O12 0.003373 0.277974 0.081853
O O13 0.744944 0.745206 0.439468
O O14 0.039023 0.147412 0.150837
O O15 0.000000 0.000000 0.000000
#
# Coordination Sequence:
#
# PCOD9065549 Si02
#       7
#     2   2   2   2   2   2   2
#     4  11  24  49  70 106 140 182 230 291 356 417
#     4  12  26  45  72 104 145 186 237 287 349 415
#     4  12  23  47  72 102 145 190 235 291 343 406
#     4  12  27  44  71 108 143 188 241 284 343 415
#     4  12  23  46  72  98 147 186 233 286 348 405
#     4  12  23  49  73 102 143 185 231 288 353 417
#     4  11  27  48  77 104 136 179 236 292 354 423
#
# _framework density 22.412376999999999
#
# number of rings (size 3 to 8) (size 9 to 14) (size 15 to 20)
#    0.000    0.286    7.143    1.286    4.000    2.286 
#    5.143    0.000    0.000    0.000    0.000    0.000 
#    0.000    0.000    0.000    0.000    0.000    0.000 
#
# Total GULP energy -78235.505921 kJ/mol
# GULP energy per Si atom -5588.250423 kJ/mol
# Density = 2.236137 g / cm^3
# Si number density = 22.412377 Si / 1000 Ang^3
#
#
#
# Elastic Constant Matrix: (Units=GPa)
#
#
# Indices 1 2 3 4 5 6 
#
# 1 66.1214 51.3869 57.7243 -11.6438 -5.5157 14.2970
# 2 51.3869 97.6407 41.1973 -5.6815 -13.2881 22.4314
# 3 57.7243 41.1973 148.3964 -0.6180 -0.2520 11.5652
# 4 -11.6438 -5.6815 -0.6180 46.3883 -0.9588 -7.4106
# 5 -5.5157 -13.2881 -0.2520 -0.9588 45.5196 7.3541
# 6 14.2970 22.4314 11.5652 -7.4106 7.3541 47.0935
#
#
#
# Elastic Compliance Matrix: (Units=1/GPa)
#
#
# Indices 1 2 3 4 5 6 
#
# 1 0.036594 -0.014316 -0.010172 0.007189 0.000469 -0.000734
# 2 -0.014316 0.019470 0.000645 -0.002086 0.004907 -0.006181
# 3 -0.010172 0.000645 0.010506 -0.002357 -0.001034 -0.000008
# 4 0.007189 -0.002086 -0.002357 0.023569 0.000251 0.003060
# 5 0.000469 0.004907 -0.001034 0.000251 0.024427 -0.006001
# 6 -0.000734 -0.006181 -0.000008 0.003060 -0.006001 0.025822
#
#
# Mechanical properties :
#
#
# Convention : Reuss Voigt Hill
#
# Bulk Modulus (GPa) = 52.95810 68.08616 60.52213
# Shear Modulus (GPa) = 25.72442 38.59027 32.15734
#
# Velocity S-wave (km/s) = 3.39156 4.15399 3.79199
# Velocity P-wave (km/s) = 6.24637 7.31111 6.79961
#
# Compressibility (1/GPa) = 0.01888285
#
# Stress axis : x y z
#
# Youngs Moduli (GPa) = 27.32715 51.36041 95.18725
#
# Poissons Ratio (x) = 0.73528 0.96826
# Poissons Ratio (y) = 0.39122 -0.06138
# Poissons Ratio (z) = 0.27798 -0.03312
#
# Static dielectric constant tensor:
#      x y z
#    x 1.843780 -0.001570 0.004680 
#    y -0.001570 1.896990 0.033040 
#    z 0.004680 0.033040 1.859400 
# 
# From -- ./inp_files/54021.got.cif
#   From: 2010.05.17/outbox.cif.g08.bks.cpg/sg2_28_cif.got.tgz:54021.got - 2010.06.03 11:33:40.
