data_PCOD9065459
_publ_section_title
;
Structure prediction by ZEFSAII (Michael W. Deem and Ramdas Pophale) SiO2 
 PCOD9065459
Probable space group: P -1
;
_chemical_formula_sum "Si O2"
_cell_formula_units_Z 16
_cell_length_a 13.410343
_cell_length_b 8.163095
_cell_length_c 8.520220
_cell_angle_alpha 129.202638
_cell_angle_beta 89.029314
_cell_angle_gamma 94.486716
_cell_volume 719.916523
_symmetry_space_group_name_H-M "P -1"
_symmetry_group_IT_number 2
_symmetry_cell_setting 'triclinic'
loop_
_space_group_symop_operation_xyz
x,y,z
-x,-y,-z
loop_
_atom_site_type_symbol
_atom_site_label
_atom_site_fract_x
_atom_site_fract_y
_atom_site_fract_z
Si Si1 0.990679 0.580132 0.222396
Si Si2 0.610976 0.002764 0.064266
Si Si3 0.778546 0.717685 0.287724
Si Si4 0.958842 0.793908 0.783568
Si Si5 0.675078 0.363328 0.530899
Si Si6 0.610947 0.549833 0.959895
Si Si7 0.265709 0.172697 0.306678
Si Si8 0.124376 0.853087 0.553915
O O1 0.873949 0.601267 0.274245
O O2 0.034905 0.408241 0.228957
O O3 0.063478 0.797511 0.362519
O O4 0.000000 0.500000 0.000000
O O5 0.628729 0.195022 0.303136
O O6 0.621203 0.784937 0.026168
O O7 0.684438 0.997373 0.907508
O O8 0.500000 0.000000 0.000000
O O9 0.732560 0.836207 0.509484
O O10 0.830227 0.905098 0.290188
O O11 0.696616 0.568066 0.103912
O O12 0.848407 0.820153 0.740823
O O13 0.038130 0.786484 0.638587
O O14 0.000000 0.000000 0.000000
O O15 0.627079 0.386788 0.718662
O O16 0.679691 0.596537 0.596765
O O17 0.784892 0.290303 0.514145
O O18 0.500000 0.500000 0.000000
#
# Coordination Sequence:
#
# PCOD9065459 Si02
#       8
#     2   2   2   2   2   2   2   2
#     4  12  25  41  69 106 145 191 242 285 350 428
#     4  11  27  49  76 103 136 189 244 298 364 430
#     4  12  26  45  69 110 145 186 243 299 356 429
#     4  12  25  43  69  99 147 195 234 283 351 425
#     4  11  24  48  74  99 144 191 232 296 363 430
#     4  11  28  49  74 104 143 183 238 311 365 418
#     4  11  26  46  71 105 145 188 240 294 358 427
#     4  12  23  45  68 102 148 191 233 286 359 421
#
# _framework density 22.224799000000001
#
# number of rings (size 3 to 8) (size 9 to 14) (size 15 to 20)
#    0.000    0.500    3.750    3.750    8.750    2.500 
#    0.000    0.000    0.000    0.000    0.000    0.000 
#    0.000    0.000    0.000    0.000    0.000    0.000 
#
# Total GULP energy -89498.498238 kJ/mol
# GULP energy per Si atom -5593.656140 kJ/mol
# Density = 2.217421 g / cm^3
# Si number density = 22.224799 Si / 1000 Ang^3
#
#
#
# Elastic Constant Matrix: (Units=GPa)
#
#
# Indices 1 2 3 4 5 6 
#
# 1 152.7512 11.7675 81.3572 -13.6890 10.1226 9.4808
# 2 11.7675 35.2842 16.1541 -1.0955 4.2985 6.4591
# 3 81.3572 16.1541 207.2079 -0.4148 13.3045 16.0123
# 4 -13.6890 -1.0955 -0.4148 34.3015 3.4423 -3.7353
# 5 10.1226 4.2985 13.3045 3.4423 36.4792 -3.6834
# 6 9.4808 6.4591 16.0123 -3.7353 -3.6834 32.2586
#
#
#
# Elastic Compliance Matrix: (Units=1/GPa)
#
#
# Indices 1 2 3 4 5 6 
#
# 1 0.008797 -0.001064 -0.003224 0.003533 -0.001527 -0.000537
# 2 -0.001064 0.030746 -0.001330 0.000282 -0.003429 -0.005542
# 3 -0.003224 -0.001330 0.006462 -0.001361 -0.001410 -0.002312
# 4 0.003533 0.000282 -0.001361 0.031182 -0.003174 0.002829
# 5 -0.001527 -0.003429 -0.001410 -0.003174 0.029543 0.004841
# 6 -0.000537 -0.005542 -0.002312 0.002829 0.004841 0.034295
#
#
# Mechanical properties :
#
#
# Convention : Reuss Voigt Hill
#
# Bulk Modulus (GPa) = 28.76147 68.20008 48.48077
# Shear Modulus (GPa) = 30.51517 39.67215 35.09366
#
# Velocity S-wave (km/s) = 3.70945 4.22956 3.97801
# Velocity P-wave (km/s) = 5.59607 7.38954 6.55444
#
# Compressibility (1/GPa) = 0.03476874
#
# Stress axis : x y z
#
# Youngs Moduli (GPa) = 113.67448 32.52443 154.74234
#
# Poissons Ratio (x) = 0.03459 0.49896
# Poissons Ratio (y) = 0.12089 0.20587
# Poissons Ratio (z) = 0.36654 0.04327
#
# Static dielectric constant tensor:
#      x y z
#    x 1.788810 -0.003180 -0.008230 
#    y -0.003180 1.870860 -0.043250 
#    z -0.008230 -0.043250 1.764890 
# 
# From -- ./inp_files/246004.got.cif
#   From: 2010.05.17/outbox.cif.g08.bks.cpg/sg2_124_cif.got.tgz:246004.got - 2010.06.03 11:33:40.
