data_PCOD9065322
_publ_section_title
;
Structure prediction by ZEFSAII (Michael W. Deem and Ramdas Pophale) SiO2 
 PCOD9065322
Probable space group: P -1
;
_chemical_formula_sum "Si O2"
_cell_formula_units_Z 15
_cell_length_a 9.396066
_cell_length_b 11.220887
_cell_length_c 8.868024
_cell_angle_alpha 71.120662
_cell_angle_beta 132.314947
_cell_angle_gamma 119.269026
_cell_volume 603.085187
_symmetry_space_group_name_H-M "P -1"
_symmetry_group_IT_number 2
_symmetry_cell_setting 'triclinic'
loop_
_space_group_symop_operation_xyz
x,y,z
-x,-y,-z
loop_
_atom_site_type_symbol
_atom_site_label
_atom_site_fract_x
_atom_site_fract_y
_atom_site_fract_z
Si Si1 0.418284 0.069504 0.084031
Si Si2 0.295257 0.397700 0.645306
Si Si3 0.263529 0.522725 0.989758
Si Si4 0.668721 0.931752 0.646356
Si Si5 0.224558 0.792030 0.925750
Si Si6 0.051138 0.097571 0.642677
Si Si7 0.744995 0.692339 0.675669
Si Si8 0.000000 0.500000 0.500000
O O1 0.328837 0.098866 0.162943
O O2 0.657867 0.152812 0.173939
O O3 0.277576 0.101621 0.846559
O O4 0.363393 0.907723 0.094086
O O5 0.093956 0.257954 0.591851
O O6 0.346089 0.382805 0.514344
O O7 0.210694 0.516088 0.551848
O O8 0.486007 0.411467 0.883338
O O9 0.215873 0.640396 0.996520
O O10 0.124477 0.490394 0.754028
O O11 0.244147 0.399100 0.137966
O O12 0.627124 0.790696 0.590776
O O13 0.500000 0.000000 0.500000
O O14 0.878926 0.034432 0.674912
O O15 0.990146 0.782004 0.779806
O O16 0.000000 0.000000 0.500000
#
# Coordination Sequence:
#
# PCOD9065322 Si02
#       8
#     2   2   2   2   2   2   2   1
#     4  11  26  47  77 114 158 202 266 335 401 481
#     4  12  27  50  82 115 163 216 271 336 411 488
#     4  12  28  51  82 117 161 218 272 341 403 490
#     4  12  30  45  77 121 158 213 271 334 401 492
#     4  11  24  47  84 109 155 215 267 328 416 477
#     4  12  25  50  80 111 157 208 263 331 411 480
#     4  12  27  52  78 115 169 215 269 334 413 487
#     4  12  30  50  78 118 156 218 276 336 408 480
#
# _framework density 24.872108000000001
#
# number of rings (size 3 to 8) (size 9 to 14) (size 15 to 20)
#    0.000    0.267    5.333    1.600    9.333    2.133 
#    0.000    0.000    0.000    0.000    0.000    0.000 
#    0.000    0.000    0.000    0.000    0.000    0.000 
#
# Total GULP energy -83640.158642 kJ/mol
# GULP energy per Si atom -5576.010576 kJ/mol
# Density = 2.481550 g / cm^3
# Si number density = 24.872108 Si / 1000 Ang^3
#
#
#
# Elastic Constant Matrix: (Units=GPa)
#
#
# Indices 1 2 3 4 5 6 
#
# 1 138.1115 31.3265 23.5345 10.3729 6.3693 -12.0959
# 2 31.3265 65.1081 10.1324 -14.4120 4.2783 13.8948
# 3 23.5345 10.1324 143.5802 -0.2413 10.0669 -6.6411
# 4 10.3729 -14.4120 -0.2413 22.7032 -4.0003 5.4685
# 5 6.3693 4.2783 10.0669 -4.0003 51.1659 -7.0325
# 6 -12.0959 13.8948 -6.6411 5.4685 -7.0325 47.1637
#
#
#
# Elastic Compliance Matrix: (Units=1/GPa)
#
#
# Indices 1 2 3 4 5 6 
#
# 1 0.011158 -0.009570 -0.000818 -0.012951 -0.000479 0.006996
# 2 -0.009570 0.029007 -0.001029 0.026053 -0.000962 -0.014309
# 3 -0.000818 -0.001029 0.007299 -0.000653 -0.001158 0.001024
# 4 -0.012951 0.026053 -0.000653 0.071520 0.002542 -0.019002
# 5 -0.000479 -0.000962 -0.001158 0.002542 0.020490 0.002758
# 6 0.006996 -0.014309 0.001024 -0.019002 0.002758 0.029971
#
#
# Mechanical properties :
#
#
# Convention : Reuss Voigt Hill
#
# Bulk Modulus (GPa) = 40.60010 52.97630 46.78820
# Shear Modulus (GPa) = 24.93891 42.99366 33.96629
#
# Velocity S-wave (km/s) = 3.16996 4.16214 3.69946
# Velocity P-wave (km/s) = 5.45501 6.66660 6.09101
#
# Compressibility (1/GPa) = 0.02463048
#
# Stress axis : x y z
#
# Youngs Moduli (GPa) = 89.62157 34.47394 137.00544
#
# Poissons Ratio (x) = 0.32990 0.11210
# Poissons Ratio (y) = 0.85765 0.14099
# Poissons Ratio (z) = 0.07333 0.03548
#
# Static dielectric constant tensor:
#      x y z
#    x 1.983150 -0.024740 -0.050880 
#    y -0.024740 2.057280 -0.033400 
#    z -0.050880 -0.033400 2.017980 
# 
# From -- ./inp_files/178480.got.cif
#   From: 2010.05.17/outbox.cif.g08.bks.cpg/sg2_90_cif.got.tgz:178480.got - 2010.06.03 11:33:40.
