data_PCOD9065033
_publ_section_title
;
Structure prediction by ZEFSAII (Michael W. Deem and Ramdas Pophale) SiO2 
 PCOD9065033
Probable space group: P -1
;
_chemical_formula_sum "Si O2"
_cell_formula_units_Z 12
_cell_length_a 8.863321
_cell_length_b 7.754642
_cell_length_c 10.600389
_cell_angle_alpha 127.290850
_cell_angle_beta 122.031506
_cell_angle_gamma 86.018300
_cell_volume 455.833192
_symmetry_space_group_name_H-M "P -1"
_symmetry_group_IT_number 2
_symmetry_cell_setting 'triclinic'
loop_
_space_group_symop_operation_xyz
x,y,z
-x,-y,-z
loop_
_atom_site_type_symbol
_atom_site_label
_atom_site_fract_x
_atom_site_fract_y
_atom_site_fract_z
Si Si1 0.202700 0.583438 0.471654
Si Si2 0.497171 0.254176 0.108166
Si Si3 0.195286 0.471369 0.799288
Si Si4 0.215891 0.166003 0.140185
Si Si5 0.725665 0.961678 0.455448
Si Si6 0.709427 0.180635 0.799168
O O1 0.338837 0.594650 0.654293
O O2 0.251981 0.416983 0.322869
O O3 0.249682 0.838423 0.547506
O O4 0.970837 0.481705 0.334322
O O5 0.585314 0.367835 0.067084
O O6 0.288871 0.213197 0.050530
O O7 0.500000 0.000000 0.000000
O O8 0.184159 0.214766 0.641861
O O9 0.172812 0.572441 0.971698
O O10 0.323391 0.025420 0.202969
O O11 0.000000 0.000000 0.000000
O O12 0.799608 0.100190 0.681921
O O13 0.500964 0.821502 0.326791
#
# Coordination Sequence:
#
# PCOD9065033 Si02
#       6
#     2   2   2   2   2   2
#     4  12  25  46  71 105 142 188 236 293 354 422
#     4  12  24  43  73 105 140 185 238 296 353 414
#     4  12  25  47  70 106 146 185 238 291 353 427
#     4  12  24  47  72 103 139 180 244 296 346 418
#     4  11  26  44  72 102 148 190 232 289 356 429
#     4  11  24  47  69 104 142 189 237 291 357 414
#
# _framework density 26.325417999999999
#
# number of rings (size 3 to 8) (size 9 to 14) (size 15 to 20)
#    0.000    0.333    5.000    3.000    4.667    2.000 
#    0.000    0.000    0.000    0.000    0.000    0.000 
#    0.000    0.000    0.000    0.000    0.000    0.000 
#
# Total GULP energy -67123.941109 kJ/mol
# GULP energy per Si atom -5593.661759 kJ/mol
# Density = 2.626550 g / cm^3
# Si number density = 26.325418 Si / 1000 Ang^3
#
#
#
# Elastic Constant Matrix: (Units=GPa)
#
#
# Indices 1 2 3 4 5 6 
#
# 1 109.8191 14.6094 54.5170 9.1033 -0.9460 -16.5216
# 2 14.6094 80.4943 11.3198 12.3138 -13.6287 -13.6098
# 3 54.5170 11.3198 127.6187 8.0576 -32.4589 -18.4198
# 4 9.1033 12.3138 8.0576 46.7236 -12.4274 -7.1837
# 5 -0.9460 -13.6287 -32.4589 -12.4274 58.9796 16.6101
# 6 -16.5216 -13.6098 -18.4198 -7.1837 16.6101 41.9101
#
#
#
# Elastic Compliance Matrix: (Units=1/GPa)
#
#
# Indices 1 2 3 4 5 6 
#
# 1 0.012916 -0.001430 -0.005981 -0.001836 -0.004813 0.003592
# 2 -0.001430 0.013834 0.000493 -0.002445 0.002117 0.002887
# 3 -0.005981 0.000493 0.012079 0.000819 0.006666 0.000610
# 4 -0.001836 -0.002445 0.000819 0.023637 0.004527 0.001099
# 5 -0.004813 0.002117 0.006666 0.004527 0.023961 -0.007001
# 6 0.003592 0.002887 0.000610 0.001099 -0.007001 0.029445
#
#
# Mechanical properties :
#
#
# Convention : Reuss Voigt Hill
#
# Bulk Modulus (GPa) = 40.00867 53.20269 46.60568
# Shear Modulus (GPa) = 36.22204 45.35504 40.78854
#
# Velocity S-wave (km/s) = 3.71338 4.15524 3.94051
# Velocity P-wave (km/s) = 5.79796 6.57836 6.20045
#
# Compressibility (1/GPa) = 0.02499458
#
# Stress axis : x y z
#
# Youngs Moduli (GPa) = 77.42265 72.28521 82.79021
#
# Poissons Ratio (x) = 0.10336 0.49513
# Poissons Ratio (y) = 0.11071 -0.04084
# Poissons Ratio (z) = 0.46303 -0.03566
#
# Static dielectric constant tensor:
#      x y z
#    x 2.132260 0.025040 0.018650 
#    y 0.025040 2.100960 -0.089150 
#    z 0.018650 -0.089150 2.100860 
# 
# From -- ./inp_files/149055.got.cif
#   From: 2010.05.17/outbox.cif.g08.bks.cpg/sg2_75_cif.got.tgz:149055.got - 2010.06.03 11:33:40.
