data_PCOD9065437
_publ_section_title
;
Structure prediction by ZEFSAII (Michael W. Deem and Ramdas Pophale) SiO2 
 PCOD9065437
Probable space group: P -1
;
_chemical_formula_sum "Si O2"
_cell_formula_units_Z 13
_cell_length_a 9.112230
_cell_length_b 8.533200
_cell_length_c 12.237239
_cell_angle_alpha 83.484353
_cell_angle_beta 144.122967
_cell_angle_gamma 100.893683
_cell_volume 546.288116
_symmetry_space_group_name_H-M "P -1"
_symmetry_group_IT_number 2
_symmetry_cell_setting 'triclinic'
loop_
_space_group_symop_operation_xyz
x,y,z
-x,-y,-z
loop_
_atom_site_type_symbol
_atom_site_label
_atom_site_fract_x
_atom_site_fract_y
_atom_site_fract_z
Si Si1 0.665425 0.034412 0.991221
Si Si2 0.763716 0.909782 0.439983
Si Si3 0.084420 0.615769 0.871554
Si Si4 0.679112 0.561083 0.800786
Si Si5 0.876632 0.544350 0.533470
Si Si6 0.500000 0.000000 0.500000
Si Si7 0.999010 0.146101 0.903826
O O1 0.483835 0.065868 0.780617
O O2 0.871296 0.193241 0.121191
O O3 0.500000 0.000000 0.000000
O O4 0.796044 0.882208 0.059606
O O5 0.805055 0.723714 0.482825
O O6 0.702311 0.974564 0.518912
O O7 0.000000 0.000000 0.500000
O O8 0.814245 0.544566 0.768824
O O9 0.072396 0.540104 0.751086
O O10 0.299048 0.574214 0.086010
O O11 0.390284 0.576580 0.607180
O O12 0.873594 0.704276 0.961311
O O13 0.000000 0.500000 0.500000
O O14 0.724245 0.125728 0.686339
O O15 0.000000 0.000000 0.000000
#
# Coordination Sequence:
#
# PCOD9065437 Si02
#       7
#     2   2   2   2   2   1   2
#     4  12  25  48  75 106 154 196 255 320 378 455
#     4  12  27  50  77 115 154 200 265 318 381 464
#     4  11  24  48  74 103 141 199 247 311 382 443
#     4  11  26  47  73 107 148 189 255 314 373 461
#     4  12  29  48  73 110 154 198 249 313 386 456
#     4  12  26  48  82 110 152 194 258 318 380 452
#     4  12  25  45  74 112 143 193 252 310 380 449
#
# _framework density 23.796968
#
# number of rings (size 3 to 8) (size 9 to 14) (size 15 to 20)
#    0.000    0.308    4.615    3.231    6.462    4.308 
#    0.000    0.000    0.000    0.000    0.000    0.000 
#    0.000    0.000    0.000    0.000    0.000    0.000 
#
# Total GULP energy -72396.222959 kJ/mol
# GULP energy per Si atom -5568.940228 kJ/mol
# Density = 2.374280 g / cm^3
# Si number density = 23.796968 Si / 1000 Ang^3
#
#
#
# Elastic Constant Matrix: (Units=GPa)
#
#
# Indices 1 2 3 4 5 6 
#
# 1 168.8453 7.5935 24.5307 8.3099 -25.8577 -4.9657
# 2 7.5935 64.0653 16.0391 12.8399 -7.7563 -0.3699
# 3 24.5307 16.0391 107.4307 24.2759 -3.9764 5.9025
# 4 8.3099 12.8399 24.2759 31.2891 -2.0215 -3.1331
# 5 -25.8577 -7.7563 -3.9764 -2.0215 42.8062 4.9237
# 6 -4.9657 -0.3699 5.9025 -3.1331 4.9237 22.2561
#
#
#
# Elastic Compliance Matrix: (Units=1/GPa)
#
#
# Indices 1 2 3 4 5 6 
#
# 1 0.006755 0.000099 -0.001372 -0.000426 0.003840 0.000963
# 2 0.000099 0.017470 -0.001050 -0.006286 0.002939 -0.000944
# 3 -0.001372 -0.001050 0.012103 -0.009067 0.000237 -0.004862
# 4 -0.000426 -0.006286 -0.009067 0.042455 -0.001205 0.008448
# 5 0.003840 0.002939 0.000237 -0.001205 0.026782 -0.005252
# 6 0.000963 -0.000944 -0.004862 0.008448 -0.005252 0.048771
#
#
# Mechanical properties :
#
#
# Convention : Reuss Voigt Hill
#
# Bulk Modulus (GPa) = 31.56347 48.51865 40.04106
# Shear Modulus (GPa) = 29.49099 38.74881 34.11990
#
# Velocity S-wave (km/s) = 3.52415 4.03961 3.79065
# Velocity P-wave (km/s) = 5.46370 6.49544 6.00178
#
# Compressibility (1/GPa) = 0.03168220
#
# Stress axis : x y z
#
# Youngs Moduli (GPa) = 148.04366 57.23981 82.62472
#
# Poissons Ratio (x) = -0.00564 0.11334
# Poissons Ratio (y) = -0.01459 0.08674
# Poissons Ratio (z) = 0.20307 0.06009
#
# Static dielectric constant tensor:
#      x y z
#    x 1.915040 0.014470 -0.017040 
#    y 0.014470 2.002380 -0.022330 
#    z -0.017040 -0.022330 1.873140 
# 
# From -- ./inp_files/173741.got.cif
#   From: 2010.05.17/outbox.cif.g08.bks.cpg/sg2_87_cif.got.tgz:173741.got - 2010.06.03 11:33:40.
