data_PCOD9065067
_publ_section_title
;
Structure prediction by ZEFSAII (Michael W. Deem and Ramdas Pophale) SiO2 
 PCOD9065067
Probable space group: P -1
;
_chemical_formula_sum "Si O2"
_cell_formula_units_Z 14
_cell_length_a 11.889014
_cell_length_b 20.464738
_cell_length_c 13.259845
_cell_angle_alpha 146.964382
_cell_angle_beta 136.358237
_cell_angle_gamma 20.117863
_cell_volume 569.180653
_symmetry_space_group_name_H-M "P -1"
_symmetry_group_IT_number 2
_symmetry_cell_setting 'triclinic'
loop_
_space_group_symop_operation_xyz
x,y,z
-x,-y,-z
loop_
_atom_site_type_symbol
_atom_site_label
_atom_site_fract_x
_atom_site_fract_y
_atom_site_fract_z
Si Si1 0.455176 0.885321 0.816038
Si Si2 0.295607 0.213435 0.344221
Si Si3 0.865728 0.784926 0.286417
Si Si4 0.711643 0.259495 0.443511
Si Si5 0.063438 0.460343 0.821993
Si Si6 0.789401 0.071291 0.828865
Si Si7 0.062189 0.770103 0.801964
O O1 0.420348 0.913043 0.707488
O O2 0.203759 0.937107 0.744437
O O3 0.796525 0.630745 0.776674
O O4 0.500000 0.000000 0.000000
O O5 0.000000 0.500000 0.500000
O O6 0.122483 0.195005 0.191116
O O7 0.466336 0.081276 0.391725
O O8 0.937579 0.664155 0.278572
O O9 0.078375 0.769736 0.404815
O O10 0.948288 0.638711 0.058959
O O11 0.333725 0.519854 0.586400
O O12 0.837216 0.196319 0.327206
O O13 0.462904 0.235002 0.767318
O O14 0.756330 0.233811 0.035662
O O15 0.787477 0.008646 0.855402
#
# Coordination Sequence:
#
# PCOD9065067 Si02
#       7
#     2   2   2   2   2   2   2
#     4  12  27  48  71 104 149 192 243 297 371 437
#     4  12  25  47  70  99 149 198 232 294 369 439
#     4  11  26  47  75 107 146 192 249 301 365 426
#     4  12  27  44  75 110 144 192 247 304 360 438
#     4  11  25  47  75 107 147 191 243 309 359 436
#     4  11  25  43  75 109 148 186 245 310 358 423
#     4  11  24  47  70 110 147 193 241 304 360 436
#
# _framework density 24.59676
#
# number of rings (size 3 to 8) (size 9 to 14) (size 15 to 20)
#    0.000    0.571    5.714    1.286    6.000    1.143 
#    2.571    1.429    0.000    0.000    0.000    0.000 
#    0.000    0.000    0.000    0.000    0.000    0.000 
#
# Total GULP energy -77980.194003 kJ/mol
# GULP energy per Si atom -5570.013857 kJ/mol
# Density = 2.454078 g / cm^3
# Si number density = 24.596760 Si / 1000 Ang^3
#
#
#
# Elastic Constant Matrix: (Units=GPa)
#
#
# Indices 1 2 3 4 5 6 
#
# 1 154.9408 38.8718 43.2740 -6.8802 44.0159 2.7774
# 2 38.8718 89.1917 40.1174 -8.5383 32.9212 8.8852
# 3 43.2740 40.1174 122.8104 -22.4676 34.5821 -3.4084
# 4 -6.8802 -8.5383 -22.4676 39.8847 -11.6582 9.6789
# 5 44.0159 32.9212 34.5821 -11.6582 57.3230 -2.2032
# 6 2.7774 8.8852 -3.4084 9.6789 -2.2032 34.5115
#
#
#
# Elastic Compliance Matrix: (Units=1/GPa)
#
#
# Indices 1 2 3 4 5 6 
#
# 1 0.008612 -0.001224 -0.001323 -0.000936 -0.005325 -0.000586
# 2 -0.001224 0.016061 -0.002961 0.000866 -0.006513 -0.004987
# 3 -0.001323 -0.002961 0.011298 0.004444 -0.003175 0.000536
# 4 -0.000936 0.000866 0.004444 0.030563 0.003446 -0.008060
# 5 -0.005325 -0.006513 -0.003175 0.003446 0.027991 0.002612
# 6 -0.000586 -0.004987 0.000536 -0.008060 0.002612 0.032787
#
#
# Mechanical properties :
#
#
# Convention : Reuss Voigt Hill
#
# Bulk Modulus (GPa) = 40.07236 67.94103 54.00669
# Shear Modulus (GPa) = 34.09542 42.65583 38.37563
#
# Velocity S-wave (km/s) = 3.72718 4.16890 3.95421
# Velocity P-wave (km/s) = 5.90335 7.13126 6.54616
#
# Compressibility (1/GPa) = 0.02495486
#
# Stress axis : x y z
#
# Youngs Moduli (GPa) = 116.11331 62.26252 88.51091
#
# Poissons Ratio (x) = 0.07623 0.11708
# Poissons Ratio (y) = 0.14215 0.26209
# Poissons Ratio (z) = 0.15360 0.18437
#
# Static dielectric constant tensor:
#      x y z
#    x 1.918090 -0.038100 -0.105780 
#    y -0.038100 1.880300 0.066420 
#    z -0.105780 0.066420 2.135110 
# 
# From -- ./inp_files/271312.got.cif
#   From: 2010.05.17/outbox.cif.g08.bks.cpg/sg2_136_cif.got.tgz:271312.got - 2010.06.03 11:33:40.
