data_PCOD9065334
_publ_section_title
;
Structure prediction by ZEFSAII (Michael W. Deem and Ramdas Pophale) SiO2 
 PCOD9065334
Probable space group: P -1
;
_chemical_formula_sum "Si O2"
_cell_formula_units_Z 12
_cell_length_a 9.515811
_cell_length_b 9.434177
_cell_length_c 9.341233
_cell_angle_alpha 95.159045
_cell_angle_beta 76.753755
_cell_angle_gamma 136.223028
_cell_volume 561.187923
_symmetry_space_group_name_H-M "P -1"
_symmetry_group_IT_number 2
_symmetry_cell_setting 'triclinic'
loop_
_space_group_symop_operation_xyz
x,y,z
-x,-y,-z
loop_
_atom_site_type_symbol
_atom_site_label
_atom_site_fract_x
_atom_site_fract_y
_atom_site_fract_z
Si Si1 0.707155 0.313009 0.660340
Si Si2 0.384572 0.922144 0.864335
Si Si3 0.834394 0.441168 0.323627
Si Si4 0.633586 0.565425 0.833335
Si Si5 0.909085 0.025548 0.154735
Si Si6 0.339305 0.393562 0.658936
O O1 0.705756 0.322131 0.489907
O O2 0.622386 0.395999 0.762444
O O3 0.938982 0.457286 0.681252
O O4 0.568890 0.084123 0.723971
O O5 0.258267 0.697205 0.810387
O O6 0.225128 0.941226 0.879040
O O7 0.500000 0.000000 0.000000
O O8 0.834891 0.611301 0.323740
O O9 0.502069 0.565788 0.754781
O O10 0.500000 0.500000 0.000000
O O11 0.878639 0.770556 0.801382
O O12 0.775301 0.829948 0.275667
O O13 0.000000 0.000000 0.000000
O O14 0.500000 0.500000 0.500000
#
# Coordination Sequence:
#
# PCOD9065334 Si02
#       6
#     2   2   2   2   2   2
#     4  11  24  48  69 100 143 186 228 289 357 411
#     4  12  27  43  72 104 137 182 238 285 352 420
#     4  11  26  45  72 101 142 181 234 290 349 426
#     4  12  24  45  73  98 145 187 230 291 355 417
#     4  12  26  46  70 102 144 187 230 291 357 419
#     4  12  26  46  71 107 140 183 237 290 352 421
#
# _framework density 21.383209999999998
#
# number of rings (size 3 to 8) (size 9 to 14) (size 15 to 20)
#    0.000    0.333    6.667    0.500    7.000    1.333 
#    0.000    0.000    0.000    0.000    0.000    0.000 
#    0.000    0.000    0.000    0.000    0.000    0.000 
#
# Total GULP energy -66933.902275 kJ/mol
# GULP energy per Si atom -5577.825190 kJ/mol
# Density = 2.133454 g / cm^3
# Si number density = 21.383210 Si / 1000 Ang^3
#
#
#
# Elastic Constant Matrix: (Units=GPa)
#
#
# Indices 1 2 3 4 5 6 
#
# 1 117.5860 32.3173 48.7156 -3.4591 1.9053 -5.2198
# 2 32.3173 91.6024 18.2611 -5.7507 0.2366 15.5638
# 3 48.7156 18.2611 108.5756 -1.5685 0.4884 7.7757
# 4 -3.4591 -5.7507 -1.5685 32.7657 3.7373 0.9306
# 5 1.9053 0.2366 0.4884 3.7373 40.3584 8.9925
# 6 -5.2198 15.5638 7.7757 0.9306 8.9925 35.0851
#
#
#
# Elastic Compliance Matrix: (Units=1/GPa)
#
#
# Indices 1 2 3 4 5 6 
#
# 1 0.011974 -0.004062 -0.005043 0.000353 -0.001653 0.005115
# 2 -0.004062 0.013671 0.000055 0.002003 0.001512 -0.007122
# 3 -0.005043 0.000055 0.011718 0.000038 0.000895 -0.003602
# 4 0.000353 0.002003 0.000038 0.031247 -0.002704 -0.000980
# 5 -0.001653 0.001512 0.000895 -0.002704 0.026853 -0.007926
# 6 0.005115 -0.007122 -0.003602 -0.000980 -0.007926 0.035278
#
#
# Mechanical properties :
#
#
# Convention : Reuss Voigt Hill
#
# Bulk Modulus (GPa) = 51.91134 57.37246 54.64190
# Shear Modulus (GPa) = 32.20371 36.20652 34.20511
#
# Velocity S-wave (km/s) = 3.88497 4.11934 4.00387
# Velocity P-wave (km/s) = 6.66733 7.03663 6.85447
#
# Compressibility (1/GPa) = 0.01926362
#
# Stress axis : x y z
#
# Youngs Moduli (GPa) = 83.51097 73.14976 85.33728
#
# Poissons Ratio (x) = 0.29713 0.43038
# Poissons Ratio (y) = 0.33921 -0.00473
# Poissons Ratio (z) = 0.42117 -0.00405
#
# Static dielectric constant tensor:
#      x y z
#    x 1.757600 0.013050 -0.012240 
#    y 0.013050 1.862660 0.041200 
#    z -0.012240 0.041200 1.700570 
# 
# From -- ./inp_files/159167.got.cif
#   From: 2010.05.17/outbox.cif.g08.bks.cpg/sg2_80_cif.got.tgz:159167.got - 2010.06.03 11:33:40.
