data_PCOD9065529
_publ_section_title
;
Structure prediction by ZEFSAII (Michael W. Deem and Ramdas Pophale) SiO2 
 PCOD9065529
Probable space group: P -1
;
_chemical_formula_sum "Si O2"
_cell_formula_units_Z 15
_cell_length_a 18.031817
_cell_length_b 8.597567
_cell_length_c 5.488737
_cell_angle_alpha 98.310398
_cell_angle_beta 98.454893
_cell_angle_gamma 48.391412
_cell_volume 628.048486
_symmetry_space_group_name_H-M "P -1"
_symmetry_group_IT_number 2
_symmetry_cell_setting 'triclinic'
loop_
_space_group_symop_operation_xyz
x,y,z
-x,-y,-z
loop_
_atom_site_type_symbol
_atom_site_label
_atom_site_fract_x
_atom_site_fract_y
_atom_site_fract_z
Si Si1 0.729944 0.553049 0.647358
Si Si2 0.034406 0.289727 0.349854
Si Si3 0.208686 0.873629 0.583258
Si Si4 0.500000 0.500000 0.000000
Si Si5 0.792609 0.901080 0.987919
Si Si6 0.816559 0.563199 0.199647
Si Si7 0.485357 0.179484 0.187427
Si Si8 0.373643 0.857545 0.393109
O O1 0.774462 0.324160 0.537268
O O2 0.763057 0.608984 0.441421
O O3 0.612702 0.701912 0.667715
O O4 0.772651 0.544708 0.930324
O O5 0.000000 0.500000 0.500000
O O6 0.931613 0.354142 0.230460
O O7 0.100019 0.086204 0.505438
O O8 0.109947 0.231385 0.158518
O O9 0.295173 0.855715 0.494174
O O10 0.224673 0.897818 0.878873
O O11 0.521683 0.654651 0.945646
O O12 0.544556 0.365543 0.740052
O O13 0.811037 0.756186 0.182412
O O14 0.694144 0.980758 0.820119
O O15 0.422595 0.912647 0.610161
O O16 0.500000 0.000000 0.000000
#
# Coordination Sequence:
#
# PCOD9065529 Si02
#       8
#     2   2   2   1   2   2   2   2
#     4  12  32  51  76 120 172 208 269 335 423 487
#     4  11  24  48  83 116 151 206 279 331 403 495
#     4  11  26  48  80 114 156 210 264 340 406 493
#     4  12  26  52  86 110 164 216 278 338 420 488
#     4  11  26  48  84 111 154 209 275 332 406 489
#     4  12  29  51  77 118 164 211 266 343 407 492
#     4  12  31  52  82 122 169 219 282 343 416 502
#     4  11  27  49  81 117 155 216 275 342 409 496
#
# _framework density 23.883506000000001
#
# number of rings (size 3 to 8) (size 9 to 14) (size 15 to 20)
#    0.000    0.533    2.667    2.400   14.933    1.600 
#    0.000    0.667    0.000    0.000    0.000    0.000 
#    0.000    0.000    0.000    0.000    0.000    0.000 
#
# Total GULP energy -83780.990111 kJ/mol
# GULP energy per Si atom -5585.399341 kJ/mol
# Density = 2.382915 g / cm^3
# Si number density = 23.883506 Si / 1000 Ang^3
#
#
#
# Elastic Constant Matrix: (Units=GPa)
#
#
# Indices 1 2 3 4 5 6 
#
# 1 89.5191 35.3433 42.4145 -18.2493 9.1712 -8.1217
# 2 35.3433 94.6051 49.9361 18.1901 9.2211 14.8298
# 3 42.4145 49.9361 134.2288 12.8410 2.3516 -1.0633
# 4 -18.2493 18.1901 12.8410 40.8485 6.7060 9.3079
# 5 9.1712 9.2211 2.3516 6.7060 42.4298 2.8396
# 6 -8.1217 14.8298 -1.0633 9.3079 2.8396 34.1622
#
#
#
# Elastic Compliance Matrix: (Units=1/GPa)
#
#
# Indices 1 2 3 4 5 6 
#
# 1 0.020305 -0.008097 -0.004603 0.013823 -0.004883 0.004838
# 2 -0.008097 0.018341 -0.003466 -0.008956 -0.000123 -0.007544
# 3 -0.004603 -0.003466 0.010613 -0.004556 0.001757 0.001836
# 4 0.013823 -0.008956 -0.004556 0.037775 -0.006578 -0.002713
# 5 -0.004883 -0.000123 0.001757 -0.006578 0.025686 -0.001395
# 6 0.004838 -0.007544 0.001836 -0.002713 -0.001395 0.034610
#
#
# Mechanical properties :
#
#
# Convention : Reuss Voigt Hill
#
# Bulk Modulus (GPa) = 59.06781 63.74897 61.40839
# Shear Modulus (GPa) = 26.98279 36.19868 31.59074
#
# Velocity S-wave (km/s) = 3.36485 3.89734 3.64084
# Velocity P-wave (km/s) = 6.31519 6.85579 6.59104
#
# Compressibility (1/GPa) = 0.01692969
#
# Stress axis : x y z
#
# Youngs Moduli (GPa) = 49.24809 54.52271 94.22207
#
# Poissons Ratio (x) = 0.44146 0.43366
# Poissons Ratio (y) = 0.39875 0.32654
# Poissons Ratio (z) = 0.22667 0.18895
#
# Static dielectric constant tensor:
#      x y z
#    x 1.926130 0.008760 0.038300 
#    y 0.008760 1.945210 -0.040430 
#    z 0.038300 -0.040430 1.921810 
# 
# From -- ./inp_files/104046.got.cif
#   From: 2010.05.17/outbox.cif.g08.bks.cpg/sg2_53_cif.got.tgz:104046.got - 2010.06.03 11:33:40.
