data_PCOD9065015
_publ_section_title
;
Structure prediction by ZEFSAII (Michael W. Deem and Ramdas Pophale) SiO2 
 PCOD9065015
Probable space group: P -1
;
_chemical_formula_sum "Si O2"
_cell_formula_units_Z 13
_cell_length_a 9.538175
_cell_length_b 14.158131
_cell_length_c 5.473845
_cell_angle_alpha 71.146342
_cell_angle_beta 76.680694
_cell_angle_gamma 43.573202
_cell_volume 482.173280
_symmetry_space_group_name_H-M "P -1"
_symmetry_group_IT_number 2
_symmetry_cell_setting 'triclinic'
loop_
_space_group_symop_operation_xyz
x,y,z
-x,-y,-z
loop_
_atom_site_type_symbol
_atom_site_label
_atom_site_fract_x
_atom_site_fract_y
_atom_site_fract_z
Si Si1 0.622116 0.434507 0.256030
Si Si2 0.733465 0.013086 0.506222
Si Si3 0.896053 0.463489 0.316200
Si Si4 0.268438 0.259268 0.999585
Si Si5 0.125291 0.856424 0.786220
Si Si6 0.044836 0.226271 0.761269
Si Si7 0.500000 0.000000 0.000000
O O1 0.500000 0.500000 0.500000
O O2 0.777863 0.450454 0.186351
O O3 0.744148 0.272082 0.347876
O O4 0.500000 0.500000 0.000000
O O5 0.752978 0.102269 0.253732
O O6 0.549540 0.059507 0.697789
O O7 0.843368 0.868183 0.443015
O O8 0.896341 0.974737 0.678939
O O9 0.772721 0.626078 0.252199
O O10 0.919624 0.386678 0.613384
O O11 0.121184 0.361400 0.195150
O O12 0.208140 0.182715 0.940092
O O13 0.481513 0.108389 0.110089
O O14 0.096423 0.793487 0.073749
#
# Coordination Sequence:
#
# PCOD9065015 Si02
#       7
#     2   2   2   2   2   2   1
#     4  12  26  46  73 109 150 191 253 321 372 452
#     4  11  25  43  74  98 147 190 248 308 380 455
#     4  11  24  47  69 105 146 196 242 305 382 459
#     4  11  25  43  74 101 145 194 245 304 385 450
#     4  11  24  47  68 103 144 200 241 301 389 453
#     4  12  19  47  73 102 137 205 248 306 368 476
#     4  12  22  50  62 108 144 180 250 320 366 442
#
# _framework density 26.961258999999998
#
# number of rings (size 3 to 8) (size 9 to 14) (size 15 to 20)
#    0.000    0.615    6.154    1.846    2.154    0.615 
#    2.769    0.000    0.000    0.000    0.000    0.000 
#    0.000    0.000    0.000    0.000    0.000    0.000 
#
# Total GULP energy -72536.281236 kJ/mol
# GULP energy per Si atom -5579.713941 kJ/mol
# Density = 2.689989 g / cm^3
# Si number density = 26.961259 Si / 1000 Ang^3
#
#
#
# Elastic Constant Matrix: (Units=GPa)
#
#
# Indices 1 2 3 4 5 6 
#
# 1 139.0290 18.9416 31.3813 -16.9854 -5.3119 19.3534
# 2 18.9416 155.4865 17.3066 -17.4142 -25.4213 20.8339
# 3 31.3813 17.3066 120.5483 -8.5011 -29.5195 -0.3728
# 4 -16.9854 -17.4142 -8.5011 55.9072 7.5069 -13.2594
# 5 -5.3119 -25.4213 -29.5195 7.5069 50.4237 -6.3708
# 6 19.3534 20.8339 -0.3728 -13.2594 -6.3708 38.0281
#
#
#
# Elastic Compliance Matrix: (Units=1/GPa)
#
#
# Indices 1 2 3 4 5 6 
#
# 1 0.008434 -0.000309 -0.002403 0.001359 -0.001369 -0.003902
# 2 -0.000309 0.007530 -0.000171 0.001079 0.003115 -0.003072
# 3 -0.002403 -0.000171 0.010476 0.000628 0.006035 0.002649
# 4 0.001359 0.001079 0.000628 0.020219 -0.001253 0.005563
# 5 -0.001369 0.003115 0.006035 -0.001253 0.025338 0.002858
# 6 -0.003902 -0.003072 0.002649 0.005563 0.002858 0.032410
#
#
# Mechanical properties :
#
#
# Convention : Reuss Voigt Hill
#
# Bulk Modulus (GPa) = 48.37051 61.14698 54.75875
# Shear Modulus (GPa) = 42.71194 52.03410 47.37302
#
# Velocity S-wave (km/s) = 3.98451 4.39789 4.19630
# Velocity P-wave (km/s) = 6.25685 6.96545 6.62064
#
# Compressibility (1/GPa) = 0.02067375
#
# Stress axis : x y z
#
# Youngs Moduli (GPa) = 118.56640 132.80643 95.45917
#
# Poissons Ratio (x) = 0.04101 0.22936
# Poissons Ratio (y) = 0.03661 0.01636
# Poissons Ratio (z) = 0.28488 0.02276
#
# Static dielectric constant tensor:
#      x y z
#    x 2.403670 -0.384810 0.054370 
#    y -0.384810 2.551010 -0.048160 
#    z 0.054370 -0.048160 2.272280 
# 
# From -- ./inp_files/75383.got.cif
#   From: 2010.05.17/outbox.cif.g08.bks.cpg/sg2_38_cif.got.tgz:75383.got - 2010.06.03 11:33:40.
