data_PCOD9065142
_publ_section_title
;
Structure prediction by ZEFSAII (Michael W. Deem and Ramdas Pophale) SiO2 
 PCOD9065142
Probable space group: P -1
;
_chemical_formula_sum "Si O2"
_cell_formula_units_Z 14
_cell_length_a 10.396195
_cell_length_b 19.538467
_cell_length_c 14.499504
_cell_angle_alpha 159.745324
_cell_angle_beta 139.890127
_cell_angle_gamma 32.430433
_cell_volume 540.964812
_symmetry_space_group_name_H-M "P -1"
_symmetry_group_IT_number 2
_symmetry_cell_setting 'triclinic'
loop_
_space_group_symop_operation_xyz
x,y,z
-x,-y,-z
loop_
_atom_site_type_symbol
_atom_site_label
_atom_site_fract_x
_atom_site_fract_y
_atom_site_fract_z
Si Si1 0.506713 0.295502 0.926722
Si Si2 0.333109 0.759437 0.687056
Si Si3 0.982763 0.283142 0.179457
Si Si4 0.330434 0.971177 0.639070
Si Si5 0.877417 0.253674 0.627204
Si Si6 0.291226 0.228064 0.551201
Si Si7 0.201029 0.322876 0.174427
O O1 0.397842 0.335209 0.814157
O O2 0.626007 0.024661 0.681004
O O3 0.716452 0.340168 0.112491
O O4 0.272546 0.466885 0.077945
O O5 0.500000 0.500000 0.500000
O O6 0.155004 0.768518 0.525603
O O7 0.548279 0.748891 0.734264
O O8 0.178129 0.007725 0.973947
O O9 0.000000 0.500000 0.500000
O O10 0.062453 0.252277 0.076681
O O11 0.150472 0.089794 0.603609
O O12 0.254142 0.831319 0.484606
O O13 0.591398 0.809461 0.532039
O O14 0.280726 0.184675 0.947205
O O15 0.001908 0.398832 0.601627
#
# Coordination Sequence:
#
# PCOD9065142 Si02
#       7
#     2   2   2   2   2   2   2
#     4  11  25  46  73 111 153 196 252 313 384 454
#     4  12  28  48  74 109 157 200 254 314 384 461
#     4  12  27  48  78 108 152 205 258 316 375 458
#     4  11  25  45  78 108 147 192 256 314 377 446
#     4  11  24  47  72 109 146 198 252 313 376 451
#     4  11  26  46  73 113 155 195 246 321 387 446
#     4  12  26  46  73 113 146 196 258 305 382 456
#
# _framework density 25.879687000000001
#
# number of rings (size 3 to 8) (size 9 to 14) (size 15 to 20)
#    0.000    0.571    2.857    3.857    8.000    2.857 
#    0.000    2.857    0.000    0.000    0.000    0.000 
#    0.000    0.000    0.000    0.000    0.000    0.000 
#
# Total GULP energy -78446.922795 kJ/mol
# GULP energy per Si atom -5603.351628 kJ/mol
# Density = 2.582078 g / cm^3
# Si number density = 25.879687 Si / 1000 Ang^3
#
#
#
# Elastic Constant Matrix: (Units=GPa)
#
#
# Indices 1 2 3 4 5 6 
#
# 1 78.9634 10.1876 16.7941 -4.6433 -5.3427 -8.3782
# 2 10.1876 143.4606 48.3645 12.6858 -2.8994 -7.7304
# 3 16.7941 48.3645 139.1327 12.5635 -17.1841 -0.1033
# 4 -4.6433 12.6858 12.5635 48.7644 -0.0841 -4.9918
# 5 -5.3427 -2.8994 -17.1841 -0.0841 41.1781 9.4624
# 6 -8.3782 -7.7304 -0.1033 -4.9918 9.4624 43.7421
#
#
#
# Elastic Compliance Matrix: (Units=1/GPa)
#
#
# Indices 1 2 3 4 5 6 
#
# 1 0.013497 -0.000451 -0.001604 0.002087 0.000447 0.002643
# 2 -0.000451 0.008105 -0.002764 -0.001298 -0.000966 0.001400
# 3 -0.001604 -0.002764 0.008978 -0.001925 0.003755 -0.001806
# 4 0.002087 -0.001298 -0.001925 0.021837 -0.001252 0.002929
# 5 0.000447 -0.000966 0.003755 -0.001252 0.027244 -0.006113
# 6 0.002643 0.001400 -0.001806 0.002929 -0.006113 0.025267
#
#
# Mechanical properties :
#
#
# Convention : Reuss Voigt Hill
#
# Bulk Modulus (GPa) = 47.74946 56.91658 52.33302
# Shear Modulus (GPa) = 41.13672 45.81762 43.47717
#
# Velocity S-wave (km/s) = 3.99123 4.21219 4.10319
# Velocity P-wave (km/s) = 6.30321 6.75997 6.53558
#
# Compressibility (1/GPa) = 0.02094265
#
# Stress axis : x y z
#
# Youngs Moduli (GPa) = 74.09192 123.37900 111.38227
#
# Poissons Ratio (x) = 0.05563 0.17862
# Poissons Ratio (y) = 0.03341 0.30787
# Poissons Ratio (z) = 0.11882 0.34103
#
# Static dielectric constant tensor:
#      x y z
#    x 1.999770 0.040110 0.064990 
#    y 0.040110 1.993930 0.009410 
#    z 0.064990 0.009410 2.138350 
# 
# From -- ./inp_files/331111.got.cif
#   From: 2010.05.17/outbox.cif.g08.bks.cpg/sg2_166_cif.got.tgz:331111.got - 2010.06.03 11:33:40.
