data_PCOD9065463
_publ_section_title
;
Structure prediction by ZEFSAII (Michael W. Deem and Ramdas Pophale) SiO2 
 PCOD9065463
Probable space group: P -1
;
_chemical_formula_sum "Si O2"
_cell_formula_units_Z 16
_cell_length_a 24.477796
_cell_length_b 9.238392
_cell_length_c 9.545916
_cell_angle_alpha 137.396869
_cell_angle_beta 36.759834
_cell_angle_gamma 142.354806
_cell_volume 757.885384
_symmetry_space_group_name_H-M "P -1"
_symmetry_group_IT_number 2
_symmetry_cell_setting 'triclinic'
loop_
_space_group_symop_operation_xyz
x,y,z
-x,-y,-z
loop_
_atom_site_type_symbol
_atom_site_label
_atom_site_fract_x
_atom_site_fract_y
_atom_site_fract_z
Si Si1 0.970152 0.760319 0.484450
Si Si2 0.194146 0.781775 0.658604
Si Si3 0.289749 0.613996 0.870496
Si Si4 0.805108 0.136649 0.954833
Si Si5 0.543815 0.290544 0.614877
Si Si6 0.375703 0.813843 0.138140
Si Si7 0.907422 0.896058 0.003151
Si Si8 0.356562 0.412897 0.103221
O O1 0.872536 0.508412 0.448174
O O2 0.944201 0.815687 0.730961
O O3 0.073797 0.733680 0.247744
O O4 0.000000 0.000000 0.500000
O O5 0.308008 0.897405 0.432548
O O6 0.203557 0.814149 0.829093
O O7 0.129915 0.910382 0.824841
O O8 0.385009 0.602120 0.591780
O O9 0.255937 0.765168 0.944574
O O10 0.326217 0.750655 0.040868
O O11 0.192400 0.344625 0.901707
O O12 0.751321 0.841858 0.838200
O O13 0.613646 0.416662 0.699141
O O14 0.500000 0.000000 0.500000
O O15 0.447546 0.342053 0.850169
O O16 0.358242 0.566902 0.075331
O O17 0.500000 0.000000 0.000000
O O18 0.000000 0.000000 0.000000
#
# Coordination Sequence:
#
# PCOD9065463 Si02
#       8
#     2   2   2   2   2   2   2   2
#     4  12  26  50  77 108 145 193 253 296 371 448
#     4  12  27  52  72 108 151 195 249 300 369 447
#     4  12  27  46  72 113 146 192 246 305 377 431
#     4  12  26  45  82 102 144 198 245 308 362 441
#     4  11  24  48  75 104 144 190 250 297 359 438
#     4  12  28  46  73 107 152 196 239 306 373 434
#     4  12  29  48  76 113 151 191 240 313 378 438
#     4  11  26  47  73 106 142 193 249 299 357 445
#
# _framework density 21.111373
#
# number of rings (size 3 to 8) (size 9 to 14) (size 15 to 20)
#    0.000    0.250    3.750    4.125   10.500    1.500 
#    0.000    0.000    0.000    0.000    0.000    0.000 
#    0.000    0.000    0.000    0.000    0.000    0.000 
#
# Total GULP energy -89648.981905 kJ/mol
# GULP energy per Si atom -5603.061369 kJ/mol
# Density = 2.106332 g / cm^3
# Si number density = 21.111373 Si / 1000 Ang^3
#
#
#
# Elastic Constant Matrix: (Units=GPa)
#
#
# Indices 1 2 3 4 5 6 
#
# 1 128.4852 44.4444 41.0609 16.2350 11.0130 -9.6640
# 2 44.4444 129.9214 44.4330 -4.8327 17.4445 10.8515
# 3 41.0609 44.4330 134.3845 -8.6875 15.4457 5.9065
# 4 16.2350 -4.8327 -8.6875 42.2810 4.1121 -3.6451
# 5 11.0130 17.4445 15.4457 4.1121 35.5564 -1.0692
# 6 -9.6640 10.8515 5.9065 -3.6451 -1.0692 40.0052
#
#
#
# Elastic Compliance Matrix: (Units=1/GPa)
#
#
# Indices 1 2 3 4 5 6 
#
# 1 0.010564 -0.003178 -0.002636 -0.004677 0.000075 0.003379
# 2 -0.003178 0.010199 -0.001709 0.002112 -0.003617 -0.003186
# 3 -0.002636 -0.001709 0.009381 0.002898 -0.002797 -0.001369
# 4 -0.004677 0.002112 0.002898 0.026683 -0.003927 0.000196
# 5 0.000075 -0.003617 -0.002797 -0.003927 0.031602 0.001899
# 6 0.003379 -0.003186 -0.001369 0.000196 0.001899 0.026948
#
#
# Mechanical properties :
#
#
# Convention : Reuss Voigt Hill
#
# Bulk Modulus (GPa) = 66.24011 72.51860 69.37935
# Shear Modulus (GPa) = 36.91262 41.09205 39.00234
#
# Velocity S-wave (km/s) = 4.18601 4.41664 4.30287
# Velocity P-wave (km/s) = 7.40325 7.77393 7.59085
#
# Compressibility (1/GPa) = 0.01509659
#
# Stress axis : x y z
#
# Youngs Moduli (GPa) = 94.66430 98.04896 106.60074
#
# Poissons Ratio (x) = 0.31164 0.28103
# Poissons Ratio (y) = 0.30088 0.18215
# Poissons Ratio (z) = 0.24957 0.16754
#
# Static dielectric constant tensor:
#      x y z
#    x 1.749590 0.028840 -0.037740 
#    y 0.028840 1.762540 -0.021670 
#    z -0.037740 -0.021670 1.763040 
# 
# From -- ./inp_files/188222.got.cif
#   From: 2010.05.17/outbox.cif.g08.bks.cpg/sg2_95_cif.got.tgz:188222.got - 2010.06.03 11:33:40.
