data_PCOD9065362
_publ_section_title
;
Structure prediction by ZEFSAII (Michael W. Deem and Ramdas Pophale) SiO2 
 PCOD9065362
Probable space group: P -1
;
_chemical_formula_sum "Si O2"
_cell_formula_units_Z 16
_cell_length_a 5.835066
_cell_length_b 9.067821
_cell_length_c 25.504503
_cell_angle_alpha 138.046099
_cell_angle_beta 102.359390
_cell_angle_gamma 54.589721
_cell_volume 674.538642
_symmetry_space_group_name_H-M "P -1"
_symmetry_group_IT_number 2
_symmetry_cell_setting 'triclinic'
loop_
_space_group_symop_operation_xyz
x,y,z
-x,-y,-z
loop_
_atom_site_type_symbol
_atom_site_label
_atom_site_fract_x
_atom_site_fract_y
_atom_site_fract_z
Si Si1 0.250786 0.050031 0.888751
Si Si2 0.561001 0.674811 0.707253
Si Si3 0.631880 0.124528 0.571687
Si Si4 0.145651 0.654352 0.536400
Si Si5 0.824524 0.615417 0.287720
Si Si6 0.387949 0.623933 0.862467
Si Si7 0.577491 0.594314 0.978536
Si Si8 0.064547 0.100726 0.716445
O O1 0.943325 0.330030 0.921360
O O2 0.391265 0.794660 0.786804
O O3 0.226432 0.934982 0.911582
O O4 0.464782 0.126758 0.933520
O O5 0.595246 0.395995 0.620924
O O6 0.353834 0.938053 0.726523
O O7 0.886968 0.587762 0.713074
O O8 0.463777 0.221095 0.645342
O O9 0.500000 0.000000 0.500000
O O10 0.976972 0.851609 0.529064
O O11 0.500000 0.500000 0.500000
O O12 0.049475 0.853473 0.635426
O O13 0.000000 0.500000 0.500000
O O14 0.784258 0.472279 0.199716
O O15 0.869528 0.818027 0.313617
O O16 0.402166 0.629515 0.927083
O O17 0.746518 0.385300 0.799161
O O18 0.500000 0.500000 0.000000
#
# Coordination Sequence:
#
# PCOD9065362 Si02
#       8
#     2   2   2   2   2   2   2   2
#     4  11  24  48  71 108 147 188 247 307 375 461
#     4  12  26  47  76 106 148 196 248 315 382 455
#     4  12  27  49  72 110 156 199 257 321 383 458
#     4  12  26  47  73 111 156 202 263 324 394 468
#     4  12  25  46  76 107 146 195 257 310 380 465
#     4  12  25  48  76 102 152 189 251 313 376 458
#     4  11  28  45  74 109 149 189 247 307 386 463
#     4  12  26  46  75 106 144 203 251 316 382 455
#
# _framework density 23.719916000000001
#
# number of rings (size 3 to 8) (size 9 to 14) (size 15 to 20)
#    0.000    0.250    6.250    1.875    5.250    2.000 
#    0.000    0.000    0.000    0.000    0.000    0.000 
#    0.000    0.000    0.000    0.000    0.000    0.000 
#
# Total GULP energy -89484.090131 kJ/mol
# GULP energy per Si atom -5592.755633 kJ/mol
# Density = 2.366593 g / cm^3
# Si number density = 23.719916 Si / 1000 Ang^3
#
#
#
# Elastic Constant Matrix: (Units=GPa)
#
#
# Indices 1 2 3 4 5 6 
#
# 1 78.2813 16.6048 22.7916 2.8306 12.4260 -17.9848
# 2 16.6048 119.8734 25.7463 -5.4042 8.5861 -34.1201
# 3 22.7916 25.7463 87.0505 -10.9309 28.2231 -0.2687
# 4 2.8306 -5.4042 -10.9309 41.6480 -5.1037 0.1801
# 5 12.4260 8.5861 28.2231 -5.1037 49.2022 0.7147
# 6 -17.9848 -34.1201 -0.2687 0.1801 0.7147 54.3959
#
#
#
# Elastic Compliance Matrix: (Units=1/GPa)
#
#
# Indices 1 2 3 4 5 6 
#
# 1 0.015428 0.000194 -0.003674 -0.002272 -0.002135 0.005240
# 2 0.000194 0.011011 -0.003151 0.000533 -0.000209 0.006956
# 3 -0.003674 -0.003151 0.016181 0.003190 -0.007429 -0.003024
# 4 -0.002272 0.000533 0.003190 0.025230 0.001275 -0.000501
# 5 -0.002135 -0.000209 -0.007429 0.001275 0.025311 -0.001210
# 6 0.005240 0.006956 -0.003024 -0.000501 -0.001210 0.024482
#
#
# Mechanical properties :
#
#
# Convention : Reuss Voigt Hill
#
# Bulk Modulus (GPa) = 34.06240 46.16564 40.11402
# Shear Modulus (GPa) = 35.53860 43.72004 39.62932
#
# Velocity S-wave (km/s) = 3.87494 4.29788 4.09188
# Velocity P-wave (km/s) = 5.86614 6.64335 6.26681
#
# Compressibility (1/GPa) = 0.02935788
#
# Stress axis : x y z
#
# Youngs Moduli (GPa) = 64.81842 90.81757 61.79897
#
# Poissons Ratio (x) = -0.01761 0.22703
# Poissons Ratio (y) = -0.01257 0.19476
# Poissons Ratio (z) = 0.23812 0.28621
#
# Static dielectric constant tensor:
#      x y z
#    x 2.041740 -0.015700 -0.003720 
#    y -0.015700 1.911140 0.033090 
#    z -0.003720 0.033090 1.939820 
# 
# From -- ./inp_files/615295.got.cif
#   From: 2010.05.17/outbox.cif.g08.bks.cpg/sg2_308_cif.got.tgz:615295.got - 2010.06.03 11:33:40.
