data_PCOD9065074
_publ_section_title
;
Structure prediction by ZEFSAII (Michael W. Deem and Ramdas Pophale) SiO2 
 PCOD9065074
Probable space group: P -1
;
_chemical_formula_sum "Si O2"
_cell_formula_units_Z 13
_cell_length_a 15.671167
_cell_length_b 8.745982
_cell_length_c 9.111083
_cell_angle_alpha 81.219083
_cell_angle_beta 146.328276
_cell_angle_gamma 84.353604
_cell_volume 623.647619
_symmetry_space_group_name_H-M "P -1"
_symmetry_group_IT_number 2
_symmetry_cell_setting 'triclinic'
loop_
_space_group_symop_operation_xyz
x,y,z
-x,-y,-z
loop_
_atom_site_type_symbol
_atom_site_label
_atom_site_fract_x
_atom_site_fract_y
_atom_site_fract_z
Si Si1 0.221329 0.851325 0.706159
Si Si2 0.601226 0.317548 0.596065
Si Si3 0.943248 0.233023 0.268272
Si Si4 0.338190 0.616562 0.658036
Si Si5 0.500000 0.000000 0.500000
Si Si6 0.536597 0.904577 0.225938
Si Si7 0.875242 0.593162 0.677179
O O1 0.137848 0.743512 0.690060
O O2 0.251997 0.794455 0.591842
O O3 0.398272 0.823857 0.037262
O O4 0.095354 0.047046 0.510726
O O5 0.500000 0.500000 0.500000
O O6 0.610848 0.357588 0.434266
O O7 0.521959 0.179989 0.519838
O O8 0.792325 0.240880 0.944486
O O9 0.020311 0.360583 0.304624
O O10 0.211540 0.525493 0.486645
O O11 0.500000 0.500000 0.000000
O O12 0.486469 0.995101 0.668307
O O13 0.725678 0.762014 0.502511
O O14 0.500000 0.000000 0.000000
O O15 0.000000 0.500000 0.000000
#
# Coordination Sequence:
#
# PCOD9065074 Si02
#       7
#     2   2   2   2   1   2   2
#     4  11  24  47  71 102 150 186 255 316 366 461
#     4  12  26  49  73 108 156 192 252 322 377 461
#     4  11  25  46  70 103 150 190 241 329 372 438
#     4  12  25  45  75 106 143 204 252 306 395 462
#     4  12  28  44  82 112 140 214 260 298 406 454
#     4  12  24  49  75 105 149 201 256 309 376 476
#     4  12  26  45  73 109 152 193 248 322 386 450
#
# _framework density 20.845105
#
# number of rings (size 3 to 8) (size 9 to 14) (size 15 to 20)
#    0.000    0.308    6.154    2.769    0.000    2.462 
#    0.000    0.000    0.000    0.000    0.000    0.000 
#    0.000    0.000    0.000    0.000    0.000    0.000 
#
# Total GULP energy -72415.418580 kJ/mol
# GULP energy per Si atom -5570.416814 kJ/mol
# Density = 2.079766 g / cm^3
# Si number density = 20.845105 Si / 1000 Ang^3
#
#
#
# Elastic Constant Matrix: (Units=GPa)
#
#
# Indices 1 2 3 4 5 6 
#
# 1 165.2979 53.7908 34.6948 8.1532 -17.3176 4.1657
# 2 53.7908 107.4176 24.4484 27.4358 2.2116 11.9720
# 3 34.6948 24.4484 109.6096 -2.7152 -1.9239 3.8945
# 4 8.1532 27.4358 -2.7152 34.6906 1.0692 -2.8436
# 5 -17.3176 2.2116 -1.9239 1.0692 37.3279 9.3412
# 6 4.1657 11.9720 3.8945 -2.8436 9.3412 52.3767
#
#
#
# Elastic Compliance Matrix: (Units=1/GPa)
#
#
# Indices 1 2 3 4 5 6 
#
# 1 0.008039 -0.003977 -0.001555 0.000992 0.003922 -0.000260
# 2 -0.003977 0.015155 -0.002318 -0.011450 -0.001711 -0.003292
# 3 -0.001555 -0.002318 0.010201 0.003010 -0.000166 0.000088
# 4 0.000992 -0.011450 0.003010 0.038287 -0.000945 0.004561
# 5 0.003922 -0.001711 -0.000166 -0.000945 0.030060 -0.005321
# 6 -0.000260 -0.003292 0.000088 0.004561 -0.005321 0.021056
#
#
# Mechanical properties :
#
#
# Convention : Reuss Voigt Hill
#
# Bulk Modulus (GPa) = 56.51272 67.57701 62.04486
# Shear Modulus (GPa) = 34.62722 42.83844 38.73283
#
# Velocity S-wave (km/s) = 4.08016 4.53822 4.31527
# Velocity P-wave (km/s) = 7.02614 7.74271 7.39311
#
# Compressibility (1/GPa) = 0.01769513
#
# Stress axis : x y z
#
# Youngs Moduli (GPa) = 124.40028 65.98530 98.02926
#
# Poissons Ratio (x) = 0.26240 0.15242
# Poissons Ratio (y) = 0.49469 0.22726
# Poissons Ratio (z) = 0.19342 0.15297
#
# Static dielectric constant tensor:
#      x y z
#    x 1.792680 0.023290 -0.000020 
#    y 0.023290 1.742160 -0.016500 
#    z -0.000020 -0.016500 1.731760 
# 
# From -- ./inp_files/153166.got.cif
#   From: 2010.05.17/outbox.cif.g08.bks.cpg/sg2_77_cif.got.tgz:153166.got - 2010.06.03 11:33:40.
