data_PCOD9065847
_publ_section_title
;
Structure prediction by ZEFSAII (Michael W. Deem and Ramdas Pophale) SiO2 
 PCOD9065847
Probable space group: P -1
;
_chemical_formula_sum "Si O2"
_cell_formula_units_Z 16
_cell_length_a 6.749454
_cell_length_b 11.855000
_cell_length_c 28.229304
_cell_angle_alpha 159.521552
_cell_angle_beta 76.074700
_cell_angle_gamma 102.729386
_cell_volume 766.927603
_symmetry_space_group_name_H-M "P -1"
_symmetry_group_IT_number 2
_symmetry_cell_setting 'triclinic'
loop_
_space_group_symop_operation_xyz
x,y,z
-x,-y,-z
loop_
_atom_site_type_symbol
_atom_site_label
_atom_site_fract_x
_atom_site_fract_y
_atom_site_fract_z
Si Si1 0.601629 0.450189 0.897237
Si Si2 0.203399 0.702768 0.072744
Si Si3 0.205161 0.189834 0.696017
Si Si4 0.572982 0.273598 0.639391
Si Si5 0.874216 0.859747 0.518414
Si Si6 0.127776 0.266732 0.234268
Si Si7 0.511613 0.816301 0.592379
Si Si8 0.967006 0.827504 0.985152
O O1 0.716121 0.343295 0.896879
O O2 0.736492 0.715044 0.966195
O O3 0.576910 0.133976 0.742361
O O4 0.381680 0.582340 0.979246
O O5 0.146035 0.060615 0.199955
O O6 0.000000 0.500000 0.000000
O O7 0.393698 0.323468 0.706987
O O8 0.095014 0.491842 0.845711
O O9 0.302239 0.925623 0.621778
O O10 0.046462 0.019880 0.603609
O O11 0.650583 0.589673 0.733501
O O12 0.500000 0.000000 0.500000
O O13 0.772463 0.130008 0.597483
O O14 0.685166 0.747521 0.516595
O O15 0.971423 0.560715 0.367694
O O16 0.048310 0.052707 0.111140
O O17 0.500000 0.500000 0.500000
O O18 0.000000 0.000000 0.000000
#
# Coordination Sequence:
#
# PCOD9065847 Si02
#       8
#     2   2   2   2   2   2   2   2
#     4  11  26  48  70 103 150 184 245 302 353 429
#     4  11  26  48  71 104 141 192 239 303 357 418
#     4  11  25  48  67 102 148 183 236 296 363 425
#     4  11  25  43  71 103 142 182 230 298 356 425
#     4  11  25  46  69 104 144 182 238 295 358 428
#     4  12  26  43  75 103 140 190 243 287 361 430
#     4  11  27  43  73 102 139 190 240 295 361 429
#     4  12  27  45  75 106 145 194 234 298 367 431
#
# _framework density 20.862463000000002
#
# number of rings (size 3 to 8) (size 9 to 14) (size 15 to 20)
#    0.000    0.750    3.750    1.875    8.750    1.000 
#    0.000    0.000    0.000    0.000    0.000    0.000 
#    0.000    0.000    0.000    0.000    0.000    0.000 
#
# Total GULP energy -89532.575413 kJ/mol
# GULP energy per Si atom -5595.785963 kJ/mol
# Density = 2.081498 g / cm^3
# Si number density = 20.862463 Si / 1000 Ang^3
#
#
#
# Elastic Constant Matrix: (Units=GPa)
#
#
# Indices 1 2 3 4 5 6 
#
# 1 125.6248 41.4183 44.6981 2.9648 1.9346 -5.5355
# 2 41.4183 108.0765 25.2086 18.6730 1.5222 10.0754
# 3 44.6981 25.2086 92.3369 -14.5047 14.6722 9.2285
# 4 2.9648 18.6730 -14.5047 47.0856 7.0816 5.6829
# 5 1.9346 1.5222 14.6722 7.0816 36.3555 -12.5720
# 6 -5.5355 10.0754 9.2285 5.6829 -12.5720 31.9828
#
#
#
# Elastic Compliance Matrix: (Units=1/GPa)
#
#
# Indices 1 2 3 4 5 6 
#
# 1 0.011904 -0.003085 -0.007239 -0.003623 0.005921 0.008092
# 2 -0.003085 0.012147 -0.002563 -0.005269 0.000911 -0.002327
# 3 -0.007239 -0.002563 0.020786 0.011927 -0.015254 -0.014559
# 4 -0.003623 -0.005269 0.011927 0.031219 -0.015314 -0.013976
# 5 0.005921 0.000911 -0.015254 -0.015314 0.045147 0.025607
# 6 0.008092 -0.002327 -0.014559 -0.013976 0.025607 0.050150
#
#
# Mechanical properties :
#
#
# Convention : Reuss Voigt Hill
#
# Bulk Modulus (GPa) = 52.45663 60.96538 56.71101
# Shear Modulus (GPa) = 24.57217 37.39900 30.98558
#
# Velocity S-wave (km/s) = 3.43566 4.23856 3.85805
# Velocity P-wave (km/s) = 6.39820 7.29656 6.86210
#
# Compressibility (1/GPa) = 0.01906337
#
# Stress axis : x y z
#
# Youngs Moduli (GPa) = 84.00531 82.32340 48.10913
#
# Poissons Ratio (x) = 0.25399 0.34826
# Poissons Ratio (y) = 0.25918 0.12329
# Poissons Ratio (z) = 0.60811 0.21097
#
# Static dielectric constant tensor:
#      x y z
#    x 1.762980 0.018810 0.014140 
#    y 0.018810 1.783340 0.029680 
#    z 0.014140 0.029680 1.741210 
# 
# From -- ./inp_files/85419.got.cif
#   From: 2010.05.17/outbox.cif.g08.bks.cpg/sg2_43_cif.got.tgz:85419.got - 2010.06.03 11:33:40.
