data_PCOD9065948
_publ_section_title
;
Structure prediction by ZEFSAII (Michael W. Deem and Ramdas Pophale) SiO2 
 PCOD9065948
Probable space group: P -1
;
_chemical_formula_sum "Si O2"
_cell_formula_units_Z 15
_cell_length_a 6.095493
_cell_length_b 22.249801
_cell_length_c 5.657592
_cell_angle_alpha 58.674760
_cell_angle_beta 91.881055
_cell_angle_gamma 74.832812
_cell_volume 619.212478
_symmetry_space_group_name_H-M "P -1"
_symmetry_group_IT_number 2
_symmetry_cell_setting 'triclinic'
loop_
_space_group_symop_operation_xyz
x,y,z
-x,-y,-z
loop_
_atom_site_type_symbol
_atom_site_label
_atom_site_fract_x
_atom_site_fract_y
_atom_site_fract_z
Si Si1 0.962780 0.094006 0.045042
Si Si2 0.703687 0.360535 0.448379
Si Si3 0.500000 0.500000 0.500000
Si Si4 0.446275 0.823824 0.815109
Si Si5 0.135248 0.224690 0.704300
Si Si6 0.059603 0.554593 0.077317
Si Si7 0.633289 0.691010 0.785081
Si Si8 0.353713 0.958818 0.223311
O O1 0.807831 0.135351 0.172710
O O2 0.799472 0.067855 0.916428
O O3 0.181726 0.021730 0.256559
O O4 0.048210 0.155659 0.793237
O O5 0.594543 0.420220 0.522127
O O6 0.515268 0.328870 0.387544
O O7 0.925908 0.291642 0.674219
O O8 0.790802 0.403856 0.153687
O O9 0.233363 0.512991 0.370300
O O10 0.464514 0.746147 0.850595
O O11 0.492040 0.885421 0.520359
O O12 0.641398 0.803921 0.062962
O O13 0.214089 0.260798 0.408065
O O14 0.000000 0.500000 0.000000
O O15 0.819348 0.614301 0.033457
O O16 0.500000 0.000000 0.000000
#
# Coordination Sequence:
#
# PCOD9065948 Si02
#       8
#     2   2   1   2   2   2   2   2
#     4  11  25  44  69 102 138 183 237 289 361 430
#     4  11  25  46  70 102 140 187 241 300 364 438
#     4  12  24  44  74 100 140 188 240 298 370 438
#     4  12  24  42  70 101 137 185 237 292 358 434
#     4  11  25  45  67 101 138 184 238 292 362 434
#     4  11  25  47  68 106 144 188 242 302 366 437
#     4  11  25  47  71  98 147 187 238 303 362 431
#     4  11  25  46  70 101 144 185 231 296 356 427
#
# _framework density 24.224319999999999
#
# number of rings (size 3 to 8) (size 9 to 14) (size 15 to 20)
#    0.000    0.800    1.333    5.600    0.000   10.133 
#    0.000    0.000    0.000    0.000    0.000    0.000 
#    0.000    0.000    0.000    0.000    0.000    0.000 
#
# Total GULP energy -83825.443281 kJ/mol
# GULP energy per Si atom -5588.362885 kJ/mol
# Density = 2.416918 g / cm^3
# Si number density = 24.224320 Si / 1000 Ang^3
#
#
#
# Elastic Constant Matrix: (Units=GPa)
#
#
# Indices 1 2 3 4 5 6 
#
# 1 95.3166 69.0438 24.1576 -10.6223 7.0228 -3.8596
# 2 69.0438 201.0746 13.3045 -15.7317 9.5149 -29.4102
# 3 24.1576 13.3045 63.1677 -22.7519 3.6267 -12.6531
# 4 -10.6223 -15.7317 -22.7519 29.3651 3.2572 14.1884
# 5 7.0228 9.5149 3.6267 3.2572 42.4667 -22.3924
# 6 -3.8596 -29.4102 -12.6531 14.1884 -22.3924 62.8420
#
#
#
# Elastic Compliance Matrix: (Units=1/GPa)
#
#
# Indices 1 2 3 4 5 6 
#
# 1 0.015977 -0.005493 -0.005171 0.001121 -0.003173 -0.004015
# 2 -0.005493 0.007322 0.001761 0.001593 0.000765 0.003357
# 3 -0.005171 0.001761 0.024115 0.017914 -0.002805 0.000318
# 4 0.001121 0.001593 0.017914 0.057090 -0.013442 -0.013258
# 5 -0.003173 0.000765 -0.002805 -0.013442 0.032705 0.014287
# 6 -0.004015 0.003357 0.000318 -0.013258 0.014287 0.025386
#
#
# Mechanical properties :
#
#
# Convention : Reuss Voigt Hill
#
# Bulk Modulus (GPa) = 33.77570 63.61897 48.69733
# Shear Modulus (GPa) = 26.27813 43.80497 35.04155
#
# Velocity S-wave (km/s) = 3.29718 4.25703 3.80747
# Velocity P-wave (km/s) = 5.33557 7.10511 6.28295
#
# Compressibility (1/GPa) = 0.02960709
#
# Stress axis : x y z
#
# Youngs Moduli (GPa) = 62.58849 136.56539 41.46817
#
# Poissons Ratio (x) = 0.75020 0.21445
# Poissons Ratio (y) = 0.34382 -0.07302
# Poissons Ratio (z) = 0.32367 -0.24048
#
# Static dielectric constant tensor:
#      x y z
#    x 1.918220 -0.040780 -0.056790 
#    y -0.040780 1.900800 0.007340 
#    z -0.056790 0.007340 1.952960 
# 
# From -- ./inp_files/10257.got.cif
#   From: 2010.05.17/outbox.cif.g08.bks.cpg/sg2_6_cif.got.tgz:10257.got - 2010.06.03 11:33:40.
