data_PCOD9065013
_publ_section_title
;
Structure prediction by ZEFSAII (Michael W. Deem and Ramdas Pophale) SiO2 
 PCOD9065013
Probable space group: P -1
;
_chemical_formula_sum "Si O2"
_cell_formula_units_Z 16
_cell_length_a 17.248437
_cell_length_b 13.039024
_cell_length_c 9.054337
_cell_angle_alpha 132.108316
_cell_angle_beta 122.829982
_cell_angle_gamma 26.693256
_cell_volume 668.663867
_symmetry_space_group_name_H-M "P -1"
_symmetry_group_IT_number 2
_symmetry_cell_setting 'triclinic'
loop_
_space_group_symop_operation_xyz
x,y,z
-x,-y,-z
loop_
_atom_site_type_symbol
_atom_site_label
_atom_site_fract_x
_atom_site_fract_y
_atom_site_fract_z
Si Si1 0.832092 0.273596 0.007209
Si Si2 0.893913 0.270138 0.601145
Si Si3 0.820792 0.776710 0.658880
Si Si4 0.959342 0.356784 0.012340
Si Si5 0.302073 0.368349 0.526632
Si Si6 0.612817 0.290502 0.785680
Si Si7 0.473773 0.388356 0.437617
Si Si8 0.598079 0.964940 0.192780
O O1 0.910858 0.279087 0.975893
O O2 0.709928 0.517127 0.231006
O O3 0.732979 0.265882 0.832767
O O4 0.000000 0.000000 0.000000
O O5 0.853673 0.373993 0.493510
O O6 0.699908 0.472541 0.650645
O O7 0.975918 0.291487 0.797240
O O8 0.000000 0.000000 0.500000
O O9 0.723278 0.757242 0.568511
O O10 0.000000 0.500000 0.500000
O O11 0.878442 0.776158 0.871039
O O12 0.723493 0.018530 0.696082
O O13 0.783787 0.669922 0.144516
O O14 0.470938 0.141247 0.374065
O O15 0.478704 0.416141 0.642631
O O16 0.500000 0.500000 0.000000
O O17 0.500000 0.500000 0.500000
O O18 0.624621 0.085308 0.273682
O O19 0.500000 0.000000 0.000000
#
# Coordination Sequence:
#
# PCOD9065013 Si02
#       8
#     2   2   2   2   2   2   2   2
#     4  12  24  45  73 102 141 186 234 291 364 424
#     4  11  25  46  70 104 141 186 239 290 362 424
#     4  12  26  47  70 110 143 185 240 299 357 426
#     4  12  24  44  75  99 143 185 237 297 353 426
#     4  11  25  46  73 104 142 192 236 290 361 426
#     4  12  27  44  69 108 141 179 240 295 352 427
#     4  11  25  46  71 100 138 183 230 291 353 418
#     4  11  24  47  68 103 143 185 237 287 358 421
#
# _framework density 23.928314
#
# number of rings (size 3 to 8) (size 9 to 14) (size 15 to 20)
#    0.000    0.500    5.000    3.750    3.500    3.000 
#    0.000    0.000    0.000    0.000    0.000    0.000 
#    0.000    0.000    0.000    0.000    0.000    0.000 
#
# Total GULP energy -89502.546055 kJ/mol
# GULP energy per Si atom -5593.909128 kJ/mol
# Density = 2.387385 g / cm^3
# Si number density = 23.928314 Si / 1000 Ang^3
#
#
#
# Elastic Constant Matrix: (Units=GPa)
#
#
# Indices 1 2 3 4 5 6 
#
# 1 84.7923 6.6628 17.6253 15.8885 32.5482 20.6599
# 2 6.6628 100.4603 18.5625 18.3942 9.4211 25.9323
# 3 17.6253 18.5625 116.0151 -5.1839 16.0856 5.6736
# 4 15.8885 18.3942 -5.1839 53.7864 3.0408 11.5382
# 5 32.5482 9.4211 16.0856 3.0408 39.5096 8.4413
# 6 20.6599 25.9323 5.6736 11.5382 8.4413 39.5282
#
#
#
# Elastic Compliance Matrix: (Units=1/GPa)
#
#
# Indices 1 2 3 4 5 6 
#
# 1 0.020391 0.003230 -0.001361 -0.004694 -0.014940 -0.008021
# 2 0.003230 0.013215 -0.001953 -0.003700 -0.002944 -0.008369
# 3 -0.001361 -0.001953 0.009558 0.002012 -0.002585 0.000585
# 4 -0.004694 -0.003700 0.002012 0.021788 0.002757 -0.002357
# 5 -0.014940 -0.002944 -0.002585 0.002757 0.038948 0.000989
# 6 -0.008021 -0.008369 0.000585 -0.002357 0.000989 0.035373
#
#
# Mechanical properties :
#
#
# Convention : Reuss Voigt Hill
#
# Bulk Modulus (GPa) = 23.25765 42.99656 33.12710
# Shear Modulus (GPa) = 32.51543 43.79265 38.15404
#
# Velocity S-wave (km/s) = 3.69028 4.28268 3.99747
# Velocity P-wave (km/s) = 5.28189 6.51637 5.93133
#
# Compressibility (1/GPa) = 0.04299661
#
# Stress axis : x y z
#
# Youngs Moduli (GPa) = 49.04101 75.67412 104.62000
#
# Poissons Ratio (x) = -0.24443 0.14237
# Poissons Ratio (y) = -0.15840 0.20431
# Poissons Ratio (z) = 0.06673 0.14779
#
# Static dielectric constant tensor:
#      x y z
#    x 1.989130 0.013770 -0.015200 
#    y 0.013770 1.946680 -0.026130 
#    z -0.015200 -0.026130 1.956710 
# 
# From -- ./inp_files/333801.got.cif
#   From: 2010.05.17/outbox.cif.g08.bks.cpg/sg2_167_cif.got.tgz:333801.got - 2010.06.03 11:33:40.
