data_PCOD9065039
_publ_section_title
;
Structure prediction by ZEFSAII (Michael W. Deem and Ramdas Pophale) SiO2 
 PCOD9065039
Probable space group: P -1
;
_chemical_formula_sum "Si O2"
_cell_formula_units_Z 16
_cell_length_a 6.592774
_cell_length_b 22.557989
_cell_length_c 15.026657
_cell_angle_alpha 148.824876
_cell_angle_beta 127.213385
_cell_angle_gamma 74.891436
_cell_volume 720.718331
_symmetry_space_group_name_H-M "P -1"
_symmetry_group_IT_number 2
_symmetry_cell_setting 'triclinic'
loop_
_space_group_symop_operation_xyz
x,y,z
-x,-y,-z
loop_
_atom_site_type_symbol
_atom_site_label
_atom_site_fract_x
_atom_site_fract_y
_atom_site_fract_z
Si Si1 0.416390 0.476701 0.845127
Si Si2 0.344791 0.689366 0.562953
Si Si3 0.260833 0.262601 0.873484
Si Si4 0.698013 0.580566 0.746098
Si Si5 0.466040 0.940754 0.639211
Si Si6 0.684943 0.786523 0.597372
Si Si7 0.430428 0.924383 0.980279
Si Si8 0.382360 0.868942 0.232063
O O1 0.496538 0.375866 0.695983
O O2 0.030058 0.382502 0.620845
O O3 0.500000 0.500000 0.000000
O O4 0.579326 0.619822 0.012861
O O5 0.348119 0.554072 0.390863
O O6 0.507519 0.775431 0.625541
O O7 0.494156 0.806539 0.833067
O O8 0.351549 0.155609 0.746167
O O9 0.873832 0.174910 0.650303
O O10 0.391486 0.347989 0.112489
O O11 0.500000 0.500000 0.500000
O O12 0.062242 0.715414 0.985724
O O13 0.654367 0.877493 0.633145
O O14 0.674808 0.082925 0.815084
O O15 0.382742 0.976605 0.757536
O O16 0.052181 0.853260 0.804620
O O17 0.500000 0.000000 0.000000
O O18 0.500000 0.000000 0.500000
#
# Coordination Sequence:
#
# PCOD9065039 Si02
#       8
#     2   2   2   2   2   2   2   2
#     4  11  25  41  74 104 145 185 234 302 365 436
#     4  11  24  47  69 106 145 186 244 298 365 435
#     4  12  27  50  71 111 142 190 260 296 365 448
#     4  12  29  48  78 106 145 201 246 311 370 431
#     4  12  27  45  76 103 150 195 240 306 365 437
#     4  11  25  45  70 109 144 188 243 299 369 435
#     4  11  26  45  70 112 148 189 239 298 370 444
#     4  12  29  51  73 106 150 197 252 305 365 439
#
# _framework density 22.200074999999998
#
# number of rings (size 3 to 8) (size 9 to 14) (size 15 to 20)
#    0.000    0.500    5.000    1.500    8.750    1.500 
#    0.000    0.000    0.000    0.000    0.000    0.000 
#    0.000    0.000    0.000    0.000    0.000    0.000 
#
# Total GULP energy -89446.786951 kJ/mol
# GULP energy per Si atom -5590.424184 kJ/mol
# Density = 2.214955 g / cm^3
# Si number density = 22.200075 Si / 1000 Ang^3
#
#
#
# Elastic Constant Matrix: (Units=GPa)
#
#
# Indices 1 2 3 4 5 6 
#
# 1 81.4672 24.8239 25.8839 5.3005 -26.1867 4.2292
# 2 24.8239 107.0829 19.4056 15.8137 -16.4845 11.7041
# 3 25.8839 19.4056 91.9029 -4.5034 -28.6571 1.7555
# 4 5.3005 15.8137 -4.5034 37.2487 8.4292 -6.3439
# 5 -26.1867 -16.4845 -28.6571 8.4292 51.8146 9.3042
# 6 4.2292 11.7041 1.7555 -6.3439 9.3042 42.3186
#
#
#
# Elastic Compliance Matrix: (Units=1/GPa)
#
#
# Indices 1 2 3 4 5 6 
#
# 1 0.016385 -0.001070 -0.001959 -0.004633 0.008289 -0.003777
# 2 -0.001070 0.012165 -0.000983 -0.007158 0.004915 -0.005370
# 3 -0.001959 -0.000983 0.013702 0.000659 0.006422 -0.001414
# 4 -0.004633 -0.007158 0.000659 0.035042 -0.011798 0.010262
# 5 0.008289 0.004915 0.006422 -0.011798 0.032568 -0.011383
# 6 -0.003777 -0.005370 -0.001414 0.010262 -0.011383 0.029593
#
#
# Mechanical properties :
#
#
# Convention : Reuss Voigt Hill
#
# Bulk Modulus (GPa) = 29.21568 46.74220 37.97894
# Shear Modulus (GPa) = 31.46834 40.29903 35.88368
#
# Velocity S-wave (km/s) = 3.76904 4.26522 4.02478
# Velocity P-wave (km/s) = 5.66830 6.73474 6.22440
#
# Compressibility (1/GPa) = 0.03422820
#
# Stress axis : x y z
#
# Youngs Moduli (GPa) = 61.03000 82.19984 72.98086
#
# Poissons Ratio (x) = 0.08798 0.14297
# Poissons Ratio (y) = 0.06532 0.07174
# Poissons Ratio (z) = 0.11956 0.08081
#
# Static dielectric constant tensor:
#      x y z
#    x 2.522280 0.347010 -1.351690 
#    y 0.347010 1.948320 -0.595970 
#    z -1.351690 -0.595970 4.272980 
# 
# From -- ./inp_files/84527.got.cif
#   From: 2010.05.17/outbox.cif.g08.bks.cpg/sg2_43_cif.got.tgz:84527.got - 2010.06.03 11:33:40.
