data_PCOD9065756
_publ_section_title
;
Structure prediction by ZEFSAII (Michael W. Deem and Ramdas Pophale) SiO2 
 PCOD9065756
Probable space group: P -1
;
_chemical_formula_sum "Si O2"
_cell_formula_units_Z 12
_cell_length_a 9.814576
_cell_length_b 9.674213
_cell_length_c 12.536960
_cell_angle_alpha 108.355167
_cell_angle_beta 43.388959
_cell_angle_gamma 136.980244
_cell_volume 494.855780
_symmetry_space_group_name_H-M "P -1"
_symmetry_group_IT_number 2
_symmetry_cell_setting 'triclinic'
loop_
_space_group_symop_operation_xyz
x,y,z
-x,-y,-z
loop_
_atom_site_type_symbol
_atom_site_label
_atom_site_fract_x
_atom_site_fract_y
_atom_site_fract_z
Si Si1 0.812565 0.613447 0.101015
Si Si2 0.336850 0.883537 0.449370
Si Si3 0.683736 0.819921 0.568386
Si Si4 0.721058 0.338439 0.921662
Si Si5 0.079490 0.854241 0.211369
Si Si6 0.385126 0.609418 0.235978
O O1 0.575469 0.408998 0.272041
O O2 0.635463 0.636608 0.141523
O O3 0.091029 0.453215 0.054721
O O4 0.074742 0.824430 0.079910
O O5 0.439378 0.791253 0.312584
O O6 0.961850 0.651057 0.611658
O O7 0.500000 0.000000 0.500000
O O8 0.395473 0.061759 0.391492
O O9 0.791343 0.787879 0.395883
O O10 0.000000 0.000000 0.500000
O O11 0.907356 0.296879 0.777909
O O12 0.613849 0.360053 0.882875
O O13 0.409304 0.116433 0.108391
#
# Coordination Sequence:
#
# PCOD9065756 Si02
#       6
#     2   2   2   2   2   2
#     4  12  25  43  69  97 128 174 218 262 324 382
#     4  11  25  42  66  99 131 169 214 267 325 379
#     4  12  22  44  70  94 132 169 217 269 315 383
#     4  11  25  43  65  96 137 166 214 269 322 382
#     4  11  25  42  67  98 128 172 217 265 323 381
#     4  11  25  42  66  96 132 170 214 268 321 381
#
# _framework density 24.249486999999998
#
# number of rings (size 3 to 8) (size 9 to 14) (size 15 to 20)
#    0.000    0.667    3.333    3.500    7.000    2.000 
#    0.000    0.000    0.000    0.000    0.000    0.000 
#    0.000    0.000    0.000    0.000    0.000    0.000 
#
# Total GULP energy -67264.206423 kJ/mol
# GULP energy per Si atom -5605.350535 kJ/mol
# Density = 2.419429 g / cm^3
# Si number density = 24.249487 Si / 1000 Ang^3
#
#
#
# Elastic Constant Matrix: (Units=GPa)
#
#
# Indices 1 2 3 4 5 6 
#
# 1 142.5784 45.5507 12.8807 -0.4106 2.6240 -7.6882
# 2 45.5507 129.0185 41.4886 22.4844 -0.3708 4.4749
# 3 12.8807 41.4886 61.9098 3.5104 -3.3425 -16.5765
# 4 -0.4106 22.4844 3.5104 20.2189 8.3172 3.0497
# 5 2.6240 -0.3708 -3.3425 8.3172 31.1237 5.6475
# 6 -7.6882 4.4749 -16.5765 3.0497 5.6475 55.7755
#
#
#
# Elastic Compliance Matrix: (Units=1/GPa)
#
#
# Indices 1 2 3 4 5 6 
#
# 1 0.008485 -0.004457 0.001261 0.005651 -0.002478 0.001844
# 2 -0.004457 0.015445 -0.009316 -0.017020 0.004867 -0.004184
# 3 0.001261 -0.009316 0.023894 0.005256 -0.000468 0.007782
# 4 0.005651 -0.017020 0.005256 0.075847 -0.020683 0.001654
# 5 -0.002478 0.004867 -0.000468 -0.020683 0.038534 -0.003642
# 6 0.001844 -0.004184 0.007782 0.001654 -0.003642 0.021110
#
#
# Mechanical properties :
#
#
# Convention : Reuss Voigt Hill
#
# Bulk Modulus (GPa) = 43.85928 59.26076 51.56002
# Shear Modulus (GPa) = 23.15465 36.99607 30.07536
#
# Velocity S-wave (km/s) = 3.09342 3.91019 3.52554
# Velocity P-wave (km/s) = 5.55742 6.69903 6.15475
#
# Compressibility (1/GPa) = 0.02280019
#
# Stress axis : x y z
#
# Youngs Moduli (GPa) = 117.85507 64.74423 41.85203
#
# Poissons Ratio (x) = 0.28857 -0.05278
# Poissons Ratio (y) = 0.52529 0.38989
# Poissons Ratio (z) = -0.14862 0.60315
#
# Static dielectric constant tensor:
#      x y z
#    x 1.882430 0.006090 0.040280 
#    y 0.006090 1.983170 0.035750 
#    z 0.040280 0.035750 1.940100 
# 
# From -- ./inp_files/244736.got.cif
#   From: 2010.05.17/outbox.cif.g08.bks.cpg/sg2_123_cif.got.tgz:244736.got - 2010.06.03 11:33:40.
