data_PCOD9065136
_publ_section_title
;
Structure prediction by ZEFSAII (Michael W. Deem and Ramdas Pophale) SiO2 
 PCOD9065136
Probable space group: P -1
;
_chemical_formula_sum "Si O2"
_cell_formula_units_Z 12
_cell_length_a 8.314908
_cell_length_b 10.089614
_cell_length_c 11.543237
_cell_angle_alpha 56.205305
_cell_angle_beta 49.807200
_cell_angle_gamma 87.982322
_cell_volume 528.796661
_symmetry_space_group_name_H-M "P -1"
_symmetry_group_IT_number 2
_symmetry_cell_setting 'triclinic'
loop_
_space_group_symop_operation_xyz
x,y,z
-x,-y,-z
loop_
_atom_site_type_symbol
_atom_site_label
_atom_site_fract_x
_atom_site_fract_y
_atom_site_fract_z
Si Si1 0.820857 0.772156 0.293784
Si Si2 0.670038 0.197091 0.880568
Si Si3 0.279308 0.028926 0.552957
Si Si4 0.540893 0.331595 0.089081
Si Si5 0.556133 0.632742 0.247463
Si Si6 0.082329 0.385660 0.096045
O O1 0.816330 0.922285 0.309659
O O2 0.740016 0.770856 0.196629
O O3 0.595733 0.574899 0.534081
O O4 0.073841 0.776447 0.204505
O O5 0.649742 0.327300 0.728790
O O6 0.519619 0.205722 0.055184
O O7 0.500000 0.000000 0.000000
O O8 0.382994 0.200592 0.331850
O O9 0.500000 0.000000 0.500000
O O10 0.090641 0.827569 0.685175
O O11 0.500000 0.500000 0.000000
O O12 0.828209 0.467507 0.912898
O O13 0.714696 0.626023 0.070435
O O14 0.000000 0.500000 0.000000
#
# Coordination Sequence:
#
# PCOD9065136 Si02
#       6
#     2   2   2   2   2   2
#     4  11  25  46  77 106 147 197 254 306 375 449
#     4  12  27  47  72 109 151 194 248 309 378 449
#     4  12  26  46  77 111 142 201 252 305 379 452
#     4  12  26  50  72 108 153 188 247 313 371 443
#     4  11  24  47  72 107 148 198 246 311 374 444
#     4  12  23  45  74 105 148 193 249 305 374 443
#
# _framework density 22.693034000000001
#
# number of rings (size 3 to 8) (size 9 to 14) (size 15 to 20)
#    0.000    0.333    5.000    2.500    2.333    3.333 
#    3.000    0.000    0.000    0.000    0.000    0.000 
#    0.000    0.000    0.000    0.000    0.000    0.000 
#
# Total GULP energy -66841.771971 kJ/mol
# GULP energy per Si atom -5570.147664 kJ/mol
# Density = 2.264138 g / cm^3
# Si number density = 22.693034 Si / 1000 Ang^3
#
#
#
# Elastic Constant Matrix: (Units=GPa)
#
#
# Indices 1 2 3 4 5 6 
#
# 1 118.3511 34.9543 12.1610 12.1885 0.5233 -5.5064
# 2 34.9543 140.8662 34.0583 3.5279 5.0022 15.7340
# 3 12.1610 34.0583 114.5540 -14.6105 8.7127 1.8780
# 4 12.1885 3.5279 -14.6105 38.2665 -2.1497 -3.8183
# 5 0.5233 5.0022 8.7127 -2.1497 29.1123 -3.6717
# 6 -5.5064 15.7340 1.8780 -3.8183 -3.6717 50.3431
#
#
#
# Elastic Compliance Matrix: (Units=1/GPa)
#
#
# Indices 1 2 3 4 5 6 
#
# 1 0.009589 -0.002316 -0.000765 -0.002947 0.000440 0.001610
# 2 -0.002316 0.008662 -0.002356 -0.001335 -0.001227 -0.003063
# 3 -0.000765 -0.002356 0.010223 0.004279 -0.002271 0.000430
# 4 -0.002947 -0.001335 0.004279 0.029134 0.001437 0.002250
# 5 0.000440 -0.001227 -0.002271 0.001437 0.035746 0.003232
# 6 0.001610 -0.003063 0.000430 0.002250 0.003232 0.021388
#
#
# Mechanical properties :
#
#
# Convention : Reuss Voigt Hill
#
# Bulk Modulus (GPa) = 56.82161 59.56872 58.19517
# Shear Modulus (GPa) = 38.02808 43.05090 40.53949
#
# Velocity S-wave (km/s) = 4.09805 4.36029 4.23120
# Velocity P-wave (km/s) = 6.89098 7.18723 7.04066
#
# Compressibility (1/GPa) = 0.01759894
#
# Stress axis : x y z
#
# Youngs Moduli (GPa) = 104.29132 115.44033 97.82078
#
# Poissons Ratio (x) = 0.26735 0.07485
# Poissons Ratio (y) = 0.24153 0.23051
# Poissons Ratio (z) = 0.07980 0.27202
#
# Static dielectric constant tensor:
#      x y z
#    x 1.888990 0.015390 -0.031270 
#    y 0.015390 1.819570 -0.020240 
#    z -0.031270 -0.020240 1.846170 
# 
# From -- ./inp_files/149831.got.cif
#   From: 2010.05.17/outbox.cif.g08.bks.cpg/sg2_75_cif.got.tgz:149831.got - 2010.06.03 11:33:40.
