data_PCOD9065223
_publ_section_title
;
Structure prediction by ZEFSAII (Michael W. Deem and Ramdas Pophale) SiO2 
 PCOD9065223
Probable space group: P -1
;
_chemical_formula_sum "Si O2"
_cell_formula_units_Z 14
_cell_length_a 9.868001
_cell_length_b 8.344763
_cell_length_c 13.927418
_cell_angle_alpha 58.839381
_cell_angle_beta 41.819570
_cell_angle_gamma 58.843697
_cell_volume 636.699213
_symmetry_space_group_name_H-M "P -1"
_symmetry_group_IT_number 2
_symmetry_cell_setting 'triclinic'
loop_
_space_group_symop_operation_xyz
x,y,z
-x,-y,-z
loop_
_atom_site_type_symbol
_atom_site_label
_atom_site_fract_x
_atom_site_fract_y
_atom_site_fract_z
Si Si1 0.726127 0.358983 0.440648
Si Si2 0.834750 0.085807 0.803821
Si Si3 0.425017 0.194654 0.902047
Si Si4 0.854080 0.019998 0.164116
Si Si5 0.414922 0.013626 0.310236
Si Si6 0.813243 0.419460 0.164615
Si Si7 0.984737 0.682844 0.520044
O O1 0.500000 0.500000 0.500000
O O2 0.692906 0.147873 0.541575
O O3 0.865715 0.393186 0.445382
O O4 0.838970 0.369997 0.277388
O O5 0.597117 0.211684 0.885173
O O6 0.930560 0.152194 0.634932
O O7 0.001073 0.105002 0.791825
O O8 0.528050 0.037760 0.815248
O O9 0.374282 0.395474 0.810906
O O10 0.231683 0.117660 0.073219
O O11 0.794798 0.234719 0.171602
O O12 0.635048 0.980346 0.260085
O O13 0.000000 0.000000 0.000000
O O14 0.249848 0.215455 0.352586
O O15 0.000000 0.500000 0.000000
O O16 0.000000 0.500000 0.500000
#
# Coordination Sequence:
#
# PCOD9065223 Si02
#       7
#     2   2   2   2   2   2   2
#     4  12  27  49  77 107 149 195 248 300 369 446
#     4  11  24  47  75 101 149 188 244 302 361 437
#     4  11  24  47  75 105 138 201 246 297 370 438
#     4  12  27  47  73 113 147 192 247 309 368 435
#     4  12  26  47  75 104 153 194 246 303 372 431
#     4  12  25  46  77 106 146 192 245 302 364 441
#     4  12  30  48  73 113 150 192 247 307 369 437
#
# _framework density 21.988405
#
# number of rings (size 3 to 8) (size 9 to 14) (size 15 to 20)
#    0.000    0.286    5.714    1.286    8.000    1.143 
#    0.000    1.429    0.000    0.000    0.000    0.000 
#    0.000    0.000    0.000    0.000    0.000    0.000 
#
# Total GULP energy -78149.473913 kJ/mol
# GULP energy per Si atom -5582.105279 kJ/mol
# Density = 2.193836 g / cm^3
# Si number density = 21.988405 Si / 1000 Ang^3
#
#
#
# Elastic Constant Matrix: (Units=GPa)
#
#
# Indices 1 2 3 4 5 6 
#
# 1 179.6846 60.9021 55.2907 12.1084 -0.5148 -18.0493
# 2 60.9021 99.6188 47.5647 15.9142 20.1213 -5.4355
# 3 55.2907 47.5647 132.9812 2.5915 16.6933 -6.0663
# 4 12.1084 15.9142 2.5915 44.6663 -8.1437 -0.3320
# 5 -0.5148 20.1213 16.6933 -8.1437 41.3560 -2.3475
# 6 -18.0493 -5.4355 -6.0663 -0.3320 -2.3475 38.0189
#
#
#
# Elastic Compliance Matrix: (Units=1/GPa)
#
#
# Indices 1 2 3 4 5 6 
#
# 1 0.007997 -0.004451 -0.002009 0.000155 0.003279 0.003043
# 2 -0.004451 0.016816 -0.003043 -0.006119 -0.008257 -0.000758
# 3 -0.002009 -0.003043 0.009726 0.000637 -0.002344 0.000024
# 4 0.000155 -0.006119 0.000637 0.025916 0.007826 0.000010
# 5 0.003279 -0.008257 -0.002344 0.007826 0.030837 0.001975
# 6 0.003043 -0.000758 0.000024 0.000010 0.001975 0.027765
#
#
# Mechanical properties :
#
#
# Convention : Reuss Voigt Hill
#
# Bulk Modulus (GPa) = 64.37443 82.19998 73.28721
# Shear Modulus (GPa) = 34.90619 41.37670 38.14145
#
# Velocity S-wave (km/s) = 3.98864 4.34262 4.16939
# Velocity P-wave (km/s) = 7.11003 7.91258 7.52202
#
# Compressibility (1/GPa) = 0.01553412
#
# Stress axis : x y z
#
# Youngs Moduli (GPa) = 125.05400 59.46670 102.81325
#
# Poissons Ratio (x) = 0.26466 0.20652
# Poissons Ratio (y) = 0.55657 0.31288
# Poissons Ratio (z) = 0.25120 0.18097
#
# Static dielectric constant tensor:
#      x y z
#    x 1.840700 -0.032450 -0.028450 
#    y -0.032450 1.900070 0.041010 
#    z -0.028450 0.041010 1.831180 
# 
# From -- ./inp_files/492421.got.cif
#   From: 2010.05.17/outbox.cif.g08.bks.cpg/sg2_247_cif.got.tgz:492421.got - 2010.06.03 11:33:40.
