data_PCOD9065771
_publ_section_title
;
Structure prediction by ZEFSAII (Michael W. Deem and Ramdas Pophale) SiO2 
 PCOD9065771
Probable space group: P -1
;
_chemical_formula_sum "Si O2"
_cell_formula_units_Z 14
_cell_length_a 7.368841
_cell_length_b 20.004053
_cell_length_c 5.065462
_cell_angle_alpha 107.284085
_cell_angle_beta 68.607874
_cell_angle_gamma 117.986350
_cell_volume 606.693634
_symmetry_space_group_name_H-M "P -1"
_symmetry_group_IT_number 2
_symmetry_cell_setting 'triclinic'
loop_
_space_group_symop_operation_xyz
x,y,z
-x,-y,-z
loop_
_atom_site_type_symbol
_atom_site_label
_atom_site_fract_x
_atom_site_fract_y
_atom_site_fract_z
Si Si1 0.073385 0.054896 0.275942
Si Si2 0.924175 0.705007 0.168789
Si Si3 0.191396 0.844422 0.534980
Si Si4 0.429049 0.287712 0.938246
Si Si5 0.456435 0.911167 0.973093
Si Si6 0.529199 0.586186 0.568932
Si Si7 0.310376 0.684423 0.673828
O O1 0.325365 0.096139 0.203883
O O2 0.964036 0.113058 0.375331
O O3 0.000000 0.000000 0.500000
O O4 0.000000 0.000000 0.000000
O O5 0.805548 0.747797 0.105385
O O6 0.734378 0.636523 0.341246
O O7 0.063999 0.760457 0.389336
O O8 0.084578 0.681770 0.880255
O O9 0.385952 0.888426 0.283253
O O10 0.490090 0.733055 0.854047
O O11 0.720922 0.142663 0.199612
O O12 0.594811 0.286373 0.628673
O O13 0.442431 0.372280 0.112425
O O14 0.500000 0.000000 0.000000
O O15 0.500000 0.500000 0.500000
O O16 0.328345 0.602018 0.584443
#
# Coordination Sequence:
#
# PCOD9065771 Si02
#       7
#     2   2   2   2   2   2   2
#     4  12  23  43  70  95 131 172 219 271 333 390
#     4  11  25  42  70  97 139 181 225 272 345 400
#     4  12  27  41  68 101 133 175 222 276 333 392
#     4   9  22  42  64  94 136 164 226 274 327 395
#     4  12  24  44  69  96 134 167 224 278 323 397
#     4   9  22  45  69  99 136 175 229 281 325 400
#     4   9  22  39  65  94 133 171 222 271 335 390
#
# _framework density 23.075897999999999
#
# number of rings (size 3 to 8) (size 9 to 14) (size 15 to 20)
#    0.857    0.571    2.857    1.286    4.000    6.286 
#    0.000    1.429    0.000    0.000    0.000    0.000 
#    0.000    0.000    0.000    0.000    0.000    0.000 
#
# Total GULP energy -78260.567605 kJ/mol
# GULP energy per Si atom -5590.040543 kJ/mol
# Density = 2.302338 g / cm^3
# Si number density = 23.075898 Si / 1000 Ang^3
#
#
#
# Elastic Constant Matrix: (Units=GPa)
#
#
# Indices 1 2 3 4 5 6 
#
# 1 134.5887 16.5806 51.0398 -13.3425 -28.2479 -0.2290
# 2 16.5806 82.9915 40.0007 -6.1389 -13.9607 1.8924
# 3 51.0398 40.0007 152.3806 -16.4537 -13.1542 0.5073
# 4 -13.3425 -6.1389 -16.4537 29.0637 -1.0473 -0.0567
# 5 -28.2479 -13.9607 -13.1542 -1.0473 65.6109 -6.5381
# 6 -0.2290 1.8924 0.5073 -0.0567 -6.5381 23.6403
#
#
#
# Elastic Compliance Matrix: (Units=1/GPa)
#
#
# Indices 1 2 3 4 5 6 
#
# 1 0.009481 0.000179 -0.002569 0.003074 0.003772 0.001183
# 2 0.000179 0.014172 -0.003442 0.001212 0.002382 -0.000397
# 3 -0.002569 -0.003442 0.008644 0.002986 -0.000052 0.000058
# 4 0.003074 0.001212 0.002986 0.037869 0.002859 0.000750
# 5 0.003772 0.002382 -0.000052 0.002859 0.017886 0.004800
# 6 0.001183 -0.000397 0.000058 0.000750 0.004800 0.043672
#
#
# Mechanical properties :
#
#
# Convention : Reuss Voigt Hill
#
# Bulk Modulus (GPa) = 48.46731 65.02256 56.74494
# Shear Modulus (GPa) = 33.27423 41.15229 37.21326
#
# Velocity S-wave (km/s) = 3.80142 4.22755 4.02013
# Velocity P-wave (km/s) = 6.34955 7.21585 6.79651
#
# Compressibility (1/GPa) = 0.02063246
#
# Stress axis : x y z
#
# Youngs Moduli (GPa) = 105.47881 70.56016 115.68286
#
# Poissons Ratio (x) = -0.01263 0.29718
# Poissons Ratio (y) = -0.01888 0.39823
# Poissons Ratio (z) = 0.27097 0.24290
#
# Static dielectric constant tensor:
#      x y z
#    x 1.893560 -0.033430 0.002740 
#    y -0.033430 1.875770 -0.005740 
#    z 0.002740 -0.005740 1.890330 
# 
# From -- ./inp_files/53903.got.cif
#   From: 2010.05.17/outbox.cif.g08.bks.cpg/sg2_27_cif.got.tgz:53903.got - 2010.06.03 11:33:40.
