data_PCOD9065193
_publ_section_title
;
Structure prediction by ZEFSAII (Michael W. Deem and Ramdas Pophale) SiO2 
 PCOD9065193
Probable space group: P -1
;
_chemical_formula_sum "Si O2"
_cell_formula_units_Z 14
_cell_length_a 9.033124
_cell_length_b 7.676665
_cell_length_c 11.540579
_cell_angle_alpha 73.827630
_cell_angle_beta 118.665673
_cell_angle_gamma 78.298741
_cell_volume 618.330081
_symmetry_space_group_name_H-M "P -1"
_symmetry_group_IT_number 2
_symmetry_cell_setting 'triclinic'
loop_
_space_group_symop_operation_xyz
x,y,z
-x,-y,-z
loop_
_atom_site_type_symbol
_atom_site_label
_atom_site_fract_x
_atom_site_fract_y
_atom_site_fract_z
Si Si1 0.224179 0.441397 0.588351
Si Si2 0.817342 0.078387 0.341497
Si Si3 0.545902 0.956136 0.388103
Si Si4 0.321920 0.489117 0.871582
Si Si5 0.854230 0.833542 0.814622
Si Si6 0.998304 0.408422 0.868544
Si Si7 0.068754 0.813665 0.330317
O O1 0.328169 0.265434 0.568740
O O2 0.325427 0.400297 0.759446
O O3 0.216604 0.651056 0.497730
O O4 0.000000 0.500000 0.500000
O O5 0.795879 0.281044 0.239521
O O6 0.649964 0.086147 0.354006
O O7 0.000000 0.000000 0.500000
O O8 0.866021 0.908453 0.294250
O O9 0.500000 0.000000 0.500000
O O10 0.347884 0.038172 0.237720
O O11 0.200904 0.406829 0.920640
O O12 0.500000 0.500000 0.000000
O O13 0.864188 0.639432 0.784940
O O14 0.894592 0.994994 0.725894
O O15 0.992994 0.721913 0.990715
O O16 0.939962 0.307617 0.761470
#
# Coordination Sequence:
#
# PCOD9065193 Si02
#       7
#     2   2   2   2   2   2   2
#     4  12  24  47  77 109 145 205 258 307 384 465
#     4  12  23  44  75 104 147 201 254 303 383 459
#     4  12  26  44  71 112 152 186 254 330 374 443
#     4  12  25  44  75 112 152 196 258 322 376 457
#     4  11  26  46  68 109 152 193 244 317 385 448
#     4  11  24  47  74 103 150 203 245 305 394 455
#     4  12  23  45  80 101 140 203 258 296 372 470
#
# _framework density 22.641628000000001
#
# number of rings (size 3 to 8) (size 9 to 14) (size 15 to 20)
#    0.000    0.286    5.714    3.000    0.000    1.714 
#    7.714    2.857    0.000    0.000    0.000    0.000 
#    0.000    0.000    0.000    0.000    0.000    0.000 
#
# Total GULP energy -78147.946550 kJ/mol
# GULP energy per Si atom -5581.996182 kJ/mol
# Density = 2.259009 g / cm^3
# Si number density = 22.641628 Si / 1000 Ang^3
#
#
#
# Elastic Constant Matrix: (Units=GPa)
#
#
# Indices 1 2 3 4 5 6 
#
# 1 81.0899 16.1840 20.3636 -14.5736 -2.5457 -8.2073
# 2 16.1840 141.2957 33.5601 -5.2465 -5.8514 -21.6735
# 3 20.3636 33.5601 99.6808 -4.1645 -5.0643 2.2474
# 4 -14.5736 -5.2465 -4.1645 43.8014 4.5168 -8.7558
# 5 -2.5457 -5.8514 -5.0643 4.5168 38.0986 -2.7217
# 6 -8.2073 -21.6735 2.2474 -8.7558 -2.7217 36.3872
#
#
#
# Elastic Compliance Matrix: (Units=1/GPa)
#
#
# Indices 1 2 3 4 5 6 
#
# 1 0.014524 -0.000050 -0.002815 0.005482 0.000279 0.004760
# 2 -0.000050 0.008814 -0.002956 0.001827 0.001166 0.005948
# 3 -0.002815 -0.002956 0.011678 -0.000916 0.000785 -0.003278
# 4 0.005482 0.001827 -0.000916 0.026726 -0.002025 0.008661
# 5 0.000279 0.001166 0.000785 -0.002025 0.026950 0.002237
# 6 0.004760 0.005948 -0.003278 0.008661 0.002237 0.034552
#
#
# Mechanical properties :
#
#
# Convention : Reuss Voigt Hill
#
# Bulk Modulus (GPa) = 42.77992 51.36465 47.07229
# Shear Modulus (GPa) = 35.04460 40.45468 37.74964
#
# Velocity S-wave (km/s) = 3.93847 4.23157 4.08765
# Velocity P-wave (km/s) = 6.29424 6.82716 6.56611
#
# Compressibility (1/GPa) = 0.02337545
#
# Stress axis : x y z
#
# Youngs Moduli (GPa) = 68.84934 113.46200 85.63419
#
# Poissons Ratio (x) = 0.00566 0.24102
# Poissons Ratio (y) = 0.00343 0.25311
# Poissons Ratio (z) = 0.19378 0.33535
#
# Static dielectric constant tensor:
#      x y z
#    x 1.890800 -0.046960 -0.060830 
#    y -0.046960 1.838490 0.021370 
#    z -0.060830 0.021370 1.845190 
# 
# From -- ./inp_files/378381.got.cif
#   From: 2010.05.17/outbox.cif.g08.bks.cpg/sg2_190_cif.got.tgz:378381.got - 2010.06.03 11:33:40.
