data_PCOD9065698
_publ_section_title
;
Structure prediction by ZEFSAII (Michael W. Deem and Ramdas Pophale) SiO2 
 PCOD9065698
Probable space group: P -1
;
_chemical_formula_sum "Si O2"
_cell_formula_units_Z 13
_cell_length_a 19.310671
_cell_length_b 6.504163
_cell_length_c 16.296214
_cell_angle_alpha 116.395283
_cell_angle_beta 17.662887
_cell_angle_gamma 118.356196
_cell_volume 546.270067
_symmetry_space_group_name_H-M "P -1"
_symmetry_group_IT_number 2
_symmetry_cell_setting 'triclinic'
loop_
_space_group_symop_operation_xyz
x,y,z
-x,-y,-z
loop_
_atom_site_type_symbol
_atom_site_label
_atom_site_fract_x
_atom_site_fract_y
_atom_site_fract_z
Si Si1 0.837346 0.745992 0.654241
Si Si2 0.618458 0.903129 0.677382
Si Si3 0.049515 0.324918 0.297395
Si Si4 0.315721 0.667705 0.732995
Si Si5 0.462640 0.132841 0.742874
Si Si6 0.834569 0.470360 0.303178
Si Si7 0.500000 0.000000 0.000000
O O1 0.864395 0.678837 0.706036
O O2 0.937757 0.554187 0.453951
O O3 0.586901 0.789445 0.917997
O O4 0.000000 0.000000 0.500000
O O5 0.707371 0.689447 0.496418
O O6 0.457864 0.005319 0.812793
O O7 0.498306 0.845794 0.890194
O O8 0.845138 0.099324 0.477897
O O9 0.265263 0.289872 0.991748
O O10 0.500000 0.500000 0.500000
O O11 0.220228 0.648356 0.744854
O O12 0.414997 0.931635 0.693091
O O13 0.107060 0.567605 0.013199
O O14 0.718376 0.284354 0.468079
#
# Coordination Sequence:
#
# PCOD9065698 Si02
#       7
#     2   2   2   2   2   2   1
#     4  11  25  44  69 100 146 202 253 308 372 431
#     4  12  26  45  70 113 147 196 260 307 371 456
#     4  11  26  44  69 105 150 196 255 309 365 453
#     4  11  24  51  76 109 150 188 253 314 375 457
#     4  12  26  46  76 108 152 200 246 311 384 445
#     4  11  27  46  76 109 147 197 246 310 383 450
#     4  12  26  44  74 100 154 196 250 316 368 432
#
# _framework density 23.797753
#
# number of rings (size 3 to 8) (size 9 to 14) (size 15 to 20)
#    0.000    0.615    6.154    0.462    4.308    2.462 
#    0.000    0.000    0.000    0.000    0.000    0.000 
#    0.000    0.000    0.000    0.000    0.000    0.000 
#
# Total GULP energy -72558.881678 kJ/mol
# GULP energy per Si atom -5581.452437 kJ/mol
# Density = 2.374359 g / cm^3
# Si number density = 23.797753 Si / 1000 Ang^3
#
#
#
# Elastic Constant Matrix: (Units=GPa)
#
#
# Indices 1 2 3 4 5 6 
#
# 1 77.8787 16.6672 -3.9054 11.4204 5.4245 6.1565
# 2 16.6672 119.2012 43.0528 22.9315 5.0671 17.8291
# 3 -3.9054 43.0528 99.1715 27.5657 2.8055 5.3846
# 4 11.4204 22.9315 27.5657 46.3922 5.9181 1.2155
# 5 5.4245 5.0671 2.8055 5.9181 25.8668 8.2136
# 6 6.1565 17.8291 5.3846 1.2155 8.2136 32.5298
#
#
#
# Elastic Compliance Matrix: (Units=1/GPa)
#
#
# Indices 1 2 3 4 5 6 
#
# 1 0.014163 -0.001869 0.002568 -0.003855 -0.001506 -0.001557
# 2 -0.001869 0.011384 -0.003978 -0.002782 0.000931 -0.005359
# 3 0.002568 -0.003978 0.013854 -0.006946 0.000473 -0.000459
# 4 -0.003855 -0.002782 -0.006946 0.028627 -0.005636 0.003758
# 5 -0.001506 0.000931 0.000473 -0.005636 0.043553 -0.011090
# 6 -0.001557 -0.005359 -0.000459 0.003758 -0.011090 0.036708
#
#
# Mechanical properties :
#
#
# Convention : Reuss Voigt Hill
#
# Bulk Modulus (GPa) = 30.44851 45.32008 37.88430
# Shear Modulus (GPa) = 30.15771 36.98686 33.57229
#
# Velocity S-wave (km/s) = 3.56371 3.94663 3.76005
# Velocity P-wave (km/s) = 5.45489 6.31293 5.89953
#
# Compressibility (1/GPa) = 0.03284233
#
# Stress axis : x y z
#
# Youngs Moduli (GPa) = 70.60840 87.83972 72.18207
#
# Poissons Ratio (x) = 0.16419 -0.18536
# Poissons Ratio (y) = 0.13198 0.28714
# Poissons Ratio (z) = -0.18132 0.34943
#
# Static dielectric constant tensor:
#      x y z
#    x 1.890210 0.011100 -0.015500 
#    y 0.011100 1.877600 -0.041660 
#    z -0.015500 -0.041660 2.021110 
# 
# From -- ./inp_files/536270.got.cif
#   From: 2010.05.17/outbox.cif.g08.bks.cpg/sg2_269_cif.got.tgz:536270.got - 2010.06.03 11:33:40.
