data_PCOD9065008
_publ_section_title
;
Structure prediction by ZEFSAII (Michael W. Deem and Ramdas Pophale) SiO2 
 PCOD9065008
Probable space group: P -1
;
_chemical_formula_sum "Si O2"
_cell_formula_units_Z 9
_cell_length_a 7.135980
_cell_length_b 9.680519
_cell_length_c 17.074862
_cell_angle_alpha 151.435415
_cell_angle_beta 44.404453
_cell_angle_gamma 133.569197
_cell_volume 387.851144
_symmetry_space_group_name_H-M "P -1"
_symmetry_group_IT_number 2
_symmetry_cell_setting 'triclinic'
loop_
_space_group_symop_operation_xyz
x,y,z
-x,-y,-z
loop_
_atom_site_type_symbol
_atom_site_label
_atom_site_fract_x
_atom_site_fract_y
_atom_site_fract_z
Si Si1 0.121213 0.699535 0.950377
Si Si2 0.338969 0.173210 0.398719
Si Si3 0.500000 0.500000 0.000000
Si Si4 0.542548 0.828167 0.025127
Si Si5 0.729734 0.923247 0.448631
O O1 0.220181 0.402765 0.748259
O O2 0.231459 0.949399 0.977844
O O3 0.278909 0.794647 0.031892
O O4 0.799199 0.631072 0.016972
O O5 0.500000 0.500000 0.500000
O O6 0.355836 0.092189 0.443280
O O7 0.459857 0.937929 0.191461
O O8 0.020451 0.136203 0.455565
O O9 0.642453 0.546303 0.889035
O O10 0.500000 0.000000 0.500000
#
# Coordination Sequence:
#
# PCOD9065008 Si02
#       5
#     2   2   1   2   2
#     4  11  25  47  67 104 136 177 229 280 335 403
#     4  11  24  47  67  99 139 179 227 278 340 402
#     4  12  24  44  74  96 136 180 228 278 336 398
#     4  11  25  44  70 102 137 176 230 278 338 402
#     4  11  26  45  70 100 137 179 227 279 340 405
#
# _framework density 23.20478
#
# number of rings (size 3 to 8) (size 9 to 14) (size 15 to 20)
#    0.000    0.889    4.444    1.333    3.111    0.889 
#    8.000    0.000    0.000    0.000    0.000    0.000 
#    0.000    0.000    0.000    0.000    0.000    0.000 
#
# Total GULP energy -50200.251490 kJ/mol
# GULP energy per Si atom -5577.805721 kJ/mol
# Density = 2.315196 g / cm^3
# Si number density = 23.204780 Si / 1000 Ang^3
#
#
#
# Elastic Constant Matrix: (Units=GPa)
#
#
# Indices 1 2 3 4 5 6 
#
# 1 152.2277 61.0271 22.6265 -5.5315 7.2187 -3.0461
# 2 61.0271 154.6257 15.2250 5.7764 1.4524 -2.5666
# 3 22.6265 15.2250 99.2302 -5.1754 12.5380 -0.6047
# 4 -5.5315 5.7764 -5.1754 29.8502 -8.1933 10.0348
# 5 7.2187 1.4524 12.5380 -8.1933 25.1439 3.9577
# 6 -3.0461 -2.5666 -0.6047 10.0348 3.9577 30.5977
#
#
#
# Elastic Compliance Matrix: (Units=1/GPa)
#
#
# Indices 1 2 3 4 5 6 
#
# 1 0.008107 -0.003132 -0.001148 0.001559 -0.001090 0.000151
# 2 -0.003132 0.007888 -0.000586 -0.002738 -0.000358 0.001283
# 3 -0.001148 -0.000586 0.011102 0.000163 -0.005226 0.000679
# 4 0.001559 -0.002738 0.000163 0.044647 0.016837 -0.016891
# 5 -0.001090 -0.000358 -0.005226 0.016837 0.050125 -0.012247
# 6 0.000151 0.001283 0.000679 -0.016891 -0.012247 0.039942
#
#
# Mechanical properties :
#
#
# Convention : Reuss Voigt Hill
#
# Bulk Modulus (GPa) = 57.58614 67.09341 62.33978
# Shear Modulus (GPa) = 28.19586 37.59870 32.89728
#
# Velocity S-wave (km/s) = 3.48959 4.02966 3.76931
# Velocity P-wave (km/s) = 6.41145 7.11529 6.77252
#
# Compressibility (1/GPa) = 0.01736529
#
# Stress axis : x y z
#
# Youngs Moduli (GPa) = 123.35477 126.77534 90.07200
#
# Poissons Ratio (x) = 0.39706 0.10340
# Poissons Ratio (y) = 0.38635 0.05276
# Poissons Ratio (z) = 0.14161 0.07426
#
# Static dielectric constant tensor:
#      x y z
#    x 2.295210 -0.337080 -0.044150 
#    y -0.337080 2.007500 0.009090 
#    z -0.044150 0.009090 1.771880 
# 
# From -- ./inp_files/16596.got.cif
#   From: 2010.05.17/outbox.cif.g08.bks.cpg/sg2_9_cif.got.tgz:16596.got - 2010.06.03 11:33:40.
