data_PCOD9065173
_publ_section_title
;
Structure prediction by ZEFSAII (Michael W. Deem and Ramdas Pophale) SiO2 
 PCOD9065173
Probable space group: P -1
;
_chemical_formula_sum "Si O2"
_cell_formula_units_Z 15
_cell_length_a 22.419799
_cell_length_b 8.553841
_cell_length_c 10.329850
_cell_angle_alpha 130.800962
_cell_angle_beta 146.011121
_cell_angle_gamma 36.164577
_cell_volume 652.747748
_symmetry_space_group_name_H-M "P -1"
_symmetry_group_IT_number 2
_symmetry_cell_setting 'triclinic'
loop_
_space_group_symop_operation_xyz
x,y,z
-x,-y,-z
loop_
_atom_site_type_symbol
_atom_site_label
_atom_site_fract_x
_atom_site_fract_y
_atom_site_fract_z
Si Si1 0.854584 0.059452 0.799618
Si Si2 0.339090 0.712012 0.674319
Si Si3 0.979760 0.487086 0.804843
Si Si4 0.000000 0.000000 0.500000
Si Si5 0.829165 0.363041 0.160655
Si Si6 0.520369 0.889699 0.333759
Si Si7 0.786885 0.788098 0.133268
Si Si8 0.420788 0.244277 0.894914
O O1 0.748443 0.202495 0.567787
O O2 0.796436 0.247597 0.922084
O O3 0.885954 0.782715 0.738016
O O4 0.000000 0.000000 0.000000
O O5 0.404641 0.418976 0.675549
O O6 0.237849 0.946815 0.721520
O O7 0.471653 0.699729 0.899625
O O8 0.120654 0.336057 0.894042
O O9 0.941935 0.296667 0.608061
O O10 0.000000 0.500000 0.000000
O O11 0.044016 0.879657 0.663269
O O12 0.843741 0.570889 0.231876
O O13 0.709148 0.516818 0.133079
O O14 0.604824 0.851476 0.336264
O O15 0.500000 0.000000 0.500000
O O16 0.365824 0.095701 0.113626
O O17 0.500000 0.000000 0.000000
#
# Coordination Sequence:
#
# PCOD9065173 Si02
#       8
#     2   2   2   1   2   2   2   2
#     4  12  27  48  75 111 152 200 254 313 382 461
#     4  11  26  44  75 109 142 201 246 309 388 452
#     4  12  28  48  73 108 148 197 259 310 376 460
#     4  12  30  44  74 112 146 202 248 318 382 440
#     4  12  25  47  74 109 151 194 251 315 381 451
#     4  11  25  45  73 108 144 193 244 311 376 452
#     4  11  24  48  74 104 150 196 245 312 387 454
#     4  11  24  47  73 107 147 192 252 306 380 452
#
# _framework density 22.979780999999999
#
# number of rings (size 3 to 8) (size 9 to 14) (size 15 to 20)
#    0.000    0.533    5.333    3.200    5.600    2.667 
#    0.000    0.000    0.000    0.000    0.000    0.000 
#    0.000    0.000    0.000    0.000    0.000    0.000 
#
# Total GULP energy -83550.240711 kJ/mol
# GULP energy per Si atom -5570.016047 kJ/mol
# Density = 2.292748 g / cm^3
# Si number density = 22.979781 Si / 1000 Ang^3
#
#
#
# Elastic Constant Matrix: (Units=GPa)
#
#
# Indices 1 2 3 4 5 6 
#
# 1 108.7296 56.0064 40.0419 -5.2449 -25.2697 -27.2003
# 2 56.0064 151.7979 25.7945 4.1852 -6.2250 17.8698
# 3 40.0419 25.7945 100.0051 7.5876 -32.1841 -1.0287
# 4 -5.2449 4.1852 7.5876 50.0746 -8.6836 -19.9490
# 5 -25.2697 -6.2250 -32.1841 -8.6836 41.4756 -3.4919
# 6 -27.2003 17.8698 -1.0287 -19.9490 -3.4919 59.3114
#
#
#
# Elastic Compliance Matrix: (Units=1/GPa)
#
#
# Indices 1 2 3 4 5 6 
#
# 1 0.026655 -0.011643 -0.003087 0.016036 0.017315 0.022092
# 2 -0.011643 0.012372 -0.000811 -0.008621 -0.008723 -0.012494
# 3 -0.003087 -0.000811 0.014368 -0.001228 0.008821 -0.000816
# 4 0.016036 -0.008621 -0.001228 0.034392 0.016617 0.022476
# 5 0.017315 -0.008723 0.008821 0.016617 0.045273 0.018976
# 6 0.022092 -0.012494 -0.000816 0.022476 0.018976 0.039419
#
#
# Mechanical properties :
#
#
# Convention : Reuss Voigt Hill
#
# Bulk Modulus (GPa) = 44.81423 67.13535 55.97479
# Shear Modulus (GPa) = 23.69687 46.08498 34.89092
#
# Velocity S-wave (km/s) = 3.21472 4.48309 3.90080
# Velocity P-wave (km/s) = 5.77262 7.48838 6.68577
#
# Compressibility (1/GPa) = 0.02231434
#
# Stress axis : x y z
#
# Youngs Moduli (GPa) = 37.51594 80.82785 69.59749
#
# Poissons Ratio (x) = 0.94106 0.21484
# Poissons Ratio (y) = 0.43679 0.05645
# Poissons Ratio (z) = 0.11581 0.06555
#
# Static dielectric constant tensor:
#      x y z
#    x 1.891070 0.061420 0.024920 
#    y 0.061420 1.580280 -0.022340 
#    z 0.024920 -0.022340 1.866870 
# 
# From -- ./inp_files/352454.got.cif
#   From: 2010.05.17/outbox.cif.g08.bks.cpg/sg2_177_cif.got.tgz:352454.got - 2010.06.03 11:33:40.
