data_PCOD9065767
_publ_section_title
;
Structure prediction by ZEFSAII (Michael W. Deem and Ramdas Pophale) SiO2 
 PCOD9065767
Probable space group: P -1
;
_chemical_formula_sum "Si O2"
_cell_formula_units_Z 16
_cell_length_a 16.239788
_cell_length_b 9.552148
_cell_length_c 15.241821
_cell_angle_alpha 35.166712
_cell_angle_beta 144.591682
_cell_angle_gamma 142.224874
_cell_volume 732.392638
_symmetry_space_group_name_H-M "P -1"
_symmetry_group_IT_number 2
_symmetry_cell_setting 'triclinic'
loop_
_space_group_symop_operation_xyz
x,y,z
-x,-y,-z
loop_
_atom_site_type_symbol
_atom_site_label
_atom_site_fract_x
_atom_site_fract_y
_atom_site_fract_z
Si Si1 0.312607 0.200363 0.822576
Si Si2 0.160775 0.978836 0.626860
Si Si3 0.332846 0.584809 0.007835
Si Si4 0.165731 0.490490 0.667194
Si Si5 0.671892 0.932660 0.431616
Si Si6 0.136852 0.085381 0.005361
Si Si7 0.846709 0.288489 0.935950
Si Si8 0.394054 0.556785 0.278158
O O1 0.245645 0.405652 0.698921
O O2 0.271661 0.157369 0.706812
O O3 0.223222 0.944179 0.934474
O O4 0.494883 0.272601 0.952503
O O5 0.208867 0.719622 0.808285
O O6 0.177856 0.045447 0.504191
O O7 0.000000 0.000000 0.500000
O O8 0.278377 0.286472 0.079533
O O9 0.347224 0.591627 0.121859
O O10 0.129290 0.273987 0.822806
O O11 0.000000 0.500000 0.500000
O O12 0.290631 0.769757 0.662203
O O13 0.546942 0.788021 0.323085
O O14 0.616361 0.738589 0.564864
O O15 0.141582 0.834749 0.084849
O O16 0.000000 0.000000 0.000000
O O17 0.724725 0.424811 0.761586
O O18 0.000000 0.500000 0.000000
#
# Coordination Sequence:
#
# PCOD9065767 Si02
#       8
#     2   2   2   2   2   2   2   2
#     4  11  25  44  76 102 136 195 240 289 362 425
#     4  12  24  42  71 106 140 182 237 296 358 429
#     4  12  24  48  74 104 142 187 244 297 355 437
#     4  11  26  46  70 100 148 188 233 301 364 422
#     4  11  25  45  69 102 142 189 239 296 359 421
#     4  11  27  44  70 105 138 186 241 300 357 426
#     4  11  25  42  70 101 138 184 237 292 353 423
#     4  11  25  45  71 101 144 188 238 297 355 428
#
# _framework density 21.846205999999999
#
# number of rings (size 3 to 8) (size 9 to 14) (size 15 to 20)
#    0.000    0.750    3.750    2.625    8.750    1.000 
#    0.000    0.625    0.000    0.000    0.000    0.000 
#    0.000    0.000    0.000    0.000    0.000    0.000 
#
# Total GULP energy -89215.267342 kJ/mol
# GULP energy per Si atom -5575.954209 kJ/mol
# Density = 2.179648 g / cm^3
# Si number density = 21.846206 Si / 1000 Ang^3
#
#
#
# Elastic Constant Matrix: (Units=GPa)
#
#
# Indices 1 2 3 4 5 6 
#
# 1 128.6000 46.5365 11.3179 -6.4023 9.9819 -17.3777
# 2 46.5365 119.0010 11.7791 -5.3058 7.3183 -4.7592
# 3 11.3179 11.7791 55.7583 -1.5787 2.9546 0.8799
# 4 -6.4023 -5.3058 -1.5787 25.6820 7.9166 3.6471
# 5 9.9819 7.3183 2.9546 7.9166 34.5590 0.5790
# 6 -17.3777 -4.7592 0.8799 3.6471 0.5790 41.1059
#
#
#
# Elastic Compliance Matrix: (Units=1/GPa)
#
#
# Indices 1 2 3 4 5 6 
#
# 1 0.009887 -0.003359 -0.001164 0.001965 -0.002557 0.003678
# 2 -0.003359 0.009990 -0.001303 0.001630 -0.001401 -0.000360
# 3 -0.001164 -0.001303 0.018559 0.001114 -0.001211 -0.001122
# 4 0.001965 0.001630 0.001114 0.043594 -0.010949 -0.002718
# 5 -0.002557 -0.001401 -0.001211 -0.010949 0.032595 -0.000705
# 6 0.003678 -0.000360 -0.001122 -0.002718 -0.000705 0.026115
#
#
# Mechanical properties :
#
#
# Convention : Reuss Voigt Hill
#
# Bulk Modulus (GPa) = 37.33441 49.18071 43.25756
# Shear Modulus (GPa) = 30.99396 35.85109 33.42253
#
# Velocity S-wave (km/s) = 3.77070 4.05540 3.91564
# Velocity P-wave (km/s) = 6.00702 6.67005 6.34720
#
# Compressibility (1/GPa) = 0.02678495
#
# Stress axis : x y z
#
# Youngs Moduli (GPa) = 101.13868 100.09656 53.88092
#
# Poissons Ratio (x) = 0.33626 0.06273
# Poissons Ratio (y) = 0.33977 0.07018
# Poissons Ratio (z) = 0.11775 0.13038
#
# Static dielectric constant tensor:
#      x y z
#    x 1.826810 0.030620 0.017960 
#    y 0.030620 1.760080 -0.028830 
#    z 0.017960 -0.028830 1.858900 
# 
# From -- ./inp_files/529306.got.cif
#   From: 2010.05.17/outbox.cif.g08.bks.cpg/sg2_265_cif.got.tgz:529306.got - 2010.06.03 11:33:40.
