data_PCOD9065680
_publ_section_title
;
Structure prediction by ZEFSAII (Michael W. Deem and Ramdas Pophale) SiO2 
 PCOD9065680
Probable space group: P -1
;
_chemical_formula_sum "Si O2"
_cell_formula_units_Z 12
_cell_length_a 9.933417
_cell_length_b 5.580859
_cell_length_c 9.524797
_cell_angle_alpha 69.486396
_cell_angle_beta 118.199008
_cell_angle_gamma 115.940106
_cell_volume 411.532614
_symmetry_space_group_name_H-M "P -1"
_symmetry_group_IT_number 2
_symmetry_cell_setting 'triclinic'
loop_
_space_group_symop_operation_xyz
x,y,z
-x,-y,-z
loop_
_atom_site_type_symbol
_atom_site_label
_atom_site_fract_x
_atom_site_fract_y
_atom_site_fract_z
Si Si1 0.500000 0.500000 0.500000
Si Si2 0.243909 0.928423 0.604108
Si Si3 0.500000 0.000000 0.500000
Si Si4 0.349199 0.599004 0.929800
Si Si5 0.919800 0.693879 0.639876
Si Si6 0.290416 0.736602 0.179507
Si Si7 0.890192 0.921693 0.097776
O O1 0.448404 0.295058 0.382193
O O2 0.759896 0.761622 0.489874
O O3 0.345632 0.876829 0.797500
O O4 0.055903 0.760001 0.574501
O O5 0.318140 0.851783 0.517733
O O6 0.561239 0.238554 0.647361
O O7 0.190025 0.382097 0.829955
O O8 0.500000 0.500000 0.000000
O O9 0.306506 0.595625 0.072181
O O10 0.857951 0.429190 0.760118
O O11 0.012219 0.908975 0.760323
O O12 0.261399 0.997462 0.050329
O O13 0.000000 0.000000 0.000000
#
# Coordination Sequence:
#
# PCOD9065680 Si02
#       7
#     1   2   1   2   2   2   2
#     4  12  30  48  86 112 160 218 272 330 416 474
#     4  11  26  48  78 110 162 200 276 325 410 475
#     4  12  28  56  76 118 160 218 270 340 398 496
#     4  12  28  48  74 116 154 205 265 335 401 487
#     4  11  24  50  78 116 154 207 269 334 406 489
#     4  12  26  51  77 110 160 203 267 336 404 486
#     4  12  26  45  83 111 153 209 261 336 410 484
#
# _framework density 29.159292000000001
#
# number of rings (size 3 to 8) (size 9 to 14) (size 15 to 20)
#    0.000    0.333    5.000    2.500    7.000    4.000 
#    0.000    0.000    0.000    0.000    0.000    0.000 
#    0.000    0.000    0.000    0.000    0.000    0.000 
#
# Total GULP energy -66863.663134 kJ/mol
# GULP energy per Si atom -5571.971928 kJ/mol
# Density = 2.909292 g / cm^3
# Si number density = 29.159292 Si / 1000 Ang^3
#
#
#
# Elastic Constant Matrix: (Units=GPa)
#
#
# Indices 1 2 3 4 5 6 
#
# 1 212.3005 30.5364 26.6872 -19.1723 -21.1742 4.0061
# 2 30.5364 127.1137 37.8792 -21.6660 -14.9490 -7.2752
# 3 26.6872 37.8792 170.3684 -26.3587 14.8888 -11.9393
# 4 -19.1723 -21.6660 -26.3587 67.9822 -9.2589 3.9827
# 5 -21.1742 -14.9490 14.8888 -9.2589 59.7593 -18.4298
# 6 4.0061 -7.2752 -11.9393 3.9827 -18.4298 39.2872
#
#
#
# Elastic Compliance Matrix: (Units=1/GPa)
#
#
# Indices 1 2 3 4 5 6 
#
# 1 0.005202 -0.000588 -0.000663 0.001304 0.002061 -0.000006
# 2 -0.000588 0.009605 -0.001788 0.002568 0.003925 0.002876
# 3 -0.000663 -0.001788 0.006837 0.001590 -0.001905 0.000759
# 4 0.001304 0.002568 0.001590 0.016954 0.003577 0.000785
# 5 0.002061 0.003925 -0.001905 0.003577 0.022616 0.010184
# 6 -0.000006 0.002876 0.000759 0.000785 0.010184 0.030915
#
#
# Mechanical properties :
#
#
# Convention : Reuss Voigt Hill
#
# Bulk Modulus (GPa) = 64.24024 77.77646 71.00835
# Shear Modulus (GPa) = 48.35921 61.05106 54.70514
#
# Velocity S-wave (km/s) = 4.07682 4.58067 4.33607
# Velocity P-wave (km/s) = 6.65126 7.39646 7.03374
#
# Compressibility (1/GPa) = 0.01556657
#
# Stress axis : x y z
#
# Youngs Moduli (GPa) = 192.24778 104.11534 146.27092
#
# Poissons Ratio (x) = 0.06119 0.09698
# Poissons Ratio (y) = 0.11299 0.26146
# Poissons Ratio (z) = 0.12746 0.18611
#
# Static dielectric constant tensor:
#      x y z
#    x -1.077480 -1.400660 1.760280 
#    y -1.400660 2.423630 0.759520 
#    z 1.760280 0.759520 1.313120 
# 
# From -- ./inp_files/229436.got.cif
#   From: 2010.05.17/outbox.cif.g08.bks.cpg/sg2_115_cif.got.tgz:229436.got - 2010.06.03 11:33:40.
