data_PCOD9065809
_publ_section_title
;
Structure prediction by ZEFSAII (Michael W. Deem and Ramdas Pophale) SiO2 
 PCOD9065809
Probable space group: P -1
;
_chemical_formula_sum "Si O2"
_cell_formula_units_Z 13
_cell_length_a 5.858198
_cell_length_b 16.174624
_cell_length_c 9.624223
_cell_angle_alpha 42.700723
_cell_angle_beta 114.719364
_cell_angle_gamma 92.844908
_cell_volume 510.265119
_symmetry_space_group_name_H-M "P -1"
_symmetry_group_IT_number 2
_symmetry_cell_setting 'triclinic'
loop_
_space_group_symop_operation_xyz
x,y,z
-x,-y,-z
loop_
_atom_site_type_symbol
_atom_site_label
_atom_site_fract_x
_atom_site_fract_y
_atom_site_fract_z
Si Si1 0.216524 0.682401 0.143747
Si Si2 0.938432 0.369504 0.133128
Si Si3 0.797641 0.370814 0.396409
Si Si4 0.534513 0.184539 0.594977
Si Si5 0.000000 0.500000 0.500000
Si Si6 0.698481 0.956793 0.735783
Si Si7 0.582849 0.819506 0.133978
O O1 0.142863 0.592238 0.345579
O O2 0.191859 0.638440 0.036305
O O3 0.505512 0.696449 0.220656
O O4 0.983729 0.833924 0.921297
O O5 0.226431 0.238257 0.389232
O O6 0.759781 0.376304 0.214824
O O7 0.164650 0.504539 0.682179
O O8 0.000000 0.500000 0.000000
O O9 0.583078 0.317776 0.466557
O O10 0.097561 0.250907 0.655180
O O11 0.570940 0.119594 0.837075
O O12 0.732490 0.082308 0.659240
O O13 0.500000 0.000000 0.500000
O O14 0.553649 0.909398 0.881978
#
# Coordination Sequence:
#
# PCOD9065809 Si02
#       7
#     2   2   2   2   1   2   2
#     4  12  26  46  70 108 137 187 232 290 349 413
#     4  11  25  43  68 103 140 180 234 285 355 408
#     4  11  25  45  70 103 137 187 228 291 345 413
#     4  11  25  47  70 100 141 183 234 288 345 417
#     4  12  22  48  72 100 146 176 242 280 350 412
#     4  12  26  46  69 104 145 183 233 288 348 416
#     4  11  25  45  71 103 135 186 232 286 348 411
#
# _framework density 25.476952000000001
#
# number of rings (size 3 to 8) (size 9 to 14) (size 15 to 20)
#    0.000    0.615    6.154    0.462    2.154    8.000 
#    0.000    0.000    0.000    0.000    0.000    0.000 
#    0.000    0.000    0.000    0.000    0.000    0.000 
#
# Total GULP energy -72619.651676 kJ/mol
# GULP energy per Si atom -5586.127052 kJ/mol
# Density = 2.541897 g / cm^3
# Si number density = 25.476952 Si / 1000 Ang^3
#
#
#
# Elastic Constant Matrix: (Units=GPa)
#
#
# Indices 1 2 3 4 5 6 
#
# 1 54.6404 5.7533 27.9633 11.2138 -4.3651 20.8449
# 2 5.7533 154.3067 29.9853 23.8378 4.0010 4.0680
# 3 27.9633 29.9853 113.7974 19.4467 -5.6554 -9.1268
# 4 11.2138 23.8378 19.4467 57.3564 -10.6096 -0.2541
# 5 -4.3651 4.0010 -5.6554 -10.6096 46.5495 -2.7425
# 6 20.8449 4.0680 -9.1268 -0.2541 -2.7425 39.5535
#
#
#
# Elastic Compliance Matrix: (Units=1/GPa)
#
#
# Indices 1 2 3 4 5 6 
#
# 1 0.030260 0.001631 -0.008691 -0.003782 -0.000291 -0.018165
# 2 0.001631 0.007385 -0.002094 -0.002974 -0.001545 -0.002229
# 3 -0.008691 -0.002094 0.012384 -0.001410 0.001003 0.007713
# 4 -0.003782 -0.002974 -0.001410 0.020750 0.004602 0.002426
# 5 -0.000291 -0.001545 0.001003 0.004602 0.022886 0.002160
# 6 -0.018165 -0.002229 0.007713 0.002426 0.002160 0.037029
#
#
# Mechanical properties :
#
#
# Convention : Reuss Voigt Hill
#
# Bulk Modulus (GPa) = 31.52377 50.01648 40.77013
# Shear Modulus (GPa) = 31.33315 45.96138 38.64726
#
# Velocity S-wave (km/s) = 3.51074 4.25200 3.89903
# Velocity P-wave (km/s) = 5.36974 6.61670 6.02556
#
# Compressibility (1/GPa) = 0.03172209
#
# Stress axis : x y z
#
# Youngs Moduli (GPa) = 33.04717 135.41065 80.74791
#
# Poissons Ratio (x) = -0.22088 0.70174
# Poissons Ratio (y) = -0.05391 0.16909
# Poissons Ratio (z) = 0.28720 0.28356
#
# Static dielectric constant tensor:
#      x y z
#    x 2.217090 -0.380050 0.069310 
#    y -0.380050 2.542730 -0.180290 
#    z 0.069310 -0.180290 2.029010 
# 
# From -- ./inp_files/141039.got.cif
#   From: 2010.05.17/outbox.cif.g08.bks.cpg/sg2_71_cif.got.tgz:141039.got - 2010.06.03 11:33:40.
