data_PCOD9065161
_publ_section_title
;
Structure prediction by ZEFSAII (Michael W. Deem and Ramdas Pophale) SiO2 
 PCOD9065161
Probable space group: P -1
;
_chemical_formula_sum "Si O2"
_cell_formula_units_Z 12
_cell_length_a 8.315732
_cell_length_b 7.382696
_cell_length_c 8.688451
_cell_angle_alpha 97.283818
_cell_angle_beta 70.823235
_cell_angle_gamma 79.077454
_cell_volume 484.295638
_symmetry_space_group_name_H-M "P -1"
_symmetry_group_IT_number 2
_symmetry_cell_setting 'triclinic'
loop_
_space_group_symop_operation_xyz
x,y,z
-x,-y,-z
loop_
_atom_site_type_symbol
_atom_site_label
_atom_site_fract_x
_atom_site_fract_y
_atom_site_fract_z
Si Si1 0.486795 0.025361 0.820957
Si Si2 0.077354 0.171329 0.939186
Si Si3 0.975706 0.323419 0.645221
Si Si4 0.055181 0.700421 0.678307
Si Si5 0.567435 0.410284 0.809386
Si Si6 0.578943 0.322226 0.349973
O O1 0.284992 0.114991 0.854078
O O2 0.581177 0.188344 0.765471
O O3 0.524596 0.829643 0.691882
O O4 0.500000 0.000000 0.000000
O O5 0.001399 0.235971 0.800045
O O6 0.042252 0.286756 0.124342
O O7 0.000000 0.000000 0.000000
O O8 0.021902 0.214390 0.453992
O O9 0.765385 0.423718 0.712043
O O10 0.090743 0.476685 0.618231
O O11 0.230316 0.772114 0.655619
O O12 0.407321 0.548532 0.784585
O O13 0.500000 0.500000 0.000000
O O14 0.500000 0.500000 0.500000
#
# Coordination Sequence:
#
# PCOD9065161 Si02
#       6
#     2   2   2   2   2   2
#     4  12  26  46  75 109 144 199 244 300 378 440
#     4  12  24  45  72 104 146 185 245 303 359 446
#     4  11  25  45  73 107 143 196 238 306 372 437
#     4  11  24  47  73 105 145 190 249 300 372 436
#     4  12  23  44  76 104 146 193 244 300 367 444
#     4  12  25  47  71 108 149 186 246 304 365 438
#
# _framework density 24.778251999999998
#
# number of rings (size 3 to 8) (size 9 to 14) (size 15 to 20)
#    0.000    0.333    5.000    4.500    0.000    1.333 
#    0.000    0.000    0.000    0.000    0.000    0.000 
#    0.000    0.000    0.000    0.000    0.000    0.000 
#
# Total GULP energy -66808.643467 kJ/mol
# GULP energy per Si atom -5567.386956 kJ/mol
# Density = 2.472186 g / cm^3
# Si number density = 24.778252 Si / 1000 Ang^3
#
#
#
# Elastic Constant Matrix: (Units=GPa)
#
#
# Indices 1 2 3 4 5 6 
#
# 1 92.7220 25.8798 35.1300 3.7664 11.6230 10.3518
# 2 25.8798 108.5574 48.5671 3.1795 21.4659 26.6883
# 3 35.1300 48.5671 190.5479 -4.4641 42.2321 -3.6280
# 4 3.7664 3.1795 -4.4641 53.9510 -1.5474 6.7123
# 5 11.6230 21.4659 42.2321 -1.5474 46.6866 0.1240
# 6 10.3518 26.6883 -3.6280 6.7123 0.1240 41.9530
#
#
#
# Elastic Compliance Matrix: (Units=1/GPa)
#
#
# Indices 1 2 3 4 5 6 
#
# 1 0.012219 -0.001410 -0.001771 -0.000671 -0.000808 -0.002162
# 2 -0.001410 0.013453 -0.002552 0.000042 -0.003502 -0.008427
# 3 -0.001771 -0.002552 0.007412 0.000412 -0.005084 0.002651
# 4 -0.000671 0.000042 0.000412 0.018982 0.000412 -0.002864
# 5 -0.000808 -0.003502 -0.005084 0.000412 0.027838 0.001839
# 6 -0.002162 -0.008427 0.002651 -0.002864 0.001839 0.030413
#
#
# Mechanical properties :
#
#
# Convention : Reuss Voigt Hill
#
# Bulk Modulus (GPa) = 46.25877 67.88676 57.07277
# Shear Modulus (GPa) = 38.76305 47.33480 43.04892
#
# Velocity S-wave (km/s) = 3.95954 4.37548 4.17270
# Velocity P-wave (km/s) = 6.29393 7.27899 6.80431
#
# Compressibility (1/GPa) = 0.02161752
#
# Stress axis : x y z
#
# Youngs Moduli (GPa) = 81.83720 74.33502 134.91758
#
# Poissons Ratio (x) = 0.10479 0.23897
# Poissons Ratio (y) = 0.11537 0.34434
# Poissons Ratio (z) = 0.14495 0.18972
#
# Static dielectric constant tensor:
#      x y z
#    x 1.952920 0.075260 -0.001750 
#    y 0.075260 2.086650 0.076850 
#    z -0.001750 0.076850 2.077260 
# 
# From -- ./inp_files/155244.got.cif
#   From: 2010.05.17/outbox.cif.g08.bks.cpg/sg2_78_cif.got.tgz:155244.got - 2010.06.03 11:33:40.
