data_PCOD9065912
_publ_section_title
;
Structure prediction by ZEFSAII (Michael W. Deem and Ramdas Pophale) SiO2 
 PCOD9065912
Probable space group: P -1
;
_chemical_formula_sum "Si O2"
_cell_formula_units_Z 14
_cell_length_a 11.494846
_cell_length_b 12.118760
_cell_length_c 13.449491
_cell_angle_alpha 35.191068
_cell_angle_beta 148.181048
_cell_angle_gamma 131.659777
_cell_volume 566.550693
_symmetry_space_group_name_H-M "P -1"
_symmetry_group_IT_number 2
_symmetry_cell_setting 'triclinic'
loop_
_space_group_symop_operation_xyz
x,y,z
-x,-y,-z
loop_
_atom_site_type_symbol
_atom_site_label
_atom_site_fract_x
_atom_site_fract_y
_atom_site_fract_z
Si Si1 0.198798 0.407813 0.572673
Si Si2 0.298897 0.948536 0.461168
Si Si3 0.556756 0.951803 0.291261
Si Si4 0.351229 0.728106 0.027733
Si Si5 0.906103 0.669216 0.642377
Si Si6 0.266009 0.510548 0.763669
Si Si7 0.148463 0.777572 0.060360
O O1 0.447637 0.439488 0.693079
O O2 0.138845 0.251926 0.560386
O O3 0.254551 0.387505 0.745547
O O4 0.956852 0.531395 0.308339
O O5 0.231998 0.736632 0.543091
O O6 0.500000 0.000000 0.500000
O O7 0.378626 0.951236 0.631458
O O8 0.089296 0.106045 0.185565
O O9 0.746705 0.785103 0.519623
O O10 0.323427 0.865964 0.193554
O O11 0.552446 0.097838 0.088191
O O12 0.247528 0.788296 0.013350
O O13 0.155036 0.672761 0.855973
O O14 0.859047 0.448910 0.764498
O O15 0.500000 0.500000 0.000000
#
# Coordination Sequence:
#
# PCOD9065912 Si02
#       7
#     2   2   2   2   2   2   2
#     4  11  25  43  79 104 143 187 246 295 361 424
#     4  12  30  47  71 102 150 193 238 292 365 432
#     4  12  26  47  75 110 142 188 244 301 364 429
#     4  12  25  46  77 109 148 183 243 303 366 424
#     4  12  26  43  76 109 146 187 237 301 368 426
#     4  11  26  50  72 105 144 196 246 290 355 434
#     4  12  28  46  72 109 150 188 237 300 369 428
#
# _framework density 24.710940999999998
#
# number of rings (size 3 to 8) (size 9 to 14) (size 15 to 20)
#    0.000    0.286    2.857    5.143    8.000    1.714 
#    0.000    0.000    0.000    0.000    0.000    0.000 
#    0.000    0.000    0.000    0.000    0.000    0.000 
#
# Total GULP energy -78279.461606 kJ/mol
# GULP energy per Si atom -5591.390115 kJ/mol
# Density = 2.465470 g / cm^3
# Si number density = 24.710941 Si / 1000 Ang^3
#
#
#
# Elastic Constant Matrix: (Units=GPa)
#
#
# Indices 1 2 3 4 5 6 
#
# 1 120.8624 25.9128 58.2714 -4.7224 36.0640 -9.4007
# 2 25.9128 119.0862 51.1464 17.7419 0.6229 7.9714
# 3 58.2714 51.1464 166.9848 30.3410 26.2447 5.8656
# 4 -4.7224 17.7419 30.3410 66.1443 3.9698 -12.0260
# 5 36.0640 0.6229 26.2447 3.9698 44.9454 -1.8401
# 6 -9.4007 7.9714 5.8656 -12.0260 -1.8401 34.0155
#
#
#
# Elastic Compliance Matrix: (Units=1/GPa)
#
#
# Indices 1 2 3 4 5 6 
#
# 1 0.014178 -0.002588 -0.003878 0.005231 -0.009270 0.006541
# 2 -0.002588 0.010561 -0.002205 -0.002868 0.003322 -0.003645
# 3 -0.003878 -0.002205 0.009298 -0.004532 -0.002045 -0.003871
# 4 0.005231 -0.002868 -0.004532 0.020319 -0.002900 0.009926
# 5 -0.009270 0.003322 -0.002045 -0.002900 0.030996 -0.002336
# 6 0.006541 -0.003645 -0.003871 0.009926 -0.002336 0.036111
#
#
# Mechanical properties :
#
#
# Convention : Reuss Voigt Hill
#
# Bulk Modulus (GPa) = 59.89688 75.28827 67.59257
# Shear Modulus (GPa) = 34.63343 47.12791 40.88067
#
# Velocity S-wave (km/s) = 3.74778 4.37185 4.07179
# Velocity P-wave (km/s) = 6.55892 7.48451 7.03695
#
# Compressibility (1/GPa) = 0.01669536
#
# Stress axis : x y z
#
# Youngs Moduli (GPa) = 70.53305 94.68617 107.55075
#
# Poissons Ratio (x) = 0.24506 0.41709
# Poissons Ratio (y) = 0.18255 0.23710
# Poissons Ratio (z) = 0.27353 0.20874
#
# Static dielectric constant tensor:
#      x y z
#    x 2.022060 0.034190 -0.055090 
#    y 0.034190 1.912100 -0.024540 
#    z -0.055090 -0.024540 2.032900 
# 
# From -- ./inp_files/518701.got.cif
#   From: 2010.05.17/outbox.cif.g08.bks.cpg/sg2_260_cif.got.tgz:518701.got - 2010.06.03 11:33:40.
