data_PCOD9065675
_publ_section_title
;
Structure prediction by ZEFSAII (Michael W. Deem and Ramdas Pophale) SiO2 
 PCOD9065675
Probable space group: P -1
;
_chemical_formula_sum "Si O2"
_cell_formula_units_Z 14
_cell_length_a 6.706804
_cell_length_b 16.863810
_cell_length_c 14.260909
_cell_angle_alpha 154.610073
_cell_angle_beta 97.698921
_cell_angle_gamma 100.392910
_cell_volume 483.054809
_symmetry_space_group_name_H-M "P -1"
_symmetry_group_IT_number 2
_symmetry_cell_setting 'triclinic'
loop_
_space_group_symop_operation_xyz
x,y,z
-x,-y,-z
loop_
_atom_site_type_symbol
_atom_site_label
_atom_site_fract_x
_atom_site_fract_y
_atom_site_fract_z
Si Si1 0.268075 0.216079 0.368820
Si Si2 0.761159 0.498938 0.481229
Si Si3 0.161994 0.261671 0.058059
Si Si4 0.969029 0.437614 0.109979
Si Si5 0.767177 0.615853 0.076245
Si Si6 0.403461 0.964643 0.787938
Si Si7 0.657041 0.922440 0.303752
O O1 0.163148 0.275576 0.338912
O O2 0.533509 0.516248 0.736064
O O3 0.904713 0.335718 0.564157
O O4 0.392737 0.083737 0.226828
O O5 0.746773 0.576586 0.666100
O O6 0.495531 0.194863 0.107558
O O7 0.000000 0.500000 0.500000
O O8 0.945590 0.238207 0.957809
O O9 0.975960 0.967591 0.765091
O O10 0.216307 0.548025 0.167910
O O11 0.060351 0.783731 0.332283
O O12 0.653006 0.265740 0.866845
O O13 0.500000 0.500000 0.000000
O O14 0.783386 0.804492 0.210978
O O15 0.421701 0.070038 0.798637
#
# Coordination Sequence:
#
# PCOD9065675 Si02
#       7
#     2   2   2   2   2   2   2
#     4  11  25  50  74 114 163 220 279 346 412 491
#     4  12  25  48  78 119 169 221 281 342 413 509
#     4  11  25  51  76 121 164 223 281 343 422 493
#     4  11  25  50  81 117 171 221 282 357 425 515
#     4  11  27  49  82 125 163 215 277 358 438 523
#     4  11  26  46  77 118 162 222 281 345 423 499
#     4  11  24  50  76 122 162 216 283 342 437 511
#
# _framework density 28.982216999999999
#
# number of rings (size 3 to 8) (size 9 to 14) (size 15 to 20)
#    0.000    0.857    2.857    2.143    4.000    6.857 
#   10.286    0.000    0.000    0.000    0.000    0.000 
#    0.000    0.000    0.000    0.000    0.000    0.000 
#
# Total GULP energy -78180.739487 kJ/mol
# GULP energy per Si atom -5584.338535 kJ/mol
# Density = 2.891625 g / cm^3
# Si number density = 28.982217 Si / 1000 Ang^3
#
#
#
# Elastic Constant Matrix: (Units=GPa)
#
#
# Indices 1 2 3 4 5 6 
#
# 1 199.3688 53.4407 87.7739 5.6831 26.4816 -16.3856
# 2 53.4407 131.5602 64.9201 25.7687 -25.8288 -33.3346
# 3 87.7739 64.9201 166.8600 14.7116 -11.3687 1.6327
# 4 5.6831 25.7687 14.7116 73.4109 -11.2615 -5.5858
# 5 26.4816 -25.8288 -11.3687 -11.2615 54.3059 10.3121
# 6 -16.3856 -33.3346 1.6327 -5.5858 10.3121 55.2273
#
#
#
# Elastic Compliance Matrix: (Units=1/GPa)
#
#
# Indices 1 2 3 4 5 6 
#
# 1 0.008433 -0.002000 -0.004129 0.000093 -0.006407 0.002623
# 2 -0.002000 0.013246 -0.003613 -0.002553 0.004782 0.006357
# 3 -0.004129 -0.003613 0.009846 -0.000233 0.003125 -0.004304
# 4 0.000093 -0.002553 -0.000233 0.014812 0.001829 -0.000350
# 5 -0.006407 0.004782 0.003125 0.001829 0.025547 -0.003692
# 6 0.002623 0.006357 -0.004304 -0.000350 -0.003692 0.023504
#
#
# Mechanical properties :
#
#
# Convention : Reuss Voigt Hill
#
# Bulk Modulus (GPa) = 83.03625 101.11759 92.07692
# Shear Modulus (GPa) = 42.05725 56.03245 49.04485
#
# Velocity S-wave (km/s) = 3.81352 4.40175 4.11815
# Velocity P-wave (km/s) = 6.93567 7.79738 7.37911
#
# Compressibility (1/GPa) = 0.01204293
#
# Stress axis : x y z
#
# Youngs Moduli (GPa) = 118.57602 75.49334 101.56347
#
# Poissons Ratio (x) = 0.15098 0.41931
# Poissons Ratio (y) = 0.23715 0.36694
# Poissons Ratio (z) = 0.48954 0.27275
#
# Static dielectric constant tensor:
#      x y z
#    x 2.376980 0.024520 -0.020210 
#    y 0.024520 2.382210 -0.048030 
#    z -0.020210 -0.048030 2.238730 
# 
# From -- ./inp_files/502345.got.cif
#   From: 2010.05.17/outbox.cif.g08.bks.cpg/sg2_252_cif.got.tgz:502345.got - 2010.06.03 11:33:40.
