data_PCOD9065901
_publ_section_title
;
Structure prediction by ZEFSAII (Michael W. Deem and Ramdas Pophale) SiO2 
 PCOD9065901
Probable space group: P -1
;
_chemical_formula_sum "Si O2"
_cell_formula_units_Z 16
_cell_length_a 8.496362
_cell_length_b 9.785781
_cell_length_c 14.241175
_cell_angle_alpha 131.264706
_cell_angle_beta 88.705032
_cell_angle_gamma 119.204920
_cell_volume 691.398014
_symmetry_space_group_name_H-M "P -1"
_symmetry_group_IT_number 2
_symmetry_cell_setting 'triclinic'
loop_
_space_group_symop_operation_xyz
x,y,z
-x,-y,-z
loop_
_atom_site_type_symbol
_atom_site_label
_atom_site_fract_x
_atom_site_fract_y
_atom_site_fract_z
Si Si1 0.464852 0.955301 0.089779
Si Si2 0.137890 0.316399 0.399832
Si Si3 0.700366 0.547852 0.063570
Si Si4 0.046645 0.959214 0.377409
Si Si5 0.355596 0.856752 0.350280
Si Si6 0.772359 0.876698 0.861825
Si Si7 0.825781 0.649495 0.899281
Si Si8 0.708009 0.178066 0.352706
O O1 0.357822 0.069583 0.167501
O O2 0.673631 0.114349 0.215067
O O3 0.350002 0.686757 0.998613
O O4 0.500000 0.000000 0.000000
O O5 0.147286 0.212805 0.254998
O O6 0.273456 0.595466 0.521478
O O7 0.917269 0.231234 0.395614
O O8 0.180901 0.203125 0.429166
O O9 0.840439 0.761697 0.232047
O O10 0.500000 0.500000 0.000000
O O11 0.824660 0.624823 0.000063
O O12 0.185471 0.882676 0.348038
O O13 0.000000 0.000000 0.500000
O O14 0.241122 0.587631 0.248726
O O15 0.500000 0.000000 0.500000
O O16 0.511210 0.955153 0.305845
O O17 0.686527 0.700457 0.872307
O O18 0.946727 0.124587 0.019556
#
# Coordination Sequence:
#
# PCOD9065901 Si02
#       8
#     2   2   2   2   2   2   2   2
#     4  12  27  44  71 106 145 185 241 298 369 434
#     4  11  25  48  71 101 143 189 245 298 379 432
#     4  12  26  48  78 107 150 192 246 305 366 438
#     4  12  28  45  73 108 146 194 246 305 368 442
#     4  12  26  47  72 105 147 192 247 302 373 438
#     4  11  25  45  72 107 142 189 242 304 365 440
#     4  11  25  43  75 102 143 189 245 295 371 432
#     4  11  26  46  71 100 142 191 236 305 366 445
#
# _framework density 23.141518000000001
#
# number of rings (size 3 to 8) (size 9 to 14) (size 15 to 20)
#    0.000    0.500    2.500    4.500    7.000    5.000 
#    0.000    0.000    0.000    0.000    0.000    0.000 
#    0.000    0.000    0.000    0.000    0.000    0.000 
#
# Total GULP energy -89436.880320 kJ/mol
# GULP energy per Si atom -5589.805020 kJ/mol
# Density = 2.308885 g / cm^3
# Si number density = 23.141518 Si / 1000 Ang^3
#
#
#
# Elastic Constant Matrix: (Units=GPa)
#
#
# Indices 1 2 3 4 5 6 
#
# 1 67.3192 27.6985 6.2946 10.9034 -4.6974 -11.8117
# 2 27.6985 140.4746 30.1963 3.5149 -22.6794 -29.6130
# 3 6.2946 30.1963 109.9499 -5.4167 -15.6077 -7.9687
# 4 10.9034 3.5149 -5.4167 49.0114 -7.6859 -11.6116
# 5 -4.6974 -22.6794 -15.6077 -7.6859 30.3802 -3.4087
# 6 -11.8117 -29.6130 -7.9687 -11.6116 -3.4087 34.9451
#
#
#
# Elastic Compliance Matrix: (Units=1/GPa)
#
#
# Indices 1 2 3 4 5 6 
#
# 1 0.016895 -0.002721 -0.000203 -0.003034 -0.000028 0.002347
# 2 -0.002721 0.011695 -0.000596 0.003956 0.010258 0.011170
# 3 -0.000203 -0.000596 0.010530 0.003016 0.006081 0.003423
# 4 -0.003034 0.003956 0.003016 0.026066 0.012070 0.012853
# 5 -0.000028 0.010258 0.006081 0.012070 0.048862 0.018847
# 6 0.002347 0.011170 0.003423 0.012853 0.018847 0.045766
#
#
# Mechanical properties :
#
#
# Convention : Reuss Voigt Hill
#
# Bulk Modulus (GPa) = 31.17208 49.56917 40.37063
# Shear Modulus (GPa) = 28.16145 39.77093 33.96619
#
# Velocity S-wave (km/s) = 3.49223 4.15009 3.83529
# Velocity P-wave (km/s) = 5.45530 6.66565 6.09062
#
# Compressibility (1/GPa) = 0.03207999
#
# Stress axis : x y z
#
# Youngs Moduli (GPa) = 59.19056 85.50441 94.96516
#
# Poissons Ratio (x) = 0.23269 0.01929
# Poissons Ratio (y) = 0.16108 0.05655
# Poissons Ratio (z) = 0.01202 0.05092
#
# Static dielectric constant tensor:
#      x y z
#    x 1.926000 0.033570 -0.048460 
#    y 0.033570 1.920130 -0.017580 
#    z -0.048460 -0.017580 1.832860 
# 
# From -- ./inp_files/495746.got.cif
#   From: 2010.05.17/outbox.cif.g08.bks.cpg/sg2_248_cif.got.tgz:495746.got - 2010.06.03 11:33:40.
