data_PCOD9065520
_publ_section_title
;
Structure prediction by ZEFSAII (Michael W. Deem and Ramdas Pophale) SiO2 
 PCOD9065520
Probable space group: P -1
;
_chemical_formula_sum "Si O2"
_cell_formula_units_Z 13
_cell_length_a 18.568729
_cell_length_b 5.085978
_cell_length_c 7.620069
_cell_angle_alpha 79.394943
_cell_angle_beta 41.720377
_cell_angle_gamma 80.586104
_cell_volume 470.359671
_symmetry_space_group_name_H-M "P -1"
_symmetry_group_IT_number 2
_symmetry_cell_setting 'triclinic'
loop_
_space_group_symop_operation_xyz
x,y,z
-x,-y,-z
loop_
_atom_site_type_symbol
_atom_site_label
_atom_site_fract_x
_atom_site_fract_y
_atom_site_fract_z
Si Si1 0.886924 0.426995 0.333083
Si Si2 0.682328 0.285012 0.898297
Si Si3 0.084515 0.554001 0.185762
Si Si4 0.313400 0.290732 0.891314
Si Si5 0.500000 0.500000 0.500000
Si Si6 0.416875 0.805801 0.264002
Si Si7 0.824352 0.993329 0.236154
O O1 0.838210 0.682428 0.286497
O O2 0.802627 0.394740 0.650295
O O3 0.880209 0.148853 0.276824
O O4 0.004764 0.485412 0.179801
O O5 0.639484 0.434026 0.134807
O O6 0.620879 0.360942 0.821331
O O7 0.698679 0.071602 0.474273
O O8 0.196427 0.376524 0.018534
O O9 0.000000 0.500000 0.500000
O O10 0.123977 0.856414 0.043500
O O11 0.417789 0.259118 0.586636
O O12 0.470596 0.687365 0.353437
O O13 0.306224 0.032028 0.056673
O O14 0.500000 0.000000 0.000000
#
# Coordination Sequence:
#
# PCOD9065520 Si02
#       7
#     2   2   2   2   1   2   2
#     4  11  25  47  76 102 154 194 249 308 377 455
#     4  11  25  49  76 108 150 202 249 310 391 451
#     4  12  26  47  76 116 150 201 248 319 376 456
#     4  12  27  50  74 113 154 197 258 312 379 452
#     4  12  26  52  76 116 150 202 258 324 370 464
#     4  11  24  48  80 108 150 203 251 318 380 447
#     4  11  26  51  71 112 146 202 252 308 383 461
#
# _framework density 27.638423
#
# number of rings (size 3 to 8) (size 9 to 14) (size 15 to 20)
#    0.000    0.615    4.615    2.769    0.000    4.308 
#    2.769    0.000    0.000    0.000    0.000    0.000 
#    0.000    0.000    0.000    0.000    0.000    0.000 
#
# Total GULP energy -72635.626890 kJ/mol
# GULP energy per Si atom -5587.355915 kJ/mol
# Density = 2.757552 g / cm^3
# Si number density = 27.638423 Si / 1000 Ang^3
#
#
#
# Elastic Constant Matrix: (Units=GPa)
#
#
# Indices 1 2 3 4 5 6 
#
# 1 192.1348 55.8523 61.7274 -1.1621 -19.8877 -19.8061
# 2 55.8523 89.9092 53.4875 -18.5401 10.5903 -12.5568
# 3 61.7274 53.4875 231.6479 -40.4258 -16.4660 -26.2033
# 4 -1.1621 -18.5401 -40.4258 41.4547 -7.2592 2.6063
# 5 -19.8877 10.5903 -16.4660 -7.2592 71.3433 -0.8052
# 6 -19.8061 -12.5568 -26.2033 2.6063 -0.8052 50.0729
#
#
#
# Elastic Compliance Matrix: (Units=1/GPa)
#
#
# Indices 1 2 3 4 5 6 
#
# 1 0.007168 -0.004429 -0.001008 -0.002466 0.002187 0.001360
# 2 -0.004429 0.016593 -0.001977 0.004659 -0.003668 0.001073
# 3 -0.001008 -0.001977 0.006411 0.005565 0.002083 0.002204
# 4 -0.002466 0.004659 0.005565 0.032028 0.003181 0.001489
# 5 0.002187 -0.003668 0.002083 0.003181 0.015988 0.001127
# 6 0.001360 0.001073 0.002204 0.001489 0.001127 0.021872
#
#
# Mechanical properties :
#
#
# Convention : Reuss Voigt Hill
#
# Bulk Modulus (GPa) = 65.18147 95.09181 80.13664
# Shear Modulus (GPa) = 41.66600 55.41584 48.54092
#
# Velocity S-wave (km/s) = 3.88692 4.48261 4.19535
# Velocity P-wave (km/s) = 6.61657 7.82765 7.24745
#
# Compressibility (1/GPa) = 0.01534178
#
# Stress axis : x y z
#
# Youngs Moduli (GPa) = 139.51259 60.26812 155.98827
#
# Poissons Ratio (x) = 0.26692 0.15728
# Poissons Ratio (y) = 0.61789 0.30845
# Poissons Ratio (z) = 0.14067 0.11917
#
# Static dielectric constant tensor:
#      x y z
#    x 2.223850 0.108290 0.042690 
#    y 0.108290 2.258630 0.217960 
#    z 0.042690 0.217960 2.540010 
# 
# From -- ./inp_files/322266.got.cif
#   From: 2010.05.17/outbox.cif.g08.bks.cpg/sg2_162_cif.got.tgz:322266.got - 2010.06.03 11:33:40.
