data_PCOD9065066
_publ_section_title
;
Structure prediction by ZEFSAII (Michael W. Deem and Ramdas Pophale) SiO2 
 PCOD9065066
Probable space group: P -1
;
_chemical_formula_sum "Si O2"
_cell_formula_units_Z 13
_cell_length_a 11.666631
_cell_length_b 8.999262
_cell_length_c 8.252578
_cell_angle_alpha 90.571489
_cell_angle_beta 65.940600
_cell_angle_gamma 46.665277
_cell_volume 517.814823
_symmetry_space_group_name_H-M "P -1"
_symmetry_group_IT_number 2
_symmetry_cell_setting 'triclinic'
loop_
_space_group_symop_operation_xyz
x,y,z
-x,-y,-z
loop_
_atom_site_type_symbol
_atom_site_label
_atom_site_fract_x
_atom_site_fract_y
_atom_site_fract_z
Si Si1 0.204482 0.210199 0.220138
Si Si2 0.812888 0.990486 0.509116
Si Si3 0.229005 0.744007 0.174241
Si Si4 0.921336 0.414328 0.119604
Si Si5 0.476829 0.198493 0.501741
Si Si6 0.000000 0.000000 0.000000
Si Si7 0.431371 0.280503 0.150720
O O1 0.257229 0.334135 0.188341
O O2 0.009145 0.341642 0.248687
O O3 0.197485 0.162367 0.407586
O O4 0.377102 0.973296 0.022990
O O5 0.751072 0.153428 0.692866
O O6 0.664377 0.120867 0.449389
O O7 0.022815 0.852097 0.337171
O O8 0.390792 0.475643 0.100305
O O9 0.182353 0.848215 0.024542
O O10 0.693481 0.615546 0.272558
O O11 0.000000 0.500000 0.000000
O O12 0.981080 0.202111 0.011429
O O13 0.430438 0.283730 0.345522
O O14 0.500000 0.000000 0.500000
#
# Coordination Sequence:
#
# PCOD9065066 Si02
#       7
#     2   2   2   2   2   1   2
#     4  11  24  47  70 109 149 189 257 307 373 456
#     4  11  26  47  71 105 151 188 250 311 371 454
#     4  11  27  49  73 106 148 199 246 316 383 447
#     4  12  28  48  78 111 154 204 254 318 382 455
#     4  12  27  46  75 117 151 202 255 311 384 458
#     4  12  28  48  80 112 148 202 264 308 386 452
#     4  11  26  44  77 109 145 200 246 310 382 449
#
# _framework density 25.105499999999999
#
# number of rings (size 3 to 8) (size 9 to 14) (size 15 to 20)
#    0.000    0.615    3.077    2.769   12.923    3.692 
#    0.000    0.000    0.000    0.000    0.000    0.000 
#    0.000    0.000    0.000    0.000    0.000    0.000 
#
# Total GULP energy -72585.915453 kJ/mol
# GULP energy per Si atom -5583.531958 kJ/mol
# Density = 2.504836 g / cm^3
# Si number density = 25.105500 Si / 1000 Ang^3
#
#
#
# Elastic Constant Matrix: (Units=GPa)
#
#
# Indices 1 2 3 4 5 6 
#
# 1 150.5948 40.5615 17.8983 -1.7357 19.8994 15.9637
# 2 40.5615 137.9265 34.2404 6.2676 23.1611 23.4403
# 3 17.8983 34.2404 83.2993 -2.6753 -4.6861 10.1669
# 4 -1.7357 6.2676 -2.6753 23.7512 -6.5134 5.2874
# 5 19.8994 23.1611 -4.6861 -6.5134 37.3763 -12.4700
# 6 15.9637 23.4403 10.1669 5.2874 -12.4700 53.0855
#
#
#
# Elastic Compliance Matrix: (Units=1/GPa)
#
#
# Indices 1 2 3 4 5 6 
#
# 1 0.007960 -0.000635 -0.001368 -0.000115 -0.005045 -0.003025
# 2 -0.000635 0.011550 -0.004630 -0.005112 -0.010267 -0.005925
# 3 -0.001368 -0.004630 0.014615 0.004370 0.006436 0.000733
# 4 -0.000115 -0.005112 0.004370 0.047293 0.011862 -0.000469
# 5 -0.005045 -0.010267 0.006436 0.011862 0.043283 0.013804
# 6 -0.003025 -0.005925 0.000733 -0.000469 0.013804 0.025512
#
#
# Mechanical properties :
#
#
# Convention : Reuss Voigt Hill
#
# Bulk Modulus (GPa) = 47.93900 61.91346 54.92623
# Shear Modulus (GPa) = 29.33752 41.45063 35.39407
#
# Velocity S-wave (km/s) = 3.42214 4.06773 3.75882
# Velocity P-wave (km/s) = 5.89502 6.83935 6.38467
#
# Compressibility (1/GPa) = 0.02085984
#
# Stress axis : x y z
#
# Youngs Moduli (GPa) = 125.62968 86.58360 68.42409
#
# Poissons Ratio (x) = 0.05496 0.09358
# Poissons Ratio (y) = 0.07974 0.31678
# Poissons Ratio (z) = 0.17183 0.40086
#
# Static dielectric constant tensor:
#      x y z
#    x 1.945540 -0.011740 -0.016340 
#    y -0.011740 1.981490 -0.020880 
#    z -0.016340 -0.020880 1.994050 
# 
# From -- ./inp_files/158997.got.cif
#   From: 2010.05.17/outbox.cif.g08.bks.cpg/sg2_80_cif.got.tgz:158997.got - 2010.06.03 11:33:40.
