data_PCOD9065363
_publ_section_title
;
Structure prediction by ZEFSAII (Michael W. Deem and Ramdas Pophale) SiO2 
 PCOD9065363
Probable space group: P -1
;
_chemical_formula_sum "Si O2"
_cell_formula_units_Z 16
_cell_length_a 16.035333
_cell_length_b 15.805722
_cell_length_c 18.849059
_cell_angle_alpha 38.334535
_cell_angle_beta 141.223387
_cell_angle_gamma 161.484636
_cell_volume 925.300296
_symmetry_space_group_name_H-M "P -1"
_symmetry_group_IT_number 2
_symmetry_cell_setting 'triclinic'
loop_
_space_group_symop_operation_xyz
x,y,z
-x,-y,-z
loop_
_atom_site_type_symbol
_atom_site_label
_atom_site_fract_x
_atom_site_fract_y
_atom_site_fract_z
Si Si1 0.014814 0.585347 0.639289
Si Si2 0.761172 0.840400 0.308293
Si Si3 0.551003 0.015711 0.638167
Si Si4 0.430794 0.162463 0.357262
Si Si5 0.855715 0.469045 0.773553
Si Si6 0.644973 0.051047 0.125804
Si Si7 0.104824 0.262330 0.642705
Si Si8 0.729875 0.663743 0.600125
O O1 0.930894 0.511644 0.714029
O O2 0.948280 0.670855 0.499163
O O3 0.324075 0.826142 0.672180
O O4 0.837694 0.312952 0.662381
O O5 0.847404 0.840141 0.294913
O O6 0.462596 0.522721 0.336531
O O7 0.733882 0.980038 0.202838
O O8 0.001035 0.018263 0.407236
O O9 0.548828 0.874485 0.684963
O O10 0.477883 0.070884 0.497943
O O11 0.648255 0.463537 0.328441
O O12 0.143925 0.960272 0.323282
O O13 0.830426 0.608682 0.675020
O O14 0.097468 0.644486 0.871306
O O15 0.573123 0.161726 0.816054
O O16 0.500000 0.000000 0.000000
O O17 0.500000 0.500000 0.500000
#
# Coordination Sequence:
#
# PCOD9065363 Si02
#       8
#     2   2   2   2   2   2   2   2
#     4  10  18  28  44  67  96 123 152 189 221 265
#     4  10  20  31  46  68  90 121 158 190 227 272
#     4   9  17  28  42  62  93 130 158 181 216 260
#     4   9  17  28  42  62  92 131 160 180 214 261
#     4  10  20  32  49  71  91 120 158 191 232 280
#     4  10  21  37  52  66  91 121 154 201 243 276
#     4  10  18  28  44  66  96 125 154 188 219 263
#     4  10  19  30  44  64  96 126 149 179 223 277
#
# _framework density 17.291682000000002
#
# number of rings (size 3 to 8) (size 9 to 14) (size 15 to 20)
#    0.000    2.250    0.000    3.750    0.000    7.000 
#    0.000    0.000    0.000    0.000    0.000    0.000 
#    0.000   20.000    0.000    0.000    0.000    0.000 
#
# Total GULP energy -89108.494356 kJ/mol
# GULP energy per Si atom -5569.280897 kJ/mol
# Density = 1.725233 g / cm^3
# Si number density = 17.291682 Si / 1000 Ang^3
#
#
#
# Elastic Constant Matrix: (Units=GPa)
#
#
# Indices 1 2 3 4 5 6 
#
# 1 71.9757 49.5459 1.1580 0.5084 -6.2887 18.7893
# 2 49.5459 75.3527 10.0406 -0.0075 13.8358 -3.1363
# 3 1.1580 10.0406 28.0133 13.2252 -0.1883 5.4157
# 4 0.5084 -0.0075 13.2252 19.0756 3.8647 -2.7411
# 5 -6.2887 13.8358 -0.1883 3.8647 8.0468 4.0591
# 6 18.7893 -3.1363 5.4157 -2.7411 4.0591 2.6223
#
#
#
# Elastic Compliance Matrix: (Units=1/GPa)
#
#
# Indices 1 2 3 4 5 6 
#
# 1 0.006048 0.001355 -0.011741 0.014246 -0.015613 0.021595
# 2 0.001355 0.009501 0.006772 -0.009742 0.004187 -0.028996
# 3 -0.011741 0.006772 0.039732 -0.020603 -0.019438 0.018721
# 4 0.014246 -0.009742 -0.020603 0.060382 0.011254 -0.025478
# 5 -0.015613 0.004187 -0.019438 0.011254 0.063277 0.070841
# 6 0.021595 -0.028996 0.018721 -0.025478 0.070841 0.016985
#
#
# Mechanical properties :
#
#
# Convention : Reuss Voigt Hill
#
# Bulk Modulus (GPa) = 20.81038 32.98118 26.89578
# Shear Modulus (GPa) = 22.81332 13.58876 18.20104
#
# Velocity S-wave (km/s) = 3.63619 2.80635 3.24788
# Velocity P-wave (km/s) = 5.44887 5.44203 5.44545
#
# Compressibility (1/GPa) = 0.04805295
#
# Stress axis : x y z
#
# Youngs Moduli (GPa) = 165.35545 105.25275 25.16854
#
# Poissons Ratio (x) = -0.14262 0.29550
# Poissons Ratio (y) = -0.22407 -0.17044
# Poissons Ratio (z) = 1.94140 -0.71275
#
# Static dielectric constant tensor:
#      x y z
#    x 1.633480 -0.050110 -0.012020 
#    y -0.050110 1.701080 0.004750 
#    z -0.012020 0.004750 1.622900 
# 
# From -- ./inp_files/70467.got.cif
#   From: 2010.05.17/outbox.cif.g08.bks.cpg/sg2_36_cif.got.tgz:70467.got - 2010.06.03 11:33:40.
