data_PCOD9065285
_publ_section_title
;
Structure prediction by ZEFSAII (Michael W. Deem and Ramdas Pophale) SiO2 
 PCOD9065285
Probable space group: P -1
;
_chemical_formula_sum "Si O2"
_cell_formula_units_Z 14
_cell_length_a 11.590493
_cell_length_b 17.612530
_cell_length_c 5.363282
_cell_angle_alpha 80.750408
_cell_angle_beta 84.856891
_cell_angle_gamma 30.319819
_cell_volume 542.866148
_symmetry_space_group_name_H-M "P -1"
_symmetry_group_IT_number 2
_symmetry_cell_setting 'triclinic'
loop_
_space_group_symop_operation_xyz
x,y,z
-x,-y,-z
loop_
_atom_site_type_symbol
_atom_site_label
_atom_site_fract_x
_atom_site_fract_y
_atom_site_fract_z
Si Si1 0.055791 0.184508 0.048055
Si Si2 0.258717 0.180566 0.406486
Si Si3 0.377946 0.386099 0.912679
Si Si4 0.562303 0.120820 0.146984
Si Si5 0.959467 0.934615 0.518770
Si Si6 0.665053 0.362801 0.733950
Si Si7 0.914450 0.463337 0.606103
O O1 0.103784 0.213975 0.250215
O O2 0.003829 0.130271 0.199313
O O3 0.823928 0.333008 0.864155
O O4 0.288508 0.031178 0.935972
O O5 0.322855 0.220077 0.217670
O O6 0.132106 0.281170 0.627676
O O7 0.500000 0.000000 0.500000
O O8 0.525643 0.379357 0.909741
O O9 0.250212 0.464676 0.630822
O O10 0.526667 0.221677 0.960085
O O11 0.211457 0.469448 0.139603
O O12 0.708186 0.058653 0.396964
O O13 0.144927 0.794012 0.369887
O O14 0.000000 0.000000 0.500000
O O15 0.500000 0.500000 0.500000
O O16 0.000000 0.500000 0.500000
#
# Coordination Sequence:
#
# PCOD9065285 Si02
#       7
#     2   2   2   2   2   2   2
#     4  11  26  48  79 117 162 210 280 333 413 495
#     4  12  27  50  82 118 161 211 272 344 415 484
#     4  12  29  52  86 118 165 222 275 338 420 490
#     4  11  25  47  81 118 158 218 268 340 410 493
#     4  11  24  47  77 117 155 208 282 326 402 501
#     4  11  29  52  77 115 165 216 273 344 413 483
#     4  12  30  54  82 123 164 213 282 338 411 510
#
# _framework density 25.789044000000001
#
# number of rings (size 3 to 8) (size 9 to 14) (size 15 to 20)
#    0.000    0.571    2.857    2.571   10.000    5.143 
#    0.000    0.714    0.000    0.000    0.000    0.000 
#    0.000    0.000    0.000    0.000    0.000    0.000 
#
# Total GULP energy -78549.964533 kJ/mol
# GULP energy per Si atom -5610.711752 kJ/mol
# Density = 2.573035 g / cm^3
# Si number density = 25.789044 Si / 1000 Ang^3
#
#
#
# Elastic Constant Matrix: (Units=GPa)
#
#
# Indices 1 2 3 4 5 6 
#
# 1 146.7899 40.7278 21.5076 0.5017 -13.7304 1.0988
# 2 40.7278 121.3656 29.6582 -11.9319 9.2969 7.1423
# 3 21.5076 29.6582 93.7152 -2.7201 -7.5975 -12.3304
# 4 0.5017 -11.9319 -2.7201 43.6504 -8.2141 -4.0120
# 5 -13.7304 9.2969 -7.5975 -8.2141 54.2438 -0.6117
# 6 1.0988 7.1423 -12.3304 -4.0120 -0.6117 38.7731
#
#
#
# Elastic Compliance Matrix: (Units=1/GPa)
#
#
# Indices 1 2 3 4 5 6 
#
# 1 0.007884 -0.002670 -0.000792 -0.000441 0.002276 0.000007
# 2 -0.002670 0.010477 -0.003220 0.001944 -0.002659 -0.002719
# 3 -0.000792 -0.003220 0.012710 0.000794 0.002306 0.004776
# 4 -0.000441 0.001944 0.000794 0.024360 0.003383 0.002481
# 5 0.002276 -0.002659 0.002306 0.003383 0.020323 0.001829
# 6 0.000007 -0.002719 0.004776 0.002481 0.001829 0.028096
#
#
# Mechanical properties :
#
#
# Convention : Reuss Voigt Hill
#
# Bulk Modulus (GPa) = 56.47438 60.62865 58.55151
# Shear Modulus (GPa) = 40.61236 45.33192 42.97214
#
# Velocity S-wave (km/s) = 3.97267 4.19716 4.08646
# Velocity P-wave (km/s) = 6.55659 6.85920 6.70961
#
# Compressibility (1/GPa) = 0.01770714
#
# Stress axis : x y z
#
# Youngs Moduli (GPa) = 126.84516 95.44469 78.68041
#
# Poissons Ratio (x) = 0.25486 0.06229
# Poissons Ratio (y) = 0.33870 0.25334
# Poissons Ratio (z) = 0.10041 0.30732
#
# Static dielectric constant tensor:
#      x y z
#    x 2.003170 -0.008600 -0.010660 
#    y -0.008600 2.046760 -0.016530 
#    z -0.010660 -0.016530 2.050010 
# 
# From -- ./inp_files/81338.got.cif
#   From: 2010.05.17/outbox.cif.g08.bks.cpg/sg2_41_cif.got.tgz:81338.got - 2010.06.03 11:33:40.
