data_PCOD9065898
_publ_section_title
;
Structure prediction by ZEFSAII (Michael W. Deem and Ramdas Pophale) SiO2 
 PCOD9065898
Probable space group: P -1
;
_chemical_formula_sum "Si O2"
_cell_formula_units_Z 15
_cell_length_a 5.101120
_cell_length_b 5.832915
_cell_length_c 18.297791
_cell_angle_alpha 93.005343
_cell_angle_beta 99.272803
_cell_angle_gamma 91.712730
_cell_volume 536.180116
_symmetry_space_group_name_H-M "P -1"
_symmetry_group_IT_number 2
_symmetry_cell_setting 'triclinic'
loop_
_space_group_symop_operation_xyz
x,y,z
-x,-y,-z
loop_
_atom_site_type_symbol
_atom_site_label
_atom_site_fract_x
_atom_site_fract_y
_atom_site_fract_z
Si Si1 0.661332 0.180789 0.319824
Si Si2 0.134581 0.782921 0.831480
Si Si3 0.507285 0.436875 0.896159
Si Si4 0.708580 0.448517 0.758853
Si Si5 0.986899 0.173086 0.639674
Si Si6 0.981305 0.823281 0.062972
Si Si7 0.422981 0.191300 0.443490
Si Si8 0.000000 0.500000 0.500000
O O1 0.828501 0.197750 0.253262
O O2 0.433249 0.348034 0.286466
O O3 0.683687 0.270599 0.407861
O O4 0.714195 0.913392 0.335121
O O5 0.402933 0.695409 0.881222
O O6 0.010986 0.006960 0.863297
O O7 0.924265 0.571800 0.824175
O O8 0.510014 0.338930 0.809851
O O9 0.295064 0.313330 0.938086
O O10 0.783847 0.351026 0.937457
O O11 0.867238 0.308150 0.704325
O O12 0.990136 0.309477 0.566991
O O13 0.792364 0.946243 0.619908
O O14 0.000000 0.000000 0.000000
O O15 0.260264 0.383287 0.475279
O O16 0.500000 0.000000 0.500000
#
# Coordination Sequence:
#
# PCOD9065898 Si02
#       8
#     2   2   2   2   2   2   2   1
#     4  11  25  43  75 101 142 191 251 309 382 443
#     4  11  27  47  79 110 156 195 258 316 385 451
#     4  11  26  50  75 114 157 201 257 314 378 450
#     4  11  25  48  75 111 146 198 251 320 381 450
#     4  12  27  44  72 100 144 187 255 310 390 449
#     4  12  28  49  80 117 160 206 254 310 382 459
#     4  12  27  46  68 101 139 193 248 314 380 458
#     4  12  26  48  64  96 140 182 238 306 376 454
#
# _framework density 27.975676
#
# number of rings (size 3 to 8) (size 9 to 14) (size 15 to 20)
#    0.000    0.533    4.000    2.400    5.600    3.733 
#    0.000    0.000    0.000    0.000    0.000    0.000 
#    0.000    0.000    0.000    0.000    0.000    0.000 
#
# Total GULP energy -83698.106221 kJ/mol
# GULP energy per Si atom -5579.873748 kJ/mol
# Density = 2.791200 g / cm^3
# Si number density = 27.975676 Si / 1000 Ang^3
#
#
#
# Elastic Constant Matrix: (Units=GPa)
#
#
# Indices 1 2 3 4 5 6 
#
# 1 145.1986 75.2881 57.1907 -10.0639 -26.6886 -44.6640
# 2 75.2881 122.0766 62.5365 3.9251 -7.4554 -39.9680
# 3 57.1907 62.5365 174.8126 -35.9686 -40.2254 -22.4546
# 4 -10.0639 3.9251 -35.9686 83.1859 -7.2098 -0.0331
# 5 -26.6886 -7.4554 -40.2254 -7.2098 49.1578 -7.9426
# 6 -44.6640 -39.9680 -22.4546 -0.0331 -7.9426 56.6654
#
#
#
# Elastic Compliance Matrix: (Units=1/GPa)
#
#
# Indices 1 2 3 4 5 6 
#
# 1 0.014423 -0.006384 0.001918 0.003785 0.010457 0.009094
# 2 -0.006384 0.015649 -0.005245 -0.004254 -0.005499 0.003155
# 3 0.001918 -0.005245 0.011307 0.006328 0.011048 0.003845
# 4 0.003785 -0.004254 0.006328 0.016249 0.009592 0.003845
# 5 0.010457 -0.005499 0.011048 0.009592 0.037905 0.014060
# 6 0.009094 0.003155 0.003845 0.003845 0.014060 0.030537
#
#
# Mechanical properties :
#
#
# Convention : Reuss Voigt Hill
#
# Bulk Modulus (GPa) = 45.54025 92.45759 68.99892
# Shear Modulus (GPa) = 32.71990 54.27331 43.49661
#
# Velocity S-wave (km/s) = 3.42363 4.40934 3.94737
# Velocity P-wave (km/s) = 5.65174 7.68401 6.74486
#
# Compressibility (1/GPa) = 0.02195860
#
# Stress axis : x y z
#
# Youngs Moduli (GPa) = 69.33173 63.90042 88.43775
#
# Poissons Ratio (x) = 0.40792 -0.16963
# Poissons Ratio (y) = 0.44259 0.46388
# Poissons Ratio (z) = -0.13299 0.33517
#
# Static dielectric constant tensor:
#      x y z
#    x 2.045100 0.029840 -0.052650 
#    y 0.029840 2.062810 -0.027740 
#    z -0.052650 -0.027740 2.083980 
# 
# From -- ./inp_files/545925.got.cif
#   From: 2010.05.17/outbox.cif.g08.bks.cpg/sg2_273_cif.got.tgz:545925.got - 2010.06.03 11:33:40.
