data_PCOD9065533
_publ_section_title
;
Structure prediction by ZEFSAII (Michael W. Deem and Ramdas Pophale) SiO2 
 PCOD9065533
Probable space group: P -1
;
_chemical_formula_sum "Si O2"
_cell_formula_units_Z 14
_cell_length_a 11.528621
_cell_length_b 9.726227
_cell_length_c 6.131580
_cell_angle_alpha 102.092197
_cell_angle_beta 96.841256
_cell_angle_gamma 99.518179
_cell_volume 654.541636
_symmetry_space_group_name_H-M "P -1"
_symmetry_group_IT_number 2
_symmetry_cell_setting 'triclinic'
loop_
_space_group_symop_operation_xyz
x,y,z
-x,-y,-z
loop_
_atom_site_type_symbol
_atom_site_label
_atom_site_fract_x
_atom_site_fract_y
_atom_site_fract_z
Si Si1 0.705290 0.360769 0.511923
Si Si2 0.849404 0.122218 0.016950
Si Si3 0.499241 0.364089 0.799008
Si Si4 0.237743 0.378800 0.710400
Si Si5 0.936427 0.902099 0.266750
Si Si6 0.398155 0.862340 0.965360
Si Si7 0.865878 0.413636 0.965307
O O1 0.586955 0.387898 0.620338
O O2 0.761531 0.508824 0.448829
O O3 0.657543 0.226002 0.294097
O O4 0.804988 0.339845 0.706383
O O5 0.868047 0.294484 0.113652
O O6 0.958054 0.121547 0.877103
O O7 0.710667 0.090410 0.913334
O O8 0.859083 0.000632 0.154943
O O9 0.360210 0.322486 0.696074
O O10 0.500000 0.500000 0.000000
O O11 0.546015 0.247374 0.915141
O O12 0.134917 0.241887 0.686642
O O13 0.220903 0.480431 0.945825
O O14 0.000000 0.000000 0.500000
O O15 0.500000 0.000000 0.000000
O O16 0.000000 0.500000 0.000000
#
# Coordination Sequence:
#
# PCOD9065533 Si02
#       7
#     2   2   2   2   2   2   2
#     4  12  25  43  77 104 139 190 234 291 356 418
#     4  11  24  49  66 100 146 180 231 299 342 414
#     4  12  23  46  69 105 145 178 237 293 347 418
#     4  12  25  44  71 106 139 184 238 292 345 422
#     4  11  28  44  71 100 141 187 233 288 359 418
#     4  12  27  46  73 103 146 186 234 294 350 425
#     4  12  25  45  75 102 142 184 239 291 345 419
#
# _framework density 21.389015000000001
#
# number of rings (size 3 to 8) (size 9 to 14) (size 15 to 20)
#    0.000    0.286    7.143    1.286    4.000    2.286 
#    0.000    0.000    0.000    0.000    0.000    0.000 
#    0.000    0.000    0.000    0.000    0.000    0.000 
#
# Total GULP energy -78072.394204 kJ/mol
# GULP energy per Si atom -5576.599586 kJ/mol
# Density = 2.134033 g / cm^3
# Si number density = 21.389015 Si / 1000 Ang^3
#
#
#
# Elastic Constant Matrix: (Units=GPa)
#
#
# Indices 1 2 3 4 5 6 
#
# 1 136.8792 67.4344 23.9587 -14.7460 -8.5587 1.5737
# 2 67.4344 173.7028 48.3509 -11.9712 1.3215 21.7880
# 3 23.9587 48.3509 68.0935 -5.1220 -0.2603 8.6593
# 4 -14.7460 -11.9712 -5.1220 23.2014 4.0772 -2.1749
# 5 -8.5587 1.3215 -0.2603 4.0772 19.9072 -11.1649
# 6 1.5737 21.7880 8.6593 -2.1749 -11.1649 53.4651
#
#
#
# Elastic Compliance Matrix: (Units=1/GPa)
#
#
# Indices 1 2 3 4 5 6 
#
# 1 0.009995 -0.003757 -0.000897 0.003533 0.005286 0.002630
# 2 -0.003757 0.009119 -0.004554 0.001796 -0.004774 -0.003792
# 3 -0.000897 -0.004554 0.018476 0.001179 -0.000769 -0.001223
# 4 0.003533 0.001796 0.001179 0.048017 -0.008947 -0.000942
# 5 0.005286 -0.004774 -0.000769 -0.008947 0.062879 0.014682
# 6 0.002630 -0.003792 -0.001223 -0.000942 0.014682 0.023397
#
#
# Mechanical properties :
#
#
# Convention : Reuss Voigt Hill
#
# Bulk Modulus (GPa) = 52.15642 73.12927 62.64284
# Shear Modulus (GPa) = 25.42056 35.24350 30.33203
#
# Velocity S-wave (km/s) = 3.45118 4.06364 3.76987
# Velocity P-wave (km/s) = 6.34969 7.50212 6.94983
#
# Compressibility (1/GPa) = 0.01917309
#
# Stress axis : x y z
#
# Youngs Moduli (GPa) = 100.05481 109.66418 54.12307
#
# Poissons Ratio (x) = 0.41199 0.04857
# Poissons Ratio (y) = 0.37589 0.24648
# Poissons Ratio (z) = 0.08979 0.49942
#
# Static dielectric constant tensor:
#      x y z
#    x 1.498710 0.145450 0.037990 
#    y 0.145450 1.700680 -0.035370 
#    z 0.037990 -0.035370 1.801670 
# 
# From -- ./inp_files/61012.got.cif
#   From: 2010.05.17/outbox.cif.g08.bks.cpg/sg2_31_cif.got.tgz:61012.got - 2010.06.03 11:33:40.
