data_PCOD9065117
_publ_section_title
;
Structure prediction by ZEFSAII (Michael W. Deem and Ramdas Pophale) SiO2 
 PCOD9065117
Probable space group: P -1
;
_chemical_formula_sum "Si O2"
_cell_formula_units_Z 13
_cell_length_a 15.931010
_cell_length_b 7.680420
_cell_length_c 10.476129
_cell_angle_alpha 45.226580
_cell_angle_beta 34.291038
_cell_angle_gamma 55.661519
_cell_volume 512.163171
_symmetry_space_group_name_H-M "P -1"
_symmetry_group_IT_number 2
_symmetry_cell_setting 'triclinic'
loop_
_space_group_symop_operation_xyz
x,y,z
-x,-y,-z
loop_
_atom_site_type_symbol
_atom_site_label
_atom_site_fract_x
_atom_site_fract_y
_atom_site_fract_z
Si Si1 0.695568 0.511146 0.105259
Si Si2 0.000000 0.000000 0.500000
Si Si3 0.194467 0.559383 0.566022
Si Si4 0.518532 0.662314 0.019117
Si Si5 0.835078 0.929828 0.006228
Si Si6 0.533948 0.874587 0.309218
Si Si7 0.994304 0.366731 0.712003
O O1 0.654362 0.602639 0.969325
O O2 0.630164 0.688559 0.201180
O O3 0.606084 0.258069 0.378270
O O4 0.873555 0.500904 0.883856
O O5 0.103918 0.983711 0.251690
O O6 0.886869 0.185804 0.465964
O O7 0.371084 0.612466 0.315769
O O8 0.147452 0.411813 0.570907
O O9 0.152300 0.357920 0.830532
O O10 0.500000 0.500000 0.000000
O O11 0.522982 0.934492 0.819170
O O12 0.926595 0.095409 0.908952
O O13 0.658275 0.981239 0.196938
O O14 0.000000 0.500000 0.500000
#
# Coordination Sequence:
#
# PCOD9065117 Si02
#       7
#     2   1   2   2   2   2   2
#     4  11  26  46  72 102 143 185 242 293 353 426
#     4  12  24  46  70 100 146 186 226 300 348 434
#     4  12  26  47  72 107 141 189 241 288 366 421
#     4  12  25  45  75 104 142 187 236 294 352 429
#     4  12  25  46  74 102 143 189 239 296 357 428
#     4  11  24  47  72 103 141 188 237 297 354 416
#     4  12  25  47  72 106 147 188 238 299 357 426
#
# _framework density 25.382536000000002
#
# number of rings (size 3 to 8) (size 9 to 14) (size 15 to 20)
#    0.000    0.308    4.615    4.154    2.154    1.231 
#    2.769    0.000    0.000    0.000    0.000    0.000 
#    0.000    0.000    0.000    0.000    0.000    0.000 
#
# Total GULP energy -72643.847365 kJ/mol
# GULP energy per Si atom -5587.988259 kJ/mol
# Density = 2.532476 g / cm^3
# Si number density = 25.382536 Si / 1000 Ang^3
#
#
#
# Elastic Constant Matrix: (Units=GPa)
#
#
# Indices 1 2 3 4 5 6 
#
# 1 89.5640 -7.3728 22.0523 -15.0811 6.0976 -3.7893
# 2 -7.3728 51.4505 28.5100 -3.5928 15.6359 -2.4589
# 3 22.0523 28.5100 75.3987 0.2811 15.6238 -8.5540
# 4 -15.0811 -3.5928 0.2811 34.5017 -9.9067 12.8535
# 5 6.0976 15.6359 15.6238 -9.9067 47.0569 -4.4233
# 6 -3.7893 -2.4589 -8.5540 12.8535 -4.4233 34.9121
#
#
#
# Elastic Compliance Matrix: (Units=1/GPa)
#
#
# Indices 1 2 3 4 5 6 
#
# 1 0.014705 0.006536 -0.007047 0.008083 -0.000288 -0.002682
# 2 0.006536 0.029005 -0.012070 0.005456 -0.005603 -0.002924
# 3 -0.007047 -0.012070 0.021258 -0.007664 -0.003183 0.006012
# 4 0.008083 0.005456 -0.007664 0.040587 0.006848 -0.014691
# 5 -0.000288 -0.005603 -0.003183 0.006848 0.025603 -0.000483
# 6 -0.002682 -0.002924 0.006012 -0.014691 -0.000483 0.034967
#
#
# Mechanical properties :
#
#
# Convention : Reuss Voigt Hill
#
# Bulk Modulus (GPa) = 25.12167 33.64358 29.38263
# Shear Modulus (GPa) = 24.44301 34.84239 29.64270
#
# Velocity S-wave (km/s) = 3.10657 3.70900 3.42107
# Velocity P-wave (km/s) = 4.77351 5.62367 5.21594
#
# Compressibility (1/GPa) = 0.03980627
#
# Stress axis : x y z
#
# Youngs Moduli (GPa) = 68.00193 34.47650 47.04094
#
# Poissons Ratio (x) = -0.22534 0.33151
# Poissons Ratio (y) = -0.44446 0.56779
# Poissons Ratio (z) = 0.47922 0.41614
#
# Static dielectric constant tensor:
#      x y z
#    x 1.999530 0.127430 -0.078510 
#    y 0.127430 2.221350 -0.166490 
#    z -0.078510 -0.166490 1.981130 
# 
# From -- ./inp_files/181607.got.cif
#   From: 2010.05.17/outbox.cif.g08.bks.cpg/sg2_91_cif.got.tgz:181607.got - 2010.06.03 11:33:40.
