data_PCOD9065827
_publ_section_title
;
Structure prediction by ZEFSAII (Michael W. Deem and Ramdas Pophale) SiO2 
 PCOD9065827
Probable space group: P -1
;
_chemical_formula_sum "Si O2"
_cell_formula_units_Z 16
_cell_length_a 14.018644
_cell_length_b 6.778147
_cell_length_c 22.707253
_cell_angle_alpha 123.353249
_cell_angle_beta 147.361877
_cell_angle_gamma 79.507108
_cell_volume 759.984908
_symmetry_space_group_name_H-M "P -1"
_symmetry_group_IT_number 2
_symmetry_cell_setting 'triclinic'
loop_
_space_group_symop_operation_xyz
x,y,z
-x,-y,-z
loop_
_atom_site_type_symbol
_atom_site_label
_atom_site_fract_x
_atom_site_fract_y
_atom_site_fract_z
Si Si1 0.238894 0.136586 0.616137
Si Si2 0.161623 0.855365 0.157081
Si Si3 0.762218 0.153139 0.668457
Si Si4 0.513473 0.136451 0.288735
Si Si5 0.848545 0.851566 0.561011
Si Si6 0.419811 0.156763 0.060256
Si Si7 0.637785 0.845805 0.109631
Si Si8 0.917165 0.131207 0.062466
O O1 0.206862 0.083371 0.520613
O O2 0.412492 0.495769 0.775842
O O3 0.349621 0.988758 0.673775
O O4 0.000000 0.000000 0.500000
O O5 0.194422 0.900875 0.251560
O O6 0.399973 0.022144 0.275410
O O7 0.041954 0.989605 0.091773
O O8 0.000000 0.500000 0.000000
O O9 0.910842 0.511365 0.796013
O O10 0.500000 0.000000 0.500000
O O11 0.830634 0.022910 0.632766
O O12 0.677301 0.495560 0.426627
O O13 0.300015 0.998386 0.112304
O O14 0.102389 0.965440 0.707334
O O15 0.530824 0.995072 0.104366
O O16 0.379563 0.146236 0.968405
O O17 0.185644 0.975588 0.943304
O O18 0.500000 0.500000 0.000000
#
# Coordination Sequence:
#
# PCOD9065827 Si02
#       8
#     2   2   2   2   2   2   2   2
#     4  12  27  45  73 104 144 188 243 291 357 427
#     4  12  26  46  77 105 141 190 243 285 356 435
#     4  12  28  46  73 107 148 183 234 301 359 416
#     4  12  27  45  75 104 144 188 240 296 350 423
#     4  12  27  45  70 106 143 181 239 297 357 414
#     4  11  25  43  70 103 137 189 240 284 356 431
#     4  11  25  44  70 101 145 183 235 298 358 417
#     4  12  26  45  75 104 143 190 237 288 357 422
#
# _framework density 21.053052000000001
#
# number of rings (size 3 to 8) (size 9 to 14) (size 15 to 20)
#    0.000    0.250    2.500    5.625    7.000    8.000 
#    0.000    0.000    0.000    0.000    0.000    0.000 
#    0.000    0.000    0.000    0.000    0.000    0.000 
#
# Total GULP energy -89650.413952 kJ/mol
# GULP energy per Si atom -5603.150872 kJ/mol
# Density = 2.100513 g / cm^3
# Si number density = 21.053052 Si / 1000 Ang^3
#
#
#
# Elastic Constant Matrix: (Units=GPa)
#
#
# Indices 1 2 3 4 5 6 
#
# 1 93.7555 39.0970 19.5753 -0.5832 5.9004 0.2046
# 2 39.0970 144.6950 67.4177 9.7821 3.9937 -19.4619
# 3 19.5753 67.4177 140.1569 12.6653 10.8320 -6.7066
# 4 -0.5832 9.7821 12.6653 46.4710 6.2248 4.4887
# 5 5.9004 3.9937 10.8320 6.2248 46.9988 -2.9739
# 6 0.2046 -19.4619 -6.7066 4.4887 -2.9739 45.8296
#
#
#
# Elastic Compliance Matrix: (Units=1/GPa)
#
#
# Indices 1 2 3 4 5 6 
#
# 1 0.012278 -0.003567 -0.000087 0.001305 -0.001506 -0.001808
# 2 -0.003567 0.010503 -0.004292 -0.001615 0.001016 0.004072
# 3 -0.000087 -0.004292 0.009446 -0.001413 -0.001640 -0.000408
# 4 0.001305 -0.001615 -0.001413 0.022979 -0.002956 -0.003341
# 5 -0.001506 0.001016 -0.001640 -0.002956 0.022272 0.001933
# 6 -0.001808 0.004072 -0.000408 -0.003341 0.001933 0.023950
#
#
# Mechanical properties :
#
#
# Convention : Reuss Voigt Hill
#
# Bulk Modulus (GPa) = 61.21265 70.08748 65.65007
# Shear Modulus (GPa) = 40.72765 44.69440 42.71102
#
# Velocity S-wave (km/s) = 4.40309 4.61254 4.50903
# Velocity P-wave (km/s) = 7.41540 7.85688 7.63933
#
# Compressibility (1/GPa) = 0.01633649
#
# Stress axis : x y z
#
# Youngs Moduli (GPa) = 81.44327 95.20660 105.86008
#
# Poissons Ratio (x) = 0.33959 0.00924
# Poissons Ratio (y) = 0.29050 0.45433
# Poissons Ratio (z) = 0.00711 0.40861
#
# Static dielectric constant tensor:
#      x y z
#    x 1.784490 0.003590 -0.009010 
#    y 0.003590 1.682410 -0.003260 
#    z -0.009010 -0.003260 1.691600 
# 
# From -- ./inp_files/49070.got.cif
#   From: 2010.05.17/outbox.cif.g08.bks.cpg/sg2_25_cif.got.tgz:49070.got - 2010.06.03 11:33:40.
