data_PCOD9065609
_publ_section_title
;
Structure prediction by ZEFSAII (Michael W. Deem and Ramdas Pophale) SiO2 
 PCOD9065609
Probable space group: P -1
;
_chemical_formula_sum "Si O2"
_cell_formula_units_Z 14
_cell_length_a 8.494161
_cell_length_b 16.993602
_cell_length_c 11.198955
_cell_angle_alpha 44.013350
_cell_angle_beta 138.662134
_cell_angle_gamma 103.543135
_cell_volume 553.181972
_symmetry_space_group_name_H-M "P -1"
_symmetry_group_IT_number 2
_symmetry_cell_setting 'triclinic'
loop_
_space_group_symop_operation_xyz
x,y,z
-x,-y,-z
loop_
_atom_site_type_symbol
_atom_site_label
_atom_site_fract_x
_atom_site_fract_y
_atom_site_fract_z
Si Si1 0.351508 0.171009 0.724818
Si Si2 0.337587 0.335697 0.334195
Si Si3 0.999422 0.676851 0.050904
Si Si4 0.444653 0.105566 0.244746
Si Si5 0.935676 0.150354 0.759340
Si Si6 0.753092 0.226685 0.292052
Si Si7 0.499457 0.669497 0.216613
O O1 0.483204 0.212901 0.654651
O O2 0.394843 0.237116 0.791148
O O3 0.002168 0.250771 0.390872
O O4 0.500000 0.000000 0.000000
O O5 0.649572 0.303903 0.502646
O O6 0.000000 0.500000 0.000000
O O7 0.256590 0.280651 0.238187
O O8 0.174130 0.730414 0.032460
O O9 0.249094 0.496152 0.402397
O O10 0.823670 0.735390 0.013750
O O11 0.744955 0.092962 0.404980
O O12 0.500000 0.000000 0.500000
O O13 0.271821 0.101664 0.039495
O O14 0.809327 0.200520 0.496825
O O15 0.000000 0.000000 0.000000
O O16 0.513523 0.337094 0.926920
#
# Coordination Sequence:
#
# PCOD9065609 Si02
#       7
#     2   2   2   2   2   2   2
#     4  12  27  46  74 112 156 193 255 323 382 447
#     4  12  24  49  81 110 151 206 255 309 382 464
#     4  11  24  49  77 106 148 200 250 310 376 460
#     4  12  26  47  77 106 148 199 254 307 378 459
#     4  12  25  49  76 107 152 200 253 309 383 453
#     4  12  26  46  71 109 147 193 250 313 375 448
#     4  11  26  47  75 109 149 195 253 308 384 446
#
# _framework density 25.308126999999999
#
# number of rings (size 3 to 8) (size 9 to 14) (size 15 to 20)
#    0.000    0.286    5.714    2.571    4.000    2.286 
#    0.000    3.571    0.000    0.000    0.000    0.000 
#    0.000    0.000    0.000    0.000    0.000    0.000 
#
# Total GULP energy -77957.970147 kJ/mol
# GULP energy per Si atom -5568.426439 kJ/mol
# Density = 2.525052 g / cm^3
# Si number density = 25.308127 Si / 1000 Ang^3
#
#
#
# Elastic Constant Matrix: (Units=GPa)
#
#
# Indices 1 2 3 4 5 6 
#
# 1 70.6229 26.1862 28.5043 1.3404 -25.2056 2.2571
# 2 26.1862 148.2223 38.3579 32.2591 -1.8352 13.5486
# 3 28.5043 38.3579 87.3414 15.7657 -22.0631 -12.9373
# 4 1.3404 32.2591 15.7657 55.2394 -6.8128 -3.7794
# 5 -25.2056 -1.8352 -22.0631 -6.8128 44.3471 5.1176
# 6 2.2571 13.5486 -12.9373 -3.7794 5.1176 40.1241
#
#
#
# Elastic Compliance Matrix: (Units=1/GPa)
#
#
# Indices 1 2 3 4 5 6 
#
# 1 0.020555 -0.003107 -0.003654 0.003501 0.010540 -0.002300
# 2 -0.003107 0.009821 -0.003913 -0.005292 -0.003607 -0.004442
# 3 -0.003654 -0.003913 0.016838 -0.001367 0.005217 0.006162
# 4 0.003501 -0.005292 -0.001367 0.022200 0.004189 0.002706
# 5 0.010540 -0.003607 0.005217 0.004189 0.031786 -0.001352
# 6 -0.002300 -0.004442 0.006162 0.002706 -0.001352 0.028966
#
#
# Mechanical properties :
#
#
# Convention : Reuss Voigt Hill
#
# Bulk Modulus (GPa) = 38.66074 54.69816 46.67945
# Shear Modulus (GPa) = 31.22333 42.15131 36.68732
#
# Velocity S-wave (km/s) = 3.51626 4.08551 3.81153
# Velocity P-wave (km/s) = 5.63867 6.62684 6.15263
#
# Compressibility (1/GPa) = 0.02586603
#
# Stress axis : x y z
#
# Youngs Moduli (GPa) = 48.64906 101.81965 59.39117
#
# Poissons Ratio (x) = 0.31637 0.21701
# Poissons Ratio (y) = 0.15116 0.23239
# Poissons Ratio (z) = 0.17776 0.39841
#
# Static dielectric constant tensor:
#      x y z
#    x 2.416570 -0.057450 -0.742290 
#    y -0.057450 2.060390 -0.026530 
#    z -0.742290 -0.026530 3.085640 
# 
# From -- ./inp_files/402896.got.cif
#   From: 2010.05.17/outbox.cif.g08.bks.cpg/sg2_202_cif.got.tgz:402896.got - 2010.06.03 11:33:40.
