data_PCOD9065734
_publ_section_title
;
Structure prediction by ZEFSAII (Michael W. Deem and Ramdas Pophale) SiO2 
 PCOD9065734
Probable space group: P -1
;
_chemical_formula_sum "Si O2"
_cell_formula_units_Z 15
_cell_length_a 14.694896
_cell_length_b 17.678481
_cell_length_c 9.036091
_cell_angle_alpha 135.978935
_cell_angle_beta 132.433550
_cell_angle_gamma 22.773576
_cell_volume 630.854490
_symmetry_space_group_name_H-M "P -1"
_symmetry_group_IT_number 2
_symmetry_cell_setting 'triclinic'
loop_
_space_group_symop_operation_xyz
x,y,z
-x,-y,-z
loop_
_atom_site_type_symbol
_atom_site_label
_atom_site_fract_x
_atom_site_fract_y
_atom_site_fract_z
Si Si1 0.346371 0.867474 0.710186
Si Si2 0.584389 0.459883 0.367798
Si Si3 0.624352 0.015808 0.596707
Si Si4 0.207438 0.409943 0.025460
Si Si5 0.169326 0.456934 0.706090
Si Si6 0.956366 0.802148 0.411181
Si Si7 0.500000 0.500000 0.000000
Si Si8 0.977486 0.842173 0.977887
O O1 0.479114 0.660402 0.508000
O O2 0.544908 0.791277 0.902878
O O3 0.224849 0.013912 0.644287
O O4 0.141466 0.004591 0.800272
O O5 0.500000 0.500000 0.500000
O O6 0.501172 0.463134 0.131914
O O7 0.867319 0.245987 0.386689
O O8 0.430611 0.240911 0.625757
O O9 0.500000 0.000000 0.500000
O O10 0.814997 0.843413 0.438930
O O11 0.768789 0.974731 0.819074
O O12 0.133156 0.590794 0.221292
O O13 0.206764 0.395476 0.830330
O O14 0.000000 0.500000 0.000000
O O15 0.000000 0.500000 0.500000
O O16 0.060250 0.657853 0.856114
O O17 0.788278 0.281196 0.004546
#
# Coordination Sequence:
#
# PCOD9065734 Si02
#       8
#     2   2   2   2   2   2   1   2
#     4  11  26  48  74 103 150 193 246 309 376 452
#     4  11  27  52  78 110 148 193 249 316 375 453
#     4  12  25  44  71 107 146 194 248 303 373 448
#     4  11  25  41  68 104 143 191 242 299 366 445
#     4  12  26  43  72 106 149 192 243 313 365 442
#     4  11  25  45  70 106 143 190 249 299 374 450
#     4  12  28  48  82 108 152 192 252 320 376 454
#     4  12  26  49  70 110 148 196 251 304 380 447
#
# _framework density 23.777273999999998
#
# number of rings (size 3 to 8) (size 9 to 14) (size 15 to 20)
#    0.000    0.533    5.333    1.600    5.600    2.667 
#    0.000    2.000    0.000    0.000    0.000    0.000 
#    0.000    0.000    0.000    0.000    0.000    0.000 
#
# Total GULP energy -83617.199528 kJ/mol
# GULP energy per Si atom -5574.479969 kJ/mol
# Density = 2.372316 g / cm^3
# Si number density = 23.777274 Si / 1000 Ang^3
#
#
#
# Elastic Constant Matrix: (Units=GPa)
#
#
# Indices 1 2 3 4 5 6 
#
# 1 74.9882 22.7084 10.0749 -19.9917 -21.2899 -23.0272
# 2 22.7084 141.1608 21.5483 -31.8133 0.4352 -3.5785
# 3 10.0749 21.5483 62.3867 -27.5521 -20.2127 3.0170
# 4 -19.9917 -31.8133 -27.5521 50.3653 4.8075 -1.8046
# 5 -21.2899 0.4352 -20.2127 4.8075 32.4365 -0.4700
# 6 -23.0272 -3.5785 3.0170 -1.8046 -0.4700 49.7031
#
#
#
# Elastic Compliance Matrix: (Units=1/GPa)
#
#
# Indices 1 2 3 4 5 6 
#
# 1 0.025235 -0.002474 0.007541 0.011105 0.019818 0.011646
# 2 -0.002474 0.008631 -0.002130 0.003638 -0.003610 -0.000297
# 3 0.007541 -0.002130 0.029097 0.015661 0.020823 0.002340
# 4 0.011105 0.003638 0.015661 0.034190 0.012016 0.005811
# 5 0.019818 -0.003610 0.020823 0.012016 0.055205 0.008616
# 6 0.011646 -0.000297 0.002340 0.005811 0.008616 0.025644
#
#
# Mechanical properties :
#
#
# Convention : Reuss Voigt Hill
#
# Bulk Modulus (GPa) = 14.52700 43.02211 28.77456
# Shear Modulus (GPa) = 25.63152 41.44792 33.53972
#
# Velocity S-wave (km/s) = 3.28683 4.17966 3.75984
# Velocity P-wave (km/s) = 4.53070 6.43629 5.56566
#
# Compressibility (1/GPa) = 0.06883731
#
# Stress axis : x y z
#
# Youngs Moduli (GPa) = 39.62785 115.86378 34.36812
#
# Poissons Ratio (x) = 0.28663 -0.25918
# Poissons Ratio (y) = 0.09803 0.07321
# Poissons Ratio (z) = -0.29885 0.24680
#
# Static dielectric constant tensor:
#      x y z
#    x 1.913510 -0.019680 0.023510 
#    y -0.019680 1.925580 0.054070 
#    z 0.023510 0.054070 2.014670 
# 
# From -- ./inp_files/135253.got.cif
#   From: 2010.05.17/outbox.cif.g08.bks.cpg/sg2_68_cif.got.tgz:135253.got - 2010.06.03 11:33:40.
