data_PCOD9065711
_publ_section_title
;
Structure prediction by ZEFSAII (Michael W. Deem and Ramdas Pophale) SiO2 
 PCOD9065711
Probable space group: P -1
;
_chemical_formula_sum "Si O2"
_cell_formula_units_Z 12
_cell_length_a 8.666628
_cell_length_b 6.004545
_cell_length_c 9.298683
_cell_angle_alpha 88.924079
_cell_angle_beta 91.058936
_cell_angle_gamma 69.845127
_cell_volume 454.023541
_symmetry_space_group_name_H-M "P -1"
_symmetry_group_IT_number 2
_symmetry_cell_setting 'triclinic'
loop_
_space_group_symop_operation_xyz
x,y,z
-x,-y,-z
loop_
_atom_site_type_symbol
_atom_site_label
_atom_site_fract_x
_atom_site_fract_y
_atom_site_fract_z
Si Si1 0.452191 0.560644 0.165764
Si Si2 0.584924 0.146809 0.403231
Si Si3 0.015530 0.438405 0.261829
Si Si4 0.716659 0.808440 0.170423
Si Si5 0.865051 0.262515 0.512324
Si Si6 0.169306 0.989848 0.081356
O O1 0.485336 0.339392 0.278953
O O2 0.572580 0.707356 0.201163
O O3 0.263930 0.735051 0.154772
O O4 0.500000 0.500000 0.000000
O O5 0.682268 0.257491 0.512134
O O6 0.500000 0.000000 0.500000
O O7 0.723185 0.957041 0.310056
O O8 0.096357 0.577694 0.366568
O O9 0.893533 0.610983 0.144292
O O10 0.883310 0.381362 0.361276
O O11 0.130682 0.197097 0.196154
O O12 0.700874 0.973091 0.030391
O O13 0.000000 0.000000 0.500000
O O14 0.000000 0.000000 0.000000
#
# Coordination Sequence:
#
# PCOD9065711 Si02
#       6
#     2   2   2   2   2   2
#     4  12  27  55  83 115 172 220 274 354 419 497
#     4  12  28  54  83 122 165 224 285 344 424 504
#     4  11  25  48  85 122 163 215 280 345 428 493
#     4  12  25  54  79 119 166 210 278 351 420 496
#     4  11  24  52  80 112 171 220 273 347 412 506
#     4  12  27  51  86 128 162 217 284 351 421 505
#
# _framework density 26.430346
#
# number of rings (size 3 to 8) (size 9 to 14) (size 15 to 20)
#    0.000    0.333    5.000    3.000    0.000    2.000 
#    9.000    0.833    0.000    0.000    0.000    0.000 
#    0.000    0.000    0.000    0.000    0.000    0.000 
#
# Total GULP energy -67263.476021 kJ/mol
# GULP energy per Si atom -5605.289668 kJ/mol
# Density = 2.637019 g / cm^3
# Si number density = 26.430346 Si / 1000 Ang^3
#
#
#
# Elastic Constant Matrix: (Units=GPa)
#
#
# Indices 1 2 3 4 5 6 
#
# 1 141.2117 54.9580 57.6748 -12.7879 1.7029 17.7989
# 2 54.9580 158.1901 71.6379 -6.7097 10.6409 -20.2750
# 3 57.6748 71.6379 124.5528 -9.6602 -5.6320 5.1949
# 4 -12.7879 -6.7097 -9.6602 72.0887 6.7247 -5.7128
# 5 1.7029 10.6409 -5.6320 6.7247 59.5774 -8.3347
# 6 17.7989 -20.2750 5.1949 -5.7128 -8.3347 59.2290
#
#
#
# Elastic Compliance Matrix: (Units=1/GPa)
#
#
# Indices 1 2 3 4 5 6 
#
# 1 0.009760 -0.002423 -0.002942 0.000900 -0.000718 -0.003519
# 2 -0.002423 0.010072 -0.004901 0.000351 -0.001615 0.004412
# 3 -0.002942 -0.004901 0.012390 0.000383 0.001866 -0.001581
# 4 0.000900 0.000351 0.000383 0.014336 -0.001533 0.000983
# 5 -0.000718 -0.001615 0.001866 -0.001533 0.017701 0.001842
# 6 -0.003519 0.004412 -0.001581 0.000983 0.001842 0.019944
#
#
# Mechanical properties :
#
#
# Convention : Reuss Voigt Hill
#
# Bulk Modulus (GPa) = 85.54090 88.05511 86.79801
# Shear Modulus (GPa) = 46.02794 54.15793 50.09293
#
# Velocity S-wave (km/s) = 4.17763 4.53159 4.35821
# Velocity P-wave (km/s) = 7.46358 7.79542 7.63131
#
# Compressibility (1/GPa) = 0.01169031
#
# Stress axis : x y z
#
# Youngs Moduli (GPa) = 102.46281 99.28803 80.71349
#
# Poissons Ratio (x) = 0.24058 0.23742
# Poissons Ratio (y) = 0.24828 0.39555
# Poissons Ratio (z) = 0.30140 0.48658
#
# Static dielectric constant tensor:
#      x y z
#    x 2.046470 0.008280 0.033790 
#    y 0.008280 2.198740 -0.047070 
#    z 0.033790 -0.047070 2.109960 
# 
# From -- ./inp_files/143780.got.cif
#   From: 2010.05.17/outbox.cif.g08.bks.cpg/sg2_72_cif.got.tgz:143780.got - 2010.06.03 11:33:40.
