data_PCOD9065781
_publ_section_title
;
Structure prediction by ZEFSAII (Michael W. Deem and Ramdas Pophale) SiO2 
 PCOD9065781
Probable space group: P -1
;
_chemical_formula_sum "Si O2"
_cell_formula_units_Z 14
_cell_length_a 13.821822
_cell_length_b 19.734141
_cell_length_c 9.418529
_cell_angle_alpha 147.900177
_cell_angle_beta 49.434849
_cell_angle_gamma 151.512940
_cell_volume 604.439937
_symmetry_space_group_name_H-M "P -1"
_symmetry_group_IT_number 2
_symmetry_cell_setting 'triclinic'
loop_
_space_group_symop_operation_xyz
x,y,z
-x,-y,-z
loop_
_atom_site_type_symbol
_atom_site_label
_atom_site_fract_x
_atom_site_fract_y
_atom_site_fract_z
Si Si1 0.601830 0.443686 0.317565
Si Si2 0.424508 0.561724 0.338313
Si Si3 0.637669 0.230637 0.336300
Si Si4 0.068330 0.605996 0.397899
Si Si5 0.657275 0.004469 0.359910
Si Si6 0.153071 0.246209 0.794617
Si Si7 0.986494 0.279306 0.765463
O O1 0.500000 0.500000 0.500000
O O2 0.614702 0.430344 0.449290
O O3 0.833150 0.631113 0.352118
O O4 0.461502 0.217879 0.977142
O O5 0.493868 0.744344 0.507971
O O6 0.613717 0.608917 0.235352
O O7 0.213323 0.338298 0.059323
O O8 0.734387 0.277196 0.480082
O O9 0.851512 0.430579 0.389216
O O10 0.500000 0.000000 0.000000
O O11 0.147325 0.796424 0.580530
O O12 0.024163 0.460422 0.066583
O O13 0.756268 0.067209 0.533851
O O14 0.500000 0.000000 0.500000
O O15 0.037426 0.260761 0.837617
O O16 0.000000 0.000000 0.500000
#
# Coordination Sequence:
#
# PCOD9065781 Si02
#       7
#     2   2   2   2   2   2   2
#     4  12  27  48  74 109 151 195 249 305 366 440
#     4  11  25  47  70 106 145 185 245 296 361 442
#     4  11  25  42  74 102 147 186 236 305 366 434
#     4  11  25  45  68 111 138 190 246 298 371 438
#     4  12  28  45  78 105 149 198 245 306 373 434
#     4  11  27  45  75 102 145 196 236 300 367 436
#     4  12  26  48  73 106 146 190 254 301 367 445
#
# _framework density 23.161937999999999
#
# number of rings (size 3 to 8) (size 9 to 14) (size 15 to 20)
#    0.000    0.571    4.286    2.143    8.000    2.857 
#    0.000    0.000    0.000    0.000    0.000    0.000 
#    0.000    0.000    0.000    0.000    0.000    0.000 
#
# Total GULP energy -78418.161703 kJ/mol
# GULP energy per Si atom -5601.297264 kJ/mol
# Density = 2.310922 g / cm^3
# Si number density = 23.161938 Si / 1000 Ang^3
#
#
#
# Elastic Constant Matrix: (Units=GPa)
#
#
# Indices 1 2 3 4 5 6 
#
# 1 139.6292 7.7150 60.1063 14.3822 22.5293 2.8817
# 2 7.7150 63.3639 8.7001 7.8203 7.6455 12.5987
# 3 60.1063 8.7001 185.6594 18.5346 19.4051 11.5437
# 4 14.3822 7.8203 18.5346 35.7358 -2.5537 -6.0052
# 5 22.5293 7.6455 19.4051 -2.5537 53.0157 -3.4092
# 6 2.8817 12.5987 11.5437 -6.0052 -3.4092 28.9112
#
#
#
# Elastic Compliance Matrix: (Units=1/GPa)
#
#
# Indices 1 2 3 4 5 6 
#
# 1 0.008945 0.000174 -0.002211 -0.002901 -0.003226 -0.001068
# 2 0.000174 0.019072 0.000807 -0.006727 -0.004121 -0.010534
# 3 -0.002211 0.000807 0.006895 -0.003670 -0.002128 -0.003898
# 4 -0.002901 -0.006727 -0.003670 0.035091 0.006053 0.012689
# 5 -0.003226 -0.004121 -0.002128 0.006053 0.022339 0.006859
# 6 -0.001068 -0.010534 -0.003898 0.012689 0.006859 0.044286
#
#
# Mechanical properties :
#
#
# Convention : Reuss Voigt Hill
#
# Bulk Modulus (GPa) = 30.81383 60.18835 45.50109
# Shear Modulus (GPa) = 33.35420 44.34129 38.84774
#
# Velocity S-wave (km/s) = 3.79891 4.38014 4.09983
# Velocity P-wave (km/s) = 5.70743 7.18492 6.48837
#
# Compressibility (1/GPa) = 0.03245296
#
# Stress axis : x y z
#
# Youngs Moduli (GPa) = 111.79042 52.43339 145.02473
#
# Poissons Ratio (x) = -0.00912 0.32065
# Poissons Ratio (y) = -0.01945 -0.11707
# Poissons Ratio (z) = 0.24717 -0.04233
#
# Static dielectric constant tensor:
#      x y z
#    x 1.998030 0.030240 -0.057400 
#    y 0.030240 1.912370 -0.027790 
#    z -0.057400 -0.027790 1.859360 
# 
# From -- ./inp_files/53488.got.cif
#   From: 2010.05.17/outbox.cif.g08.bks.cpg/sg2_27_cif.got.tgz:53488.got - 2010.06.03 11:33:40.
