data_PCOD9065257
_publ_section_title
;
Structure prediction by ZEFSAII (Michael W. Deem and Ramdas Pophale) SiO2 
 PCOD9065257
Probable space group: P -1
;
_chemical_formula_sum "Si O2"
_cell_formula_units_Z 14
_cell_length_a 11.722468
_cell_length_b 17.185334
_cell_length_c 16.929749
_cell_angle_alpha 17.862005
_cell_angle_beta 41.382339
_cell_angle_gamma 32.839796
_cell_volume 541.725749
_symmetry_space_group_name_H-M "P -1"
_symmetry_group_IT_number 2
_symmetry_cell_setting 'triclinic'
loop_
_space_group_symop_operation_xyz
x,y,z
-x,-y,-z
loop_
_atom_site_type_symbol
_atom_site_label
_atom_site_fract_x
_atom_site_fract_y
_atom_site_fract_z
Si Si1 0.587779 0.338722 0.287151
Si Si2 0.681862 0.769068 0.563348
Si Si3 0.872625 0.329822 0.026336
Si Si4 0.130920 0.528521 0.541317
Si Si5 0.006039 0.344106 0.229287
Si Si6 0.785786 0.090857 0.976755
Si Si7 0.724367 0.416888 0.433965
O O1 0.431805 0.242583 0.442564
O O2 0.665187 0.373544 0.128935
O O3 0.438593 0.675393 0.083548
O O4 0.813489 0.045410 0.494980
O O5 0.866021 0.807388 0.411642
O O6 0.500000 0.000000 0.500000
O O7 0.829709 0.429300 0.861938
O O8 0.898513 0.556782 0.847666
O O9 0.084179 0.964641 0.283139
O O10 0.237089 0.682877 0.300411
O O11 0.222452 0.413030 0.694076
O O12 0.179355 0.230880 0.755018
O O13 0.774856 0.465582 0.271577
O O14 0.000000 0.500000 0.000000
O O15 0.000000 0.000000 0.000000
O O16 0.500000 0.500000 0.500000
#
# Coordination Sequence:
#
# PCOD9065257 Si02
#       7
#     2   2   2   2   2   2   2
#     4  11  26  44  76 113 155 210 250 323 408 474
#     4  12  22  43  78 112 153 199 257 322 400 476
#     4  11  24  47  76 112 149 198 267 324 393 482
#     4  12  27  49  75 116 160 205 267 323 392 490
#     4  11  26  50  79 112 152 199 277 334 395 476
#     4  12  28  46  76 114 167 208 255 318 406 487
#     4  11  27  52  78 112 151 211 268 331 403 467
#
# _framework density 25.843336000000001
#
# number of rings (size 3 to 8) (size 9 to 14) (size 15 to 20)
#    0.000    0.571    4.286    2.571    4.000    5.143 
#    2.571    0.000    0.000    0.000    0.000    0.000 
#    0.000    0.000    0.000    0.000    0.000    0.000 
#
# Total GULP energy -78483.405338 kJ/mol
# GULP energy per Si atom -5605.957524 kJ/mol
# Density = 2.578452 g / cm^3
# Si number density = 25.843336 Si / 1000 Ang^3
#
#
#
# Elastic Constant Matrix: (Units=GPa)
#
#
# Indices 1 2 3 4 5 6 
#
# 1 92.4580 40.7574 15.3312 -6.1134 -2.7432 -1.3957
# 2 40.7574 196.8732 44.5799 -1.6222 4.0113 -6.6156
# 3 15.3312 44.5799 88.8254 3.6161 -3.8073 15.2419
# 4 -6.1134 -1.6222 3.6161 49.8431 19.7404 -5.2329
# 5 -2.7432 4.0113 -3.8073 19.7404 45.0070 8.6487
# 6 -1.3957 -6.6156 15.2419 -5.2329 8.6487 36.5762
#
#
#
# Elastic Compliance Matrix: (Units=1/GPa)
#
#
# Indices 1 2 3 4 5 6 
#
# 1 0.012097 -0.002196 -0.001187 0.001587 -0.000015 0.000790
# 2 -0.002196 0.006530 -0.003637 0.001481 -0.002321 0.003374
# 3 -0.001187 -0.003637 0.015209 -0.004338 0.005147 -0.008879
# 4 0.001587 0.001481 -0.004338 0.027202 -0.014134 0.009370
# 5 -0.000015 -0.002321 0.005147 -0.014134 0.031366 -0.012004
# 6 0.000790 0.003374 -0.008879 0.009370 -0.012004 0.035859
#
#
# Mechanical properties :
#
#
# Convention : Reuss Voigt Hill
#
# Bulk Modulus (GPa) = 50.51244 64.38818 57.45031
# Shear Modulus (GPa) = 33.57908 44.78449 39.18179
#
# Velocity S-wave (km/s) = 3.60854 4.16735 3.89797
# Velocity P-wave (km/s) = 6.07866 6.93720 6.52207
#
# Compressibility (1/GPa) = 0.01979710
#
# Stress axis : x y z
#
# Youngs Moduli (GPa) = 82.66634 153.12867 65.74997
#
# Poissons Ratio (x) = 0.33622 0.07803
# Poissons Ratio (y) = 0.18151 0.23915
# Poissons Ratio (z) = 0.09810 0.55697
#
# Static dielectric constant tensor:
#      x y z
#    x 2.047770 -0.011060 -0.001690 
#    y -0.011060 2.039700 0.022010 
#    z -0.001690 0.022010 2.060080 
# 
# From -- ./inp_files/437375.got.cif
#   From: 2010.05.17/outbox.cif.g08.bks.cpg/sg2_219_cif.got.tgz:437375.got - 2010.06.03 11:33:40.
