data_PCOD9065475
_publ_section_title
;
Structure prediction by ZEFSAII (Michael W. Deem and Ramdas Pophale) SiO2 
 PCOD9065475
Probable space group: P -1
;
_chemical_formula_sum "Si O2"
_cell_formula_units_Z 10
_cell_length_a 5.386224
_cell_length_b 20.341648
_cell_length_c 12.268684
_cell_angle_alpha 20.813378
_cell_angle_beta 105.993764
_cell_angle_gamma 115.337691
_cell_volume 397.929719
_symmetry_space_group_name_H-M "P -1"
_symmetry_group_IT_number 2
_symmetry_cell_setting 'triclinic'
loop_
_space_group_symop_operation_xyz
x,y,z
-x,-y,-z
loop_
_atom_site_type_symbol
_atom_site_label
_atom_site_fract_x
_atom_site_fract_y
_atom_site_fract_z
Si Si1 0.241237 0.009022 0.389347
Si Si2 0.345190 0.281887 0.177997
Si Si3 0.829618 0.748246 0.448840
Si Si4 0.423831 0.280291 0.775029
Si Si5 0.463810 0.051640 0.745108
O O1 0.220674 0.180216 0.201662
O O2 0.500000 0.000000 0.500000
O O3 0.281014 0.111292 0.118340
O O4 0.964656 0.767352 0.727308
O O5 0.426061 0.141202 0.485665
O O6 0.619360 0.514633 0.837253
O O7 0.751085 0.736355 0.330429
O O8 0.705864 0.887245 0.280174
O O9 0.180937 0.831582 0.369705
O O10 0.500000 0.500000 0.500000
O O11 0.655933 0.202802 0.882568
#
# Coordination Sequence:
#
# PCOD9065475 Si02
#       5
#     2   2   2   2   2
#     4  11  24  48  75 111 150 196 259 314 368 447
#     4  11  25  46  79 110 150 201 253 310 376 452
#     4  12  28  50  79 116 153 198 251 314 386 444
#     4  12  26  50  78 109 155 202 255 312 376 446
#     4  12  27  50  77 114 157 197 250 314 378 456
#
# _framework density 25.130065999999999
#
# number of rings (size 3 to 8) (size 9 to 14) (size 15 to 20)
#    0.000    0.400    4.000    3.600    2.800    1.600 
#    0.000    6.000    0.000    0.000    0.000    0.000 
#    0.000    0.000    0.000    0.000    0.000    0.000 
#
# Total GULP energy -55848.492632 kJ/mol
# GULP energy per Si atom -5584.849263 kJ/mol
# Density = 2.507287 g / cm^3
# Si number density = 25.130066 Si / 1000 Ang^3
#
#
#
# Elastic Constant Matrix: (Units=GPa)
#
#
# Indices 1 2 3 4 5 6 
#
# 1 135.4463 71.2613 48.1096 -8.3297 -0.4216 14.0397
# 2 71.2613 204.2114 45.4935 27.7526 10.6324 -8.9799
# 3 48.1096 45.4935 127.7105 2.5751 -0.0884 10.9856
# 4 -8.3297 27.7526 2.5751 49.0671 -5.6404 6.4551
# 5 -0.4216 10.6324 -0.0884 -5.6404 33.7317 -0.8419
# 6 14.0397 -8.9799 10.9856 6.4551 -0.8419 51.9510
#
#
#
# Elastic Compliance Matrix: (Units=1/GPa)
#
#
# Indices 1 2 3 4 5 6 
#
# 1 0.011327 -0.004424 -0.002459 0.005339 0.002324 -0.003932
# 2 -0.004424 0.007888 -0.001328 -0.006005 -0.003461 0.003530
# 3 -0.002459 -0.001328 0.009361 0.000091 0.000389 -0.001550
# 4 0.005339 -0.006005 0.000091 0.026133 0.006189 -0.005647
# 5 0.002324 -0.003461 0.000389 0.006189 0.031763 -0.001563
# 6 -0.003932 0.003530 -0.001550 -0.005647 -0.001563 0.021926
#
#
# Mechanical properties :
#
#
# Convention : Reuss Voigt Hill
#
# Bulk Modulus (GPa) = 82.27806 88.56633 85.42219
# Shear Modulus (GPa) = 38.79808 47.11689 42.95748
#
# Velocity S-wave (km/s) = 3.93350 4.33473 4.13898
# Velocity P-wave (km/s) = 7.31039 7.77000 7.54370
#
# Compressibility (1/GPa) = 0.01215391
#
# Stress axis : x y z
#
# Youngs Moduli (GPa) = 88.28253 126.76957 106.82212
#
# Poissons Ratio (x) = 0.56089 0.26266
# Poissons Ratio (y) = 0.39060 0.14189
# Poissons Ratio (z) = 0.21707 0.16838
#
# Static dielectric constant tensor:
#      x y z
#    x 2.276620 -0.133400 -0.046730 
#    y -0.133400 2.026800 -0.039090 
#    z -0.046730 -0.039090 2.035710 
# 
# From -- ./inp_files/32891.got.cif
#   From: 2010.05.17/outbox.cif.g08.bks.cpg/sg2_17_cif.got.tgz:32891.got - 2010.06.03 11:33:40.
