data_PCOD9065330
_publ_section_title
;
Structure prediction by ZEFSAII (Michael W. Deem and Ramdas Pophale) SiO2 
 PCOD9065330
Probable space group: P -1
;
_chemical_formula_sum "Si O2"
_cell_formula_units_Z 16
_cell_length_a 12.638895
_cell_length_b 17.553113
_cell_length_c 9.054024
_cell_angle_alpha 29.873034
_cell_angle_beta 52.250755
_cell_angle_gamma 51.310068
_cell_volume 768.085576
_symmetry_space_group_name_H-M "P -1"
_symmetry_group_IT_number 2
_symmetry_cell_setting 'triclinic'
loop_
_space_group_symop_operation_xyz
x,y,z
-x,-y,-z
loop_
_atom_site_type_symbol
_atom_site_label
_atom_site_fract_x
_atom_site_fract_y
_atom_site_fract_z
Si Si1 0.907721 0.897343 0.394397
Si Si2 0.413048 0.432571 0.310798
Si Si3 0.151386 0.421488 0.055452
Si Si4 0.867934 0.485429 0.736819
Si Si5 0.202879 0.902478 0.117373
Si Si6 0.390258 0.898114 0.237619
Si Si7 0.352755 0.578063 0.428615
Si Si8 0.130404 0.885680 0.666158
O O1 0.827862 0.760125 0.709514
O O2 0.071555 0.834048 0.390829
O O3 0.873684 0.048948 0.274184
O O4 0.870309 0.954212 0.164125
O O5 0.272674 0.413550 0.386946
O O6 0.516876 0.279520 0.546619
O O7 0.358176 0.544038 0.308066
O O8 0.500000 0.500000 0.000000
O O9 0.144502 0.454051 0.183777
O O10 0.253620 0.499401 0.744576
O O11 0.000000 0.500000 0.000000
O O12 0.000000 0.500000 0.500000
O O13 0.870742 0.297750 0.044624
O O14 0.293973 0.945966 0.096532
O O15 0.305730 0.764207 0.176189
O O16 0.275240 0.907435 0.444779
O O17 0.500000 0.000000 0.000000
O O18 0.500000 0.500000 0.500000
O O19 0.000000 0.000000 0.500000
#
# Coordination Sequence:
#
# PCOD9065330 Si02
#       8
#     2   2   2   2   2   2   2   2
#     4  11  26  42  78 103 147 184 243 300 357 428
#     4  12  26  48  71 102 142 192 241 299 364 432
#     4  12  25  46  71 109 140 186 247 296 354 431
#     4  12  28  45  74 107 147 189 249 300 355 435
#     4  11  24  48  68 105 142 191 234 297 363 428
#     4  12  28  47  71 103 149 189 242 298 370 440
#     4  12  24  45  74  99 144 190 236 295 365 430
#     4  12  25  47  73 104 146 193 239 299 367 433
#
# _framework density 20.831011
#
# number of rings (size 3 to 8) (size 9 to 14) (size 15 to 20)
#    0.000    0.250    5.000    3.750    8.750    0.000 
#    0.000    1.250    0.000    0.000    0.000    0.000 
#    0.000    0.000    0.000    0.000    0.000    0.000 
#
# Total GULP energy -89322.495020 kJ/mol
# GULP energy per Si atom -5582.655939 kJ/mol
# Density = 2.078360 g / cm^3
# Si number density = 20.831011 Si / 1000 Ang^3
#
#
#
# Elastic Constant Matrix: (Units=GPa)
#
#
# Indices 1 2 3 4 5 6 
#
# 1 154.7922 37.0187 29.3698 20.5713 2.4389 -1.9036
# 2 37.0187 94.7759 13.9106 19.8558 -11.4971 3.4578
# 3 29.3698 13.9106 81.8277 14.5604 -23.9587 -0.1290
# 4 20.5713 19.8558 14.5604 44.6276 -3.4053 -1.3516
# 5 2.4389 -11.4971 -23.9587 -3.4053 31.6639 6.7526
# 6 -1.9036 3.4578 -0.1290 -1.3516 6.7526 53.2184
#
#
#
# Elastic Compliance Matrix: (Units=1/GPa)
#
#
# Indices 1 2 3 4 5 6 
#
# 1 0.008134 -0.002933 -0.003521 -0.001627 -0.004751 0.001035
# 2 -0.002933 0.013249 0.001360 -0.004587 0.005964 -0.001836
# 3 -0.003521 0.001360 0.018207 -0.003875 0.014577 -0.002118
# 4 -0.001627 -0.004587 -0.003875 0.026353 -0.001880 0.001138
# 5 -0.004751 0.005964 0.014577 -0.001880 0.046315 -0.006447
# 6 0.001035 -0.001836 -0.002118 0.001138 -0.006447 0.019789
#
#
# Mechanical properties :
#
#
# Convention : Reuss Voigt Hill
#
# Bulk Modulus (GPa) = 34.01190 54.66599 44.33894
# Shear Modulus (GPa) = 32.88708 42.64176 37.76442
#
# Velocity S-wave (km/s) = 3.97767 4.52932 4.26243
# Velocity P-wave (km/s) = 6.12036 7.32479 6.74949
#
# Compressibility (1/GPa) = 0.02940147
#
# Stress axis : x y z
#
# Youngs Moduli (GPa) = 122.94738 75.47893 54.92287
#
# Poissons Ratio (x) = 0.22142 0.19336
# Poissons Ratio (y) = 0.36066 -0.07470
# Poissons Ratio (z) = 0.43286 -0.10266
#
# Static dielectric constant tensor:
#      x y z
#    x 1.752860 0.033310 0.005210 
#    y 0.033310 1.753230 -0.040040 
#    z 0.005210 -0.040040 1.715070 
# 
# From -- ./inp_files/278639.got.cif
#   From: 2010.05.17/outbox.cif.g08.bks.cpg/sg2_140_cif.got.tgz:278639.got - 2010.06.03 11:33:40.
