data_PCOD9065614
_publ_section_title
;
Structure prediction by ZEFSAII (Michael W. Deem and Ramdas Pophale) SiO2 
 PCOD9065614
Probable space group: P -1
;
_chemical_formula_sum "Si O2"
_cell_formula_units_Z 14
_cell_length_a 12.577166
_cell_length_b 9.453041
_cell_length_c 5.071430
_cell_angle_alpha 102.633781
_cell_angle_beta 103.435926
_cell_angle_gamma 100.747931
_cell_volume 554.075448
_symmetry_space_group_name_H-M "P -1"
_symmetry_group_IT_number 2
_symmetry_cell_setting 'triclinic'
loop_
_space_group_symop_operation_xyz
x,y,z
-x,-y,-z
loop_
_atom_site_type_symbol
_atom_site_label
_atom_site_fract_x
_atom_site_fract_y
_atom_site_fract_z
Si Si1 0.264215 0.955355 0.623800
Si Si2 0.074341 0.060359 0.318886
Si Si3 0.629226 0.262741 0.683419
Si Si4 0.404646 0.272607 0.837233
Si Si5 0.098134 0.381427 0.298930
Si Si6 0.848538 0.321551 0.191734
Si Si7 0.336662 0.424860 0.338972
O O1 0.183905 0.995479 0.368416
O O2 0.358485 0.882478 0.524102
O O3 0.188179 0.831268 0.721360
O O4 0.324566 0.117412 0.837780
O O5 0.099815 0.238774 0.421180
O O6 0.000000 0.000000 0.500000
O O7 0.000000 0.000000 0.000000
O O8 0.522528 0.242862 0.802840
O O9 0.628356 0.396637 0.535270
O O10 0.744302 0.314950 0.937878
O O11 0.356554 0.335845 0.573174
O O12 0.406787 0.389457 0.118433
O O13 0.129369 0.536783 0.539827
O O14 0.203268 0.383311 0.170268
O O15 0.968164 0.346274 0.116894
#
# Coordination Sequence:
#
# PCOD9065614 Si02
#       7
#     2   2   2   2   2   2   2
#     4  12  27  48  75 115 154 201 258 312 391 444
#     4  12  27  46  75 108 155 201 248 309 373 456
#     4  12  28  50  76 110 158 198 265 313 381 458
#     4  12  30  50  81 111 150 206 259 321 379 445
#     4  11  24  49  77 111 159 195 259 301 392 454
#     4  11  26  48  76 118 153 209 243 323 380 462
#     4  12  27  50  80 111 149 204 257 314 383 452
#
# _framework density 25.267315
#
# number of rings (size 3 to 8) (size 9 to 14) (size 15 to 20)
#    0.000    0.286    4.286    3.000    6.000    1.143 
#    2.571    0.000    0.000    0.000    0.000    0.000 
#    0.000    0.000    0.000    0.000    0.000    0.000 
#
# Total GULP energy -78480.405882 kJ/mol
# GULP energy per Si atom -5605.743277 kJ/mol
# Density = 2.520981 g / cm^3
# Si number density = 25.267315 Si / 1000 Ang^3
#
#
#
# Elastic Constant Matrix: (Units=GPa)
#
#
# Indices 1 2 3 4 5 6 
#
# 1 155.3880 19.9091 17.0766 -7.5459 10.6034 -10.1408
# 2 19.9091 165.2606 16.9199 -4.8304 5.6120 -1.6082
# 3 17.0766 16.9199 65.0119 -15.4067 10.3408 -10.2524
# 4 -7.5459 -4.8304 -15.4067 27.0629 1.5638 -6.7728
# 5 10.6034 5.6120 10.3408 1.5638 35.5575 3.3792
# 6 -10.1408 -1.6082 -10.2524 -6.7728 3.3792 41.6467
#
#
#
# Elastic Compliance Matrix: (Units=1/GPa)
#
#
# Indices 1 2 3 4 5 6 
#
# 1 0.006957 -0.000633 -0.000473 0.002202 -0.002132 0.002084
# 2 -0.000633 0.006286 -0.001418 0.000107 -0.000375 -0.000213
# 3 -0.000473 -0.001418 0.021759 0.014465 -0.007372 0.008137
# 4 0.002202 0.000107 0.014465 0.049506 -0.008276 0.012824
# 5 -0.002132 -0.000375 -0.007372 -0.008276 0.031924 -0.006285
# 6 0.002084 -0.000213 0.008137 0.012824 -0.006285 0.029109
#
#
# Mechanical properties :
#
#
# Convention : Reuss Voigt Hill
#
# Bulk Modulus (GPa) = 33.38428 54.83019 44.10723
# Shear Modulus (GPa) = 31.13820 42.97040 37.05430
#
# Velocity S-wave (km/s) = 3.51429 4.12835 3.83363
# Velocity P-wave (km/s) = 5.45052 6.66869 6.09014
#
# Compressibility (1/GPa) = 0.02995422
#
# Stress axis : x y z
#
# Youngs Moduli (GPa) = 143.73988 159.07652 45.95808
#
# Poissons Ratio (x) = 0.10064 0.02174
# Poissons Ratio (y) = 0.09093 0.06519
# Poissons Ratio (z) = 0.06798 0.22564
#
# Static dielectric constant tensor:
#      x y z
#    x 2.038790 -0.001920 0.022560 
#    y -0.001920 1.977980 -0.004860 
#    z 0.022560 -0.004860 1.915030 
# 
# From -- ./inp_files/26897.got.cif
#   From: 2010.05.17/outbox.cif.g08.bks.cpg/sg2_14_cif.got.tgz:26897.got - 2010.06.03 11:33:40.
