data_PCOD9065010
_publ_section_title
;
Structure prediction by ZEFSAII (Michael W. Deem and Ramdas Pophale) SiO2 
 PCOD9065010
Probable space group: P -1
;
_chemical_formula_sum "Si O2"
_cell_formula_units_Z 16
_cell_length_a 9.517939
_cell_length_b 18.490924
_cell_length_c 5.341598
_cell_angle_alpha 107.032219
_cell_angle_beta 71.888611
_cell_angle_gamma 133.381109
_cell_volume 645.107477
_symmetry_space_group_name_H-M "P -1"
_symmetry_group_IT_number 2
_symmetry_cell_setting 'triclinic'
loop_
_space_group_symop_operation_xyz
x,y,z
-x,-y,-z
loop_
_atom_site_type_symbol
_atom_site_label
_atom_site_fract_x
_atom_site_fract_y
_atom_site_fract_z
Si Si1 0.456683 0.277993 0.198928
Si Si2 0.222583 0.844250 0.041932
Si Si3 0.980184 0.578865 0.691144
Si Si4 0.208783 0.271442 0.958472
Si Si5 0.552652 0.450567 0.617077
Si Si6 0.789044 0.893200 0.454631
Si Si7 0.201220 0.692124 0.195992
Si Si8 0.571670 0.959330 0.602434
O O1 0.581281 0.377597 0.398503
O O2 0.345837 0.173719 0.298796
O O3 0.290972 0.279867 0.193107
O O4 0.604565 0.294079 0.927629
O O5 0.241829 0.791980 0.202986
O O6 0.005198 0.766600 0.977170
O O7 0.271858 0.945309 0.208741
O O8 0.386961 0.876873 0.788257
O O9 0.112355 0.662056 0.489214
O O10 0.000000 0.500000 0.500000
O O11 0.756764 0.531597 0.730635
O O12 0.057574 0.615441 0.969785
O O13 0.370508 0.373612 0.823836
O O14 0.194078 0.181938 0.761301
O O15 0.500000 0.500000 0.500000
O O16 0.672582 0.919110 0.395887
O O17 0.000000 0.000000 0.500000
O O18 0.500000 0.000000 0.500000
#
# Coordination Sequence:
#
# PCOD9065010 Si02
#       8
#     2   2   2   2   2   2   2   2
#     4  11  26  43  71 104 138 191 242 297 369 444
#     4  11  26  45  66 110 137 190 244 301 370 433
#     4  12  26  47  75 105 142 194 246 306 370 440
#     4  11  26  44  72 100 143 188 242 297 373 439
#     4  11  26  46  68 101 144 188 243 303 365 438
#     4  11  24  47  68 101 144 186 237 298 369 441
#     4  12  27  46  76 106 150 190 248 308 369 442
#     4  11  26  44  72  99 146 186 242 302 367 442
#
# _framework density 24.802068999999999
#
# number of rings (size 3 to 8) (size 9 to 14) (size 15 to 20)
#    0.000    0.750    3.750    1.875   10.500    1.000 
#    0.000    0.000    0.000    0.000    0.000    0.000 
#    0.000    0.000    0.000    0.000    0.000    0.000 
#
# Total GULP energy -89616.895609 kJ/mol
# GULP energy per Si atom -5601.055976 kJ/mol
# Density = 2.474562 g / cm^3
# Si number density = 24.802069 Si / 1000 Ang^3
#
#
#
# Elastic Constant Matrix: (Units=GPa)
#
#
# Indices 1 2 3 4 5 6 
#
# 1 131.1802 32.9712 3.5055 -10.3618 -3.8532 -6.4314
# 2 32.9712 139.4560 30.8437 -9.9127 -6.1351 -2.6658
# 3 3.5055 30.8437 42.0081 7.0504 -3.8502 -7.9576
# 4 -10.3618 -9.9127 7.0504 39.3823 -10.1439 8.3466
# 5 -3.8532 -6.1351 -3.8502 -10.1439 42.2808 2.2915
# 6 -6.4314 -2.6658 -7.9576 8.3466 2.2915 44.2822
#
#
#
# Elastic Compliance Matrix: (Units=1/GPa)
#
#
# Indices 1 2 3 4 5 6 
#
# 1 0.008289 -0.001949 0.000714 0.001604 0.000876 0.000867
# 2 -0.001949 0.009709 -0.007896 0.004185 0.001624 -0.001990
# 3 0.000714 -0.007896 0.032414 -0.009336 -0.000762 0.007252
# 4 0.001604 0.004185 -0.009336 0.032243 0.008056 -0.007687
# 5 0.000876 0.001624 -0.000762 0.008056 0.025981 -0.002775
# 6 0.000867 -0.001990 0.007252 -0.007687 -0.002775 0.025484
#
#
# Mechanical properties :
#
#
# Convention : Reuss Voigt Hill
#
# Bulk Modulus (GPa) = 31.10410 49.69833 40.40121
# Shear Modulus (GPa) = 30.65655 41.54399 36.10027
#
# Velocity S-wave (km/s) = 3.51956 4.09714 3.81929
# Velocity P-wave (km/s) = 5.39301 6.51641 5.98114
#
# Compressibility (1/GPa) = 0.03215010
#
# Stress axis : x y z
#
# Youngs Moduli (GPa) = 120.64593 103.00013 30.85088
#
# Poissons Ratio (x) = 0.20070 -0.02204
# Poissons Ratio (y) = 0.23508 0.24361
# Poissons Ratio (z) = -0.08617 0.81333
#
# Static dielectric constant tensor:
#      x y z
#    x 1.930920 0.012650 0.055110 
#    y 0.012650 1.928880 0.066540 
#    z 0.055110 0.066540 1.973870 
# 
# From -- ./inp_files/46319.got.cif
#   From: 2010.05.17/outbox.cif.g08.bks.cpg/sg2_24_cif.got.tgz:46319.got - 2010.06.03 11:33:40.
