data_PCOD9065835
_publ_section_title
;
Structure prediction by ZEFSAII (Michael W. Deem and Ramdas Pophale) SiO2 
 PCOD9065835
Probable space group: P -1
;
_chemical_formula_sum "Si O2"
_cell_formula_units_Z 16
_cell_length_a 9.867636
_cell_length_b 23.636529
_cell_length_c 9.324752
_cell_angle_alpha 40.001759
_cell_angle_beta 147.409514
_cell_angle_gamma 144.507563
_cell_volume 657.490601
_symmetry_space_group_name_H-M "P -1"
_symmetry_group_IT_number 2
_symmetry_cell_setting 'triclinic'
loop_
_space_group_symop_operation_xyz
x,y,z
-x,-y,-z
loop_
_atom_site_type_symbol
_atom_site_label
_atom_site_fract_x
_atom_site_fract_y
_atom_site_fract_z
Si Si1 0.150740 0.148587 0.970563
Si Si2 0.947609 0.592876 0.477102
Si Si3 0.108836 0.605325 0.065192
Si Si4 0.404948 0.891356 0.059939
Si Si5 0.436270 0.234474 0.363625
Si Si6 0.106664 0.320951 0.010559
Si Si7 0.262278 0.347446 0.576321
Si Si8 0.409090 0.054498 0.193747
O O1 0.078428 0.228077 0.675003
O O2 0.262284 0.186904 0.154393
O O3 0.377836 0.139774 0.085623
O O4 0.891295 0.035076 0.961885
O O5 0.242001 0.698411 0.543113
O O6 0.860174 0.592292 0.236441
O O7 0.999574 0.504658 0.750995
O O8 0.704526 0.598867 0.345383
O O9 0.049248 0.668859 0.009265
O O10 0.436185 0.635728 0.252465
O O11 0.918426 0.612124 0.753215
O O12 0.603373 0.852580 0.391390
O O13 0.095980 0.794053 0.003913
O O14 0.409413 0.903049 0.870075
O O15 0.500000 0.000000 0.000000
O O16 0.400031 0.316006 0.272539
O O17 0.500000 0.000000 0.500000
#
# Coordination Sequence:
#
# PCOD9065835 Si02
#       8
#     2   2   2   2   2   2   2   2
#     4  11  25  44  68 105 141 199 246 309 373 451
#     4  11  26  48  75 106 146 199 254 310 382 452
#     4  12  29  47  77 112 153 197 257 320 380 453
#     4  11  25  43  70 106 145 193 253 310 378 452
#     4  11  25  46  75 104 149 200 251 313 373 458
#     4  11  26  45  73 106 150 198 249 313 381 449
#     4  12  27  47  77 110 152 199 251 319 383 451
#     4  11  26  42  71 102 149 192 248 306 383 445
#
# _framework density 24.334947
#
# number of rings (size 3 to 8) (size 9 to 14) (size 15 to 20)
#    0.000    0.750    1.250    4.125   14.000    3.500 
#    0.000    0.000    0.000    0.000    0.000    0.000 
#    0.000    0.000    0.000    0.000    0.000    0.000 
#
# Total GULP energy -89364.913028 kJ/mol
# GULP energy per Si atom -5585.307064 kJ/mol
# Density = 2.427956 g / cm^3
# Si number density = 24.334947 Si / 1000 Ang^3
#
#
#
# Elastic Constant Matrix: (Units=GPa)
#
#
# Indices 1 2 3 4 5 6 
#
# 1 159.9639 24.9194 32.1760 -4.4073 12.1671 -12.4876
# 2 24.9194 49.6656 26.8110 -28.2327 2.3140 -9.4744
# 3 32.1760 26.8110 114.4222 -28.3685 -6.9611 10.4060
# 4 -4.4073 -28.2327 -28.3685 37.4846 3.3623 -1.7684
# 5 12.1671 2.3140 -6.9611 3.3623 36.8788 -3.6714
# 6 -12.4876 -9.4744 10.4060 -1.7684 -3.6714 20.7073
#
#
#
# Elastic Compliance Matrix: (Units=1/GPa)
#
#
# Indices 1 2 3 4 5 6 
#
# 1 0.007694 -0.003595 -0.002634 -0.003433 -0.002134 0.003647
# 2 -0.003595 0.048714 -0.004301 0.034478 -0.003374 0.024628
# 3 -0.002634 -0.004301 0.012821 0.005530 0.002144 -0.009147
# 4 -0.003433 0.034478 0.005530 0.057477 -0.003717 0.015175
# 5 -0.002134 -0.003374 0.002144 -0.003717 0.028864 0.000892
# 6 0.003647 0.024628 -0.009147 0.015175 0.000892 0.067810
#
#
# Mechanical properties :
#
#
# Convention : Reuss Voigt Hill
#
# Bulk Modulus (GPa) = 20.75929 54.65162 37.70546
# Shear Modulus (GPa) = 19.19417 35.02383 27.10900
#
# Velocity S-wave (km/s) = 2.81151 3.79785 3.34128
# Velocity P-wave (km/s) = 4.36906 6.46052 5.51484
#
# Compressibility (1/GPa) = 0.04817121
#
# Stress axis : x y z
#
# Youngs Moduli (GPa) = 129.97881 20.52778 77.99497
#
# Poissons Ratio (x) = 0.07379 0.20542
# Poissons Ratio (y) = 0.46721 0.33544
# Poissons Ratio (z) = 0.34233 0.08829
#
# Static dielectric constant tensor:
#      x y z
#    x 2.025340 0.044980 0.109430 
#    y 0.044980 1.976400 0.090130 
#    z 0.109430 0.090130 2.094910 
# 
# From -- ./inp_files/226022.got.cif
#   From: 2010.05.17/outbox.cif.g08.bks.cpg/sg2_114_cif.got.tgz:226022.got - 2010.06.03 11:33:40.
