data_PCOD9065521
_publ_section_title
;
Structure prediction by ZEFSAII (Michael W. Deem and Ramdas Pophale) SiO2 
 PCOD9065521
Probable space group: P -1
;
_chemical_formula_sum "Si O2"
_cell_formula_units_Z 12
_cell_length_a 20.787951
_cell_length_b 5.939182
_cell_length_c 7.527316
_cell_angle_alpha 50.367355
_cell_angle_beta 45.327162
_cell_angle_gamma 46.920563
_cell_volume 459.942943
_symmetry_space_group_name_H-M "P -1"
_symmetry_group_IT_number 2
_symmetry_cell_setting 'triclinic'
loop_
_space_group_symop_operation_xyz
x,y,z
-x,-y,-z
loop_
_atom_site_type_symbol
_atom_site_label
_atom_site_fract_x
_atom_site_fract_y
_atom_site_fract_z
Si Si1 0.213813 0.821441 0.264196
Si Si2 0.976236 0.699662 0.756066
Si Si3 0.401298 0.813813 0.079945
Si Si4 0.098991 0.046088 0.737922
Si Si5 0.477213 0.858929 0.428782
Si Si6 0.721535 0.915948 0.486120
O O1 0.317206 0.845025 0.086409
O O2 0.237243 0.458237 0.338846
O O3 0.141974 0.135708 0.134358
O O4 0.155159 0.861849 0.546058
O O5 0.047266 0.429129 0.619506
O O6 0.000000 0.000000 0.500000
O O7 0.000000 0.500000 0.000000
O O8 0.348438 0.830881 0.359683
O O9 0.500000 0.500000 0.000000
O O10 0.442945 0.080413 0.878137
O O11 0.184442 0.990630 0.748396
O O12 0.000000 0.000000 0.000000
O O13 0.500000 0.500000 0.500000
O O14 0.500000 0.000000 0.500000
O O15 0.358093 0.056773 0.524621
#
# Coordination Sequence:
#
# PCOD9065521 Si02
#       6
#     2   2   2   2   2   2
#     4  11  25  47  80 112 159 218 292 343 437 523
#     4  12  26  50  79 115 162 219 277 355 435 513
#     4  11  24  48  80 110 157 223 276 350 436 524
#     4  11  26  48  81 117 163 221 284 354 438 518
#     4  12  28  46  74 119 167 214 283 356 434 520
#     4  11  25  48  79 112 166 217 285 350 434 527
#
# _framework density 26.090192999999999
#
# number of rings (size 3 to 8) (size 9 to 14) (size 15 to 20)
#    0.000    0.667    3.333    3.000    4.667    2.667 
#    0.000    0.000    0.000    0.000    0.000    0.000 
#    0.000    0.000    0.000    0.000    0.000    0.000 
#
# Total GULP energy -66929.263910 kJ/mol
# GULP energy per Si atom -5577.438659 kJ/mol
# Density = 2.603081 g / cm^3
# Si number density = 26.090193 Si / 1000 Ang^3
#
#
#
# Elastic Constant Matrix: (Units=GPa)
#
#
# Indices 1 2 3 4 5 6 
#
# 1 240.4309 41.4812 73.1629 10.1893 -45.9934 -31.7240
# 2 41.4812 160.6889 32.4272 7.8050 -21.1036 -8.0637
# 3 73.1629 32.4272 130.6368 3.2859 -44.6230 -8.5534
# 4 10.1893 7.8050 3.2859 57.8818 9.4279 -6.4628
# 5 -45.9934 -21.1036 -44.6230 9.4279 62.8534 7.8870
# 6 -31.7240 -8.0637 -8.5534 -6.4628 7.8870 47.1959
#
#
#
# Elastic Compliance Matrix: (Units=1/GPa)
#
#
# Indices 1 2 3 4 5 6 
#
# 1 0.005750 -0.000575 -0.002079 -0.000870 0.002307 0.002885
# 2 -0.000575 0.006782 -0.000856 -0.000957 0.001360 0.000259
# 3 -0.002079 -0.000856 0.011215 -0.001290 0.006443 -0.000764
# 4 -0.000870 -0.000957 -0.001290 0.018713 -0.004984 0.002413
# 5 0.002307 0.001360 0.006443 -0.004984 0.023587 -0.001673
# 6 0.002885 0.000259 -0.000764 0.002413 -0.001673 0.023643
#
#
# Mechanical properties :
#
#
# Convention : Reuss Voigt Hill
#
# Bulk Modulus (GPa) = 59.78007 91.76660 75.77333
# Shear Modulus (GPa) = 48.88294 59.23188 54.05741
#
# Velocity S-wave (km/s) = 4.33322 4.76991 4.55680
# Velocity P-wave (km/s) = 6.92808 8.09847 7.53603
#
# Compressibility (1/GPa) = 0.01672798
#
# Stress axis : x y z
#
# Youngs Moduli (GPa) = 173.91811 147.43935 89.16995
#
# Poissons Ratio (x) = 0.08474 0.18535
# Poissons Ratio (y) = 0.09996 0.07634
# Poissons Ratio (z) = 0.36150 0.12622
#
# Static dielectric constant tensor:
#      x y z
#    x 2.232690 -0.003090 0.077130 
#    y -0.003090 2.049510 -0.071750 
#    z 0.077130 -0.071750 2.080700 
# 
# From -- ./inp_files/350329.got.cif
#   From: 2010.05.17/outbox.cif.g08.bks.cpg/sg2_176_cif.got.tgz:350329.got - 2010.06.03 11:33:40.
