data_PCOD9065258
_publ_section_title
;
Structure prediction by ZEFSAII (Michael W. Deem and Ramdas Pophale) SiO2 
 PCOD9065258
Probable space group: P -1
;
_chemical_formula_sum "Si O2"
_cell_formula_units_Z 14
_cell_length_a 12.629890
_cell_length_b 8.356693
_cell_length_c 18.828176
_cell_angle_alpha 34.275477
_cell_angle_beta 27.346360
_cell_angle_gamma 41.188407
_cell_volume 512.772552
_symmetry_space_group_name_H-M "P -1"
_symmetry_group_IT_number 2
_symmetry_cell_setting 'triclinic'
loop_
_space_group_symop_operation_xyz
x,y,z
-x,-y,-z
loop_
_atom_site_type_symbol
_atom_site_label
_atom_site_fract_x
_atom_site_fract_y
_atom_site_fract_z
Si Si1 0.746152 0.545706 0.302215
Si Si2 0.133098 0.176271 0.447949
Si Si3 0.726675 0.892181 0.841235
Si Si4 0.985314 0.679258 0.258383
Si Si5 0.554532 0.484221 0.766139
Si Si6 0.808288 0.281110 0.214053
Si Si7 0.573593 0.072924 0.124903
O O1 0.500000 0.500000 0.500000
O O2 0.878496 0.638401 0.260026
O O3 0.787737 0.306655 0.302288
O O4 0.730771 0.824487 0.159000
O O5 0.270383 0.299910 0.386572
O O6 0.345494 0.099990 0.297633
O O7 0.974394 0.913705 0.649470
O O8 0.966682 0.421577 0.419338
O O9 0.705995 0.180627 0.793823
O O10 0.523667 0.978201 0.875692
O O11 0.665583 0.602519 0.022076
O O12 0.891488 0.971785 0.245750
O O13 0.259400 0.677185 0.078468
O O14 0.431274 0.609913 0.722511
O O15 0.000000 0.500000 0.000000
#
# Coordination Sequence:
#
# PCOD9065258 Si02
#       7
#     2   2   2   2   2   2   2
#     4  12  28  51  78 117 162 206 267 328 393 476
#     4  12  27  47  79 112 155 205 262 330 395 465
#     4  11  24  47  76 112 150 198 268 320 392 470
#     4  12  27  51  81 116 159 210 266 324 400 476
#     4  11  25  48  76 108 155 196 264 325 387 475
#     4  12  27  50  83 112 157 215 258 322 406 471
#     4  12  24  51  71 112 154 205 263 325 394 468
#
# _framework density 27.302554000000001
#
# number of rings (size 3 to 8) (size 9 to 14) (size 15 to 20)
#    0.000    0.286    4.286    3.429    4.000    1.714 
#    2.571    0.000    0.000    0.000    0.000    0.000 
#    0.000    0.000    0.000    0.000    0.000    0.000 
#
# Total GULP energy -78398.902695 kJ/mol
# GULP energy per Si atom -5599.921621 kJ/mol
# Density = 2.724041 g / cm^3
# Si number density = 27.302554 Si / 1000 Ang^3
#
#
#
# Elastic Constant Matrix: (Units=GPa)
#
#
# Indices 1 2 3 4 5 6 
#
# 1 211.6385 62.8545 49.6556 -19.7431 0.1222 -0.4883
# 2 62.8545 126.0183 9.8936 6.7271 8.4139 19.6343
# 3 49.6556 9.8936 143.8233 6.1572 -17.0308 12.9278
# 4 -19.7431 6.7271 6.1572 48.2624 2.5448 11.4336
# 5 0.1222 8.4139 -17.0308 2.5448 41.3057 1.4405
# 6 -0.4883 19.6343 12.9278 11.4336 1.4405 41.0954
#
#
#
# Elastic Compliance Matrix: (Units=1/GPa)
#
#
# Indices 1 2 3 4 5 6 
#
# 1 0.006625 -0.003505 -0.002393 0.003141 -0.000544 0.001651
# 2 -0.003505 0.010564 0.000810 -0.001794 -0.001530 -0.004791
# 3 -0.002393 0.000810 0.008460 -0.001712 0.003531 -0.002724
# 4 0.003141 -0.001794 -0.001712 0.023774 -0.001636 -0.005124
# 5 -0.000544 -0.001530 0.003531 -0.001636 0.026109 -0.000846
# 6 0.001651 -0.004791 -0.002724 -0.005124 -0.000846 0.028954
#
#
# Mechanical properties :
#
#
# Convention : Reuss Voigt Hill
#
# Bulk Modulus (GPa) = 64.63512 80.69861 72.66687
# Shear Modulus (GPa) = 41.72899 50.07114 45.90007
#
# Velocity S-wave (km/s) = 3.91371 4.28709 4.10465
# Velocity P-wave (km/s) = 6.64438 7.35710 7.00981
#
# Compressibility (1/GPa) = 0.01547146
#
# Stress axis : x y z
#
# Youngs Moduli (GPa) = 150.95008 94.65771 118.20554
#
# Poissons Ratio (x) = 0.33178 0.28291
# Poissons Ratio (y) = 0.52908 -0.09571
# Poissons Ratio (z) = 0.36128 -0.07664
#
# Static dielectric constant tensor:
#      x y z
#    x 1.967550 0.049510 -0.047380 
#    y 0.049510 2.291040 0.089240 
#    z -0.047380 0.089240 2.176240 
# 
# From -- ./inp_files/566403.got.cif
#   From: 2010.05.17/outbox.cif.g08.bks.cpg/sg2_284_cif.got.tgz:566403.got - 2010.06.03 11:33:40.
