data_PCOD9065128
_publ_section_title
;
Structure prediction by ZEFSAII (Michael W. Deem and Ramdas Pophale) SiO2 
 PCOD9065128
Probable space group: P -1
;
_chemical_formula_sum "Si O2"
_cell_formula_units_Z 12
_cell_length_a 6.850506
_cell_length_b 13.234210
_cell_length_c 14.630259
_cell_angle_alpha 40.038223
_cell_angle_beta 44.568691
_cell_angle_gamma 34.375717
_cell_volume 469.786316
_symmetry_space_group_name_H-M "P -1"
_symmetry_group_IT_number 2
_symmetry_cell_setting 'triclinic'
loop_
_space_group_symop_operation_xyz
x,y,z
-x,-y,-z
loop_
_atom_site_type_symbol
_atom_site_label
_atom_site_fract_x
_atom_site_fract_y
_atom_site_fract_z
Si Si1 0.784894 0.266033 0.050580
Si Si2 0.138267 0.148702 0.823532
Si Si3 0.112739 0.278262 0.096071
Si Si4 0.533269 0.320128 0.571452
Si Si5 0.324336 0.806361 0.581771
Si Si6 0.164711 0.081561 0.658765
O O1 0.895801 0.194278 0.959176
O O2 0.110093 0.226762 0.026489
O O3 0.653077 0.149174 0.220377
O O4 0.500000 0.500000 0.000000
O O5 0.513103 0.923222 0.854968
O O6 0.240550 0.293308 0.708233
O O7 0.988925 0.180670 0.748467
O O8 0.813952 0.274330 0.246371
O O9 0.000000 0.500000 0.000000
O O10 0.500000 0.500000 0.500000
O O11 0.507798 0.344695 0.454519
O O12 0.897243 0.139609 0.625117
O O13 0.586045 0.856404 0.488398
O O14 0.000000 0.000000 0.500000
#
# Coordination Sequence:
#
# PCOD9065128 Si02
#       6
#     2   2   2   2   2   2
#     4  12  27  45  76 112 145 200 249 306 379 441
#     4  11  25  50  71 109 154 191 249 308 372 438
#     4  12  26  47  75 110 149 200 243 307 370 443
#     4  11  26  43  74 107 146 201 241 306 372 440
#     4  11  24  47  72 105 147 192 247 299 371 438
#     4  11  24  48  76 105 148 196 247 309 367 444
#
# _framework density 25.543531000000002
#
# number of rings (size 3 to 8) (size 9 to 14) (size 15 to 20)
#    0.000    0.667    5.000    2.000    2.333    8.000 
#    0.000    0.000    0.000    0.000    0.000    0.000 
#    0.000    0.000    0.000    0.000    0.000    0.000 
#
# Total GULP energy -67098.424530 kJ/mol
# GULP energy per Si atom -5591.535377 kJ/mol
# Density = 2.548539 g / cm^3
# Si number density = 25.543531 Si / 1000 Ang^3
#
#
#
# Elastic Constant Matrix: (Units=GPa)
#
#
# Indices 1 2 3 4 5 6 
#
# 1 86.1875 12.3926 22.0086 9.5724 -13.2468 37.5338
# 2 12.3926 82.3619 83.1198 3.9743 -12.2284 20.6925
# 3 22.0086 83.1198 186.4282 -11.3722 -31.9554 12.7188
# 4 9.5724 3.9743 -11.3722 59.6070 4.8624 3.6192
# 5 -13.2468 -12.2284 -31.9554 4.8624 48.3802 -14.6959
# 6 37.5338 20.6925 12.7188 3.6192 -14.6959 43.4000
#
#
#
# Elastic Compliance Matrix: (Units=1/GPa)
#
#
# Indices 1 2 3 4 5 6 
#
# 1 0.020448 0.005983 -0.004159 -0.003194 -0.001228 -0.019468
# 2 0.005983 0.027968 -0.013085 -0.004009 -0.004334 -0.015808
# 3 -0.004159 -0.013085 0.012322 0.002935 0.005812 0.007948
# 4 -0.003194 -0.004009 0.002935 0.018098 -0.001191 0.001901
# 5 -0.001228 -0.004334 0.005812 -0.001191 0.026372 0.010455
# 6 -0.019468 -0.015808 0.007948 0.001901 0.010455 0.048468
#
#
# Mechanical properties :
#
#
# Convention : Reuss Voigt Hill
#
# Bulk Modulus (GPa) = 26.16626 65.55773 45.86199
# Shear Modulus (GPa) = 26.46382 46.10788 36.28585
#
# Velocity S-wave (km/s) = 3.22223 4.25322 3.77311
# Velocity P-wave (km/s) = 4.91017 7.05979 6.08072
#
# Compressibility (1/GPa) = 0.03821716
#
# Stress axis : x y z
#
# Youngs Moduli (GPa) = 48.90372 35.75477 81.15545
#
# Poissons Ratio (x) = -0.21393 0.33751
# Poissons Ratio (y) = -0.29260 1.06193
# Poissons Ratio (z) = 0.20338 0.46786
#
# Static dielectric constant tensor:
#      x y z
#    x 2.170640 -0.078450 0.111010 
#    y -0.078450 2.191360 -0.025120 
#    z 0.111010 -0.025120 2.048970 
# 
# From -- ./inp_files/557839.got.cif
#   From: 2010.05.17/outbox.cif.g08.bks.cpg/sg2_279_cif.got.tgz:557839.got - 2010.06.03 11:33:40.
