data_PCOD9065854
_publ_section_title
;
Structure prediction by ZEFSAII (Michael W. Deem and Ramdas Pophale) SiO2 
 PCOD9065854
Probable space group: P -1
;
_chemical_formula_sum "Si O2"
_cell_formula_units_Z 16
_cell_length_a 9.571527
_cell_length_b 9.819645
_cell_length_c 15.796360
_cell_angle_alpha 35.688551
_cell_angle_beta 116.486855
_cell_angle_gamma 104.588787
_cell_volume 757.709358
_symmetry_space_group_name_H-M "P -1"
_symmetry_group_IT_number 2
_symmetry_cell_setting 'triclinic'
loop_
_space_group_symop_operation_xyz
x,y,z
-x,-y,-z
loop_
_atom_site_type_symbol
_atom_site_label
_atom_site_fract_x
_atom_site_fract_y
_atom_site_fract_z
Si Si1 0.384246 0.257723 0.829799
Si Si2 0.115342 0.739415 0.158760
Si Si3 0.629592 0.125022 0.219916
Si Si4 0.998518 0.031617 0.583251
Si Si5 0.544836 0.557372 0.849045
Si Si6 0.954616 0.540395 0.369057
Si Si7 0.881128 0.579507 0.848258
Si Si8 0.524122 0.290911 0.680438
O O1 0.438239 0.428197 0.826422
O O2 0.200069 0.247895 0.791004
O O3 0.406360 0.363157 0.690636
O O4 0.500000 0.000000 0.000000
O O5 0.091827 0.600002 0.135390
O O6 0.298449 0.758636 0.208534
O O7 0.079653 0.593826 0.306407
O O8 0.000000 0.000000 0.000000
O O9 0.814778 0.998854 0.326769
O O10 0.565641 0.216994 0.248694
O O11 0.520296 0.947622 0.248256
O O12 0.610771 0.360112 0.038240
O O13 0.919834 0.829039 0.704007
O O14 0.000000 0.000000 0.500000
O O15 0.909938 0.293898 0.453094
O O16 0.698758 0.606294 0.816653
O O17 0.000000 0.500000 0.500000
O O18 0.000000 0.500000 0.000000
O O19 0.500000 0.500000 0.500000
#
# Coordination Sequence:
#
# PCOD9065854 Si02
#       8
#     2   2   2   2   2   2   2   2
#     4  12  24  46  73 102 141 191 243 290 351 441
#     4  12  28  46  73 108 145 189 248 301 357 433
#     4  11  25  44  73 103 142 190 239 298 360 426
#     4  12  25  48  72 103 153 191 238 301 370 438
#     4  11  25  43  71 107 136 187 249 295 355 420
#     4  12  28  46  74 109 145 195 237 294 377 433
#     4  12  27  46  73 107 147 192 248 305 361 432
#     4  12  26  46  70 103 149 184 231 295 366 428
#
# _framework density 21.116275999999999
#
# number of rings (size 3 to 8) (size 9 to 14) (size 15 to 20)
#    0.000    0.250    5.000    3.750    3.500    1.000 
#    0.000    1.875    0.000    0.000    0.000    0.000 
#    0.000    0.000    0.000    0.000    0.000    0.000 
#
# Total GULP energy -89498.951873 kJ/mol
# GULP energy per Si atom -5593.684492 kJ/mol
# Density = 2.106821 g / cm^3
# Si number density = 21.116276 Si / 1000 Ang^3
#
#
#
# Elastic Constant Matrix: (Units=GPa)
#
#
# Indices 1 2 3 4 5 6 
#
# 1 116.1765 31.4511 21.1116 0.4158 -8.9504 2.9375
# 2 31.4511 122.6924 14.4519 8.2013 -0.3646 -3.1824
# 3 21.1116 14.4519 77.5704 -3.0095 -12.2375 0.5779
# 4 0.4158 8.2013 -3.0095 33.1638 -3.7552 -4.5165
# 5 -8.9504 -0.3646 -12.2375 -3.7552 46.6312 4.6291
# 6 2.9375 -3.1824 0.5779 -4.5165 4.6291 39.2158
#
#
#
# Elastic Compliance Matrix: (Units=1/GPa)
#
#
# Indices 1 2 3 4 5 6 
#
# 1 0.009726 -0.002303 -0.001969 0.000294 0.001458 -0.001025
# 2 -0.002303 0.009069 -0.001314 -0.002339 -0.000981 0.000774
# 3 -0.001969 -0.001314 0.014315 0.002003 0.003566 -0.000360
# 4 0.000294 -0.002339 0.002003 0.031646 0.002807 0.003072
# 5 0.001458 -0.000981 0.003566 0.002807 0.023142 -0.002650
# 6 -0.001025 0.000774 -0.000360 0.003072 -0.002650 0.026311
#
#
# Mechanical properties :
#
#
# Convention : Reuss Voigt Hill
#
# Bulk Modulus (GPa) = 45.58337 50.05206 47.81772
# Shear Modulus (GPa) = 37.68047 40.43048 39.05547
#
# Velocity S-wave (km/s) = 4.22883 4.38043 4.30530
# Velocity P-wave (km/s) = 6.74372 7.02415 6.88536
#
# Compressibility (1/GPa) = 0.02193783
#
# Stress axis : x y z
#
# Youngs Moduli (GPa) = 102.81667 110.26377 69.85611
#
# Poissons Ratio (x) = 0.25396 0.13754
# Poissons Ratio (y) = 0.23681 0.09180
# Poissons Ratio (z) = 0.20244 0.14490
#
# Static dielectric constant tensor:
#      x y z
#    x 1.805120 -0.035260 0.013970 
#    y -0.035260 1.700140 0.025020 
#    z 0.013970 0.025020 1.768160 
# 
# From -- ./inp_files/205012.got.cif
#   From: 2010.05.17/outbox.cif.g08.bks.cpg/sg2_103_cif.got.tgz:205012.got - 2010.06.03 11:33:40.
