data_PCOD9065053
_publ_section_title
;
Structure prediction by ZEFSAII (Michael W. Deem and Ramdas Pophale) SiO2 
 PCOD9065053
Probable space group: P -1
;
_chemical_formula_sum "Si O2"
_cell_formula_units_Z 16
_cell_length_a 9.108365
_cell_length_b 11.369951
_cell_length_c 9.558275
_cell_angle_alpha 108.036109
_cell_angle_beta 78.859642
_cell_angle_gamma 126.807324
_cell_volume 753.561760
_symmetry_space_group_name_H-M "P -1"
_symmetry_group_IT_number 2
_symmetry_cell_setting 'triclinic'
loop_
_space_group_symop_operation_xyz
x,y,z
-x,-y,-z
loop_
_atom_site_type_symbol
_atom_site_label
_atom_site_fract_x
_atom_site_fract_y
_atom_site_fract_z
Si Si1 0.063845 0.138163 0.140049
Si Si2 0.482042 0.094272 0.653053
Si Si3 0.229492 0.369372 0.622086
Si Si4 0.594936 0.704127 0.694717
Si Si5 0.132505 0.076474 0.639075
Si Si6 0.555287 0.104790 0.165511
Si Si7 0.063617 0.681183 0.932196
Si Si8 0.112711 0.657360 0.229998
O O1 0.279263 0.249098 0.174244
O O2 0.001334 0.232920 0.112179
O O3 0.971265 0.050699 0.269743
O O4 0.000000 0.000000 0.000000
O O5 0.337133 0.119524 0.625047
O O6 0.684288 0.238411 0.707061
O O7 0.500000 0.000000 0.500000
O O8 0.411186 0.985794 0.760945
O O9 0.400069 0.541323 0.685029
O O10 0.299142 0.318489 0.458882
O O11 0.174642 0.242473 0.703200
O O12 0.042160 0.360550 0.643796
O O13 0.571640 0.842916 0.735399
O O14 0.000000 0.000000 0.500000
O O15 0.740814 0.261486 0.146278
O O16 0.500000 0.000000 0.000000
O O17 0.929968 0.503569 0.863356
O O18 0.096701 0.718851 0.105089
#
# Coordination Sequence:
#
# PCOD9065053 Si02
#       8
#     2   2   2   2   2   2   2   2
#     4  12  26  45  71 106 141 191 243 296 360 432
#     4  12  27  42  73 108 139 192 242 294 365 436
#     4  11  24  47  70 102 149 193 237 299 367 434
#     4  11  26  44  73 104 144 197 240 300 370 429
#     4  12  25  46  69 104 146 188 238 296 360 433
#     4  12  23  48  74 106 147 186 250 298 363 433
#     4  11  24  47  72 107 145 192 245 298 365 431
#     4  11  25  47  74 104 150 191 238 308 363 431
#
# _framework density 21.232499000000001
#
# number of rings (size 3 to 8) (size 9 to 14) (size 15 to 20)
#    0.000    0.500    5.000    3.000    3.500    0.000 
#    0.000    2.500    0.000    0.000    0.000    0.000 
#    0.000    0.000    0.000    0.000    0.000    0.000 
#
# Total GULP energy -89258.514320 kJ/mol
# GULP energy per Si atom -5578.657145 kJ/mol
# Density = 2.118417 g / cm^3
# Si number density = 21.232499 Si / 1000 Ang^3
#
#
#
# Elastic Constant Matrix: (Units=GPa)
#
#
# Indices 1 2 3 4 5 6 
#
# 1 149.2641 48.6960 65.0541 15.4905 10.1660 1.8506
# 2 48.6960 109.8641 37.9697 15.5663 15.9188 15.3490
# 3 65.0541 37.9697 107.2413 10.2726 22.4487 4.8702
# 4 15.4905 15.5663 10.2726 39.3551 1.3427 7.5202
# 5 10.1660 15.9188 22.4487 1.3427 31.1498 1.9411
# 6 1.8506 15.3490 4.8702 7.5202 1.9411 47.2406
#
#
#
# Elastic Compliance Matrix: (Units=1/GPa)
#
#
# Indices 1 2 3 4 5 6 
#
# 1 0.009982 -0.002790 -0.005388 -0.001730 0.002047 0.001262
# 2 -0.002790 0.012214 -0.001397 -0.002633 -0.004016 -0.003131
# 3 -0.005388 -0.001397 0.014906 -0.000862 -0.008209 -0.000397
# 4 -0.001730 -0.002633 -0.000862 0.027974 0.001544 -0.003505
# 5 0.002047 -0.004016 -0.008209 0.001544 0.039323 0.000209
# 6 0.001262 -0.003131 -0.000397 -0.003505 0.000209 0.022726
#
#
# Mechanical properties :
#
#
# Convention : Reuss Voigt Hill
#
# Bulk Modulus (GPa) = 55.69948 74.42323 65.06135
# Shear Modulus (GPa) = 32.83843 37.85908 35.34876
#
# Velocity S-wave (km/s) = 3.93697 4.22723 4.08467
# Velocity P-wave (km/s) = 6.85247 7.67812 7.27702
#
# Compressibility (1/GPa) = 0.01795349
#
# Stress axis : x y z
#
# Youngs Moduli (GPa) = 100.17565 81.87288 67.08542
#
# Poissons Ratio (x) = 0.22846 0.36143
# Poissons Ratio (y) = 0.27953 0.09370
# Poissons Ratio (z) = 0.53970 0.11436
#
# Static dielectric constant tensor:
#      x y z
#    x 1.817600 0.013240 -0.082810 
#    y 0.013240 1.765740 0.023980 
#    z -0.082810 0.023980 1.520830 
# 
# From -- ./inp_files/188563.got.cif
#   From: 2010.05.17/outbox.cif.g08.bks.cpg/sg2_95_cif.got.tgz:188563.got - 2010.06.03 11:33:40.
