data_PCOD9065670
_publ_section_title
;
Structure prediction by ZEFSAII (Michael W. Deem and Ramdas Pophale) SiO2 
 PCOD9065670
Probable space group: P -1
;
_chemical_formula_sum "Si O2"
_cell_formula_units_Z 13
_cell_length_a 8.467284
_cell_length_b 10.849236
_cell_length_c 9.766778
_cell_angle_alpha 131.841397
_cell_angle_beta 86.514538
_cell_angle_gamma 121.060547
_cell_volume 513.037215
_symmetry_space_group_name_H-M "P -1"
_symmetry_group_IT_number 2
_symmetry_cell_setting 'triclinic'
loop_
_space_group_symop_operation_xyz
x,y,z
-x,-y,-z
loop_
_atom_site_type_symbol
_atom_site_label
_atom_site_fract_x
_atom_site_fract_y
_atom_site_fract_z
Si Si1 0.807270 0.104200 0.086860
Si Si2 0.601262 0.319890 0.316210
Si Si3 0.500000 0.500000 0.000000
Si Si4 0.188291 0.780373 0.329951
Si Si5 0.049648 0.198010 0.410886
Si Si6 0.486790 0.739282 0.408387
Si Si7 0.040477 0.222714 0.885250
O O1 0.720229 0.223291 0.229458
O O2 0.958581 0.134393 0.215350
O O3 0.931223 0.211058 0.019512
O O4 0.613391 0.855995 0.880457
O O5 0.745738 0.555175 0.417425
O O6 0.564412 0.338434 0.490882
O O7 0.581608 0.665975 0.249899
O O8 0.722826 0.667913 0.035571
O O9 0.282680 0.669683 0.287294
O O10 0.119672 0.825667 0.504726
O O11 0.996286 0.674343 0.160356
O O12 0.369961 0.001038 0.407097
O O13 0.074606 0.027194 0.329727
#
# Coordination Sequence:
#
# PCOD9065670 Si02
#       7
#     2   2   1   2   2   2   2
#     4  11  25  48  77 114 154 203 258 312 386 468
#     4  11  25  47  82 113 152 203 262 310 393 462
#     4  12  28  44  76 114 152 196 264 314 384 458
#     4  11  25  48  77 103 154 208 250 318 388 449
#     4  12  25  46  73 113 156 202 255 321 377 458
#     4  11  24  50  75 113 151 200 256 323 382 462
#     4  12  27  49  71 115 157 200 258 320 383 457
#
# _framework density 25.339292
#
# number of rings (size 3 to 8) (size 9 to 14) (size 15 to 20)
#    0.000    0.615    4.615    2.308    2.154    2.462 
#    0.000    0.000    0.000    0.000    0.000    0.000 
#    0.000    0.000    0.000    0.000    0.000    0.000 
#
# Total GULP energy -72650.256850 kJ/mol
# GULP energy per Si atom -5588.481296 kJ/mol
# Density = 2.528162 g / cm^3
# Si number density = 25.339292 Si / 1000 Ang^3
#
#
#
# Elastic Constant Matrix: (Units=GPa)
#
#
# Indices 1 2 3 4 5 6 
#
# 1 74.3257 31.0768 30.2354 -5.7118 -1.6687 -2.3877
# 2 31.0768 90.6675 21.7007 16.3637 -10.5240 17.9740
# 3 30.2354 21.7007 100.8459 -5.6357 -4.1368 -3.9166
# 4 -5.7118 16.3637 -5.6357 62.4155 15.3773 -1.3339
# 5 -1.6687 -10.5240 -4.1368 15.3773 47.5294 -5.1759
# 6 -2.3877 17.9740 -3.9166 -1.3339 -5.1759 42.4317
#
#
#
# Elastic Compliance Matrix: (Units=1/GPa)
#
#
# Indices 1 2 3 4 5 6 
#
# 1 0.018230 -0.006970 -0.003705 0.003742 -0.002055 0.003503
# 2 -0.006970 0.017139 -0.002067 -0.006636 0.004703 -0.007478
# 3 -0.003705 -0.002067 0.011620 0.001236 0.000220 0.001805
# 4 0.003742 -0.006636 0.001236 0.020106 -0.007424 0.002862
# 5 -0.002055 0.004703 0.000220 -0.007424 0.024503 0.000668
# 6 0.003503 -0.007478 0.001805 0.002862 0.000668 0.027270
#
#
# Mechanical properties :
#
#
# Convention : Reuss Voigt Hill
#
# Bulk Modulus (GPa) = 46.49985 47.98498 47.24241
# Shear Modulus (GPa) = 32.99919 42.66371 37.83145
#
# Velocity S-wave (km/s) = 3.61265 4.10774 3.86812
# Velocity P-wave (km/s) = 5.98267 6.44020 6.21564
#
# Compressibility (1/GPa) = 0.02150545
#
# Stress axis : x y z
#
# Youngs Moduli (GPa) = 54.85556 58.34616 86.05951
#
# Poissons Ratio (x) = 0.40667 0.31884
# Poissons Ratio (y) = 0.38235 0.17786
# Poissons Ratio (z) = 0.20323 0.12059
#
# Static dielectric constant tensor:
#      x y z
#    x 2.043980 -0.019250 0.069660 
#    y -0.019250 1.911350 0.104080 
#    z 0.069660 0.104080 2.103290 
# 
# From -- ./inp_files/150584.got.cif
#   From: 2010.05.17/outbox.cif.g08.bks.cpg/sg2_76_cif.got.tgz:150584.got - 2010.06.03 11:33:40.
