data_PCOD9065037
_publ_section_title
;
Structure prediction by ZEFSAII (Michael W. Deem and Ramdas Pophale) SiO2 
 PCOD9065037
Probable space group: P -1
;
_chemical_formula_sum "Si O2"
_cell_formula_units_Z 14
_cell_length_a 8.430002
_cell_length_b 5.318851
_cell_length_c 13.058532
_cell_angle_alpha 105.716578
_cell_angle_beta 88.858763
_cell_angle_gamma 87.142282
_cell_volume 562.585811
_symmetry_space_group_name_H-M "P -1"
_symmetry_group_IT_number 2
_symmetry_cell_setting 'triclinic'
loop_
_space_group_symop_operation_xyz
x,y,z
-x,-y,-z
loop_
_atom_site_type_symbol
_atom_site_label
_atom_site_fract_x
_atom_site_fract_y
_atom_site_fract_z
Si Si1 0.145151 0.571717 0.932387
Si Si2 0.530933 0.014730 0.291076
Si Si3 0.422219 0.586652 0.402251
Si Si4 0.942123 0.381527 0.592864
Si Si5 0.868281 0.867474 0.278793
Si Si6 0.075312 0.171360 0.185348
Si Si7 0.617637 0.102681 0.926448
O O1 0.186071 0.360205 0.820465
O O2 0.068373 0.809271 0.891516
O O3 0.294066 0.649966 0.004610
O O4 0.000000 0.500000 0.000000
O O5 0.504092 0.817193 0.364673
O O6 0.717705 0.071639 0.296251
O O7 0.472323 0.863074 0.175659
O O8 0.436355 0.297857 0.318437
O O9 0.500000 0.500000 0.500000
O O10 0.238933 0.688244 0.425861
O O11 0.933197 0.584273 0.711384
O O12 0.000000 0.500000 0.500000
O O13 0.081816 0.182496 0.610595
O O14 0.034722 0.937946 0.234582
O O15 0.237550 0.112169 0.118797
O O16 0.500000 0.000000 0.000000
#
# Coordination Sequence:
#
# PCOD9065037 Si02
#       7
#     2   2   2   2   2   2   2
#     4  11  25  42  71 101 142 200 253 305 376 448
#     4  12  29  49  77 115 157 198 255 323 384 460
#     4  12  28  53  78 112 156 196 254 326 394 452
#     4  11  26  47  78 107 146 200 249 313 386 464
#     4  11  26  46  74 106 149 199 257 308 376 470
#     4  11  24  47  69 105 149 191 258 308 374 463
#     4  12  26  45  73 109 155 205 252 319 386 453
#
# _framework density 24.885092
#
# number of rings (size 3 to 8) (size 9 to 14) (size 15 to 20)
#    0.000    0.571    2.857    3.429   12.000    1.143 
#    0.000    0.000    0.000    0.000    0.000    0.000 
#    0.000    0.000    0.000    0.000    0.000    0.000 
#
# Total GULP energy -78303.492324 kJ/mol
# GULP energy per Si atom -5593.106595 kJ/mol
# Density = 2.482845 g / cm^3
# Si number density = 24.885092 Si / 1000 Ang^3
#
#
#
# Elastic Constant Matrix: (Units=GPa)
#
#
# Indices 1 2 3 4 5 6 
#
# 1 146.0777 16.2641 36.2046 -5.1472 -1.3604 -1.1526
# 2 16.2641 69.7180 19.1999 -8.1487 -13.1292 -0.2871
# 3 36.2046 19.1999 95.6873 -10.5983 7.2021 3.4624
# 4 -5.1472 -8.1487 -10.5983 38.9108 6.5308 -5.0815
# 5 -1.3604 -13.1292 7.2021 6.5308 47.1143 -5.8698
# 6 -1.1526 -0.2871 3.4624 -5.0815 -5.8698 42.3655
#
#
#
# Elastic Compliance Matrix: (Units=1/GPa)
#
#
# Indices 1 2 3 4 5 6 
#
# 1 0.007641 -0.000935 -0.002747 0.000058 0.000433 0.000493
# 2 -0.000935 0.016599 -0.003198 0.001807 0.004994 0.001257
# 3 -0.002747 -0.003198 0.012756 0.002858 -0.003476 -0.001278
# 4 0.000058 0.001807 0.002858 0.027788 -0.003455 0.002635
# 5 0.000433 0.004994 -0.003476 -0.003455 0.024044 0.003247
# 6 0.000493 0.001257 -0.001278 0.002635 0.003247 0.024496
#
#
# Mechanical properties :
#
#
# Convention : Reuss Voigt Hill
#
# Bulk Modulus (GPa) = 43.03862 50.53558 46.78710
# Shear Modulus (GPa) = 37.08354 41.66576 39.37465
#
# Velocity S-wave (km/s) = 3.86449 4.09629 3.98208
# Velocity P-wave (km/s) = 6.10285 6.53640 6.32334
#
# Compressibility (1/GPa) = 0.02323495
#
# Stress axis : x y z
#
# Youngs Moduli (GPa) = 130.87816 60.24388 78.39315
#
# Poissons Ratio (x) = 0.05635 0.21537
# Poissons Ratio (y) = 0.12243 0.25069
# Poissons Ratio (z) = 0.35956 0.19265
#
# Static dielectric constant tensor:
#      x y z
#    x 1.377300 0.341490 0.028730 
#    y 0.341490 1.856570 0.030040 
#    z 0.028730 0.030040 1.991380 
# 
# From -- ./inp_files/28328.got.cif
#   From: 2010.05.17/outbox.cif.g08.bks.cpg/sg2_15_cif.got.tgz:28328.got - 2010.06.03 11:33:40.
