data_PCOD9065768
_publ_section_title
;
Structure prediction by ZEFSAII (Michael W. Deem and Ramdas Pophale) SiO2 
 PCOD9065768
Probable space group: P -1
;
_chemical_formula_sum "Si O2"
_cell_formula_units_Z 10
_cell_length_a 15.020803
_cell_length_b 12.322700
_cell_length_c 9.147111
_cell_angle_alpha 59.800408
_cell_angle_beta 138.754682
_cell_angle_gamma 150.981573
_cell_volume 474.108007
_symmetry_space_group_name_H-M "P -1"
_symmetry_group_IT_number 2
_symmetry_cell_setting 'triclinic'
loop_
_space_group_symop_operation_xyz
x,y,z
-x,-y,-z
loop_
_atom_site_type_symbol
_atom_site_label
_atom_site_fract_x
_atom_site_fract_y
_atom_site_fract_z
Si Si1 0.735085 0.799399 0.910518
Si Si2 0.175352 0.594226 0.791670
Si Si3 0.179500 0.247699 0.632740
Si Si4 0.207716 0.854780 0.868557
Si Si5 0.250467 0.896547 0.231202
O O1 0.462229 0.505613 0.722442
O O2 0.667442 0.892200 0.786376
O O3 0.784940 0.775742 0.144980
O O4 0.000000 0.000000 0.000000
O O5 0.198954 0.715359 0.869351
O O6 0.000000 0.500000 0.500000
O O7 0.002968 0.339522 0.814921
O O8 0.492382 0.835845 0.975401
O O9 0.008056 0.236269 0.422982
O O10 0.000000 0.000000 0.500000
O O11 0.150222 0.797074 0.008453
O O12 0.500000 0.000000 0.500000
#
# Coordination Sequence:
#
# PCOD9065768 Si02
#       5
#     2   2   2   2   2
#     4  11  28  44  71 104 139 185 231 289 342 413
#     4  11  25  42  70 101 139 177 231 288 344 413
#     4  11  25  47  70  96 141 182 230 283 349 411
#     4  11  25  44  68 102 134 187 228 283 349 413
#     4  12  24  44  71  99 140 180 232 287 344 405
#
# _framework density 21.09224
#
# number of rings (size 3 to 8) (size 9 to 14) (size 15 to 20)
#    0.000    0.800    4.000    1.800    5.600    2.400 
#    0.000    0.000    0.000    0.000    0.000    0.000 
#    0.000    0.000    0.000    0.000    0.000    0.000 
#
# Total GULP energy -55886.843575 kJ/mol
# GULP energy per Si atom -5588.684358 kJ/mol
# Density = 2.104423 g / cm^3
# Si number density = 21.092240 Si / 1000 Ang^3
#
#
#
# Elastic Constant Matrix: (Units=GPa)
#
#
# Indices 1 2 3 4 5 6 
#
# 1 59.9297 33.8186 14.6641 -0.9776 -2.7518 9.6666
# 2 33.8186 142.9894 64.9269 10.1093 -4.4032 29.0849
# 3 14.6641 64.9269 79.5311 2.1641 13.1023 3.1029
# 4 -0.9776 10.1093 2.1641 47.5745 -1.8693 4.1452
# 5 -2.7518 -4.4032 13.1023 -1.8693 35.0397 2.7825
# 6 9.6666 29.0849 3.1029 4.1452 2.7825 36.6592
#
#
#
# Elastic Compliance Matrix: (Units=1/GPa)
#
#
# Indices 1 2 3 4 5 6 
#
# 1 0.019517 -0.003967 -0.000562 0.001524 0.001503 -0.002238
# 2 -0.003967 0.016999 -0.013940 -0.001734 0.007871 -0.011662
# 3 -0.000562 -0.013940 0.025661 0.000442 -0.012155 0.009909
# 4 0.001524 -0.001734 0.000442 0.021577 0.001013 -0.001580
# 5 0.001503 0.007871 -0.012155 0.001013 0.034910 -0.008376
# 6 -0.002238 -0.011662 0.009909 -0.001580 -0.008376 0.037096
#
#
# Mechanical properties :
#
#
# Convention : Reuss Voigt Hill
#
# Bulk Modulus (GPa) = 39.62114 56.58547 48.10330
# Shear Modulus (GPa) = 24.86173 35.12407 29.99290
#
# Velocity S-wave (km/s) = 3.43697 4.08519 3.77502
# Velocity P-wave (km/s) = 5.88012 7.00982 6.46967
#
# Compressibility (1/GPa) = 0.02523905
#
# Stress axis : x y z
#
# Youngs Moduli (GPa) = 51.23680 58.82800 38.96893
#
# Poissons Ratio (x) = 0.23339 0.02189
# Poissons Ratio (y) = 0.20327 0.54324
# Poissons Ratio (z) = 0.02878 0.82008
#
# Static dielectric constant tensor:
#      x y z
#    x 1.771600 -0.025400 0.029720 
#    y -0.025400 1.775130 0.020920 
#    z 0.029720 0.020920 1.743220 
# 
# From -- ./inp_files/3012.got.cif
#   From: 2010.05.17/outbox.cif.g08.bks.cpg/sg2_2_cif.got.tgz:3012.got - 2010.06.03 11:33:40.
