data_PCOD9065643
_publ_section_title
;
Structure prediction by ZEFSAII (Michael W. Deem and Ramdas Pophale) SiO2 
 PCOD9065643
Probable space group: P -1
;
_chemical_formula_sum "Si O2"
_cell_formula_units_Z 16
_cell_length_a 9.374854
_cell_length_b 14.836953
_cell_length_c 9.448673
_cell_angle_alpha 113.553709
_cell_angle_beta 69.292287
_cell_angle_gamma 139.727654
_cell_volume 776.147649
_symmetry_space_group_name_H-M "P -1"
_symmetry_group_IT_number 2
_symmetry_cell_setting 'triclinic'
loop_
_space_group_symop_operation_xyz
x,y,z
-x,-y,-z
loop_
_atom_site_type_symbol
_atom_site_label
_atom_site_fract_x
_atom_site_fract_y
_atom_site_fract_z
Si Si1 0.981384 0.891563 0.846557
Si Si2 0.758106 0.148882 0.142627
Si Si3 0.481239 0.409976 0.075540
Si Si4 0.903950 0.530090 0.663167
Si Si5 0.041865 0.124234 0.497430
Si Si6 0.743696 0.121182 0.803458
Si Si7 0.209380 0.625629 0.105061
Si Si8 0.474616 0.430985 0.610886
O O1 0.768439 0.730566 0.876559
O O2 0.973824 0.891373 0.677938
O O3 0.191599 0.925518 0.835120
O O4 0.000000 0.000000 0.000000
O O5 0.910061 0.306233 0.248891
O O6 0.496632 0.042535 0.191228
O O7 0.828519 0.162918 0.963283
O O8 0.612686 0.527157 0.225726
O O9 0.500000 0.500000 0.000000
O O10 0.588961 0.353649 0.986652
O O11 0.843011 0.433995 0.756548
O O12 0.694554 0.488504 0.640647
O O13 0.000000 0.500000 0.500000
O O14 0.291805 0.265650 0.541645
O O15 0.884200 0.128952 0.639271
O O16 0.000000 0.000000 0.500000
O O17 0.735002 0.233142 0.837756
O O18 0.000000 0.500000 0.000000
O O19 0.500000 0.500000 0.500000
#
# Coordination Sequence:
#
# PCOD9065643 Si02
#       8
#     2   2   2   2   2   2   2   2
#     4  12  26  47  72 104 144 189 241 298 366 436
#     4  11  24  50  69 104 145 193 238 297 368 430
#     4  12  25  46  75 106 143 190 244 299 360 434
#     4  12  28  45  72 106 148 190 240 302 362 433
#     4  12  29  47  74 108 142 194 246 303 365 434
#     4  11  27  46  75 104 147 189 242 302 363 440
#     4  12  25  44  72 109 141 189 241 296 364 432
#     4  12  26  48  74 107 144 191 245 305 362 430
#
# _framework density 20.614635
#
# number of rings (size 3 to 8) (size 9 to 14) (size 15 to 20)
#    0.000    0.250    5.000    2.250   10.500    2.500 
#    0.000    0.000    0.000    0.000    0.000    0.000 
#    0.000    0.000    0.000    0.000    0.000    0.000 
#
# Total GULP energy -89330.721774 kJ/mol
# GULP energy per Si atom -5583.170111 kJ/mol
# Density = 2.056771 g / cm^3
# Si number density = 20.614635 Si / 1000 Ang^3
#
#
#
# Elastic Constant Matrix: (Units=GPa)
#
#
# Indices 1 2 3 4 5 6 
#
# 1 104.1993 49.5817 69.7652 0.5296 5.9370 -14.6629
# 2 49.5817 139.8637 68.8710 10.2481 12.5153 -17.5357
# 3 69.7652 68.8710 179.9067 10.4529 8.5515 -6.1680
# 4 0.5296 10.2481 10.4529 34.6701 -5.5512 -2.1061
# 5 5.9370 12.5153 8.5515 -5.5512 41.1053 -0.7003
# 6 -14.6629 -17.5357 -6.1680 -2.1061 -0.7003 38.8346
#
#
#
# Elastic Compliance Matrix: (Units=1/GPa)
#
#
# Indices 1 2 3 4 5 6 
#
# 1 0.014395 -0.002527 -0.004613 0.002142 0.000002 0.003677
# 2 -0.002527 0.010053 -0.002510 -0.002384 -0.002444 0.003013
# 3 -0.004613 -0.002510 0.008391 -0.001914 -0.000602 -0.001657
# 4 0.002142 -0.002384 -0.001914 0.030969 0.005018 0.001198
# 5 0.000002 -0.002444 -0.000602 0.005018 0.025867 -0.000460
# 6 0.003677 0.003013 -0.001657 0.001198 -0.000460 0.028293
#
#
# Mechanical properties :
#
#
# Convention : Reuss Voigt Hill
#
# Bulk Modulus (GPa) = 73.86863 88.93395 81.40129
# Shear Modulus (GPa) = 35.26559 38.63878 36.95218
#
# Velocity S-wave (km/s) = 4.14056 4.33406 4.23841
# Velocity P-wave (km/s) = 7.66615 8.26319 7.97026
#
# Compressibility (1/GPa) = 0.01353755
#
# Stress axis : x y z
#
# Youngs Moduli (GPa) = 69.47024 99.47129 119.17107
#
# Poissons Ratio (x) = 0.25141 0.54973
# Poissons Ratio (y) = 0.17559 0.29916
# Poissons Ratio (z) = 0.32046 0.24971
#
# Static dielectric constant tensor:
#      x y z
#    x 1.721930 0.030610 0.005270 
#    y 0.030610 1.735880 0.022560 
#    z 0.005270 0.022560 1.700510 
# 
# From -- ./inp_files/208247.got.cif
#   From: 2010.05.17/outbox.cif.g08.bks.cpg/sg2_105_cif.got.tgz:208247.got - 2010.06.03 11:33:40.
