data_PCOD9065094
_publ_section_title
;
Structure prediction by ZEFSAII (Michael W. Deem and Ramdas Pophale) SiO2 
 PCOD9065094
Probable space group: P -1
;
_chemical_formula_sum "Si O2"
_cell_formula_units_Z 13
_cell_length_a 13.542876
_cell_length_b 10.539449
_cell_length_c 11.627793
_cell_angle_alpha 145.462202
_cell_angle_beta 145.491105
_cell_angle_gamma 34.560746
_cell_volume 475.907026
_symmetry_space_group_name_H-M "P -1"
_symmetry_group_IT_number 2
_symmetry_cell_setting 'triclinic'
loop_
_space_group_symop_operation_xyz
x,y,z
-x,-y,-z
loop_
_atom_site_type_symbol
_atom_site_label
_atom_site_fract_x
_atom_site_fract_y
_atom_site_fract_z
Si Si1 0.001088 0.765230 0.258921
Si Si2 0.818323 0.999787 0.022579
Si Si3 0.480974 0.511985 0.171612
Si Si4 0.390009 0.290800 0.349399
Si Si5 0.911273 0.791483 0.608355
Si Si6 0.729136 0.799947 0.214354
Si Si7 0.500000 0.000000 0.500000
O O1 0.944326 0.823217 0.115470
O O2 0.826078 0.740505 0.139285
O O3 0.209230 0.528497 0.301053
O O4 0.000000 0.000000 0.500000
O O5 0.669810 0.255693 0.131153
O O6 0.694783 0.853481 0.749119
O O7 0.955793 0.072561 0.131690
O O8 0.497761 0.597267 0.381087
O O9 0.489225 0.724585 0.258966
O O10 0.311812 0.425766 0.947121
O O11 0.535121 0.067364 0.239940
O O12 0.881828 0.819521 0.463689
O O13 0.000000 0.500000 0.500000
O O14 0.699778 0.912786 0.550982
#
# Coordination Sequence:
#
# PCOD9065094 Si02
#       7
#     2   2   2   2   2   2   1
#     4  12  24  47  73 107 145 185 240 288 351 434
#     4  11  25  49  71 106 147 185 238 293 352 422
#     4  11  24  47  71 107 145 184 244 284 352 432
#     4  11  25  46  72 104 146 187 228 292 357 415
#     4  12  25  47  74 104 140 185 239 298 352 415
#     4  11  27  46  75 106 145 185 233 297 353 423
#     4  12  26  44  74 104 138 190 240 286 358 418
#
# _framework density 27.31626
#
# number of rings (size 3 to 8) (size 9 to 14) (size 15 to 20)
#    0.000    0.615    6.154    0.462    2.154    4.923 
#    5.538    1.538    0.000    0.000    0.000    0.000 
#    0.000    0.000    0.000    0.000    0.000    0.000 
#
# Total GULP energy -72738.307253 kJ/mol
# GULP energy per Si atom -5595.254404 kJ/mol
# Density = 2.725409 g / cm^3
# Si number density = 27.316260 Si / 1000 Ang^3
#
#
#
# Elastic Constant Matrix: (Units=GPa)
#
#
# Indices 1 2 3 4 5 6 
#
# 1 106.0968 20.4445 15.9945 0.0930 16.5216 -13.3472
# 2 20.4445 157.6565 13.2587 27.2838 -6.4908 0.0542
# 3 15.9945 13.2587 141.3699 17.2332 21.1141 -20.6201
# 4 0.0930 27.2838 17.2332 39.1643 -5.8848 3.7297
# 5 16.5216 -6.4908 21.1141 -5.8848 54.4024 3.3913
# 6 -13.3472 0.0542 -20.6201 3.7297 3.3913 24.3305
#
#
#
# Elastic Compliance Matrix: (Units=1/GPa)
#
#
# Indices 1 2 3 4 5 6 
#
# 1 0.011256 -0.001600 0.000698 -0.000594 -0.004411 0.007476
# 2 -0.001600 0.007458 -0.000093 -0.004985 0.000893 -0.000333
# 3 0.000698 -0.000093 0.010150 -0.006251 -0.005506 0.010711
# 4 -0.000594 -0.004985 -0.006251 0.033833 0.006400 -0.011691
# 5 -0.004411 0.000893 -0.005506 0.006400 0.023363 -0.011326
# 6 0.007476 -0.000333 0.010711 -0.011691 -0.011326 0.057651
#
#
# Mechanical properties :
#
#
# Convention : Reuss Voigt Hill
#
# Bulk Modulus (GPa) = 37.20910 56.05763 46.63337
# Shear Modulus (GPa) = 32.32944 47.27448 39.80196
#
# Velocity S-wave (km/s) = 3.44397 4.16460 3.82131
# Velocity P-wave (km/s) = 5.42824 6.60995 6.04803
#
# Compressibility (1/GPa) = 0.02687514
#
# Stress axis : x y z
#
# Youngs Moduli (GPa) = 88.83986 134.08938 98.52232
#
# Poissons Ratio (x) = 0.21451 -0.06878
# Poissons Ratio (y) = 0.14212 0.00914
# Poissons Ratio (z) = -0.06202 0.01244
#
# Static dielectric constant tensor:
#      x y z
#    x 2.109150 0.047940 0.017980 
#    y 0.047940 1.991620 0.012790 
#    z 0.017980 0.012790 2.124740 
# 
# From -- ./inp_files/521846.got.cif
#   From: 2010.05.17/outbox.cif.g08.bks.cpg/sg2_261_cif.got.tgz:521846.got - 2010.06.03 11:33:40.
