data_PCOD9065100
_publ_section_title
;
Structure prediction by ZEFSAII (Michael W. Deem and Ramdas Pophale) SiO2 
 PCOD9065100
Probable space group: P -1
;
_chemical_formula_sum "Si O2"
_cell_formula_units_Z 12
_cell_length_a 8.228388
_cell_length_b 12.362763
_cell_length_c 5.365825
_cell_angle_alpha 54.886168
_cell_angle_beta 79.711476
_cell_angle_gamma 90.299904
_cell_volume 435.354325
_symmetry_space_group_name_H-M "P -1"
_symmetry_group_IT_number 2
_symmetry_cell_setting 'triclinic'
loop_
_space_group_symop_operation_xyz
x,y,z
-x,-y,-z
loop_
_atom_site_type_symbol
_atom_site_label
_atom_site_fract_x
_atom_site_fract_y
_atom_site_fract_z
Si Si1 0.785879 0.342935 0.716609
Si Si2 0.853701 0.080312 0.240333
Si Si3 0.189427 0.199125 0.217035
Si Si4 0.850498 0.569799 0.725114
Si Si5 0.555849 0.695346 0.374680
Si Si6 0.436371 0.924138 0.365930
O O1 0.619868 0.377800 0.581159
O O2 0.958503 0.393057 0.463563
O O3 0.807416 0.411835 0.893446
O O4 0.164301 0.343472 0.138964
O O5 0.761421 0.091897 0.516047
O O6 0.830962 0.921257 0.412242
O O7 0.773342 0.183114 0.952627
O O8 0.497138 0.216686 0.499419
O O9 0.042969 0.144022 0.139212
O O10 0.360146 0.217770 0.993414
O O11 0.706595 0.621277 0.526208
O O12 0.500000 0.000000 0.500000
O O13 0.500000 0.000000 0.000000
#
# Coordination Sequence:
#
# PCOD9065100 Si02
#       6
#     2   2   2   2   2   2
#     4  11  26  48  77 106 152 202 256 313 387 461
#     4  11  24  47  71 112 149 201 246 322 384 459
#     4  11  25  46  75 107 151 192 256 317 385 456
#     4  11  26  50  71 109 149 201 257 316 382 460
#     4  12  25  47  73 110 146 198 254 318 381 458
#     4  12  25  44  73 111 156 200 253 316 389 464
#
# _framework density 27.563755
#
# number of rings (size 3 to 8) (size 9 to 14) (size 15 to 20)
#    0.000    0.667    3.333    3.500    2.333    2.000 
#    3.000    0.000    0.000    0.000    0.000    0.000 
#    0.000    0.000    0.000    0.000    0.000    0.000 
#
# Total GULP energy -67196.119589 kJ/mol
# GULP energy per Si atom -5599.676632 kJ/mol
# Density = 2.750102 g / cm^3
# Si number density = 27.563755 Si / 1000 Ang^3
#
#
#
# Elastic Constant Matrix: (Units=GPa)
#
#
# Indices 1 2 3 4 5 6 
#
# 1 213.9220 52.9199 29.3832 3.9885 -2.7927 7.2296
# 2 52.9199 177.6214 24.9719 22.9798 -17.0902 2.3129
# 3 29.3832 24.9719 60.7191 2.6564 5.1619 -5.9027
# 4 3.9885 22.9798 2.6564 34.8869 -11.6428 -3.5681
# 5 -2.7927 -17.0902 5.1619 -11.6428 46.4206 8.6403
# 6 7.2296 2.3129 -5.9027 -3.5681 8.6403 28.0947
#
#
#
# Elastic Compliance Matrix: (Units=1/GPa)
#
#
# Indices 1 2 3 4 5 6 
#
# 1 0.005367 -0.001239 -0.002337 0.000378 0.000575 -0.001899
# 2 -0.001239 0.007085 -0.002529 -0.003789 0.002230 -0.001963
# 3 -0.002337 -0.002529 0.019655 -0.000435 -0.004535 0.006279
# 4 0.000378 -0.003789 -0.000435 0.033616 0.006672 0.002341
# 5 0.000575 0.002230 -0.004535 0.006672 0.026154 -0.008480
# 6 -0.001899 -0.001963 0.006279 0.002341 -0.008480 0.040469
#
#
# Mechanical properties :
#
#
# Convention : Reuss Voigt Hill
#
# Bulk Modulus (GPa) = 50.26074 74.09030 62.17552
# Shear Modulus (GPa) = 33.07129 44.87962 38.97545
#
# Velocity S-wave (km/s) = 3.46759 4.03949 3.76441
# Velocity P-wave (km/s) = 5.85714 6.97815 6.44208
#
# Compressibility (1/GPa) = 0.01989625
#
# Stress axis : x y z
#
# Youngs Moduli (GPa) = 186.32877 141.14240 50.87671
#
# Poissons Ratio (x) = 0.17491 0.11892
# Poissons Ratio (y) = 0.23091 0.12865
# Poissons Ratio (z) = 0.43554 0.35692
#
# Static dielectric constant tensor:
#      x y z
#    x 2.180920 -0.007260 0.099990 
#    y -0.007260 2.127390 -0.038440 
#    z 0.099990 -0.038440 2.191870 
# 
# From -- ./inp_files/43100.got.cif
#   From: 2010.05.17/outbox.cif.g08.bks.cpg/sg2_22_cif.got.tgz:43100.got - 2010.06.03 11:33:40.
