data_PCOD9065681
_publ_section_title
;
Structure prediction by ZEFSAII (Michael W. Deem and Ramdas Pophale) SiO2 
 PCOD9065681
Probable space group: P -1
;
_chemical_formula_sum "Si O2"
_cell_formula_units_Z 14
_cell_length_a 5.430503
_cell_length_b 12.900707
_cell_length_c 12.300651
_cell_angle_alpha 134.277496
_cell_angle_beta 67.341122
_cell_angle_gamma 113.155657
_cell_volume 559.199792
_symmetry_space_group_name_H-M "P -1"
_symmetry_group_IT_number 2
_symmetry_cell_setting 'triclinic'
loop_
_space_group_symop_operation_xyz
x,y,z
-x,-y,-z
loop_
_atom_site_type_symbol
_atom_site_label
_atom_site_fract_x
_atom_site_fract_y
_atom_site_fract_z
Si Si1 0.763943 0.138164 0.813770
Si Si2 0.500000 0.500000 0.500000
Si Si3 0.679586 0.445542 0.021611
Si Si4 0.053585 0.793482 0.924539
Si Si5 0.036132 0.241397 0.477357
Si Si6 0.752450 0.053205 0.199110
Si Si7 0.707110 0.493355 0.691960
Si Si8 0.000000 0.000000 0.500000
O O1 0.020146 0.111967 0.683751
O O2 0.538359 0.991158 0.727899
O O3 0.638262 0.271018 0.886746
O O4 0.819144 0.174306 0.956048
O O5 0.315207 0.357497 0.495441
O O6 0.696678 0.534122 0.597554
O O7 0.568224 0.491115 0.188562
O O8 0.500000 0.500000 0.000000
O O9 0.000000 0.500000 0.000000
O O10 0.258909 0.844809 0.828776
O O11 0.929214 0.623796 0.804385
O O12 0.833032 0.900520 0.032038
O O13 0.005885 0.142281 0.517997
O O14 0.973270 0.132474 0.304108
O O15 0.802114 0.340859 0.585976
#
# Coordination Sequence:
#
# PCOD9065681 Si02
#       8
#     2   1   2   2   2   2   2   1
#     4  12  27  47  81 113 164 216 280 347 430 507
#     4  12  30  52  84 126 166 226 274 368 430 514
#     4  12  29  51  81 120 166 224 285 353 428 517
#     4  11  24  50  78 121 158 213 279 353 423 511
#     4  12  29  53  82 126 173 220 288 348 438 515
#     4  11  25  48  78 117 162 213 277 348 426 507
#     4  12  28  51  86 121 170 218 288 356 432 518
#     4  12  30  52  78 120 166 228 270 342 428 526
#
# _framework density 25.035775999999998
#
# number of rings (size 3 to 8) (size 9 to 14) (size 15 to 20)
#    0.000    0.286    4.286    2.571    8.000    0.571 
#    0.000    0.000    0.000    0.000    0.000    0.000 
#    0.000    0.000    0.000    0.000    0.000    0.000 
#
# Total GULP energy -77966.303428 kJ/mol
# GULP energy per Si atom -5569.021673 kJ/mol
# Density = 2.497879 g / cm^3
# Si number density = 25.035776 Si / 1000 Ang^3
#
#
#
# Elastic Constant Matrix: (Units=GPa)
#
#
# Indices 1 2 3 4 5 6 
#
# 1 79.0219 46.2485 20.2913 1.6093 10.1839 -7.4500
# 2 46.2485 171.2962 43.1549 0.4738 8.0181 -28.2512
# 3 20.2913 43.1549 94.9362 11.7925 4.4180 -11.5122
# 4 1.6093 0.4738 11.7925 17.9518 -11.5458 12.8381
# 5 10.1839 8.0181 4.4180 -11.5458 49.0692 5.3115
# 6 -7.4500 -28.2512 -11.5122 12.8381 5.3115 34.6599
#
#
#
# Elastic Compliance Matrix: (Units=1/GPa)
#
#
# Indices 1 2 3 4 5 6 
#
# 1 0.015794 -0.003291 -0.000300 -0.007052 -0.004801 0.003960
# 2 -0.003291 0.008839 -0.000654 -0.009646 -0.004107 0.010482
# 3 -0.000300 -0.000654 0.017704 -0.032217 -0.011052 0.018910
# 4 -0.007052 -0.009646 -0.032217 0.187531 0.060766 -0.098853
# 5 -0.004801 -0.004107 -0.011052 0.060766 0.041333 -0.036892
# 6 0.003960 0.010482 0.018910 -0.098853 -0.036892 0.086797
#
#
# Mechanical properties :
#
#
# Convention : Reuss Voigt Hill
#
# Bulk Modulus (GPa) = 29.54554 62.73818 46.14186
# Shear Modulus (GPa) = 13.23555 36.04013 24.63784
#
# Velocity S-wave (km/s) = 2.30177 3.79825 3.14045
# Velocity P-wave (km/s) = 4.34639 6.65954 5.62319
#
# Compressibility (1/GPa) = 0.03384606
#
# Stress axis : x y z
#
# Youngs Moduli (GPa) = 63.31650 113.13632 56.48430
#
# Poissons Ratio (x) = 0.37235 0.01695
# Poissons Ratio (y) = 0.20839 0.03694
# Poissons Ratio (z) = 0.01900 0.07400
#
# Static dielectric constant tensor:
#      x y z
#    x 1.888000 -0.107050 -0.160840 
#    y -0.107050 1.722450 -0.124450 
#    z -0.160840 -0.124450 1.948640 
# 
# From -- ./inp_files/109266.got.cif
#   From: 2010.05.17/outbox.cif.g08.bks.cpg/sg2_55_cif.got.tgz:109266.got - 2010.06.03 11:33:40.
