data_PCOD9065886
_publ_section_title
;
Structure prediction by ZEFSAII (Michael W. Deem and Ramdas Pophale) SiO2 
 PCOD9065886
Probable space group: P -1
;
_chemical_formula_sum "Si O2"
_cell_formula_units_Z 14
_cell_length_a 21.490870
_cell_length_b 9.402690
_cell_length_c 9.724797
_cell_angle_alpha 46.939588
_cell_angle_beta 26.959184
_cell_angle_gamma 46.552665
_cell_volume 632.077698
_symmetry_space_group_name_H-M "P -1"
_symmetry_group_IT_number 2
_symmetry_cell_setting 'triclinic'
loop_
_space_group_symop_operation_xyz
x,y,z
-x,-y,-z
loop_
_atom_site_type_symbol
_atom_site_label
_atom_site_fract_x
_atom_site_fract_y
_atom_site_fract_z
Si Si1 0.729816 0.194281 0.891567
Si Si2 0.162360 0.228509 0.940873
Si Si3 0.340825 0.571562 0.832847
Si Si4 0.457605 0.287818 0.216099
Si Si5 0.103707 0.673330 0.761688
Si Si6 0.363324 0.173274 0.187678
Si Si7 0.163004 0.883524 0.764297
O O1 0.811810 0.326114 0.549462
O O2 0.674978 0.300525 0.076078
O O3 0.598302 0.151405 0.093809
O O4 0.831935 0.975302 0.856264
O O5 0.322479 0.242444 0.587988
O O6 0.100152 0.453596 0.969953
O O7 0.058451 0.220744 0.022183
O O8 0.500000 0.500000 0.500000
O O9 0.228896 0.709221 0.859212
O O10 0.310754 0.356606 0.066968
O O11 0.416136 0.265344 0.157205
O O12 0.500000 0.500000 0.000000
O O13 0.184793 0.779220 0.640527
O O14 0.245190 0.053338 0.516750
O O15 0.500000 0.000000 0.000000
O O16 0.000000 0.000000 0.000000
#
# Coordination Sequence:
#
# PCOD9065886 Si02
#       7
#     2   2   2   2   2   2   2
#     4  12  25  45  76 104 142 186 248 295 354 428
#     4  11  25  43  73 106 140 186 239 295 362 416
#     4  12  27  46  75 108 148 192 244 300 363 439
#     4  12  23  44  70 103 141 182 238 297 346 415
#     4  11  25  48  72 104 147 185 240 299 354 434
#     4  12  25  45  72 105 149 190 237 299 367 427
#     4  12  28  49  75 107 151 191 241 299 372 434
#
# _framework density 22.149177999999999
#
# number of rings (size 3 to 8) (size 9 to 14) (size 15 to 20)
#    0.000    0.286    4.286    4.286    2.000    4.000 
#    0.000    0.000    0.000    0.000    0.000    0.000 
#    0.000    0.000    0.000    0.000    0.000    0.000 
#
# Total GULP energy -78091.090176 kJ/mol
# GULP energy per Si atom -5577.935013 kJ/mol
# Density = 2.209877 g / cm^3
# Si number density = 22.149178 Si / 1000 Ang^3
#
#
#
# Elastic Constant Matrix: (Units=GPa)
#
#
# Indices 1 2 3 4 5 6 
#
# 1 145.8000 71.1098 58.0638 -1.1395 -17.2184 -8.5788
# 2 71.1098 132.0720 48.1808 -23.9849 1.9943 -33.1600
# 3 58.0638 48.1808 91.7173 3.2027 -19.5361 0.2508
# 4 -1.1395 -23.9849 3.2027 30.5295 -3.4427 -2.2666
# 5 -17.2184 1.9943 -19.5361 -3.4427 39.8263 2.5722
# 6 -8.5788 -33.1600 0.2508 -2.2666 2.5722 56.6917
#
#
#
# Elastic Compliance Matrix: (Units=1/GPa)
#
#
# Indices 1 2 3 4 5 6 
#
# 1 0.011450 -0.006524 -0.002891 -0.004161 0.003654 -0.002403
# 2 -0.006524 0.020535 -0.008883 0.016869 -0.007528 0.012079
# 3 -0.002891 -0.008883 0.019516 -0.008661 0.008436 -0.006448
# 4 -0.004161 0.016869 -0.008661 0.047202 -0.003543 0.011324
# 5 0.003654 -0.007528 0.008436 -0.003543 0.031250 -0.005447
# 6 -0.002403 0.012079 -0.006448 0.011324 -0.005447 0.025069
#
#
# Mechanical properties :
#
#
# Convention : Reuss Voigt Hill
#
# Bulk Modulus (GPa) = 67.08997 80.47759 73.78378
# Shear Modulus (GPa) = 25.43413 38.22516 31.82965
#
# Velocity S-wave (km/s) = 3.39235 4.15879 3.79497
# Velocity P-wave (km/s) = 6.76017 7.71193 7.25168
#
# Compressibility (1/GPa) = 0.01490536
#
# Stress axis : x y z
#
# Youngs Moduli (GPa) = 87.33870 48.69783 51.23892
#
# Poissons Ratio (x) = 0.31772 0.14813
# Poissons Ratio (y) = 0.56983 0.45513
# Poissons Ratio (z) = 0.25249 0.43256
#
# Static dielectric constant tensor:
#      x y z
#    x 1.819240 -0.018340 0.057570 
#    y -0.018340 1.881930 0.061660 
#    z 0.057570 0.061660 1.831040 
# 
# From -- ./inp_files/343287.got.cif
#   From: 2010.05.17/outbox.cif.g08.bks.cpg/sg2_172_cif.got.tgz:343287.got - 2010.06.03 11:33:40.
