data_PCOD9065307
_publ_section_title
;
Structure prediction by ZEFSAII (Michael W. Deem and Ramdas Pophale) SiO2 
 PCOD9065307
Probable space group: P -1
;
_chemical_formula_sum "Si O2"
_cell_formula_units_Z 13
_cell_length_a 16.556546
_cell_length_b 9.503864
_cell_length_c 6.404335
_cell_angle_alpha 65.159079
_cell_angle_beta 93.414446
_cell_angle_gamma 43.526205
_cell_volume 511.838166
_symmetry_space_group_name_H-M "P -1"
_symmetry_group_IT_number 2
_symmetry_cell_setting 'triclinic'
loop_
_space_group_symop_operation_xyz
x,y,z
-x,-y,-z
loop_
_atom_site_type_symbol
_atom_site_label
_atom_site_fract_x
_atom_site_fract_y
_atom_site_fract_z
Si Si1 0.623829 0.563759 0.208881
Si Si2 0.682993 0.710643 0.813247
Si Si3 0.828081 0.240652 0.803248
Si Si4 0.500000 0.500000 0.500000
Si Si5 0.940264 0.490903 0.183865
Si Si6 0.186138 0.060415 0.792705
Si Si7 0.568572 0.205109 0.301949
O O1 0.776087 0.327287 0.500460
O O2 0.523006 0.643683 0.315613
O O3 0.607917 0.757815 0.979505
O O4 0.584060 0.537128 0.002903
O O5 0.739528 0.503349 0.769228
O O6 0.594825 0.990201 0.521838
O O7 0.828550 0.552623 0.027441
O O8 0.782128 0.141191 0.938152
O O9 0.000000 0.000000 0.000000
O O10 0.580812 0.299955 0.437177
O O11 0.869396 0.721992 0.191892
O O12 0.065328 0.209774 0.510661
O O13 0.000000 0.500000 0.000000
O O14 0.312317 0.941482 0.758380
#
# Coordination Sequence:
#
# PCOD9065307 Si02
#       7
#     2   2   2   1   2   2   2
#     4  12  28  50  76 111 155 207 259 323 391 464
#     4  12  28  47  77 118 150 205 258 327 391 455
#     4  12  28  48  77 113 158 203 257 326 390 468
#     4  12  28  52  76 112 156 208 258 322 396 456
#     4  11  24  47  79 117 156 205 259 320 390 468
#     4  11  26  48  80 113 157 208 261 320 393 469
#     4  12  28  49  80 112 157 207 264 322 389 473
#
# _framework density 25.398655000000002
#
# number of rings (size 3 to 8) (size 9 to 14) (size 15 to 20)
#    0.000    0.308    1.538    5.538    8.615    6.154 
#    0.000    0.000    0.000    0.000    0.000    0.000 
#    0.000    0.000    0.000    0.000    0.000    0.000 
#
# Total GULP energy -72521.756792 kJ/mol
# GULP energy per Si atom -5578.596676 kJ/mol
# Density = 2.534085 g / cm^3
# Si number density = 25.398655 Si / 1000 Ang^3
#
#
#
# Elastic Constant Matrix: (Units=GPa)
#
#
# Indices 1 2 3 4 5 6 
#
# 1 113.5022 37.2005 60.3074 15.9114 -35.4926 -6.9935
# 2 37.2005 132.4294 44.1840 15.3865 -8.5324 -2.9829
# 3 60.3074 44.1840 214.7437 -6.5003 -6.7003 -2.8895
# 4 15.9114 15.3865 -6.5003 23.3619 8.9894 -14.9636
# 5 -35.4926 -8.5324 -6.7003 8.9894 74.8032 7.1855
# 6 -6.9935 -2.9829 -2.8895 -14.9636 7.1855 41.3303
#
#
#
# Elastic Compliance Matrix: (Units=1/GPa)
#
#
# Indices 1 2 3 4 5 6 
#
# 1 0.018274 0.000062 -0.005599 -0.023635 0.011775 -0.007899
# 2 0.000062 0.009557 -0.002264 -0.010226 0.002491 -0.003593
# 3 -0.005599 -0.002264 0.006974 0.011554 -0.004089 0.004271
# 4 -0.023635 -0.010226 0.011554 0.104170 -0.027570 0.038578
# 5 0.011775 0.002491 -0.004089 -0.027570 0.023354 -0.012156
# 6 -0.007899 -0.003593 0.004271 0.038578 -0.012156 0.038979
#
#
# Mechanical properties :
#
#
# Convention : Reuss Voigt Hill
#
# Bulk Modulus (GPa) = 52.07579 82.67324 67.37452
# Shear Modulus (GPa) = 22.39031 49.16464 35.77748
#
# Velocity S-wave (km/s) = 2.97232 4.40445 3.75725
# Velocity P-wave (km/s) = 5.68572 7.64765 6.73847
#
# Compressibility (1/GPa) = 0.01920278
#
# Stress axis : x y z
#
# Youngs Moduli (GPa) = 54.72338 104.63677 143.38032
#
# Poissons Ratio (x) = -0.00644 0.80276
# Poissons Ratio (y) = -0.00337 0.32459
# Poissons Ratio (z) = 0.30639 0.23688
#
# Static dielectric constant tensor:
#      x y z
#    x 2.332320 0.057090 0.254230 
#    y 0.057090 1.920000 0.026850 
#    z 0.254230 0.026850 2.045530 
# 
# From -- ./inp_files/106512.got.cif
#   From: 2010.05.17/outbox.cif.g08.bks.cpg/sg2_54_cif.got.tgz:106512.got - 2010.06.03 11:33:40.
