data_PCOD9065237
_publ_section_title
;
Structure prediction by ZEFSAII (Michael W. Deem and Ramdas Pophale) SiO2 
 PCOD9065237
Probable space group: P -1
;
_chemical_formula_sum "Si O2"
_cell_formula_units_Z 16
_cell_length_a 5.580633
_cell_length_b 9.859631
_cell_length_c 18.642514
_cell_angle_alpha 41.560887
_cell_angle_beta 85.063599
_cell_angle_gamma 80.370192
_cell_volume 669.719612
_symmetry_space_group_name_H-M "P -1"
_symmetry_group_IT_number 2
_symmetry_cell_setting 'triclinic'
loop_
_space_group_symop_operation_xyz
x,y,z
-x,-y,-z
loop_
_atom_site_type_symbol
_atom_site_label
_atom_site_fract_x
_atom_site_fract_y
_atom_site_fract_z
Si Si1 0.086411 0.102487 0.105616
Si Si2 0.372619 0.685224 0.751621
Si Si3 0.322536 0.561852 0.545203
Si Si4 0.309468 0.212325 0.915572
Si Si5 0.964762 0.963587 0.429789
Si Si6 0.651074 0.678308 0.608308
Si Si7 0.464424 0.741009 0.887566
Si Si8 0.958254 0.685863 0.263080
O O1 0.309041 0.174793 0.114520
O O2 0.810372 0.166710 0.116232
O O3 0.105525 0.184236 0.991475
O O4 0.129224 0.855112 0.204311
O O5 0.388182 0.435810 0.844134
O O6 0.519875 0.756700 0.652672
O O7 0.470072 0.754135 0.796630
O O8 0.103846 0.818441 0.694393
O O9 0.500000 0.500000 0.500000
O O10 0.473525 0.556385 0.617114
O O11 0.153473 0.386305 0.632022
O O12 0.173427 0.794766 0.456464
O O13 0.218878 0.226002 0.830989
O O14 0.500000 0.000000 0.000000
O O15 0.735068 0.839697 0.487269
O O16 0.000000 0.000000 0.500000
O O17 0.890620 0.525962 0.685250
O O18 0.500000 0.500000 0.000000
#
# Coordination Sequence:
#
# PCOD9065237 Si02
#       8
#     2   2   2   2   2   2   2   2
#     4  12  28  50  76 114 165 206 267 330 400 478
#     4  12  25  46  81 110 154 213 263 326 409 473
#     4  11  26  49  79 111 161 198 260 335 406 483
#     4  12  25  49  80 115 155 210 268 334 398 485
#     4  11  24  48  74 118 152 202 267 331 398 490
#     4  11  24  47  75 111 150 195 266 327 398 484
#     4  12  29  50  74 113 163 211 267 330 398 485
#     4  11  26  46  80 114 150 207 263 326 409 483
#
# _framework density 23.890592999999999
#
# number of rings (size 3 to 8) (size 9 to 14) (size 15 to 20)
#    0.000    0.500    3.750    3.375    3.500    5.000 
#    0.000    0.000    0.000    0.000    0.000    0.000 
#    0.000    0.000    0.000    0.000    0.000    0.000 
#
# Total GULP energy -89505.139844 kJ/mol
# GULP energy per Si atom -5594.071240 kJ/mol
# Density = 2.383622 g / cm^3
# Si number density = 23.890593 Si / 1000 Ang^3
#
#
#
# Elastic Constant Matrix: (Units=GPa)
#
#
# Indices 1 2 3 4 5 6 
#
# 1 95.6898 54.6662 37.0004 -9.0763 -2.4124 -9.6584
# 2 54.6662 127.2494 60.8499 -1.8156 -1.5110 -21.0161
# 3 37.0004 60.8499 94.9220 -20.8625 27.8162 -13.2847
# 4 -9.0763 -1.8156 -20.8625 49.9628 -5.8687 -7.1004
# 5 -2.4124 -1.5110 27.8162 -5.8687 32.5927 -6.4218
# 6 -9.6584 -21.0161 -13.2847 -7.1004 -6.4218 48.8095
#
#
#
# Elastic Compliance Matrix: (Units=1/GPa)
#
#
# Indices 1 2 3 4 5 6 
#
# 1 0.014748 -0.004213 -0.003975 0.001547 0.004739 0.000871
# 2 -0.004213 0.016196 -0.012180 -0.003441 0.010957 0.003766
# 3 -0.003975 -0.012180 0.028605 0.007941 -0.023888 -0.000233
# 4 0.001547 -0.003441 0.007941 0.023891 -0.001685 0.004240
# 5 0.004739 0.010957 -0.023888 -0.001685 0.052778 0.005852
# 6 0.000871 0.003766 -0.000233 0.004240 0.005852 0.023605
#
#
# Mechanical properties :
#
#
# Convention : Reuss Voigt Hill
#
# Bulk Modulus (GPa) = 53.15329 69.21045 61.18187
# Shear Modulus (GPa) = 24.17436 37.29597 30.73516
#
# Velocity S-wave (km/s) = 3.18445 3.95538 3.59067
# Velocity P-wave (km/s) = 5.98481 7.06348 6.54640
#
# Compressibility (1/GPa) = 0.01881351
#
# Stress axis : x y z
#
# Youngs Moduli (GPa) = 67.80453 61.74430 34.95832
#
# Poissons Ratio (x) = 0.26011 0.13896
# Poissons Ratio (y) = 0.28564 0.42580
# Poissons Ratio (z) = 0.26953 0.75206
#
# Static dielectric constant tensor:
#      x y z
#    x 2.021930 0.014820 0.000560 
#    y 0.014820 1.972840 -0.054250 
#    z 0.000560 -0.054250 1.918640 
# 
# From -- ./inp_files/547760.got.cif
#   From: 2010.05.17/outbox.cif.g08.bks.cpg/sg2_274_cif.got.tgz:547760.got - 2010.06.03 11:33:40.
