data_PCOD9065255
_publ_section_title
;
Structure prediction by ZEFSAII (Michael W. Deem and Ramdas Pophale) SiO2 
 PCOD9065255
Probable space group: P -1
;
_chemical_formula_sum "Si O2"
_cell_formula_units_Z 13
_cell_length_a 11.240812
_cell_length_b 11.521817
_cell_length_c 7.938101
_cell_angle_alpha 108.324300
_cell_angle_beta 40.013762
_cell_angle_gamma 129.431220
_cell_volume 478.955130
_symmetry_space_group_name_H-M "P -1"
_symmetry_group_IT_number 2
_symmetry_cell_setting 'triclinic'
loop_
_space_group_symop_operation_xyz
x,y,z
-x,-y,-z
loop_
_atom_site_type_symbol
_atom_site_label
_atom_site_fract_x
_atom_site_fract_y
_atom_site_fract_z
Si Si1 0.580665 0.287746 0.095122
Si Si2 0.654065 0.352425 0.666516
Si Si3 0.768840 0.166442 0.323341
Si Si4 0.783311 0.638529 0.471567
Si Si5 0.170939 0.926951 0.416399
Si Si6 0.876623 0.988817 0.956752
Si Si7 0.000000 0.500000 0.000000
O O1 0.400579 0.326287 0.342821
O O2 0.423255 0.095561 0.165995
O O3 0.707299 0.361001 0.809370
O O4 0.777403 0.353708 0.053852
O O5 0.812757 0.332439 0.356018
O O6 0.656289 0.493094 0.679975
O O7 0.393553 0.178776 0.839992
O O8 0.815030 0.142863 0.454790
O O9 0.500000 0.000000 0.500000
O O10 0.903536 0.144441 0.026071
O O11 0.020571 0.789974 0.380206
O O12 0.836373 0.558993 0.238797
O O13 0.014355 0.979543 0.657759
O O14 0.000000 0.000000 0.000000
#
# Coordination Sequence:
#
# PCOD9065255 Si02
#       7
#     2   2   2   2   2   2   1
#     4  12  28  53  77 112 155 204 257 314 384 459
#     4  11  24  47  76 110 153 202 249 309 388 454
#     4   9  21  40  68 113 149 191 248 310 365 461
#     4  12  28  52  77 114 153 202 256 316 386 459
#     4  11  24  47  77 109 150 203 254 310 387 450
#     4   9  20  40  72 114 142 196 245 313 371 448
#     4  12  32  50  74 114 154 202 254 324 382 438
#
# _framework density 27.142417999999999
#
# number of rings (size 3 to 8) (size 9 to 14) (size 15 to 20)
#    0.000    1.231    1.538    2.308    6.462    6.154 
#    2.769    0.000    0.000    0.000    0.000    0.000 
#    0.000    0.000    0.000    0.000    0.000    0.000 
#
# Total GULP energy -72626.571766 kJ/mol
# GULP energy per Si atom -5586.659367 kJ/mol
# Density = 2.708064 g / cm^3
# Si number density = 27.142418 Si / 1000 Ang^3
#
#
#
# Elastic Constant Matrix: (Units=GPa)
#
#
# Indices 1 2 3 4 5 6 
#
# 1 127.0130 63.5623 16.5076 11.2555 -7.5693 21.9382
# 2 63.5623 185.9350 41.2937 13.4216 -14.8314 -16.3040
# 3 16.5076 41.2937 91.6120 43.9472 -7.6835 9.3162
# 4 11.2555 13.4216 43.9472 58.3077 -1.6537 -0.9887
# 5 -7.5693 -14.8314 -7.6835 -1.6537 34.0462 5.8473
# 6 21.9382 -16.3040 9.3162 -0.9887 5.8473 70.1782
#
#
#
# Elastic Compliance Matrix: (Units=1/GPa)
#
#
# Indices 1 2 3 4 5 6 
#
# 1 0.010912 -0.004229 0.001770 -0.002500 0.001687 -0.004804
# 2 -0.004229 0.008005 -0.004202 0.002234 0.001075 0.003681
# 3 0.001770 -0.004202 0.020257 -0.014631 0.003230 -0.004694
# 4 -0.002500 0.002234 -0.014631 0.028149 -0.002173 0.003820
# 5 0.001687 0.001075 0.003230 -0.002173 0.031414 -0.003354
# 6 -0.004804 0.003681 -0.004694 0.003820 -0.003354 0.017563
#
#
# Mechanical properties :
#
#
# Convention : Reuss Voigt Hill
#
# Bulk Modulus (GPa) = 38.68403 71.92080 55.30242
# Shear Modulus (GPa) = 36.16899 51.38617 43.77758
#
# Velocity S-wave (km/s) = 3.65439 4.35582 4.02043
# Velocity P-wave (km/s) = 5.66474 7.20088 6.47850
#
# Compressibility (1/GPa) = 0.02585046
#
# Stress axis : x y z
#
# Youngs Moduli (GPa) = 91.64466 124.92951 49.36510
#
# Poissons Ratio (x) = 0.52839 -0.08736
# Poissons Ratio (y) = 0.38761 0.20741
# Poissons Ratio (z) = -0.16218 0.52491
#
# Static dielectric constant tensor:
#      x y z
#    x 1.829770 -0.006080 -0.245070 
#    y -0.006080 1.978530 0.070060 
#    z -0.245070 0.070060 2.049420 
# 
# From -- ./inp_files/262894.got.cif
#   From: 2010.05.17/outbox.cif.g08.bks.cpg/sg2_132_cif.got.tgz:262894.got - 2010.06.03 11:33:40.
