data_PCOD9065072
_publ_section_title
;
Structure prediction by ZEFSAII (Michael W. Deem and Ramdas Pophale) SiO2 
 PCOD9065072
Probable space group: P -1
;
_chemical_formula_sum "Si O2"
_cell_formula_units_Z 9
_cell_length_a 11.025081
_cell_length_b 6.642159
_cell_length_c 6.834899
_cell_angle_alpha 110.321408
_cell_angle_beta 100.513264
_cell_angle_gamma 69.620228
_cell_volume 438.910020
_symmetry_space_group_name_H-M "P -1"
_symmetry_group_IT_number 2
_symmetry_cell_setting 'triclinic'
loop_
_space_group_symop_operation_xyz
x,y,z
-x,-y,-z
loop_
_atom_site_type_symbol
_atom_site_label
_atom_site_fract_x
_atom_site_fract_y
_atom_site_fract_z
Si Si1 0.500000 0.000000 0.500000
Si Si2 0.297274 0.449183 0.428759
Si Si3 0.162258 0.805676 0.829824
Si Si4 0.077440 0.297419 0.094335
Si Si5 0.613034 0.345214 0.846572
O O1 0.394927 0.253052 0.517068
O O2 0.585112 0.115256 0.704991
O O3 0.232759 0.667785 0.617349
O O4 0.184364 0.366748 0.271827
O O5 0.373863 0.521022 0.299322
O O6 0.025283 0.763594 0.813152
O O7 0.253487 0.712559 0.012322
O O8 0.140417 0.072761 0.908055
O O9 0.000000 0.500000 0.000000
O O10 0.500000 0.500000 0.000000
#
# Coordination Sequence:
#
# PCOD9065072 Si02
#       5
#     1   2   2   2   2
#     4  12  26  44  70 102 136 184 226 276 346 400
#     4  12  26  46  72 103 137 181 229 280 342 408
#     4  11  25  45  70 102 139 176 230 281 338 405
#     4  11  24  47  71 101 136 181 226 283 339 401
#     4  12  26  46  68 102 140 180 231 281 338 407
#
# _framework density 20.505341999999999
#
# number of rings (size 3 to 8) (size 9 to 14) (size 15 to 20)
#    0.000    0.444    6.667    1.333    0.000    5.333 
#    0.000    0.000    0.000    0.000    0.000    0.000 
#    0.000    0.000    0.000    0.000    0.000    0.000 
#
# Total GULP energy -50105.872033 kJ/mol
# GULP energy per Si atom -5567.319115 kJ/mol
# Density = 2.045867 g / cm^3
# Si number density = 20.505342 Si / 1000 Ang^3
#
#
#
# Elastic Constant Matrix: (Units=GPa)
#
#
# Indices 1 2 3 4 5 6 
#
# 1 78.9671 20.2812 58.5085 15.3187 2.9864 -10.1075
# 2 20.2812 113.6850 48.2931 23.1083 -11.0041 -37.1362
# 3 58.5085 48.2931 117.2959 27.7312 -4.6723 -0.9010
# 4 15.3187 23.1083 27.7312 36.9528 -8.7081 8.2476
# 5 2.9864 -11.0041 -4.6723 -8.7081 40.5396 2.6784
# 6 -10.1075 -37.1362 -0.9010 8.2476 2.6784 31.9980
#
#
#
# Elastic Compliance Matrix: (Units=1/GPa)
#
#
# Indices 1 2 3 4 5 6 
#
# 1 0.028051 0.014344 -0.015973 -0.016567 -0.005541 0.029792
# 2 0.014344 0.035693 -0.014445 -0.030097 -0.003037 0.053561
# 3 -0.015973 -0.014445 0.021057 0.005509 0.002375 -0.022835
# 4 -0.016567 -0.030097 0.005509 0.064095 0.011251 -0.057471
# 5 -0.005541 -0.003037 0.002375 0.011251 0.027630 -0.010420
# 6 0.029792 0.053561 -0.022835 -0.057471 -0.010420 0.117867
#
#
# Mechanical properties :
#
#
# Convention : Reuss Voigt Hill
#
# Bulk Modulus (GPa) = 18.99188 62.67930 40.83559
# Shear Modulus (GPa) = 14.53104 34.08909 24.31006
#
# Velocity S-wave (km/s) = 2.66493 4.08174 3.44691
# Velocity P-wave (km/s) = 4.33026 7.26965 5.98327
#
# Compressibility (1/GPa) = 0.05265409
#
# Stress axis : x y z
#
# Youngs Moduli (GPa) = 35.64956 28.01650 47.49031
#
# Poissons Ratio (x) = -0.40187 0.75856
# Poissons Ratio (y) = -0.51136 0.68598
# Poissons Ratio (z) = 0.56943 0.40469
#
# Static dielectric constant tensor:
#      x y z
#    x 1.717490 0.010300 -0.011250 
#    y 0.010300 1.716230 -0.009040 
#    z -0.011250 -0.009040 1.697970 
# 
# From -- ./inp_files/1663.got.cif
#   From: 2010.05.17/outbox.cif.g08.bks.cpg/sg2_1_cif.got.tgz:1663.got - 2010.06.03 11:33:40.
