data_PCOD9065134
_publ_section_title
;
Structure prediction by ZEFSAII (Michael W. Deem and Ramdas Pophale) SiO2 
 PCOD9065134
Probable space group: P -1
;
_chemical_formula_sum "Si O2"
_cell_formula_units_Z 14
_cell_length_a 11.623172
_cell_length_b 8.195679
_cell_length_c 10.096208
_cell_angle_alpha 89.276300
_cell_angle_beta 58.896240
_cell_angle_gamma 130.976908
_cell_volume 521.842844
_symmetry_space_group_name_H-M "P -1"
_symmetry_group_IT_number 2
_symmetry_cell_setting 'triclinic'
loop_
_space_group_symop_operation_xyz
x,y,z
-x,-y,-z
loop_
_atom_site_type_symbol
_atom_site_label
_atom_site_fract_x
_atom_site_fract_y
_atom_site_fract_z
Si Si1 0.854258 0.270076 0.332758
Si Si2 0.130764 0.791164 0.291077
Si Si3 0.706842 0.572149 0.633326
Si Si4 0.433203 0.192481 0.341163
Si Si5 0.729640 0.920074 0.057215
Si Si6 0.160804 0.465683 0.871317
Si Si7 0.794490 0.629302 0.891470
O O1 0.865787 0.390340 0.192079
O O2 0.012756 0.509129 0.339120
O O3 0.962659 0.194469 0.260889
O O4 0.627236 0.015338 0.522404
O O5 0.926502 0.716173 0.439286
O O6 0.305001 0.983947 0.294970
O O7 0.250471 0.942729 0.081530
O O8 0.671639 0.727416 0.619911
O O9 0.713588 0.556662 0.791037
O O10 0.489283 0.271801 0.732327
O O11 0.643193 0.447076 0.305068
O O12 0.745092 0.753926 0.987065
O O13 0.946772 0.165065 0.000222
O O14 0.282211 0.573856 0.944193
#
# Coordination Sequence:
#
# PCOD9065134 Si02
#       7
#     2   2   2   2   2   2   2
#     4  11  26  46  68 103 145 190 229 285 358 427
#     4  11  24  47  72 107 140 180 242 293 351 416
#     4  12  24  44  78 110 130 186 238 304 352 396
#     4  12  22  45  73 101 142 177 238 293 346 416
#     4  11  24  47  72 107 140 180 242 293 351 416
#     4  11  26  46  68 103 145 190 229 285 358 427
#     4  12  22  45  73 101 142 177 238 293 346 416
#
# _framework density 26.828002999999999
#
# number of rings (size 3 to 8) (size 9 to 14) (size 15 to 20)
#    0.000    0.571    4.286    4.286    0.000    0.000 
#   12.857    7.143    0.000    0.000    0.000    0.000 
#    0.000    0.000    0.000    0.000    0.000    0.000 
#
# Total GULP energy -77986.848830 kJ/mol
# GULP energy per Si atom -5570.489202 kJ/mol
# Density = 2.676694 g / cm^3
# Si number density = 26.828003 Si / 1000 Ang^3
#
#
#
# Elastic Constant Matrix: (Units=GPa)
#
#
# Indices 1 2 3 4 5 6 
#
# 1 125.3005 24.1717 43.0494 -14.4214 8.6735 9.5953
# 2 24.1717 87.7036 22.3266 -25.7480 -10.0041 30.1640
# 3 43.0494 22.3266 131.0561 -37.9413 29.7297 -14.2845
# 4 -14.4214 -25.7480 -37.9413 48.0547 -5.0467 -9.6284
# 5 8.6735 -10.0041 29.7297 -5.0467 41.4489 -15.8148
# 6 9.5953 30.1640 -14.2845 -9.6284 -15.8148 47.5398
#
#
#
# Elastic Compliance Matrix: (Units=1/GPa)
#
#
# Indices 1 2 3 4 5 6 
#
# 1 0.009507 -0.001329 -0.003235 -0.001060 -0.001124 -0.002636
# 2 -0.001329 0.017791 -0.002950 0.005260 0.003656 -0.009625
# 3 -0.003235 -0.002950 0.014013 0.009110 -0.006532 0.006408
# 4 -0.001060 0.005260 0.009110 0.031952 0.001339 0.006531
# 5 -0.001124 0.003656 -0.006532 0.001339 0.032813 0.007131
# 6 -0.002636 -0.009625 0.006408 0.006531 0.007131 0.033294
#
#
# Mechanical properties :
#
#
# Convention : Reuss Voigt Hill
#
# Bulk Modulus (GPa) = 38.04916 58.12840 48.08878
# Shear Modulus (GPa) = 30.64478 44.37616 37.51047
#
# Velocity S-wave (km/s) = 3.38341 4.07147 3.74329
# Velocity P-wave (km/s) = 5.42925 6.61941 6.05365
#
# Compressibility (1/GPa) = 0.02628179
#
# Stress axis : x y z
#
# Youngs Moduli (GPa) = 105.19074 56.20862 71.36057
#
# Poissons Ratio (x) = 0.07471 0.23088
# Poissons Ratio (y) = 0.13982 0.21050
# Poissons Ratio (z) = 0.34034 0.16581
#
# Static dielectric constant tensor:
#      x y z
#    x 2.015380 0.008780 0.306640 
#    y 0.008780 2.093430 0.329680 
#    z 0.306640 0.329680 1.024120 
# 
# From -- ./inp_files/419443.got.cif
#   From: 2010.05.17/outbox.cif.g08.bks.cpg/sg2_210_cif.got.tgz:419443.got - 2010.06.03 11:33:40.
