data_PCOD9065243
_publ_section_title
;
Structure prediction by ZEFSAII (Michael W. Deem and Ramdas Pophale) SiO2 
 PCOD9065243
Probable space group: P -1
;
_chemical_formula_sum "Si O2"
_cell_formula_units_Z 16
_cell_length_a 12.155859
_cell_length_b 11.456767
_cell_length_c 13.033501
_cell_angle_alpha 143.389613
_cell_angle_beta 44.662069
_cell_angle_gamma 145.808484
_cell_volume 602.231162
_symmetry_space_group_name_H-M "P -1"
_symmetry_group_IT_number 2
_symmetry_cell_setting 'triclinic'
loop_
_space_group_symop_operation_xyz
x,y,z
-x,-y,-z
loop_
_atom_site_type_symbol
_atom_site_label
_atom_site_fract_x
_atom_site_fract_y
_atom_site_fract_z
Si Si1 0.565924 0.181451 0.974363
Si Si2 0.100492 0.110390 0.741123
Si Si3 0.529573 0.502025 0.648737
Si Si4 0.521823 0.739237 0.120033
Si Si5 0.828006 0.289951 0.063395
Si Si6 0.285444 0.608107 0.367575
Si Si7 0.895052 0.738751 0.445574
Si Si8 0.111117 0.867243 0.758529
O O1 0.447319 0.252907 0.168252
O O2 0.751345 0.266569 0.980518
O O3 0.604854 0.309118 0.929836
O O4 0.390947 0.894204 0.868579
O O5 0.293238 0.295066 0.672246
O O6 0.966849 0.203335 0.908137
O O7 0.151326 0.065186 0.787042
O O8 0.988932 0.845587 0.571415
O O9 0.613146 0.440543 0.645121
O O10 0.661921 0.569958 0.508705
O O11 0.435233 0.791743 0.310161
O O12 0.753124 0.973342 0.122175
O O13 0.500000 0.500000 0.000000
O O14 0.923239 0.552813 0.240322
O O15 0.188252 0.719436 0.562526
O O16 0.121466 0.350353 0.235776
O O17 0.000000 0.000000 0.500000
#
# Coordination Sequence:
#
# PCOD9065243 Si02
#       8
#     2   2   2   2   2   2   2   2
#     4  11  25  52  80 116 168 220 277 345 399 499
#     4  12  26  54  81 121 170 211 273 345 406 500
#     4  12  25  53  81 115 171 209 270 348 412 492
#     4  12  25  46  76 121 155 212 267 333 417 478
#     4  11  28  55  83 119 166 227 278 338 414 484
#     4  11  24  47  75 117 159 212 265 332 416 486
#     4  12  29  53  83 119 157 221 279 335 414 488
#     4  11  25  47  79 115 162 211 265 339 406 490
#
# _framework density 26.567871
#
# number of rings (size 3 to 8) (size 9 to 14) (size 15 to 20)
#    0.000    0.500    5.000    1.125    1.750    4.500 
#   11.250    0.000    0.000    0.000    0.000    0.000 
#    0.000    0.000    0.000    0.000    0.000    0.000 
#
# Total GULP energy -89543.158888 kJ/mol
# GULP energy per Si atom -5596.447431 kJ/mol
# Density = 2.650740 g / cm^3
# Si number density = 26.567871 Si / 1000 Ang^3
#
#
#
# Elastic Constant Matrix: (Units=GPa)
#
#
# Indices 1 2 3 4 5 6 
#
# 1 174.2061 15.9725 51.3441 1.9740 -0.7460 0.1296
# 2 15.9725 112.2021 27.8523 -1.1799 1.2064 23.4502
# 3 51.3441 27.8523 141.8169 10.4296 -13.6264 25.9218
# 4 1.9740 -1.1799 10.4296 50.6484 10.1909 5.2310
# 5 -0.7460 1.2064 -13.6264 10.1909 39.2583 0.2485
# 6 0.1296 23.4502 25.9218 5.2310 0.2485 46.2103
#
#
#
# Elastic Compliance Matrix: (Units=1/GPa)
#
#
# Indices 1 2 3 4 5 6 
#
# 1 0.006583 -0.000630 -0.002689 0.000274 -0.000871 0.001784
# 2 -0.000630 0.010288 -0.001111 0.001180 -0.000990 -0.004724
# 3 -0.002689 -0.001111 0.009624 -0.002219 0.003929 -0.004597
# 4 0.000274 0.001180 -0.002219 0.021693 -0.006421 -0.001776
# 5 -0.000871 -0.000990 0.003929 -0.006421 0.028524 -0.001125
# 6 0.001784 -0.004724 -0.004597 -0.001776 -0.001125 0.026819
#
#
# Mechanical properties :
#
#
# Convention : Reuss Voigt Hill
#
# Bulk Modulus (GPa) = 56.70656 68.72924 62.71790
# Shear Modulus (GPa) = 42.27646 49.42715 45.85181
#
# Velocity S-wave (km/s) = 3.99339 4.31793 4.15883
# Velocity P-wave (km/s) = 6.53095 7.12635 6.83513
#
# Compressibility (1/GPa) = 0.01763464
#
# Stress axis : x y z
#
# Youngs Moduli (GPa) = 151.91678 97.19702 103.90568
#
# Poissons Ratio (x) = 0.06123 0.27943
# Poissons Ratio (y) = 0.09571 0.11543
# Poissons Ratio (z) = 0.40855 0.10798
#
# Static dielectric constant tensor:
#      x y z
#    x 2.063140 0.029640 0.043660 
#    y 0.029640 2.209370 0.058380 
#    z 0.043660 0.058380 2.090620 
# 
# From -- ./inp_files/532040.got.cif
#   From: 2010.05.17/outbox.cif.g08.bks.cpg/sg2_267_cif.got.tgz:532040.got - 2010.06.03 11:33:40.
