data_PCOD9065495
_publ_section_title
;
Structure prediction by ZEFSAII (Michael W. Deem and Ramdas Pophale) SiO2 
 PCOD9065495
Probable space group: P -1
;
_chemical_formula_sum "Si O2"
_cell_formula_units_Z 14
_cell_length_a 6.289891
_cell_length_b 13.764445
_cell_length_c 14.725164
_cell_angle_alpha 140.566641
_cell_angle_beta 130.138609
_cell_angle_gamma 48.501998
_cell_volume 582.359843
_symmetry_space_group_name_H-M "P -1"
_symmetry_group_IT_number 2
_symmetry_cell_setting 'triclinic'
loop_
_space_group_symop_operation_xyz
x,y,z
-x,-y,-z
loop_
_atom_site_type_symbol
_atom_site_label
_atom_site_fract_x
_atom_site_fract_y
_atom_site_fract_z
Si Si1 0.270021 0.990854 0.239514
Si Si2 0.078135 0.265344 0.784216
Si Si3 0.783813 0.410380 0.336892
Si Si4 0.704490 0.172163 0.297021
Si Si5 0.076773 0.172686 0.082517
Si Si6 0.599999 0.246543 0.527229
Si Si7 0.855945 0.416418 0.028611
O O1 0.577739 0.844124 0.209849
O O2 0.375041 0.146323 0.390900
O O3 0.018334 0.026383 0.273193
O O4 0.075875 0.959711 0.080620
O O5 0.043021 0.427287 0.834083
O O6 0.876442 0.174412 0.617059
O O7 0.968197 0.321877 0.896445
O O8 0.694782 0.309132 0.318480
O O9 0.537019 0.568488 0.343679
O O10 0.000000 0.500000 0.500000
O O11 0.925523 0.287165 0.207004
O O12 0.427991 0.112705 0.155896
O O13 0.679095 0.247783 0.444108
O O14 0.996325 0.293614 0.060240
O O15 0.500000 0.500000 0.000000
#
# Coordination Sequence:
#
# PCOD9065495 Si02
#       7
#     2   2   2   2   2   2   2
#     4  12  28  48  70 113 149 190 243 300 363 432
#     4  11  27  47  74 108 145 192 246 297 355 438
#     4  12  25  49  73 110 144 186 249 299 357 436
#     4  12  27  46  76 106 147 196 240 295 371 426
#     4  12  27  47  79 105 148 189 248 301 360 433
#     4  12  27  48  76 106 150 191 240 304 364 429
#     4  11  24  48  77 108 141 193 246 297 361 424
#
# _framework density 24.040120000000002
#
# number of rings (size 3 to 8) (size 9 to 14) (size 15 to 20)
#    0.000    0.286    4.286    3.000    8.000    4.000 
#    0.000    0.000    0.000    0.000    0.000    0.000 
#    0.000    0.000    0.000    0.000    0.000    0.000 
#
# Total GULP energy -78299.204378 kJ/mol
# GULP energy per Si atom -5592.800313 kJ/mol
# Density = 2.398540 g / cm^3
# Si number density = 24.040120 Si / 1000 Ang^3
#
#
#
# Elastic Constant Matrix: (Units=GPa)
#
#
# Indices 1 2 3 4 5 6 
#
# 1 110.3720 44.5011 62.1598 5.1596 13.1027 -29.1475
# 2 44.5011 94.3744 37.8195 11.4164 3.7994 -28.3386
# 3 62.1598 37.8195 135.4556 8.3893 18.4422 -18.3948
# 4 5.1596 11.4164 8.3893 48.3212 -6.5692 1.6980
# 5 13.1027 3.7994 18.4422 -6.5692 37.3972 -6.5218
# 6 -29.1475 -28.3386 -18.3948 1.6980 -6.5218 42.0031
#
#
#
# Elastic Compliance Matrix: (Units=1/GPa)
#
#
# Indices 1 2 3 4 5 6 
#
# 1 0.014828 -0.003186 -0.004900 -0.000389 -0.001516 0.005774
# 2 -0.003186 0.015469 -0.001777 -0.003112 0.001228 0.007764
# 3 -0.004900 -0.001777 0.010653 -0.001391 -0.003679 -0.000449
# 4 -0.000389 -0.003112 -0.001391 0.022440 0.004525 -0.003183
# 5 -0.001516 0.001228 -0.003679 0.004525 0.030222 0.002675
# 6 0.005774 0.007764 -0.000449 -0.003183 0.002675 0.033400
#
#
# Mechanical properties :
#
#
# Convention : Reuss Voigt Hill
#
# Bulk Modulus (GPa) = 47.11817 69.90698 58.51258
# Shear Modulus (GPa) = 32.50699 38.59242 35.54970
#
# Velocity S-wave (km/s) = 3.68121 4.01101 3.84964
# Velocity P-wave (km/s) = 6.14091 7.11290 6.64470
#
# Compressibility (1/GPa) = 0.02122323
#
# Stress axis : x y z
#
# Youngs Moduli (GPa) = 67.44189 64.64575 93.86744
#
# Poissons Ratio (x) = 0.20598 0.45996
# Poissons Ratio (y) = 0.21489 0.16680
# Poissons Ratio (z) = 0.33047 0.11488
#
# Static dielectric constant tensor:
#      x y z
#    x 1.952300 -0.031900 0.027950 
#    y -0.031900 2.034100 -0.000100 
#    z 0.027950 -0.000100 1.857010 
# 
# From -- ./inp_files/71425.got.cif
#   From: 2010.05.17/outbox.cif.g08.bks.cpg/sg2_36_cif.got.tgz:71425.got - 2010.06.03 11:33:40.
