data_PCOD9065514
_publ_section_title
;
Structure prediction by ZEFSAII (Michael W. Deem and Ramdas Pophale) SiO2 
 PCOD9065514
Probable space group: P -1
;
_chemical_formula_sum "Si O2"
_cell_formula_units_Z 13
_cell_length_a 12.498037
_cell_length_b 18.161782
_cell_length_c 15.326834
_cell_angle_alpha 17.500234
_cell_angle_beta 27.579287
_cell_angle_gamma 32.040140
_cell_volume 484.280985
_symmetry_space_group_name_H-M "P -1"
_symmetry_group_IT_number 2
_symmetry_cell_setting 'triclinic'
loop_
_space_group_symop_operation_xyz
x,y,z
-x,-y,-z
loop_
_atom_site_type_symbol
_atom_site_label
_atom_site_fract_x
_atom_site_fract_y
_atom_site_fract_z
Si Si1 0.417555 0.286739 0.866408
Si Si2 0.807795 0.837656 0.374002
Si Si3 0.000000 0.500000 0.500000
Si Si4 0.700726 0.993887 0.467175
Si Si5 0.255258 0.480591 0.944605
Si Si6 0.905536 0.761924 0.982601
Si Si7 0.653828 0.818530 0.273487
O O1 0.500000 0.500000 0.500000
O O2 0.267732 0.395442 0.931995
O O3 0.254459 0.121439 0.108971
O O4 0.622185 0.111945 0.954827
O O5 0.901686 0.565873 0.595491
O O6 0.532219 0.846524 0.546063
O O7 0.809499 0.952927 0.339739
O O8 0.000000 0.000000 0.000000
O O9 0.804655 0.690902 0.384106
O O10 0.896397 0.076549 0.299145
O O11 0.610063 0.731713 0.860250
O O12 0.396740 0.724562 0.577163
O O13 0.021087 0.531247 0.109595
O O14 0.741224 0.711305 0.239718
#
# Coordination Sequence:
#
# PCOD9065514 Si02
#       7
#     2   2   1   2   2   2   2
#     4  12  28  53  81 112 161 216 277 337 409 483
#     4  11  24  48  79 114 167 219 264 325 401 490
#     4  12  24  46  82 114 152 204 260 330 394 478
#     4  11  27  46  76 122 164 209 272 331 407 484
#     4  12  26  47  77 116 157 209 268 333 415 479
#     4  12  27  48  79 115 157 210 276 337 399 488
#     4  12  28  50  78 118 159 212 270 333 414 487
#
# _framework density 26.843919
#
# number of rings (size 3 to 8) (size 9 to 14) (size 15 to 20)
#    0.000    0.308    1.538    6.462    2.154    4.923 
#    0.000    5.385    0.000    0.000    0.000    0.000 
#    0.000    0.000    0.000    0.000    0.000    0.000 
#
# Total GULP energy -72504.978873 kJ/mol
# GULP energy per Si atom -5577.306067 kJ/mol
# Density = 2.678282 g / cm^3
# Si number density = 26.843919 Si / 1000 Ang^3
#
#
#
# Elastic Constant Matrix: (Units=GPa)
#
#
# Indices 1 2 3 4 5 6 
#
# 1 144.7966 71.9721 38.2582 0.5788 1.3893 7.7876
# 2 71.9721 207.3383 22.0129 13.1644 19.9060 35.3721
# 3 38.2582 22.0129 66.2453 19.7002 4.2979 1.6787
# 4 0.5788 13.1644 19.7002 40.4735 -0.9420 20.9124
# 5 1.3893 19.9060 4.2979 -0.9420 35.3172 8.4525
# 6 7.7876 35.3721 1.6787 20.9124 8.4525 61.7681
#
#
#
# Elastic Compliance Matrix: (Units=1/GPa)
#
#
# Indices 1 2 3 4 5 6 
#
# 1 0.010200 -0.003204 -0.006355 0.004679 0.002594 -0.001217
# 2 -0.003204 0.006738 0.000136 -0.000863 -0.003053 -0.002748
# 3 -0.006355 0.000136 0.023054 -0.014096 -0.004315 0.005460
# 4 0.004679 -0.000863 -0.014096 0.039066 0.006365 -0.013810
# 5 0.002594 -0.003053 -0.004315 0.006365 0.031818 -0.004970
# 6 -0.001217 -0.002748 0.005460 -0.013810 -0.004970 0.023124
#
#
# Mechanical properties :
#
#
# Convention : Reuss Voigt Hill
#
# Bulk Modulus (GPa) = 47.29203 75.87406 61.58304
# Shear Modulus (GPa) = 31.27059 46.58756 38.92908
#
# Velocity S-wave (km/s) = 3.41677 4.17045 3.81228
# Velocity P-wave (km/s) = 5.76380 7.17750 6.50914
#
# Compressibility (1/GPa) = 0.02114521
#
# Stress axis : x y z
#
# Youngs Moduli (GPa) = 98.03927 148.41888 43.37681
#
# Poissons Ratio (x) = 0.47560 0.27565
# Poissons Ratio (y) = 0.31416 -0.00591
# Poissons Ratio (z) = 0.62303 -0.02021
#
# Static dielectric constant tensor:
#      x y z
#    x 2.266920 0.035980 -0.069070 
#    y 0.035980 2.082690 -0.057820 
#    z -0.069070 -0.057820 2.166640 
# 
# From -- ./inp_files/523394.got.cif
#   From: 2010.05.17/outbox.cif.g08.bks.cpg/sg2_262_cif.got.tgz:523394.got - 2010.06.03 11:33:40.
