data_PCOD9065571
_publ_section_title
;
Structure prediction by ZEFSAII (Michael W. Deem and Ramdas Pophale) SiO2 
 PCOD9065571
Probable space group: P -1
;
_chemical_formula_sum "Si O2"
_cell_formula_units_Z 16
_cell_length_a 13.336082
_cell_length_b 10.877349
_cell_length_c 14.507344
_cell_angle_alpha 151.966914
_cell_angle_beta 48.852540
_cell_angle_gamma 127.703140
_cell_volume 741.955465
_symmetry_space_group_name_H-M "P -1"
_symmetry_group_IT_number 2
_symmetry_cell_setting 'triclinic'
loop_
_space_group_symop_operation_xyz
x,y,z
-x,-y,-z
loop_
_atom_site_type_symbol
_atom_site_label
_atom_site_fract_x
_atom_site_fract_y
_atom_site_fract_z
Si Si1 0.358742 0.722278 0.983675
Si Si2 0.048978 0.288219 0.631389
Si Si3 0.331762 0.215151 0.447606
Si Si4 0.943780 0.934151 0.839378
Si Si5 0.121319 0.660509 0.686245
Si Si6 0.097701 0.379077 0.935632
Si Si7 0.348638 0.078987 0.044425
Si Si8 0.403746 0.685489 0.583123
O O1 0.252906 0.467495 0.882598
O O2 0.319982 0.921259 0.220791
O O3 0.520122 0.714525 0.888267
O O4 0.338579 0.885532 0.010352
O O5 0.190524 0.327485 0.625437
O O6 0.085288 0.373180 0.561979
O O7 0.936219 0.464242 0.848357
O O8 0.000000 0.000000 0.500000
O O9 0.387054 0.398238 0.449848
O O10 0.439518 0.253107 0.488917
O O11 0.030072 0.731252 0.704607
O O12 0.035637 0.087588 0.806857
O O13 0.908534 0.142758 0.079874
O O14 0.797634 0.824960 0.819673
O O15 0.280469 0.701006 0.599469
O O16 0.000000 0.500000 0.000000
O O17 0.379261 0.895659 0.817732
#
# Coordination Sequence:
#
# PCOD9065571 Si02
#       8
#     2   2   2   2   2   2   2   2
#     4  10  18  28  44  72  99 120 153 199 239 273
#     4  10  18  30  48  71  96 119 151 200 241 272
#     4   9  16  27  45  68  96 116 150 194 236 277
#     4   9  16  30  48  68  95 127 159 190 228 285
#     4   8  16  28  49  69  92 124 158 189 229 285
#     4  11  20  30  48  72  97 124 159 195 239 277
#     4   9  17  29  47  67  98 125 155 193 234 279
#     4   8  15  28  47  69  89 119 156 189 230 282
#
# _framework density 21.564637999999999
#
# number of rings (size 3 to 8) (size 9 to 14) (size 15 to 20)
#    0.000    2.750    2.500    0.750    0.000    0.000 
#    0.000    0.000    2.750   10.500    0.000    0.875 
#    0.000    0.000    0.000    0.000    0.000    0.000 
#
# Total GULP energy -89157.278407 kJ/mol
# GULP energy per Si atom -5572.329900 kJ/mol
# Density = 2.151556 g / cm^3
# Si number density = 21.564638 Si / 1000 Ang^3
#
#
#
# Elastic Constant Matrix: (Units=GPa)
#
#
# Indices 1 2 3 4 5 6 
#
# 1 163.6023 84.3800 30.0176 5.4839 -35.5189 36.7612
# 2 84.3800 128.3916 25.6492 -3.3662 -16.8365 38.7613
# 3 30.0176 25.6492 46.8078 -7.7332 -0.9117 11.6331
# 4 5.4839 -3.3662 -7.7332 28.7477 3.1507 -5.2941
# 5 -35.5189 -16.8365 -0.9117 3.1507 37.9420 -6.1171
# 6 36.7612 38.7613 11.6331 -5.2941 -6.1171 37.3104
#
#
#
# Elastic Compliance Matrix: (Units=1/GPa)
#
#
# Indices 1 2 3 4 5 6 
#
# 1 0.013152 -0.004762 -0.005310 -0.006608 0.009700 -0.005702
# 2 -0.004762 0.014245 -0.002409 0.000187 0.000293 -0.009281
# 3 -0.005310 -0.002409 0.027567 0.008708 -0.006204 -0.000642
# 4 -0.006608 0.000187 0.008708 0.040772 -0.007977 0.008079
# 5 0.009700 0.000293 -0.006204 -0.007977 0.035560 -0.003230
# 6 -0.005702 -0.009281 -0.000642 0.008079 -0.003230 0.042880
#
#
# Mechanical properties :
#
#
# Convention : Reuss Voigt Hill
#
# Bulk Modulus (GPa) = 33.33180 68.76613 51.04897
# Shear Modulus (GPa) = 23.90777 34.05036 28.97907
#
# Velocity S-wave (km/s) = 3.33326 3.97796 3.66980
# Velocity P-wave (km/s) = 5.50495 7.28399 6.45604
#
# Compressibility (1/GPa) = 0.03000138
#
# Stress axis : x y z
#
# Youngs Moduli (GPa) = 76.03607 70.20029 36.27576
#
# Poissons Ratio (x) = 0.33431 0.19263
# Poissons Ratio (y) = 0.36210 0.08737
# Poissons Ratio (z) = 0.40376 0.16908
#
# Static dielectric constant tensor:
#      x y z
#    x 1.827530 0.053320 0.065030 
#    y 0.053320 1.865700 -0.048600 
#    z 0.065030 -0.048600 1.896320 
# 
# From -- ./inp_files/319886.got.cif
#   From: 2010.05.17/outbox.cif.g08.bks.cpg/sg2_160_cif.got.tgz:319886.got - 2010.06.03 11:33:40.
