data_PCOD9065748
_publ_section_title
;
Structure prediction by ZEFSAII (Michael W. Deem and Ramdas Pophale) SiO2 
 PCOD9065748
Probable space group: P -1
;
_chemical_formula_sum "Si O2"
_cell_formula_units_Z 16
_cell_length_a 9.491596
_cell_length_b 9.264233
_cell_length_c 29.634330
_cell_angle_alpha 151.153462
_cell_angle_beta 38.273267
_cell_angle_gamma 138.675687
_cell_volume 761.047121
_symmetry_space_group_name_H-M "P -1"
_symmetry_group_IT_number 2
_symmetry_cell_setting 'triclinic'
loop_
_space_group_symop_operation_xyz
x,y,z
-x,-y,-z
loop_
_atom_site_type_symbol
_atom_site_label
_atom_site_fract_x
_atom_site_fract_y
_atom_site_fract_z
Si Si1 0.573396 0.342933 0.751094
Si Si2 0.937530 0.634936 0.098973
Si Si3 0.028553 0.723978 0.775860
Si Si4 0.721714 0.346849 0.901488
Si Si5 0.292706 0.655961 0.465240
Si Si6 0.934619 0.239034 0.119455
Si Si7 0.530737 0.384891 0.410519
Si Si8 0.440280 0.370597 0.259890
O O1 0.336676 0.464495 0.850949
O O2 0.626536 0.425819 0.708041
O O3 0.774662 0.513329 0.779586
O O4 0.535304 0.983952 0.671890
O O5 0.100990 0.553934 0.074657
O O6 0.979869 0.996738 0.179098
O O7 0.000000 0.500000 0.000000
O O8 0.095841 0.848073 0.843792
O O9 0.215053 0.549575 0.659313
O O10 0.852489 0.471532 0.857258
O O11 0.664344 0.985288 0.819031
O O12 0.500000 0.500000 0.000000
O O13 0.374040 0.538800 0.459492
O O14 0.356699 0.480874 0.357833
O O15 0.000000 0.500000 0.500000
O O16 0.500000 0.000000 0.500000
O O17 0.712912 0.366593 0.194151
O O18 0.000000 0.000000 0.000000
O O19 0.500000 0.500000 0.500000
#
# Coordination Sequence:
#
# PCOD9065748 Si02
#       8
#     2   2   2   2   2   2   2   2
#     4  11  26  45  71 101 143 195 238 310 378 447
#     4  11  25  42  65 100 143 187 251 301 370 453
#     4  11  26  44  70 104 140 189 243 300 382 441
#     4  12  26  41  68 103 142 200 249 306 379 455
#     4  12  31  52  82 117 152 202 259 319 392 463
#     4  12  25  44  70 103 147 192 250 305 377 456
#     4  11  27  49  76 107 145 188 249 315 378 457
#     4  12  26  47  71 104 151 195 249 316 377 459
#
# _framework density 21.023665000000001
#
# number of rings (size 3 to 8) (size 9 to 14) (size 15 to 20)
#    0.000    0.500    5.000    1.500    8.750    1.000 
#    0.000    0.000    0.000    0.000    0.000    0.000 
#    0.000    0.000    0.000    0.000    0.000    0.000 
#
# Total GULP energy -89072.193459 kJ/mol
# GULP energy per Si atom -5567.012091 kJ/mol
# Density = 2.097581 g / cm^3
# Si number density = 21.023665 Si / 1000 Ang^3
#
#
#
# Elastic Constant Matrix: (Units=GPa)
#
#
# Indices 1 2 3 4 5 6 
#
# 1 155.5607 46.4001 57.1667 -11.2787 -3.4842 -8.5394
# 2 46.4001 99.6635 31.6872 -7.8248 -6.8993 6.6883
# 3 57.1667 31.6872 89.3272 -27.6204 4.4975 11.8880
# 4 -11.2787 -7.8248 -27.6204 33.7343 -11.2849 -1.3346
# 5 -3.4842 -6.8993 4.4975 -11.2849 31.7376 -2.3297
# 6 -8.5394 6.6883 11.8880 -1.3346 -2.3297 45.1046
#
#
#
# Elastic Compliance Matrix: (Units=1/GPa)
#
#
# Indices 1 2 3 4 5 6 
#
# 1 0.009737 -0.002854 -0.006494 -0.002284 0.000847 0.003954
# 2 -0.002854 0.012459 -0.002197 0.001065 0.002966 -0.001624
# 3 -0.006494 -0.002197 0.021519 0.014901 0.000611 -0.006103
# 4 -0.002284 0.001065 0.014901 0.045920 0.014018 -0.002435
# 5 0.000847 0.002966 0.000611 0.014018 0.037283 0.001900
# 6 0.003954 -0.001624 -0.006103 -0.002435 0.001900 0.024795
#
#
# Mechanical properties :
#
#
# Convention : Reuss Voigt Hill
#
# Bulk Modulus (GPa) = 48.48587 68.33992 58.41289
# Shear Modulus (GPa) = 27.52139 36.06847 31.79493
#
# Velocity S-wave (km/s) = 3.62203 4.14649 3.89310
# Velocity P-wave (km/s) = 6.37218 7.44992 6.93203
#
# Compressibility (1/GPa) = 0.02062456
#
# Stress axis : x y z
#
# Youngs Moduli (GPa) = 102.70596 80.26282 46.47151
#
# Poissons Ratio (x) = 0.22911 0.30176
# Poissons Ratio (y) = 0.29317 0.10209
# Poissons Ratio (z) = 0.66692 0.17632
#
# Static dielectric constant tensor:
#      x y z
#    x 1.704620 0.103330 -0.043250 
#    y 0.103330 1.843740 0.035100 
#    z -0.043250 0.035100 1.768180 
# 
# From -- ./inp_files/622403.got.cif
#   From: 2010.05.17/outbox.cif.g08.bks.cpg/sg2_312_cif.got.tgz:622403.got - 2010.06.03 11:33:40.
