data_PCOD9065498
_publ_section_title
;
Structure prediction by ZEFSAII (Michael W. Deem and Ramdas Pophale) SiO2 
 PCOD9065498
Probable space group: P -1
;
_chemical_formula_sum "Si O2"
_cell_formula_units_Z 16
_cell_length_a 12.022208
_cell_length_b 8.947285
_cell_length_c 18.879483
_cell_angle_alpha 145.864250
_cell_angle_beta 143.310452
_cell_angle_gamma 38.370430
_cell_volume 635.554063
_symmetry_space_group_name_H-M "P -1"
_symmetry_group_IT_number 2
_symmetry_cell_setting 'triclinic'
loop_
_space_group_symop_operation_xyz
x,y,z
-x,-y,-z
loop_
_atom_site_type_symbol
_atom_site_label
_atom_site_fract_x
_atom_site_fract_y
_atom_site_fract_z
Si Si1 0.227687 0.142194 0.999062
Si Si2 0.603377 0.613144 0.034903
Si Si3 0.356952 0.718431 0.457648
Si Si4 0.155614 0.907678 0.145806
Si Si5 0.026348 0.538641 0.273317
Si Si6 0.087338 0.301739 0.572758
Si Si7 0.395267 0.636939 0.283810
Si Si8 0.819750 0.246769 0.286167
O O1 0.050157 0.136491 0.957228
O O2 0.181361 0.049578 0.860922
O O3 0.261984 0.437434 0.134529
O O4 0.435883 0.894437 0.029245
O O5 0.795874 0.664299 0.183926
O O6 0.500000 0.500000 0.000000
O O7 0.696691 0.361687 0.927122
O O8 0.500000 0.500000 0.500000
O O9 0.161742 0.631882 0.326039
O O10 0.425313 0.706238 0.407162
O O11 0.293909 0.037833 0.580086
O O12 0.274256 0.906551 0.279153
O O13 0.102087 0.197972 0.188263
O O14 0.038552 0.659991 0.405491
O O15 0.128433 0.588291 0.689175
O O16 0.975868 0.232870 0.421640
O O17 0.606619 0.450182 0.285455
#
# Coordination Sequence:
#
# PCOD9065498 Si02
#       8
#     2   2   2   2   2   2   2   2
#     4  12  25  48  75 114 156 197 252 314 388 444
#     4  12  26  44  76 114 155 203 246 311 385 462
#     4  12  30  48  75 113 153 202 258 321 382 456
#     4  12  26  48  75 114 151 201 254 306 385 453
#     4  12  27  48  76 107 155 202 255 315 382 458
#     4  11  26  49  76 103 151 200 262 308 380 456
#     4  12  28  46  78 112 156 194 256 323 375 458
#     4  11  24  48  77 110 144 206 253 315 378 449
#
# _framework density 25.174883999999999
#
# number of rings (size 3 to 8) (size 9 to 14) (size 15 to 20)
#    0.000    0.250    3.750    3.750    8.750    0.500 
#    0.000    0.000    0.000    0.000    0.000    0.000 
#    0.000    0.000    0.000    0.000    0.000    0.000 
#
# Total GULP energy -89840.603255 kJ/mol
# GULP energy per Si atom -5615.037703 kJ/mol
# Density = 2.511758 g / cm^3
# Si number density = 25.174884 Si / 1000 Ang^3
#
#
#
# Elastic Constant Matrix: (Units=GPa)
#
#
# Indices 1 2 3 4 5 6 
#
# 1 116.4565 26.6867 11.1070 -5.8681 -2.3443 -17.8099
# 2 26.6867 135.2048 26.5828 -5.8896 -5.5606 -14.1367
# 3 11.1070 26.5828 65.9150 -8.6721 -3.1532 5.5496
# 4 -5.8681 -5.8896 -8.6721 35.0836 1.3016 -3.1837
# 5 -2.3443 -5.5606 -3.1532 1.3016 42.1532 0.3480
# 6 -17.8099 -14.1367 5.5496 -3.1837 0.3480 33.2539
#
#
#
# Elastic Compliance Matrix: (Units=1/GPa)
#
#
# Indices 1 2 3 4 5 6 
#
# 1 0.009846 -0.001031 -0.001466 0.001578 0.000210 0.005229
# 2 -0.001031 0.008762 -0.003547 0.000740 0.000779 0.003827
# 3 -0.001466 -0.003547 0.017703 0.003058 0.000721 -0.004962
# 4 0.001578 0.000740 0.003058 0.029988 -0.000541 0.003526
# 5 0.000210 0.000779 0.000721 -0.000541 0.023908 0.000021
# 6 0.005229 0.003827 -0.004962 0.003526 0.000021 0.035664
#
#
# Mechanical properties :
#
#
# Convention : Reuss Voigt Hill
#
# Bulk Modulus (GPa) = 41.28381 49.59216 45.43798
# Shear Modulus (GPa) = 34.23865 38.97813 36.60839
#
# Velocity S-wave (km/s) = 3.69186 3.93911 3.81749
# Velocity P-wave (km/s) = 5.88282 6.35850 6.12528
#
# Compressibility (1/GPa) = 0.02422257
#
# Stress axis : x y z
#
# Youngs Moduli (GPa) = 101.56027 114.13479 56.48668
#
# Poissons Ratio (x) = 0.11770 0.08280
# Poissons Ratio (y) = 0.10473 0.20038
# Poissons Ratio (z) = 0.14887 0.40487
#
# Static dielectric constant tensor:
#      x y z
#    x 1.939140 0.009690 -0.007110 
#    y 0.009690 1.970740 -0.026520 
#    z -0.007110 -0.026520 2.002980 
# 
# From -- ./inp_files/278875.got.cif
#   From: 2010.05.17/outbox.cif.g08.bks.cpg/sg2_140_cif.got.tgz:278875.got - 2010.06.03 11:33:40.
