data_PCOD9065278
_publ_section_title
;
Structure prediction by ZEFSAII (Michael W. Deem and Ramdas Pophale) SiO2 
 PCOD9065278
Probable space group: P -1
;
_chemical_formula_sum "Si O2"
_cell_formula_units_Z 12
_cell_length_a 15.070817
_cell_length_b 5.057813
_cell_length_c 11.316793
_cell_angle_alpha 119.738537
_cell_angle_beta 139.923813
_cell_angle_gamma 59.773076
_cell_volume 470.235916
_symmetry_space_group_name_H-M "P -1"
_symmetry_group_IT_number 2
_symmetry_cell_setting 'triclinic'
loop_
_space_group_symop_operation_xyz
x,y,z
-x,-y,-z
loop_
_atom_site_type_symbol
_atom_site_label
_atom_site_fract_x
_atom_site_fract_y
_atom_site_fract_z
Si Si1 0.123584 0.510969 0.310600
Si Si2 0.874851 0.358166 0.393275
Si Si3 0.187133 0.179959 0.955670
Si Si4 0.316670 0.854227 0.437834
Si Si5 0.425303 0.306680 0.789574
Si Si6 0.372660 0.658344 0.194266
O O1 0.112501 0.699885 0.466075
O O2 0.230591 0.622299 0.356302
O O3 0.963705 0.593073 0.117316
O O4 0.193638 0.157981 0.342086
O O5 0.730481 0.615325 0.298072
O O6 0.000000 0.500000 0.500000
O O7 0.845197 0.070594 0.226173
O O8 0.283652 0.390661 0.042131
O O9 0.272298 0.965838 0.098588
O O10 0.393829 0.733115 0.368447
O O11 0.423770 0.959482 0.662737
O O12 0.484839 0.420512 0.753988
O O13 0.500000 0.500000 0.000000
#
# Coordination Sequence:
#
# PCOD9065278 Si02
#       6
#     2   2   2   2   2   2
#     4  11  25  44  76 104 148 195 246 300 361 432
#     4  11  24  47  77 110 150 188 248 308 363 426
#     4  12  25  43  74 110 149 192 246 298 366 430
#     4  11  26  48  71 107 147 196 243 297 366 432
#     4  11  25  48  78 107 146 193 247 300 365 434
#     4  12  27  45  72 108 152 190 240 303 364 440
#
# _framework density 25.519103999999999
#
# number of rings (size 3 to 8) (size 9 to 14) (size 15 to 20)
#    0.000    0.667    1.667    6.000    2.333    7.333 
#    0.000    5.833    0.000    0.000    0.000    0.000 
#    0.000    0.000    0.000    0.000    0.000    0.000 
#
# Total GULP energy -67087.880267 kJ/mol
# GULP energy per Si atom -5590.656689 kJ/mol
# Density = 2.546102 g / cm^3
# Si number density = 25.519104 Si / 1000 Ang^3
#
#
#
# Elastic Constant Matrix: (Units=GPa)
#
#
# Indices 1 2 3 4 5 6 
#
# 1 155.5539 23.1726 44.6973 0.3166 19.9507 -8.0354
# 2 23.1726 108.6315 32.0573 -1.7602 4.2724 23.2973
# 3 44.6973 32.0573 87.7841 9.5767 18.1252 -16.4957
# 4 0.3166 -1.7602 9.5767 43.5581 5.6492 -4.7731
# 5 19.9507 4.2724 18.1252 5.6492 55.0445 20.0139
# 6 -8.0354 23.2973 -16.4957 -4.7731 20.0139 40.2863
#
#
#
# Elastic Compliance Matrix: (Units=1/GPa)
#
#
# Indices 1 2 3 4 5 6 
#
# 1 0.007916 -0.001607 -0.002238 0.001179 -0.003366 0.003404
# 2 -0.001607 0.016467 -0.010813 -0.000334 0.009889 -0.019223
# 3 -0.002238 -0.010813 0.023774 -0.001348 -0.014197 0.022434
# 4 0.001179 -0.000334 -0.001348 0.024311 -0.004217 0.004852
# 5 -0.003366 0.009889 -0.014197 -0.004217 0.034594 -0.029889
# 6 0.003404 -0.019223 0.022434 0.004852 -0.029889 0.061227
#
#
# Mechanical properties :
#
#
# Convention : Reuss Voigt Hill
#
# Bulk Modulus (GPa) = 53.07305 61.31376 57.19341
# Shear Modulus (GPa) = 24.52351 44.58059 34.55205
#
# Velocity S-wave (km/s) = 3.10334 4.18419 3.68362
# Velocity P-wave (km/s) = 5.80375 6.88636 6.36810
#
# Compressibility (1/GPa) = 0.01884195
#
# Stress axis : x y z
#
# Youngs Moduli (GPa) = 126.32316 60.72593 42.06303
#
# Poissons Ratio (x) = 0.09757 0.09414
# Poissons Ratio (y) = 0.20296 0.45483
# Poissons Ratio (z) = 0.28271 0.65664
#
# Static dielectric constant tensor:
#      x y z
#    x 1.947330 -0.101060 -0.038180 
#    y -0.101060 2.179980 -0.076020 
#    z -0.038180 -0.076020 2.063610 
# 
# From -- ./inp_files/440169.got.cif
#   From: 2010.05.17/outbox.cif.g08.bks.cpg/sg2_221_cif.got.tgz:440169.got - 2010.06.03 11:33:40.
