data_PCOD9065435
_publ_section_title
;
Structure prediction by ZEFSAII (Michael W. Deem and Ramdas Pophale) SiO2 
 PCOD9065435
Probable space group: P -1
;
_chemical_formula_sum "Si O2"
_cell_formula_units_Z 14
_cell_length_a 8.823615
_cell_length_b 15.776579
_cell_length_c 15.739384
_cell_angle_alpha 153.494807
_cell_angle_beta 116.563228
_cell_angle_gamma 47.929716
_cell_volume 644.449330
_symmetry_space_group_name_H-M "P -1"
_symmetry_group_IT_number 2
_symmetry_cell_setting 'triclinic'
loop_
_space_group_symop_operation_xyz
x,y,z
-x,-y,-z
loop_
_atom_site_type_symbol
_atom_site_label
_atom_site_fract_x
_atom_site_fract_y
_atom_site_fract_z
Si Si1 0.231769 0.077188 0.340515
Si Si2 0.764247 0.161078 0.034537
Si Si3 0.646446 0.576443 0.087913
Si Si4 0.462454 0.044917 0.930808
Si Si5 0.061403 0.158761 0.693317
Si Si6 0.033417 0.417040 0.745492
Si Si7 0.442178 0.268714 0.480151
O O1 0.058513 0.238899 0.519638
O O2 0.257872 0.257681 0.460724
O O3 0.476715 0.840732 0.230905
O O4 0.180966 0.949711 0.146716
O O5 0.632680 0.460617 0.276567
O O6 0.607861 0.112334 0.991120
O O7 0.000000 0.000000 0.000000
O O8 0.745062 0.611319 0.225847
O O9 0.500000 0.500000 0.000000
O O10 0.868436 0.357147 0.891443
O O11 0.533658 0.805301 0.679552
O O12 0.197699 0.292649 0.066898
O O13 0.500000 0.000000 0.000000
O O14 0.042375 0.314020 0.747736
O O15 0.312375 0.960745 0.620501
O O16 0.000000 0.000000 0.500000
#
# Coordination Sequence:
#
# PCOD9065435 Si02
#       7
#     2   2   2   2   2   2   2
#     4  11  26  43  71 107 144 185 240 294 358 419
#     4  11  28  49  73 101 140 190 246 297 356 428
#     4  12  25  41  70 109 147 189 238 287 360 429
#     4  11  27  48  73 105 141 189 241 294 359 423
#     4  12  23  43  71 102 146 187 233 289 360 429
#     4  12  25  46  71 107 149 187 233 298 357 428
#     4  11  24  48  74 101 143 190 236 296 359 425
#
# _framework density 21.723973000000001
#
# number of rings (size 3 to 8) (size 9 to 14) (size 15 to 20)
#    0.000    0.571    2.857    5.143    8.000    1.714 
#    2.571    0.000    0.000    0.000    0.000    0.000 
#    0.000    0.000    0.000    0.000    0.000    0.000 
#
# Total GULP energy -78387.121040 kJ/mol
# GULP energy per Si atom -5599.080074 kJ/mol
# Density = 2.167453 g / cm^3
# Si number density = 21.723973 Si / 1000 Ang^3
#
#
#
# Elastic Constant Matrix: (Units=GPa)
#
#
# Indices 1 2 3 4 5 6 
#
# 1 72.9530 29.8938 36.4724 -5.4226 14.9368 -2.5992
# 2 29.8938 109.9400 41.1449 -24.3911 -8.4755 -0.4857
# 3 36.4724 41.1449 154.8763 -30.2902 5.2851 9.9387
# 4 -5.4226 -24.3911 -30.2902 40.5635 -4.6464 -1.3125
# 5 14.9368 -8.4755 5.2851 -4.6464 35.9227 -0.7145
# 6 -2.5992 -0.4857 9.9387 -1.3125 -0.7145 32.1750
#
#
#
# Elastic Compliance Matrix: (Units=1/GPa)
#
#
# Indices 1 2 3 4 5 6 
#
# 1 0.019628 -0.005650 -0.003857 -0.004666 -0.009485 0.002291
# 2 -0.005650 0.013096 -0.001008 0.007129 0.006519 0.000488
# 3 -0.003857 -0.001008 0.008863 0.005487 0.000716 -0.002825
# 4 -0.004666 0.007129 0.005487 0.033212 0.007102 -0.000452
# 5 -0.009485 0.006519 0.000716 0.007102 0.034136 0.000159
# 6 0.002291 0.000488 -0.002825 -0.000452 0.000159 0.032130
#
#
# Mechanical properties :
#
#
# Convention : Reuss Voigt Hill
#
# Bulk Modulus (GPa) = 48.64673 61.42127 55.03400
# Shear Modulus (GPa) = 29.59525 37.08279 33.33902
#
# Velocity S-wave (km/s) = 3.69498 4.13607 3.92173
# Velocity P-wave (km/s) = 6.37539 7.15152 6.77458
#
# Compressibility (1/GPa) = 0.02055637
#
# Stress axis : x y z
#
# Youngs Moduli (GPa) = 50.94863 76.36093 112.82992
#
# Poissons Ratio (x) = 0.43141 0.43520
# Poissons Ratio (y) = 0.28784 0.11374
# Poissons Ratio (z) = 0.19652 0.07698
#
# Static dielectric constant tensor:
#      x y z
#    x 1.825000 -0.001400 0.064350 
#    y -0.001400 1.792970 -0.114840 
#    z 0.064350 -0.114840 2.050550 
# 
# From -- ./inp_files/224325.got.cif
#   From: 2010.05.17/outbox.cif.g08.bks.cpg/sg2_113_cif.got.tgz:224325.got - 2010.06.03 11:33:40.
