data_PCOD9065506
_publ_section_title
;
Structure prediction by ZEFSAII (Michael W. Deem and Ramdas Pophale) SiO2 
 PCOD9065506
Probable space group: P -1
;
_chemical_formula_sum "Si O2"
_cell_formula_units_Z 12
_cell_length_a 7.442221
_cell_length_b 9.137224
_cell_length_c 12.403547
_cell_angle_alpha 120.109234
_cell_angle_beta 48.787642
_cell_angle_gamma 89.350315
_cell_volume 467.062992
_symmetry_space_group_name_H-M "P -1"
_symmetry_group_IT_number 2
_symmetry_cell_setting 'triclinic'
loop_
_space_group_symop_operation_xyz
x,y,z
-x,-y,-z
loop_
_atom_site_type_symbol
_atom_site_label
_atom_site_fract_x
_atom_site_fract_y
_atom_site_fract_z
Si Si1 0.117725 0.156865 0.953256
Si Si2 0.643762 0.597510 0.097084
Si Si3 0.959638 0.224214 0.686413
Si Si4 0.468971 0.531367 0.681683
Si Si5 0.904888 0.100314 0.314351
Si Si6 0.303443 0.183626 0.320017
O O1 0.219629 0.274838 0.882297
O O2 0.035763 0.032948 0.862832
O O3 0.386112 0.008771 0.862018
O O4 0.841105 0.318287 0.184764
O O5 0.340976 0.742650 0.216872
O O6 0.582585 0.498863 0.184524
O O7 0.854960 0.426222 0.868622
O O8 0.135401 0.209029 0.506606
O O9 0.113112 0.030282 0.629435
O O10 0.619671 0.312220 0.492442
O O11 0.654618 0.631124 0.641387
O O12 0.136472 0.149968 0.279069
#
# Coordination Sequence:
#
# PCOD9065506 Si02
#       6
#     2   2   2   2   2   2
#     4  12  28  50  76 113 151 196 251 306 370 449
#     4  11  24  48  79 110 150 194 255 305 367 446
#     4  11  24  48  78 112 143 205 249 303 370 444
#     4  12  27  49  74 116 148 196 250 308 374 439
#     4  12  26  49  80 108 146 203 248 302 372 442
#     4  12  27  51  76 109 156 192 251 309 372 443
#
# _framework density 25.692466
#
# number of rings (size 3 to 8) (size 9 to 14) (size 15 to 20)
#    0.000    0.333    5.000    3.000    2.333    2.667 
#    3.000    0.000    0.000    0.000    0.000    0.000 
#    0.000    0.000    0.000    0.000    0.000    0.000 
#
# Total GULP energy -67366.870355 kJ/mol
# GULP energy per Si atom -5613.905863 kJ/mol
# Density = 2.563399 g / cm^3
# Si number density = 25.692466 Si / 1000 Ang^3
#
#
#
# Elastic Constant Matrix: (Units=GPa)
#
#
# Indices 1 2 3 4 5 6 
#
# 1 78.2439 32.7217 61.7066 0.7707 -10.2190 8.1243
# 2 32.7217 165.5224 67.2723 4.0883 -16.2002 22.4179
# 3 61.7066 67.2723 176.4714 22.2467 -16.2851 0.1284
# 4 0.7707 4.0883 22.2467 39.0999 -7.2464 -11.0574
# 5 -10.2190 -16.2002 -16.2851 -7.2464 27.1386 1.3430
# 6 8.1243 22.4179 0.1284 -11.0574 1.3430 37.1915
#
#
#
# Elastic Compliance Matrix: (Units=1/GPa)
#
#
# Indices 1 2 3 4 5 6 
#
# 1 0.018863 -0.000363 -0.006493 0.003237 0.004005 -0.003061
# 2 -0.000363 0.008213 -0.002673 -0.000125 0.003377 -0.005021
# 3 -0.006493 -0.002673 0.009559 -0.004489 0.000415 0.001647
# 4 0.003237 -0.000125 -0.004489 0.031707 0.006493 0.008576
# 5 0.004005 0.003377 0.000415 0.006493 0.042480 -0.002516
# 6 -0.003061 -0.005021 0.001647 0.008576 -0.002516 0.033218
#
#
# Mechanical properties :
#
#
# Convention : Reuss Voigt Hill
#
# Bulk Modulus (GPa) = 56.89614 82.62654 69.76134
# Shear Modulus (GPa) = 29.59319 37.92180 33.75749
#
# Velocity S-wave (km/s) = 3.39753 3.84603 3.62872
# Velocity P-wave (km/s) = 6.13059 7.20779 6.69090
#
# Compressibility (1/GPa) = 0.01757589
#
# Stress axis : x y z
#
# Youngs Moduli (GPa) = 53.01512 121.75346 104.61184
#
# Poissons Ratio (x) = 0.04421 0.67930
# Poissons Ratio (y) = 0.01925 0.27962
# Poissons Ratio (z) = 0.34425 0.32544
#
# Static dielectric constant tensor:
#      x y z
#    x 1.991190 -0.050100 -0.022790 
#    y -0.050100 2.025780 0.015180 
#    z -0.022790 0.015180 1.972290 
# 
# From -- ./inp_files/495552.got.cif
#   From: 2010.05.17/outbox.cif.g08.bks.cpg/sg2_248_cif.got.tgz:495552.got - 2010.06.03 11:33:40.
