data_PCOD9065784
_publ_section_title
;
Structure prediction by ZEFSAII (Michael W. Deem and Ramdas Pophale) SiO2 
 PCOD9065784
Probable space group: P -1
;
_chemical_formula_sum "Si O2"
_cell_formula_units_Z 14
_cell_length_a 11.310725
_cell_length_b 12.128409
_cell_length_c 5.223156
_cell_angle_alpha 76.216601
_cell_angle_beta 59.641681
_cell_angle_gamma 104.352846
_cell_volume 539.367551
_symmetry_space_group_name_H-M "P -1"
_symmetry_group_IT_number 2
_symmetry_cell_setting 'triclinic'
loop_
_space_group_symop_operation_xyz
x,y,z
-x,-y,-z
loop_
_atom_site_type_symbol
_atom_site_label
_atom_site_fract_x
_atom_site_fract_y
_atom_site_fract_z
Si Si1 0.176837 0.011502 0.065157
Si Si2 0.751098 0.591440 0.702617
Si Si3 0.627635 0.967523 0.659420
Si Si4 0.943652 0.795316 0.738764
Si Si5 0.519197 0.610223 0.610826
Si Si6 0.384273 0.787978 0.668301
Si Si7 0.962119 0.377888 0.931540
O O1 0.295433 0.038781 0.155775
O O2 0.097285 0.104238 0.128362
O O3 0.256157 0.024137 0.700978
O O4 0.049183 0.870474 0.342676
O O5 0.796362 0.680165 0.850007
O O6 0.682002 0.654504 0.539972
O O7 0.901613 0.583576 0.443613
O O8 0.612423 0.457341 0.993152
O O9 0.469827 0.852303 0.803538
O O10 0.609040 0.096289 0.575183
O O11 0.026612 0.732228 0.851694
O O12 0.500000 0.500000 0.500000
O O13 0.479421 0.717986 0.485144
O O14 0.209770 0.685313 0.948630
O O15 0.000000 0.500000 0.000000
#
# Coordination Sequence:
#
# PCOD9065784 Si02
#       7
#     2   2   2   2   2   2   2
#     4  11  26  47  77 110 151 197 261 309 385 452
#     4  11  25  45  74 104 145 197 255 304 389 446
#     4  11  26  50  74 113 147 205 252 322 378 456
#     4  11  25  42  74 105 150 195 245 322 373 467
#     4  11  25  48  72 109 143 201 252 319 372 464
#     4  11  25  46  74 106 157 193 255 317 386 454
#     4  12  26  48  71 112 152 198 250 317 385 459
#
# _framework density 25.956327999999999
#
# number of rings (size 3 to 8) (size 9 to 14) (size 15 to 20)
#    0.000    0.857    1.429    4.286    6.000    6.857 
#   10.286    0.000    0.000    0.000    0.000    0.000 
#    0.000    0.000    0.000    0.000    0.000    0.000 
#
# Total GULP energy -78599.041800 kJ/mol
# GULP energy per Si atom -5614.217271 kJ/mol
# Density = 2.589725 g / cm^3
# Si number density = 25.956328 Si / 1000 Ang^3
#
#
#
# Elastic Constant Matrix: (Units=GPa)
#
#
# Indices 1 2 3 4 5 6 
#
# 1 159.7935 55.1129 20.6725 -4.5098 -16.7236 -8.3326
# 2 55.1129 144.9808 32.6930 0.8410 -5.3928 -29.1613
# 3 20.6725 32.6930 109.7802 0.7982 -15.5965 -0.4122
# 4 -4.5098 0.8410 0.7982 43.9104 3.0834 -7.1524
# 5 -16.7236 -5.3928 -15.5965 3.0834 36.6526 -9.5719
# 6 -8.3326 -29.1613 -0.4122 -7.1524 -9.5719 53.3562
#
#
#
# Elastic Compliance Matrix: (Units=1/GPa)
#
#
# Indices 1 2 3 4 5 6 
#
# 1 0.007549 -0.002641 -0.000212 0.000678 0.003003 0.000364
# 2 -0.002641 0.009388 -0.002217 0.000343 0.000466 0.004831
# 3 -0.000212 -0.002217 0.010364 -0.000528 0.003891 -0.000537
# 4 0.000678 0.000343 -0.000528 0.023446 -0.000987 0.003255
# 5 0.003003 0.000466 0.003891 -0.000987 0.032129 0.006385
# 6 0.000364 0.004831 -0.000537 0.003255 0.006385 0.023017
#
#
# Mechanical properties :
#
#
# Convention : Reuss Voigt Hill
#
# Bulk Modulus (GPa) = 58.26867 70.16792 64.21829
# Shear Modulus (GPa) = 41.06714 47.18892 44.12803
#
# Velocity S-wave (km/s) = 3.98196 4.26844 4.12768
# Velocity P-wave (km/s) = 6.60596 7.16830 6.89287
#
# Compressibility (1/GPa) = 0.01716188
#
# Stress axis : x y z
#
# Youngs Moduli (GPa) = 132.47194 106.51545 96.48937
#
# Poissons Ratio (x) = 0.28129 0.02044
# Poissons Ratio (y) = 0.34984 0.21389
# Poissons Ratio (z) = 0.02807 0.23612
#
# Static dielectric constant tensor:
#      x y z
#    x 2.018380 -0.015440 -0.003430 
#    y -0.015440 1.995280 -0.012810 
#    z -0.003430 -0.012810 2.115010 
# 
# From -- ./inp_files/68906.got.cif
#   From: 2010.05.17/outbox.cif.g08.bks.cpg/sg2_35_cif.got.tgz:68906.got - 2010.06.03 11:33:40.
