data_PCOD9065297
_publ_section_title
;
Structure prediction by ZEFSAII (Michael W. Deem and Ramdas Pophale) SiO2 
 PCOD9065297
Probable space group: P -1
;
_chemical_formula_sum "Si O2"
_cell_formula_units_Z 14
_cell_length_a 10.441930
_cell_length_b 15.357720
_cell_length_c 5.445415
_cell_angle_alpha 68.722851
_cell_angle_beta 77.053141
_cell_angle_gamma 43.160601
_cell_volume 555.492386
_symmetry_space_group_name_H-M "P -1"
_symmetry_group_IT_number 2
_symmetry_cell_setting 'triclinic'
loop_
_space_group_symop_operation_xyz
x,y,z
-x,-y,-z
loop_
_atom_site_type_symbol
_atom_site_label
_atom_site_fract_x
_atom_site_fract_y
_atom_site_fract_z
Si Si1 0.656504 0.843687 0.055353
Si Si2 0.909089 0.630677 0.754713
Si Si3 0.540758 0.252795 0.810189
Si Si4 0.086489 0.872589 0.434959
Si Si5 0.724161 0.376073 0.037087
Si Si6 0.012378 0.238880 0.669747
Si Si7 0.341698 0.393539 0.270294
O O1 0.535762 0.810003 0.165997
O O2 0.824250 0.800620 0.194479
O O3 0.763401 0.767182 0.832601
O O4 0.500000 0.000000 0.000000
O O5 0.045250 0.638727 0.578130
O O6 0.789701 0.630235 0.613107
O O7 0.000000 0.500000 0.000000
O O8 0.761342 0.154056 0.776906
O O9 0.442260 0.362648 0.518651
O O10 0.476918 0.305214 0.065376
O O11 0.928037 0.885306 0.371697
O O12 0.197787 0.736490 0.685180
O O13 0.000000 0.000000 0.500000
O O14 0.779887 0.457286 0.925070
O O15 0.828369 0.294044 0.828522
O O16 0.500000 0.500000 0.000000
#
# Coordination Sequence:
#
# PCOD9065297 Si02
#       7
#     2   2   2   2   2   2   2
#     4  11  27  49  76 113 159 211 265 329 409 487
#     4  11  25  45  74 114 154 200 261 336 402 473
#     4  11  26  49  78 113 156 210 260 329 398 481
#     4  12  30  49  73 109 158 210 270 328 399 483
#     4  12  27  48  76 112 157 211 265 332 406 481
#     4  12  27  48  80 112 155 204 270 333 399 481
#     4  11  24  47  78 114 153 201 265 324 404 474
#
# _framework density 25.202867999999999
#
# number of rings (size 3 to 8) (size 9 to 14) (size 15 to 20)
#    0.000    0.571    2.857    3.429   10.000    5.714 
#    0.000    0.000    0.000    0.000    0.000    0.000 
#    0.000    0.000    0.000    0.000    0.000    0.000 
#
# Total GULP energy -78119.931896 kJ/mol
# GULP energy per Si atom -5579.995135 kJ/mol
# Density = 2.514551 g / cm^3
# Si number density = 25.202868 Si / 1000 Ang^3
#
#
#
# Elastic Constant Matrix: (Units=GPa)
#
#
# Indices 1 2 3 4 5 6 
#
# 1 141.2103 31.5067 17.5984 14.5434 -19.6904 23.5066
# 2 31.5067 118.9517 2.4124 4.4589 -15.1479 10.8087
# 3 17.5984 2.4124 56.5332 0.0317 -27.7892 -4.0478
# 4 14.5434 4.4589 0.0317 19.0317 -4.4488 -1.1220
# 5 -19.6904 -15.1479 -27.7892 -4.4488 41.7733 1.2141
# 6 23.5066 10.8087 -4.0478 -1.1220 1.2141 43.3872
#
#
#
# Elastic Compliance Matrix: (Units=1/GPa)
#
#
# Indices 1 2 3 4 5 6 
#
# 1 0.009544 -0.001521 -0.002407 -0.006828 0.001771 -0.005242
# 2 -0.001521 0.009421 0.001938 -0.000197 0.004010 -0.001459
# 3 -0.002407 0.001938 0.027667 0.005845 0.018508 0.003036
# 4 -0.006828 -0.000197 0.005845 0.059719 0.006794 0.005648
# 5 0.001771 0.004010 0.018508 0.006794 0.039297 -0.001156
# 6 -0.005242 -0.001459 0.003036 0.005648 -0.001156 0.026714
#
#
# Mechanical properties :
#
#
# Convention : Reuss Voigt Hill
#
# Bulk Modulus (GPa) = 23.44551 46.63667 35.04109
# Shear Modulus (GPa) = 26.23867 38.51696 32.37782
#
# Velocity S-wave (km/s) = 3.23011 3.91356 3.58814
# Velocity P-wave (km/s) = 4.82020 6.24227 5.57675
#
# Compressibility (1/GPa) = 0.04265209
#
# Stress axis : x y z
#
# Youngs Moduli (GPa) = 104.77941 106.14538 36.14422
#
# Poissons Ratio (x) = 0.16147 0.08700
# Poissons Ratio (y) = 0.15940 -0.07006
# Poissons Ratio (z) = 0.25221 -0.20575
#
# Static dielectric constant tensor:
#      x y z
#    x 2.091150 -0.002140 0.076820 
#    y -0.002140 1.960720 0.047450 
#    z 0.076820 0.047450 2.172710 
# 
# From -- ./inp_files/77336.got.cif
#   From: 2010.05.17/outbox.cif.g08.bks.cpg/sg2_39_cif.got.tgz:77336.got - 2010.06.03 11:33:40.
