data_PCOD9065198
_publ_section_title
;
Structure prediction by ZEFSAII (Michael W. Deem and Ramdas Pophale) SiO2 
 PCOD9065198
Probable space group: P -1
;
_chemical_formula_sum "Si O2"
_cell_formula_units_Z 14
_cell_length_a 17.480426
_cell_length_b 7.478499
_cell_length_c 4.872159
_cell_angle_alpha 82.339102
_cell_angle_beta 65.214635
_cell_angle_gamma 72.034069
_cell_volume 550.052365
_symmetry_space_group_name_H-M "P -1"
_symmetry_group_IT_number 2
_symmetry_cell_setting 'triclinic'
loop_
_space_group_symop_operation_xyz
x,y,z
-x,-y,-z
loop_
_atom_site_type_symbol
_atom_site_label
_atom_site_fract_x
_atom_site_fract_y
_atom_site_fract_z
Si Si1 0.110079 0.762945 0.293097
Si Si2 0.831937 0.949858 0.492108
Si Si3 0.743977 0.624293 0.856440
Si Si4 0.346093 0.848591 0.517662
Si Si5 0.451981 0.684760 0.864057
Si Si6 0.998837 0.283818 0.039634
Si Si7 0.630412 0.753936 0.499082
O O1 0.187171 0.572969 0.269916
O O2 0.858921 0.064241 0.675430
O O3 0.026580 0.761784 0.609004
O O4 0.076912 0.751081 0.037085
O O5 0.790629 0.789290 0.703586
O O6 0.756508 0.098615 0.402939
O O7 0.911544 0.843840 0.197666
O O8 0.660093 0.676485 0.772677
O O9 0.705666 0.632520 0.215003
O O10 0.386734 0.684467 0.708395
O O11 0.363462 0.034947 0.579447
O O12 0.395193 0.813831 0.159577
O O13 0.531967 0.749420 0.600840
O O14 0.500000 0.500000 0.000000
O O15 0.000000 0.500000 0.000000
#
# Coordination Sequence:
#
# PCOD9065198 Si02
#       7
#     2   2   2   2   2   2   2
#     4  12  27  47  76 109 157 197 255 314 383 445
#     4  11  27  48  78 113 153 198 264 310 384 454
#     4  11  25  45  74 109 150 200 247 319 374 446
#     4  11  25  46  75 105 148 201 247 312 378 452
#     4  12  26  47  73 112 150 192 252 316 377 450
#     4  12  26  49  78 111 153 205 249 313 382 453
#     4  11  24  47  74 104 150 198 251 302 384 449
#
# _framework density 25.452124000000001
#
# number of rings (size 3 to 8) (size 9 to 14) (size 15 to 20)
#    0.000    0.571    1.429    6.000    4.000    4.571 
#    2.571    0.000    0.000    0.000    0.000    0.000 
#    0.000    0.000    0.000    0.000    0.000    0.000 
#
# Total GULP energy -78594.005309 kJ/mol
# GULP energy per Si atom -5613.857522 kJ/mol
# Density = 2.539419 g / cm^3
# Si number density = 25.452124 Si / 1000 Ang^3
#
#
#
# Elastic Constant Matrix: (Units=GPa)
#
#
# Indices 1 2 3 4 5 6 
#
# 1 107.8510 72.2488 16.9183 3.7415 -13.4222 -5.5955
# 2 72.2488 130.7009 36.6312 24.5812 -5.2386 -11.6355
# 3 16.9183 36.6312 92.9786 21.0731 4.7211 9.1506
# 4 3.7415 24.5812 21.0731 43.1748 -12.8284 3.9877
# 5 -13.4222 -5.2386 4.7211 -12.8284 36.6196 0.1107
# 6 -5.5955 -11.6355 9.1506 3.9877 0.1107 40.5262
#
#
#
# Elastic Compliance Matrix: (Units=1/GPa)
#
#
# Indices 1 2 3 4 5 6 
#
# 1 0.016852 -0.010193 -0.000914 0.007065 0.007315 -0.001109
# 2 -0.010193 0.015892 -0.002732 -0.008474 -0.004093 0.004617
# 3 -0.000914 -0.002732 0.014001 -0.006284 -0.004722 -0.003441
# 4 0.007065 -0.008474 -0.006284 0.035070 0.014484 -0.003529
# 5 0.007315 -0.004093 -0.004722 0.014484 0.035088 -0.000620
# 6 -0.001109 0.004617 -0.003441 -0.003529 -0.000620 0.026974
#
#
# Mechanical properties :
#
#
# Convention : Reuss Voigt Hill
#
# Bulk Modulus (GPa) = 52.45233 64.79190 58.62212
# Shear Modulus (GPa) = 28.10403 37.77959 32.94181
#
# Velocity S-wave (km/s) = 3.32654 3.85689 3.60149
# Velocity P-wave (km/s) = 5.95042 6.73393 6.35426
#
# Compressibility (1/GPa) = 0.01906493
#
# Stress axis : x y z
#
# Youngs Moduli (GPa) = 59.34182 62.92411 71.42575
#
# Poissons Ratio (x) = 0.64140 0.06528
# Poissons Ratio (y) = 0.60489 0.19517
# Poissons Ratio (z) = 0.05423 0.17194
#
# Static dielectric constant tensor:
#      x y z
#    x 1.962410 -0.008050 -0.014540 
#    y -0.008050 2.018510 -0.038140 
#    z -0.014540 -0.038140 1.964750 
# 
# From -- ./inp_files/106461.got.cif
#   From: 2010.05.17/outbox.cif.g08.bks.cpg/sg2_54_cif.got.tgz:106461.got - 2010.06.03 11:33:40.
