data_PCOD9065579
_publ_section_title
;
Structure prediction by ZEFSAII (Michael W. Deem and Ramdas Pophale) SiO2 
 PCOD9065579
Probable space group: P -1
;
_chemical_formula_sum "Si O2"
_cell_formula_units_Z 12
_cell_length_a 11.481345
_cell_length_b 4.934996
_cell_length_c 24.358225
_cell_angle_alpha 63.223848
_cell_angle_beta 21.537732
_cell_angle_gamma 69.483305
_cell_volume 442.332026
_symmetry_space_group_name_H-M "P -1"
_symmetry_group_IT_number 2
_symmetry_cell_setting 'triclinic'
loop_
_space_group_symop_operation_xyz
x,y,z
-x,-y,-z
loop_
_atom_site_type_symbol
_atom_site_label
_atom_site_fract_x
_atom_site_fract_y
_atom_site_fract_z
Si Si1 0.483670 0.010945 0.222575
Si Si2 0.620702 0.420247 0.393708
Si Si3 0.398349 0.285280 0.910773
Si Si4 0.767218 0.804197 0.835879
Si Si5 0.124165 0.097963 0.554746
Si Si6 0.741672 0.000324 0.228774
O O1 0.457353 0.370545 0.204511
O O2 0.661895 0.937957 0.095936
O O3 0.648162 0.936557 0.212566
O O4 0.128091 0.806346 0.385073
O O5 0.500000 0.500000 0.500000
O O6 0.308250 0.325342 0.500050
O O7 0.844061 0.722233 0.241737
O O8 0.130824 0.816669 0.699775
O O9 0.598805 0.107056 0.880925
O O10 0.031365 0.290067 0.087880
O O11 0.500000 0.500000 0.000000
O O12 0.894655 0.818313 0.715235
O O13 0.411033 0.024779 0.400608
#
# Coordination Sequence:
#
# PCOD9065579 Si02
#       6
#     2   2   2   2   2   2
#     4  11  28  52  78 117 158 207 264 318 391 462
#     4  12  27  51  78 117 156 203 263 324 396 468
#     4  11  27  50  79 117 158 205 263 324 383 463
#     4  11  24  49  73 110 151 199 257 316 384 459
#     4  11  28  47  75 114 156 204 257 326 385 465
#     4  12  26  47  84 111 159 207 259 324 389 464
#
# _framework density 27.128944000000001
#
# number of rings (size 3 to 8) (size 9 to 14) (size 15 to 20)
#    0.000    0.667    3.333    2.000    9.333    0.667 
#    0.000    5.000    0.000    0.000    0.000    0.000 
#    0.000    0.000    0.000    0.000    0.000    0.000 
#
# Total GULP energy -66995.485212 kJ/mol
# GULP energy per Si atom -5582.957101 kJ/mol
# Density = 2.706720 g / cm^3
# Si number density = 27.128944 Si / 1000 Ang^3
#
#
#
# Elastic Constant Matrix: (Units=GPa)
#
#
# Indices 1 2 3 4 5 6 
#
# 1 129.5147 61.7470 42.8188 4.5336 -23.2891 0.8494
# 2 61.7470 99.4297 39.6800 -7.8471 -0.2662 2.0001
# 3 42.8188 39.6800 142.0890 16.9712 -16.7204 -11.9278
# 4 4.5336 -7.8471 16.9712 39.0072 -13.9550 -1.0424
# 5 -23.2891 -0.2662 -16.7204 -13.9550 35.6009 -1.5157
# 6 0.8494 2.0001 -11.9278 -1.0424 -1.5157 32.8757
#
#
#
# Elastic Compliance Matrix: (Units=1/GPa)
#
#
# Indices 1 2 3 4 5 6 
#
# 1 0.013215 -0.007843 -0.000823 0.000218 0.008295 0.000227
# 2 -0.007843 0.016688 -0.003565 0.003881 -0.005254 -0.002225
# 3 -0.000823 -0.003565 0.009322 -0.003677 0.002526 0.003620
# 4 0.000218 0.003881 -0.003677 0.031907 0.010949 -0.000059
# 5 0.008295 -0.005254 0.002526 0.010949 0.039089 0.003171
# 6 0.000227 -0.002225 0.003620 -0.000059 0.003171 0.032005
#
#
# Mechanical properties :
#
#
# Convention : Reuss Voigt Hill
#
# Bulk Modulus (GPa) = 67.74367 73.28054 70.51211
# Shear Modulus (GPa) = 29.13583 36.61593 32.87588
#
# Velocity S-wave (km/s) = 3.28071 3.67781 3.48492
# Velocity P-wave (km/s) = 6.27503 6.71607 6.49929
#
# Compressibility (1/GPa) = 0.01476153
#
# Stress axis : x y z
#
# Youngs Moduli (GPa) = 75.67119 59.92318 107.27553
#
# Poissons Ratio (x) = 0.47001 0.08828
# Poissons Ratio (y) = 0.59352 0.38247
# Poissons Ratio (z) = 0.06227 0.21364
#
# Static dielectric constant tensor:
#      x y z
#    x 2.161510 -0.054150 0.005160 
#    y -0.054150 2.237440 0.019960 
#    z 0.005160 0.019960 2.171890 
# 
# From -- ./inp_files/617769.got.cif
#   From: 2010.05.17/outbox.cif.g08.bks.cpg/sg2_309_cif.got.tgz:617769.got - 2010.06.03 11:33:40.
