data_PCOD9065443
_publ_section_title
;
Structure prediction by ZEFSAII (Michael W. Deem and Ramdas Pophale) SiO2 
 PCOD9065443
Probable space group: P -1
;
_chemical_formula_sum "Si O2"
_cell_formula_units_Z 14
_cell_length_a 7.050236
_cell_length_b 14.442289
_cell_length_c 16.620903
_cell_angle_alpha 23.449680
_cell_angle_beta 102.776407
_cell_angle_gamma 113.860529
_cell_volume 561.192179
_symmetry_space_group_name_H-M "P -1"
_symmetry_group_IT_number 2
_symmetry_cell_setting 'triclinic'
loop_
_space_group_symop_operation_xyz
x,y,z
-x,-y,-z
loop_
_atom_site_type_symbol
_atom_site_label
_atom_site_fract_x
_atom_site_fract_y
_atom_site_fract_z
Si Si1 0.972780 0.944005 0.447621
Si Si2 0.823638 0.390101 0.309670
Si Si3 0.950843 0.491325 0.598197
Si Si4 0.602757 0.622359 0.497438
Si Si5 0.252394 0.084563 0.984262
Si Si6 0.477131 0.554902 0.143598
Si Si7 0.802371 0.207395 0.103249
O O1 0.726337 0.663215 0.643232
O O2 0.163500 0.878653 0.489753
O O3 0.945137 0.164081 0.219908
O O4 0.602799 0.396449 0.256032
O O5 0.678551 0.833220 0.981971
O O6 0.867744 0.457541 0.355674
O O7 0.031355 0.621672 0.091077
O O8 0.858262 0.682195 0.465177
O O9 0.000000 0.500000 0.500000
O O10 0.743833 0.177983 0.835259
O O11 0.500000 0.500000 0.500000
O O12 0.433588 0.364756 0.739015
O O13 0.623782 0.904146 0.296487
O O14 0.000000 0.000000 0.000000
O O15 0.339365 0.650663 0.998481
O O16 0.000000 0.000000 0.500000
#
# Coordination Sequence:
#
# PCOD9065443 Si02
#       7
#     2   2   2   2   2   2   2
#     4  11  26  52  79 106 143 192 249 314 380 438
#     4  11  25  47  74 109 149 190 249 302 364 447
#     4  12  25  41  68 103 151 202 247 296 358 437
#     4  12  23  40  64  98 146 200 241 292 365 424
#     4  12  23  40  63 102 147 196 242 292 351 444
#     4  11  25  44  73 107 148 189 247 302 364 439
#     4  11  24  48  74 105 147 194 244 310 365 441
#
# _framework density 24.946891000000001
#
# number of rings (size 3 to 8) (size 9 to 14) (size 15 to 20)
#    0.000    0.571    4.286    3.857    2.000    5.143 
#    0.000    1.429    0.000    0.000    0.000    0.000 
#    0.000    0.000    0.000    0.000    0.000    0.000 
#
# Total GULP energy -78188.857836 kJ/mol
# GULP energy per Si atom -5584.918417 kJ/mol
# Density = 2.489011 g / cm^3
# Si number density = 24.946891 Si / 1000 Ang^3
#
#
#
# Elastic Constant Matrix: (Units=GPa)
#
#
# Indices 1 2 3 4 5 6 
#
# 1 164.3153 39.3404 62.6364 9.3265 46.4700 -13.1691
# 2 39.3404 117.7726 25.2900 17.5661 16.9178 6.6751
# 3 62.6364 25.2900 81.6404 28.0785 25.4498 8.3271
# 4 9.3265 17.5661 28.0785 31.9543 2.9208 -1.3299
# 5 46.4700 16.9178 25.4498 2.9208 58.3273 0.5102
# 6 -13.1691 6.6751 8.3271 -1.3299 0.5102 26.0454
#
#
#
# Elastic Compliance Matrix: (Units=1/GPa)
#
#
# Indices 1 2 3 4 5 6 
#
# 1 0.013336 -0.003233 -0.012210 0.009567 -0.004944 0.012061
# 2 -0.003233 0.010585 0.002687 -0.007354 -0.001250 -0.005558
# 3 -0.012210 0.002687 0.033578 -0.027828 -0.004144 -0.018937
# 4 0.009567 -0.007354 -0.027828 0.057437 0.003615 0.018481
# 5 -0.004944 -0.001250 -0.004144 0.003615 0.023083 -0.001122
# 6 0.012061 -0.005558 -0.018937 0.018481 -0.001122 0.052937
#
#
# Mechanical properties :
#
#
# Convention : Reuss Voigt Hill
#
# Bulk Modulus (GPa) = 31.26123 68.69577 49.97850
# Shear Modulus (GPa) = 22.01380 39.02951 30.52166
#
# Velocity S-wave (km/s) = 2.97379 3.95967 3.50160
# Velocity P-wave (km/s) = 4.93453 6.96433 6.03537
#
# Compressibility (1/GPa) = 0.03198851
#
# Stress axis : x y z
#
# Youngs Moduli (GPa) = 74.98471 94.47076 29.78129
#
# Poissons Ratio (x) = 0.30545 0.36361
# Poissons Ratio (y) = 0.24244 -0.08003
# Poissons Ratio (z) = 0.91553 -0.25387
#
# Static dielectric constant tensor:
#      x y z
#    x 2.025730 0.104690 0.070980 
#    y 0.104690 2.026240 0.066610 
#    z 0.070980 0.066610 2.009120 
# 
# From -- ./inp_files/561077.got.cif
#   From: 2010.05.17/outbox.cif.g08.bks.cpg/sg2_281_cif.got.tgz:561077.got - 2010.06.03 11:33:40.
