data_PCOD9065823
_publ_section_title
;
Structure prediction by ZEFSAII (Michael W. Deem and Ramdas Pophale) SiO2 
 PCOD9065823
Probable space group: P -1
;
_chemical_formula_sum "Si O2"
_cell_formula_units_Z 14
_cell_length_a 20.405676
_cell_length_b 8.426288
_cell_length_c 8.731524
_cell_angle_alpha 122.761535
_cell_angle_beta 133.738861
_cell_angle_gamma 35.007746
_cell_volume 621.139181
_symmetry_space_group_name_H-M "P -1"
_symmetry_group_IT_number 2
_symmetry_cell_setting 'triclinic'
loop_
_space_group_symop_operation_xyz
x,y,z
-x,-y,-z
loop_
_atom_site_type_symbol
_atom_site_label
_atom_site_fract_x
_atom_site_fract_y
_atom_site_fract_z
Si Si1 0.716262 0.797756 0.463793
Si Si2 0.059292 0.782688 0.340466
Si Si3 0.358230 0.813509 0.967364
Si Si4 0.815902 0.233349 0.770045
Si Si5 0.847964 0.801002 0.424269
Si Si6 0.562068 0.877018 0.701482
Si Si7 0.191638 0.983891 0.068619
O O1 0.800211 0.499107 0.512796
O O2 0.764710 0.763579 0.352462
O O3 0.559529 0.002391 0.325471
O O4 0.763281 0.901976 0.701259
O O5 0.095996 0.793730 0.230931
O O6 0.000000 0.000000 0.500000
O O7 0.948005 0.791646 0.132029
O O8 0.306875 0.798377 0.032353
O O9 0.379213 0.007392 0.106558
O O10 0.500000 0.500000 0.000000
O O11 0.234374 0.989753 0.741613
O O12 0.673026 0.548165 0.693369
O O13 0.824325 0.180277 0.939120
O O14 0.843235 0.981892 0.626041
O O15 0.000000 0.500000 0.500000
O O16 0.500000 0.000000 0.500000
#
# Coordination Sequence:
#
# PCOD9065823 Si02
#       7
#     2   2   2   2   2   2   2
#     4  11  25  44  71  97 139 187 230 287 346 425
#     4  12  24  42  69 103 138 181 232 294 348 408
#     4  12  27  46  72 103 144 186 233 294 356 417
#     4  11  25  44  72 100 140 183 234 287 343 428
#     4  11  26  48  71 105 147 182 234 292 356 412
#     4  12  24  46  71 101 138 186 241 285 349 419
#     4  11  25  43  69  98 137 185 235 277 359 413
#
# _framework density 22.539231000000001
#
# number of rings (size 3 to 8) (size 9 to 14) (size 15 to 20)
#    0.000    0.571    2.857    4.286    4.000    7.429 
#    0.000    0.000    0.000    0.000    0.000    0.000 
#    0.000    0.000    0.000    0.000    0.000    0.000 
#
# Total GULP energy -78003.668439 kJ/mol
# GULP energy per Si atom -5571.690603 kJ/mol
# Density = 2.248793 g / cm^3
# Si number density = 22.539231 Si / 1000 Ang^3
#
#
#
# Elastic Constant Matrix: (Units=GPa)
#
#
# Indices 1 2 3 4 5 6 
#
# 1 164.3930 68.2920 25.8088 -9.3945 -14.0457 -39.3404
# 2 68.2920 167.2110 -11.3489 -39.6901 -15.0584 -40.9070
# 3 25.8088 -11.3489 -54.2926 -38.2051 -34.8629 -40.6576
# 4 -9.3945 -39.6901 -38.2051 19.0034 -4.7039 -5.7728
# 5 -14.0457 -15.0584 -34.8629 -4.7039 26.5868 -10.9405
# 6 -39.3404 -40.9070 -40.6576 -5.7728 -10.9405 32.3624
#
#
#
# Elastic Compliance Matrix: (Units=1/GPa)
#
#
# Indices 1 2 3 4 5 6 
#
# 1 0.009210 -0.002094 -0.002082 -0.000977 0.003655 0.006995
# 2 -0.002094 0.007577 -0.004974 0.004504 -0.002192 0.000845
# 3 -0.002082 -0.004974 0.002324 -0.011704 -0.007233 -0.010431
# 4 -0.000977 0.004504 -0.011704 0.032932 -0.010763 -0.007963
# 5 0.003655 -0.002192 -0.007233 -0.010763 0.026800 -0.000275
# 6 0.006995 0.000845 -0.010431 -0.007963 -0.000275 0.025853
#
#
# Mechanical properties :
#
#
# Convention : Reuss Voigt Hill
#
# Bulk Modulus (GPa) = 1233.07885 49.20168 641.14026
# Shear Modulus (GPa) = 40.56320 28.56115 34.56217
#
# Velocity S-wave (km/s) = 4.24686 3.56360 3.92014
# Velocity P-wave (km/s) = 23.92314 6.22969 17.48035
#
# Compressibility (1/GPa) = 0.00081098
#
# Stress axis : x y z
#
# Youngs Moduli (GPa) = 108.57470 131.98513 430.35154
#
# Poissons Ratio (x) = 0.27643 0.89591
# Poissons Ratio (y) = 0.22740 2.14039
# Poissons Ratio (z) = 0.22603 0.65644
#
# Static dielectric constant tensor:
#      x y z
#    x 1.953020 -0.001380 -0.049970 
#    y -0.001380 1.812310 -0.066550 
#    z -0.049970 -0.066550 2.014730 
# 
# From -- ./inp_files/209580.got.cif
#   From: 2010.05.17/outbox.cif.g08.bks.cpg/sg2_105_cif.got.tgz:209580.got - 2010.06.03 11:33:40.
