data_PCOD9065942
_publ_section_title
;
Structure prediction by ZEFSAII (Michael W. Deem and Ramdas Pophale) SiO2 
 PCOD9065942
Probable space group: P -1
;
_chemical_formula_sum "Si O2"
_cell_formula_units_Z 16
_cell_length_a 6.774012
_cell_length_b 25.224646
_cell_length_c 11.189324
_cell_angle_alpha 33.298157
_cell_angle_beta 113.604211
_cell_angle_gamma 127.675021
_cell_volume 803.512407
_symmetry_space_group_name_H-M "P -1"
_symmetry_group_IT_number 2
_symmetry_cell_setting 'triclinic'
loop_
_space_group_symop_operation_xyz
x,y,z
-x,-y,-z
loop_
_atom_site_type_symbol
_atom_site_label
_atom_site_fract_x
_atom_site_fract_y
_atom_site_fract_z
Si Si1 0.109040 0.454714 0.514910
Si Si2 0.252530 0.018790 0.085862
Si Si3 0.350461 0.401438 0.250451
Si Si4 0.768005 0.213021 0.487001
Si Si5 0.514291 0.431931 0.806978
Si Si6 0.264449 0.015088 0.381764
Si Si7 0.639939 0.267670 0.605057
Si Si8 0.705341 0.826189 0.706151
O O1 0.307161 0.435859 0.668087
O O2 0.257118 0.541776 0.276927
O O3 0.000000 0.500000 0.500000
O O4 0.875844 0.340563 0.614122
O O5 0.251679 0.905505 0.269398
O O6 0.257116 0.028416 0.212744
O O7 0.478346 0.137999 0.859647
O O8 0.000000 0.000000 0.000000
O O9 0.379915 0.471120 0.247691
O O10 0.478850 0.327927 0.442321
O O11 0.049097 0.308996 0.321174
O O12 0.500000 0.500000 0.000000
O O13 0.739602 0.265961 0.501544
O O14 0.522383 0.176869 0.414679
O O15 0.376859 0.304780 0.065304
O O16 0.986361 0.906452 0.562951
O O17 0.500000 0.000000 0.500000
O O18 0.291798 0.121654 0.261659
#
# Coordination Sequence:
#
# PCOD9065942 Si02
#       8
#     2   2   2   2   2   2   2   2
#     4  11  25  44  69 100 142 183 238 294 358 420
#     4  12  26  46  76 103 143 188 242 302 358 423
#     4  12  27  45  71 105 146 188 240 290 359 435
#     4  12  26  48  69 106 144 187 242 301 353 432
#     4  11  26  44  70 105 139 186 238 292 353 439
#     4  11  26  49  70 107 144 185 242 292 359 432
#     4  12  26  45  73 103 139 189 241 294 364 423
#     4  11  27  44  75 102 144 188 235 293 365 424
#
# _framework density 19.912572999999998
#
# number of rings (size 3 to 8) (size 9 to 14) (size 15 to 20)
#    0.000    0.500    5.000    1.875    7.000    2.000 
#    0.000    0.000    0.000    0.000    0.000    0.000 
#    0.000    0.000    0.000    0.000    0.000    0.000 
#
# Total GULP energy -89466.657915 kJ/mol
# GULP energy per Si atom -5591.666120 kJ/mol
# Density = 1.986725 g / cm^3
# Si number density = 19.912573 Si / 1000 Ang^3
#
#
#
# Elastic Constant Matrix: (Units=GPa)
#
#
# Indices 1 2 3 4 5 6 
#
# 1 111.7787 42.1893 40.3237 -4.8946 -6.2229 0.3440
# 2 42.1893 114.6002 21.2079 -3.6741 0.4350 13.7182
# 3 40.3237 21.2079 97.5430 -15.4106 5.2827 12.1655
# 4 -4.8946 -3.6741 -15.4106 43.1855 2.2130 -2.9899
# 5 -6.2229 0.4350 5.2827 2.2130 31.0401 -5.8459
# 6 0.3440 13.7182 12.1655 -2.9899 -5.8459 44.8332
#
#
#
# Elastic Compliance Matrix: (Units=1/GPa)
#
#
# Indices 1 2 3 4 5 6 
#
# 1 0.012452 -0.004059 -0.004964 -0.000705 0.004007 0.002969
# 2 -0.004059 0.010658 -0.000087 0.000263 -0.001607 -0.003398
# 3 -0.004964 -0.000087 0.013728 0.004280 -0.004379 -0.003946
# 4 -0.000705 0.000263 0.004280 0.024765 -0.002625 0.000073
# 5 0.004007 -0.001607 -0.004379 -0.002625 0.035115 0.006053
# 6 0.002969 -0.003398 -0.003946 0.000073 0.006053 0.025187
#
#
# Mechanical properties :
#
#
# Convention : Reuss Voigt Hill
#
# Bulk Modulus (GPa) = 53.70903 59.04042 56.37472
# Shear Modulus (GPa) = 34.16944 38.49182 36.33063
#
# Velocity S-wave (km/s) = 4.14692 4.40141 4.27606
# Velocity P-wave (km/s) = 7.06826 7.45279 7.26307
#
# Compressibility (1/GPa) = 0.01861884
#
# Stress axis : x y z
#
# Youngs Moduli (GPa) = 80.30909 93.83003 72.84236
#
# Poissons Ratio (x) = 0.38083 0.36157
# Poissons Ratio (y) = 0.32595 0.00634
# Poissons Ratio (z) = 0.39864 0.00816
#
# Static dielectric constant tensor:
#      x y z
#    x 1.639150 -0.068400 0.071570 
#    y -0.068400 1.576560 0.129000 
#    z 0.071570 0.129000 1.469630 
# 
# From -- ./inp_files/70789.got.cif
#   From: 2010.05.17/outbox.cif.g08.bks.cpg/sg2_36_cif.got.tgz:70789.got - 2010.06.03 11:33:40.
