data_PCOD9065523
_publ_section_title
;
Structure prediction by ZEFSAII (Michael W. Deem and Ramdas Pophale) SiO2 
 PCOD9065523
Probable space group: P -1
;
_chemical_formula_sum "Si O2"
_cell_formula_units_Z 14
_cell_length_a 17.760321
_cell_length_b 8.070084
_cell_length_c 8.207630
_cell_angle_alpha 144.941266
_cell_angle_beta 56.207251
_cell_angle_gamma 132.556516
_cell_volume 497.740431
_symmetry_space_group_name_H-M "P -1"
_symmetry_group_IT_number 2
_symmetry_cell_setting 'triclinic'
loop_
_space_group_symop_operation_xyz
x,y,z
-x,-y,-z
loop_
_atom_site_type_symbol
_atom_site_label
_atom_site_fract_x
_atom_site_fract_y
_atom_site_fract_z
Si Si1 0.380887 0.147943 0.015831
Si Si2 0.083887 0.863231 0.652759
Si Si3 0.497096 0.821140 0.694053
Si Si4 0.905183 0.016989 0.918049
Si Si5 0.382867 0.281492 0.758292
Si Si6 0.260384 0.210319 0.527628
Si Si7 0.106153 0.346776 0.646380
O O1 0.399941 0.829093 0.733494
O O2 0.341769 0.181722 0.910950
O O3 0.498223 0.440274 0.129655
O O4 0.316741 0.151288 0.255638
O O5 0.139804 0.011851 0.873028
O O6 0.000000 0.500000 0.500000
O O7 0.018026 0.048737 0.837358
O O8 0.164056 0.872849 0.431659
O O9 0.322603 0.348749 0.734821
O O10 0.409159 0.020054 0.418081
O O11 0.500000 0.000000 0.000000
O O12 0.911119 0.340045 0.090622
O O13 0.850448 0.704261 0.619826
O O14 0.500000 0.500000 0.500000
O O15 0.193243 0.387448 0.699583
O O16 0.000000 0.000000 0.500000
#
# Coordination Sequence:
#
# PCOD9065523 Si02
#       7
#     2   2   2   2   2   2   2
#     4  11  26  52  85 118 163 214 269 337 420 485
#     4  11  24  48  80 114 163 217 277 340 409 478
#     4  12  22  48  83 115 160 212 264 329 407 480
#     4  11  24  49  77 108 164 214 266 334 410 481
#     4  11  25  52  83 119 163 211 266 342 407 496
#     4  12  26  48  83 122 161 212 278 336 406 499
#     4  12  25  48  76 117 159 214 268 334 410 487
#
# _framework density 28.127109000000001
#
# number of rings (size 3 to 8) (size 9 to 14) (size 15 to 20)
#    0.000    0.571    5.714    1.286    2.000    0.000 
#    7.714    4.286    0.000    0.000    0.000    0.000 
#    0.000    0.000    0.000    0.000    0.000    0.000 
#
# Total GULP energy -78150.240658 kJ/mol
# GULP energy per Si atom -5582.160047 kJ/mol
# Density = 2.806309 g / cm^3
# Si number density = 28.127109 Si / 1000 Ang^3
#
#
#
# Elastic Constant Matrix: (Units=GPa)
#
#
# Indices 1 2 3 4 5 6 
#
# 1 255.4150 78.4172 67.3594 -9.6144 6.6963 -38.6027
# 2 78.4172 142.9259 73.2614 -44.4877 -10.0649 -0.5811
# 3 67.3594 73.2614 164.4346 -21.6553 -8.5528 -23.9674
# 4 -9.6144 -44.4877 -21.6553 62.8503 -16.6899 7.9870
# 5 6.6963 -10.0649 -8.5528 -16.6899 56.3914 -5.0483
# 6 -38.6027 -0.5811 -23.9674 7.9870 -5.0483 49.7850
#
#
#
# Elastic Compliance Matrix: (Units=1/GPa)
#
#
# Indices 1 2 3 4 5 6 
#
# 1 0.005969 -0.004244 -0.000426 -0.003397 -0.002115 0.004704
# 2 -0.004244 0.015242 -0.004282 0.010862 0.005218 -0.006387
# 3 -0.000426 -0.004282 0.008740 -0.000361 0.000861 0.003972
# 4 -0.003397 0.010862 -0.000361 0.026237 0.009522 -0.005925
# 5 -0.002115 0.005218 0.000861 0.009522 0.021821 -0.000480
# 6 0.004704 -0.006387 0.003972 -0.005925 -0.000480 0.026474
#
#
# Mechanical properties :
#
#
# Convention : Reuss Voigt Hill
#
# Bulk Modulus (GPa) = 83.00186 111.20573 97.10379
# Shear Modulus (GPa) = 39.55651 56.72116 48.13884
#
# Velocity S-wave (km/s) = 3.75420 4.49553 4.14149
# Velocity P-wave (km/s) = 6.95454 8.15899 7.58072
#
# Compressibility (1/GPa) = 0.01204792
#
# Stress axis : x y z
#
# Youngs Moduli (GPa) = 167.53104 65.60835 114.41808
#
# Poissons Ratio (x) = 0.27842 0.04876
# Poissons Ratio (y) = 0.71095 0.48989
# Poissons Ratio (z) = 0.07140 0.28091
#
# Static dielectric constant tensor:
#      x y z
#    x 2.329370 0.028550 0.040360 
#    y 0.028550 2.526790 0.034310 
#    z 0.040360 0.034310 2.370890 
# 
# From -- ./inp_files/342311.got.cif
#   From: 2010.05.17/outbox.cif.g08.bks.cpg/sg2_172_cif.got.tgz:342311.got - 2010.06.03 11:33:40.
