data_PCOD9065494
_publ_section_title
;
Structure prediction by ZEFSAII (Michael W. Deem and Ramdas Pophale) SiO2 
 PCOD9065494
Probable space group: P -1
;
_chemical_formula_sum "Si O2"
_cell_formula_units_Z 16
_cell_length_a 10.927690
_cell_length_b 12.361644
_cell_length_c 11.793741
_cell_angle_alpha 32.847641
_cell_angle_beta 61.183964
_cell_angle_gamma 68.351550
_cell_volume 754.952086
_symmetry_space_group_name_H-M "P -1"
_symmetry_group_IT_number 2
_symmetry_cell_setting 'triclinic'
loop_
_space_group_symop_operation_xyz
x,y,z
-x,-y,-z
loop_
_atom_site_type_symbol
_atom_site_label
_atom_site_fract_x
_atom_site_fract_y
_atom_site_fract_z
Si Si1 0.194931 0.126552 0.448890
Si Si2 0.860305 0.610739 0.961034
Si Si3 0.987104 0.767686 0.178079
Si Si4 0.356508 0.868137 0.207075
Si Si5 0.437707 0.364313 0.252934
Si Si6 0.753293 0.449086 0.644616
Si Si7 0.076977 0.076491 0.155856
Si Si8 0.324900 0.771402 0.571632
O O1 0.178674 0.317234 0.208547
O O2 0.326548 0.191347 0.410069
O O3 0.227713 0.931371 0.532307
O O4 0.051919 0.083841 0.620098
O O5 0.883602 0.809918 0.847085
O O6 0.747014 0.452342 0.203383
O O7 0.000000 0.500000 0.000000
O O8 0.843797 0.650843 0.387617
O O9 0.123604 0.675002 0.248255
O O10 0.977308 0.767143 0.047063
O O11 0.000000 0.000000 0.000000
O O12 0.328423 0.667970 0.319321
O O13 0.357380 0.831542 0.374504
O O14 0.218796 0.984192 0.136124
O O15 0.500000 0.000000 0.000000
O O16 0.356340 0.504260 0.250698
O O17 0.548425 0.254808 0.375607
O O18 0.500000 0.500000 0.000000
#
# Coordination Sequence:
#
# PCOD9065494 Si02
#       8
#     2   2   2   2   2   2   2   2
#     4  12  26  48  74 110 146 189 249 308 366 443
#     4  12  24  44  73 108 146 186 243 305 369 431
#     4  11  24  48  77 106 143 193 245 314 364 435
#     4  12  29  48  77 107 154 201 246 304 369 449
#     4  12  29  48  76 106 150 195 245 307 376 441
#     4  11  28  49  74 110 145 194 260 297 375 448
#     4  12  25  45  76 108 147 190 248 306 368 431
#     4  12  27  50  75 106 149 201 243 305 376 436
#
# _framework density 21.193396
#
# number of rings (size 3 to 8) (size 9 to 14) (size 15 to 20)
#    0.000    0.250    5.000    3.000   10.500    1.500 
#    0.000    0.000    0.000    0.000    0.000    0.000 
#    0.000    0.000    0.000    0.000    0.000    0.000 
#
# Total GULP energy -89458.735722 kJ/mol
# GULP energy per Si atom -5591.170983 kJ/mol
# Density = 2.114516 g / cm^3
# Si number density = 21.193396 Si / 1000 Ang^3
#
#
#
# Elastic Constant Matrix: (Units=GPa)
#
#
# Indices 1 2 3 4 5 6 
#
# 1 126.8067 27.4002 60.4908 13.6038 -8.0635 11.1708
# 2 27.4002 81.7617 19.7985 5.9044 -9.9209 -4.6033
# 3 60.4908 19.7985 120.9394 14.3204 -12.2415 -5.9192
# 4 13.6038 5.9044 14.3204 35.2167 4.8666 -0.5502
# 5 -8.0635 -9.9209 -12.2415 4.8666 43.2838 1.6198
# 6 11.1708 -4.6033 -5.9192 -0.5502 1.6198 34.3134
#
#
#
# Elastic Compliance Matrix: (Units=1/GPa)
#
#
# Indices 1 2 3 4 5 6 
#
# 1 0.011753 -0.002720 -0.005399 -0.002033 0.000461 -0.005177
# 2 -0.002720 0.013789 -0.000336 -0.001448 0.002627 0.002530
# 3 -0.005399 -0.000336 0.011795 -0.002937 0.002449 0.003585
# 4 -0.002033 -0.001448 -0.002937 0.031332 -0.005091 0.000704
# 5 0.000461 0.002627 0.002449 -0.005091 0.025080 -0.000641
# 6 -0.005177 0.002530 0.003585 0.000704 -0.000641 0.031828
#
#
# Mechanical properties :
#
#
# Convention : Reuss Voigt Hill
#
# Bulk Modulus (GPa) = 48.95298 60.54299 54.74799
# Shear Modulus (GPa) = 33.49039 37.35067 35.42053
#
# Velocity S-wave (km/s) = 3.97952 4.20262 4.09259
# Velocity P-wave (km/s) = 6.65311 7.22345 6.94414
#
# Compressibility (1/GPa) = 0.02042777
#
# Stress axis : x y z
#
# Youngs Moduli (GPa) = 85.08645 72.52020 84.78051
#
# Poissons Ratio (x) = 0.19725 0.45774
# Poissons Ratio (y) = 0.23143 0.02846
# Poissons Ratio (z) = 0.45939 0.02435
#
# Static dielectric constant tensor:
#      x y z
#    x 1.813780 0.049830 -0.034920 
#    y 0.049830 1.801590 -0.020040 
#    z -0.034920 -0.020040 1.820870 
# 
# From -- ./inp_files/69930.got.cif
#   From: 2010.05.17/outbox.cif.g08.bks.cpg/sg2_35_cif.got.tgz:69930.got - 2010.06.03 11:33:40.
