data_PCOD9065296
_publ_section_title
;
Structure prediction by ZEFSAII (Michael W. Deem and Ramdas Pophale) SiO2 
 PCOD9065296
Probable space group: P -1
;
_chemical_formula_sum "Si O2"
_cell_formula_units_Z 13
_cell_length_a 6.600055
_cell_length_b 7.337150
_cell_length_c 9.739220
_cell_angle_alpha 81.196137
_cell_angle_beta 82.910662
_cell_angle_gamma 93.940996
_cell_volume 460.657943
_symmetry_space_group_name_H-M "P -1"
_symmetry_group_IT_number 2
_symmetry_cell_setting 'triclinic'
loop_
_space_group_symop_operation_xyz
x,y,z
-x,-y,-z
loop_
_atom_site_type_symbol
_atom_site_label
_atom_site_fract_x
_atom_site_fract_y
_atom_site_fract_z
Si Si1 0.394316 0.213869 0.299284
Si Si2 0.096523 0.271541 0.622517
Si Si3 0.272392 0.864649 0.932566
Si Si4 0.558841 0.384698 0.823675
Si Si5 0.687057 0.330394 0.516231
Si Si6 0.875136 0.729041 0.069369
Si Si7 0.000000 0.000000 0.500000
O O1 0.335236 0.408815 0.218730
O O2 0.186316 0.097771 0.367695
O O3 0.457734 0.738768 0.586523
O O4 0.544704 0.129069 0.190254
O O5 0.227088 0.455938 0.542293
O O6 0.037223 0.296968 0.780321
O O7 0.159488 0.069171 0.614061
O O8 0.903951 0.237410 0.530298
O O9 0.356352 0.764042 0.069223
O O10 0.789409 0.931129 0.053568
O O11 0.055292 0.738973 0.942331
O O12 0.571012 0.315360 0.672929
O O13 0.329190 0.408817 0.894306
#
# Coordination Sequence:
#
# PCOD9065296 Si02
#       7
#     2   2   2   2   2   2   1
#     4  12  27  49  77 122 162 204 266 328 395 468
#     4  11  24  47  78 111 154 204 264 322 395 462
#     4  11  28  48  76 119 159 209 260 333 391 474
#     4  12  23  50  80 110 160 211 260 320 405 472
#     4  11  24  48  80 112 152 210 259 324 392 473
#     4  11  25  49  78 114 156 213 264 320 400 476
#     4  12  28  44  76 120 158 200 264 332 384 464
#
# _framework density 28.220507000000001
#
# number of rings (size 3 to 8) (size 9 to 14) (size 15 to 20)
#    0.000    0.615    4.615    2.308    4.308    3.692 
#    0.000    0.000    0.000    0.000    0.000    0.000 
#    0.000    0.000    0.000    0.000    0.000    0.000 
#
# Total GULP energy -72703.415124 kJ/mol
# GULP energy per Si atom -5592.570394 kJ/mol
# Density = 2.815628 g / cm^3
# Si number density = 28.220507 Si / 1000 Ang^3
#
#
#
# Elastic Constant Matrix: (Units=GPa)
#
#
# Indices 1 2 3 4 5 6 
#
# 1 138.0923 55.5631 106.0274 -16.1756 -28.3735 3.5235
# 2 55.5631 120.3242 77.5283 -28.4999 -12.5600 19.7645
# 3 106.0274 77.5283 176.5729 -19.4484 -33.4177 1.9944
# 4 -16.1756 -28.4999 -19.4484 42.2208 7.6439 -17.9664
# 5 -28.3735 -12.5600 -33.4177 7.6439 75.7666 -5.4404
# 6 3.5235 19.7645 1.9944 -17.9664 -5.4404 64.1582
#
#
#
# Elastic Compliance Matrix: (Units=1/GPa)
#
#
# Indices 1 2 3 4 5 6 
#
# 1 0.013828 -0.001349 -0.007307 0.000829 0.001667 0.000257
# 2 -0.001349 0.013603 -0.004719 0.005630 -0.001078 -0.002485
# 3 -0.007307 -0.004719 0.012516 0.000112 0.002111 0.001676
# 4 0.000829 0.005630 0.000112 0.030982 -0.001346 0.006779
# 5 0.001667 -0.001078 0.002111 -0.001346 0.014786 0.001052
# 6 0.000257 -0.002485 0.001676 0.006779 0.001052 0.018273
#
#
# Mechanical properties :
#
#
# Convention : Reuss Voigt Hill
#
# Bulk Modulus (GPa) = 75.77314 101.46966 88.62140
# Shear Modulus (GPa) = 36.99960 49.48717 43.24339
#
# Velocity S-wave (km/s) = 3.62482 4.19213 3.91876
# Velocity P-wave (km/s) = 6.66542 7.71142 7.20742
#
# Compressibility (1/GPa) = 0.01319729
#
# Stress axis : x y z
#
# Youngs Moduli (GPa) = 72.31909 73.51170 79.90016
#
# Poissons Ratio (x) = 0.09918 0.58383
# Poissons Ratio (y) = 0.09757 0.37701
# Poissons Ratio (z) = 0.52843 0.34687
#
# Static dielectric constant tensor:
#      x y z
#    x 2.387640 -0.089120 0.037600 
#    y -0.089120 2.461220 0.058770 
#    z 0.037600 0.058770 2.156000 
# 
# From -- ./inp_files/373567.got.cif
#   From: 2010.05.17/outbox.cif.g08.bks.cpg/sg2_187_cif.got.tgz:373567.got - 2010.06.03 11:33:40.
