data_PCOD9065480
_publ_section_title
;
Structure prediction by ZEFSAII (Michael W. Deem and Ramdas Pophale) SiO2 
 PCOD9065480
Probable space group: P -1
;
_chemical_formula_sum "Si O2"
_cell_formula_units_Z 16
_cell_length_a 9.305687
_cell_length_b 11.272524
_cell_length_c 8.401496
_cell_angle_alpha 107.254188
_cell_angle_beta 105.428443
_cell_angle_gamma 52.606531
_cell_volume 664.373203
_symmetry_space_group_name_H-M "P -1"
_symmetry_group_IT_number 2
_symmetry_cell_setting 'triclinic'
loop_
_space_group_symop_operation_xyz
x,y,z
-x,-y,-z
loop_
_atom_site_type_symbol
_atom_site_label
_atom_site_fract_x
_atom_site_fract_y
_atom_site_fract_z
Si Si1 0.760147 0.996318 0.168190
Si Si2 0.150740 0.899610 0.316792
Si Si3 0.122893 0.294618 0.118802
Si Si4 0.599205 0.231058 0.947246
Si Si5 0.600030 0.904893 0.333359
Si Si6 0.749178 0.516329 0.919452
Si Si7 0.930363 0.769170 0.571705
Si Si8 0.705451 0.366136 0.545868
O O1 0.617058 0.007177 0.252400
O O2 0.949179 0.940161 0.286152
O O3 0.805016 0.865680 0.003873
O O4 0.688185 0.145190 0.104233
O O5 0.242883 0.808649 0.144190
O O6 0.269051 0.788969 0.453081
O O7 0.131093 0.057083 0.364274
O O8 0.238748 0.353511 0.107520
O O9 0.117511 0.278819 0.299746
O O10 0.918951 0.417386 0.045864
O O11 0.499978 0.162469 0.803342
O O12 0.439731 0.401511 0.010089
O O13 0.806660 0.772859 0.394603
O O14 0.500000 0.000000 0.500000
O O15 0.760047 0.415629 0.738904
O O16 0.144074 0.669902 0.555011
O O17 0.500000 0.500000 0.500000
#
# Coordination Sequence:
#
# PCOD9065480 Si02
#       8
#     2   2   2   2   2   2   2   2
#     4  12  24  47  74 105 146 190 252 299 367 432
#     4  12  26  48  75 107 147 191 249 306 364 431
#     4  11  24  48  76 103 143 197 245 298 371 433
#     4  12  27  43  78 111 139 197 249 304 364 435
#     4  12  24  44  71 112 150 182 245 313 361 430
#     4  11  27  48  71 105 151 192 240 306 362 453
#     4  12  27  47  77 108 145 197 251 311 366 427
#     4  12  30  50  71 108 155 198 241 300 383 445
#
# _framework density 24.082849
#
# number of rings (size 3 to 8) (size 9 to 14) (size 15 to 20)
#    0.000    0.250    6.250    1.125    7.000    2.000 
#    0.000    0.000    0.000    0.000    0.000    0.000 
#    0.000    0.000    0.000    0.000    0.000    0.000 
#
# Total GULP energy -89749.717644 kJ/mol
# GULP energy per Si atom -5609.357353 kJ/mol
# Density = 2.402804 g / cm^3
# Si number density = 24.082849 Si / 1000 Ang^3
#
#
#
# Elastic Constant Matrix: (Units=GPa)
#
#
# Indices 1 2 3 4 5 6 
#
# 1 86.8909 38.1657 16.7187 -6.8721 -21.3441 -8.6765
# 2 38.1657 83.1326 18.7759 -6.9142 -3.8888 -26.3353
# 3 16.7187 18.7759 73.0072 -13.2075 -21.1326 -4.6153
# 4 -6.8721 -6.9142 -13.2075 48.3294 -6.8673 -4.1704
# 5 -21.3441 -3.8888 -21.1326 -6.8673 46.2797 11.0600
# 6 -8.6765 -26.3353 -4.6153 -4.1704 11.0600 36.0524
#
#
#
# Elastic Compliance Matrix: (Units=1/GPa)
#
#
# Indices 1 2 3 4 5 6 
#
# 1 0.017257 -0.009123 0.001193 0.002366 0.009266 -0.004927
# 2 -0.009123 0.022012 -0.004823 0.000733 -0.008246 0.015881
# 3 0.001193 -0.004823 0.018434 0.005678 0.010206 -0.003350
# 4 0.002366 0.000733 0.005678 0.023853 0.006678 0.002542
# 5 0.009266 -0.008246 0.010206 0.006678 0.033721 -0.012060
# 6 -0.004927 0.015881 -0.003350 0.002542 -0.012060 0.041717
#
#
# Mechanical properties :
#
#
# Convention : Reuss Voigt Hill
#
# Bulk Modulus (GPa) = 31.05666 43.37236 37.21451
# Shear Modulus (GPa) = 25.87551 37.42366 31.64959
#
# Velocity S-wave (km/s) = 3.28142 3.94630 3.62912
# Velocity P-wave (km/s) = 5.22309 6.23002 5.74864
#
# Compressibility (1/GPa) = 0.03219921
#
# Stress axis : x y z
#
# Youngs Moduli (GPa) = 57.94597 45.42874 54.24771
#
# Poissons Ratio (x) = 0.41443 -0.06471
# Poissons Ratio (y) = 0.52862 0.26161
# Poissons Ratio (z) = -0.06912 0.21908
#
# Static dielectric constant tensor:
#      x y z
#    x 1.904500 0.002730 0.016320 
#    y 0.002730 1.935890 0.018950 
#    z 0.016320 0.018950 1.895710 
# 
# From -- ./inp_files/188656.got.cif
#   From: 2010.05.17/outbox.cif.g08.bks.cpg/sg2_95_cif.got.tgz:188656.got - 2010.06.03 11:33:40.
