data_PCOD9065231
_publ_section_title
;
Structure prediction by ZEFSAII (Michael W. Deem and Ramdas Pophale) SiO2 
 PCOD9065231
Probable space group: P -1
;
_chemical_formula_sum "Si O2"
_cell_formula_units_Z 14
_cell_length_a 5.422328
_cell_length_b 18.253498
_cell_length_c 15.083926
_cell_angle_alpha 152.373241
_cell_angle_beta 59.687052
_cell_angle_gamma 112.742104
_cell_volume 590.761145
_symmetry_space_group_name_H-M "P -1"
_symmetry_group_IT_number 2
_symmetry_cell_setting 'triclinic'
loop_
_space_group_symop_operation_xyz
x,y,z
-x,-y,-z
loop_
_atom_site_type_symbol
_atom_site_label
_atom_site_fract_x
_atom_site_fract_y
_atom_site_fract_z
Si Si1 0.359729 0.863861 0.931066
Si Si2 0.314824 0.412344 0.870696
Si Si3 0.800807 0.649336 0.520294
Si Si4 0.411508 0.746608 0.517847
Si Si5 0.628340 0.067828 0.794900
Si Si6 0.203760 0.118872 0.689970
Si Si7 0.879972 0.713634 0.922077
O O1 0.581955 0.703285 0.698182
O O2 0.045596 0.807663 0.918546
O O3 0.325829 0.929558 0.106283
O O4 0.500000 0.000000 0.000000
O O5 0.488001 0.378970 0.712528
O O6 0.244841 0.251655 0.754813
O O7 0.500000 0.500000 0.000000
O O8 0.000000 0.500000 0.000000
O O9 0.611210 0.699521 0.518697
O O10 0.072045 0.744057 0.588275
O O11 0.949310 0.464606 0.294700
O O12 0.455884 0.919116 0.656147
O O13 0.915245 0.037861 0.652022
O O14 0.455064 0.244939 0.998790
O O15 0.500000 0.000000 0.500000
O O16 0.145552 0.207931 0.891273
#
# Coordination Sequence:
#
# PCOD9065231 Si02
#       7
#     2   2   2   2   2   2   2
#     4  11  24  47  75 109 149 198 248 305 374 445
#     4  12  28  48  76 108 149 195 249 306 375 439
#     4  12  28  47  78 110 156 196 247 313 372 437
#     4  12  27  48  75 109 148 198 251 302 370 449
#     4  11  27  46  76 106 149 197 253 305 371 453
#     4  11  27  47  74 106 149 195 250 312 373 442
#     4  11  26  46  71 111 147 193 253 309 371 446
#
# _framework density 23.698243000000002
#
# number of rings (size 3 to 8) (size 9 to 14) (size 15 to 20)
#    0.000    0.571    1.429    4.714   16.000    2.857 
#    0.000    0.000    0.000    0.000    0.000    0.000 
#    0.000    0.000    0.000    0.000    0.000    0.000 
#
# Total GULP energy -78201.410086 kJ/mol
# GULP energy per Si atom -5585.815006 kJ/mol
# Density = 2.364430 g / cm^3
# Si number density = 23.698243 Si / 1000 Ang^3
#
#
#
# Elastic Constant Matrix: (Units=GPa)
#
#
# Indices 1 2 3 4 5 6 
#
# 1 129.1977 50.7605 41.4744 4.3471 -22.8913 18.5617
# 2 50.7605 123.8300 41.4767 -2.0771 -19.0579 14.1934
# 3 41.4744 41.4767 147.6406 0.4344 -31.7834 18.5299
# 4 4.3471 -2.0771 0.4344 47.1110 -0.3982 -13.6753
# 5 -22.8913 -19.0579 -31.7834 -0.3982 50.4059 -4.5627
# 6 18.5617 14.1934 18.5299 -13.6753 -4.5627 37.3963
#
#
#
# Elastic Compliance Matrix: (Units=1/GPa)
#
#
# Indices 1 2 3 4 5 6 
#
# 1 0.010376 -0.003113 -0.000989 -0.002220 0.002534 -0.003981
# 2 -0.003113 0.010232 -0.001549 0.000399 0.001367 -0.001258
# 3 -0.000989 -0.001549 0.008785 -0.000921 0.004217 -0.003097
# 4 -0.002220 0.000399 -0.000921 0.024447 -0.000312 0.010309
# 5 0.002534 0.001367 0.004217 -0.000312 0.024069 -0.001044
# 6 -0.003981 -0.001258 -0.003097 0.010309 -0.001044 0.034371
#
#
# Mechanical properties :
#
#
# Convention : Reuss Voigt Hill
#
# Bulk Modulus (GPa) = 55.27212 74.23238 64.75225
# Shear Modulus (GPa) = 38.57644 44.77977 41.67810
#
# Velocity S-wave (km/s) = 4.03900 4.35165 4.19824
# Velocity P-wave (km/s) = 6.71754 7.52603 7.13325
#
# Compressibility (1/GPa) = 0.01809230
#
# Stress axis : x y z
#
# Youngs Moduli (GPa) = 96.37417 97.73387 113.82619
#
# Poissons Ratio (x) = 0.30427 0.11252
# Poissons Ratio (y) = 0.30004 0.17630
# Poissons Ratio (z) = 0.09527 0.15137
#
# Static dielectric constant tensor:
#      x y z
#    x 2.451270 0.111440 0.144900 
#    y 0.111440 1.916100 0.047720 
#    z 0.144900 0.047720 1.902110 
# 
# From -- ./inp_files/141702.got.cif
#   From: 2010.05.17/outbox.cif.g08.bks.cpg/sg2_71_cif.got.tgz:141702.got - 2010.06.03 11:33:40.
