data_PCOD9065973
_publ_section_title
;
Structure prediction by ZEFSAII (Michael W. Deem and Ramdas Pophale) SiO2 
 PCOD9065973
Probable space group: P -1
;
_chemical_formula_sum "Si O2"
_cell_formula_units_Z 15
_cell_length_a 8.932057
_cell_length_b 11.483921
_cell_length_c 15.255059
_cell_angle_alpha 46.954360
_cell_angle_beta 121.446123
_cell_angle_gamma 84.810378
_cell_volume 680.844019
_symmetry_space_group_name_H-M "P -1"
_symmetry_group_IT_number 2
_symmetry_cell_setting 'triclinic'
loop_
_space_group_symop_operation_xyz
x,y,z
-x,-y,-z
loop_
_atom_site_type_symbol
_atom_site_label
_atom_site_fract_x
_atom_site_fract_y
_atom_site_fract_z
Si Si1 0.205177 0.464352 0.781632
Si Si2 0.789870 0.091465 0.118775
Si Si3 0.896364 0.215107 0.914614
Si Si4 0.500000 0.500000 0.500000
Si Si5 0.410921 0.217865 0.313434
Si Si6 0.122716 0.362283 0.978762
Si Si7 0.902128 0.107997 0.511562
Si Si8 0.937286 0.409412 0.601051
O O1 0.155805 0.486481 0.858590
O O2 0.122133 0.685426 0.601981
O O3 0.053550 0.419566 0.715363
O O4 0.499057 0.250235 0.965414
O O5 0.817656 0.200262 0.993212
O O6 0.922746 0.055410 0.269023
O O7 0.923491 0.844734 0.251495
O O8 0.674570 0.428440 0.677039
O O9 0.115187 0.199922 0.009015
O O10 0.000000 0.000000 0.000000
O O11 0.654698 0.536477 0.470053
O O12 0.631452 0.203011 0.392975
O O13 0.152235 0.445291 0.160893
O O14 0.500000 0.000000 0.500000
O O15 0.337602 0.227358 0.186199
O O16 0.000000 0.000000 0.500000
O O17 0.000000 0.500000 0.500000
#
# Coordination Sequence:
#
# PCOD9065973 Si02
#       8
#     2   2   2   1   2   2   2   2
#     4  12  25  46  72 101 147 186 241 304 365 447
#     4  12  26  45  74 105 144 198 240 304 373 443
#     4  12  25  45  71 107 148 187 240 296 367 447
#     4  12  26  46  74 112 152 190 248 304 362 456
#     4  11  25  46  71  99 142 182 245 302 357 431
#     4  11  25  44  70 105 136 191 234 298 367 429
#     4  12  27  47  72 107 140 194 247 302 369 435
#     4  12  25  48  74 110 147 194 243 301 380 443
#
# _framework density 22.031478
#
# number of rings (size 3 to 8) (size 9 to 14) (size 15 to 20)
#    0.000    0.267    4.000    4.400    1.867    6.400 
#    2.400    0.000    0.000    0.000    0.000    0.000 
#    0.000    0.000    0.000    0.000    0.000    0.000 
#
# Total GULP energy -83671.784568 kJ/mol
# GULP energy per Si atom -5578.118971 kJ/mol
# Density = 2.198133 g / cm^3
# Si number density = 22.031478 Si / 1000 Ang^3
#
#
#
# Elastic Constant Matrix: (Units=GPa)
#
#
# Indices 1 2 3 4 5 6 
#
# 1 153.0346 8.4552 27.0263 20.5893 -8.1319 -0.0669
# 2 8.4552 77.2708 18.8262 15.3396 -6.5580 8.5250
# 3 27.0263 18.8262 69.6201 34.5292 -11.1512 -0.4024
# 4 20.5893 15.3396 34.5292 35.9963 -6.1710 -4.0715
# 5 -8.1319 -6.5580 -11.1512 -6.1710 44.1814 14.8719
# 6 -0.0669 8.5250 -0.4024 -4.0715 14.8719 25.9981
#
#
#
# Elastic Compliance Matrix: (Units=1/GPa)
#
#
# Indices 1 2 3 4 5 6 
#
# 1 0.007195 0.000332 -0.001209 -0.003052 0.001040 -0.001182
# 2 0.000332 0.015648 -0.000393 -0.006728 0.004246 -0.008619
# 3 -0.001209 -0.000393 0.029148 -0.026912 0.005625 -0.006855
# 4 -0.003052 -0.006728 -0.026912 0.058949 -0.004739 0.013725
# 5 0.001040 0.004246 0.005625 -0.004739 0.030840 -0.019686
# 6 -0.001182 -0.008619 -0.006855 0.013725 -0.019686 0.054592
#
#
# Mechanical properties :
#
#
# Convention : Reuss Voigt Hill
#
# Bulk Modulus (GPa) = 20.22233 45.39343 32.80788
# Shear Modulus (GPa) = 23.21299 37.60968 30.41133
#
# Velocity S-wave (km/s) = 3.24949 4.13618 3.71935
# Velocity P-wave (km/s) = 4.82469 6.59236 5.77654
#
# Compressibility (1/GPa) = 0.04945028
#
# Stress axis : x y z
#
# Youngs Moduli (GPa) = 138.98357 63.90670 34.30734
#
# Poissons Ratio (x) = -0.02121 0.04149
# Poissons Ratio (y) = -0.04613 0.01349
# Poissons Ratio (z) = 0.16807 0.02512
#
# Static dielectric constant tensor:
#      x y z
#    x 1.811970 -0.027180 -0.046990 
#    y -0.027180 1.841500 -0.008820 
#    z -0.046990 -0.008820 1.810030 
# 
# From -- ./inp_files/305345.got.cif
#   From: 2010.05.17/outbox.cif.g08.bks.cpg/sg2_153_cif.got.tgz:305345.got - 2010.06.03 11:33:40.
