data_PCOD9065214
_publ_section_title
;
Structure prediction by ZEFSAII (Michael W. Deem and Ramdas Pophale) SiO2 
 PCOD9065214
Probable space group: P -1
;
_chemical_formula_sum "Si O2"
_cell_formula_units_Z 13
_cell_length_a 7.918290
_cell_length_b 14.286076
_cell_length_c 9.468456
_cell_angle_alpha 140.148605
_cell_angle_beta 132.785462
_cell_angle_gamma 54.073553
_cell_volume 498.837345
_symmetry_space_group_name_H-M "P -1"
_symmetry_group_IT_number 2
_symmetry_cell_setting 'triclinic'
loop_
_space_group_symop_operation_xyz
x,y,z
-x,-y,-z
loop_
_atom_site_type_symbol
_atom_site_label
_atom_site_fract_x
_atom_site_fract_y
_atom_site_fract_z
Si Si1 0.095031 0.540125 0.821509
Si Si2 0.836250 0.278419 0.405320
Si Si3 0.459725 0.042957 0.189790
Si Si4 0.500000 0.500000 0.500000
Si Si5 0.497809 0.381485 0.666166
Si Si6 0.044321 0.831017 0.963744
Si Si7 0.850149 0.956213 0.498832
O O1 0.275272 0.433566 0.701857
O O2 0.892609 0.449523 0.655517
O O3 0.988385 0.685357 0.845698
O O4 0.261093 0.592049 0.093554
O O5 0.565807 0.314863 0.323283
O O6 0.872219 0.228744 0.209120
O O7 0.002711 0.180870 0.495640
O O8 0.512390 0.207308 0.446858
O O9 0.185598 0.055955 0.065767
O O10 0.608717 0.938676 0.266562
O O11 0.500000 0.000000 0.000000
O O12 0.477608 0.490533 0.649352
O O13 0.187643 0.916375 0.254962
O O14 0.000000 0.000000 0.500000
#
# Coordination Sequence:
#
# PCOD9065214 Si02
#       7
#     2   2   2   1   2   2   2
#     4  11  24  48  79 105 149 199 250 315 376 444
#     4  12  27  48  75 113 148 200 252 312 379 446
#     4  12  25  44  78 106 145 202 250 297 376 451
#     4  12  26  42  74 108 148 188 260 304 372 448
#     4  11  24  47  74 110 149 196 252 313 375 447
#     4  12  24  49  77 107 153 198 248 310 378 444
#     4  12  27  50  73 110 154 199 251 312 372 454
#
# _framework density 26.060600000000001
#
# number of rings (size 3 to 8) (size 9 to 14) (size 15 to 20)
#    0.000    0.308    6.154    2.769    0.000    2.462 
#    0.000    0.000    0.000    0.000    0.000    0.000 
#    0.000    0.000    0.000    0.000    0.000    0.000 
#
# Total GULP energy -72629.146727 kJ/mol
# GULP energy per Si atom -5586.857441 kJ/mol
# Density = 2.600129 g / cm^3
# Si number density = 26.060600 Si / 1000 Ang^3
#
#
#
# Elastic Constant Matrix: (Units=GPa)
#
#
# Indices 1 2 3 4 5 6 
#
# 1 49.6130 12.0282 21.5249 -3.9973 -23.0497 0.4511
# 2 12.0282 196.7835 53.6596 -20.8434 -3.2676 15.3885
# 3 21.5249 53.6596 157.4400 -21.9095 7.2471 1.9829
# 4 -3.9973 -20.8434 -21.9095 52.2293 5.2122 4.4465
# 5 -23.0497 -3.2676 7.2471 5.2122 37.8594 14.5045
# 6 0.4511 15.3885 1.9829 4.4465 14.5045 47.6511
#
#
#
# Elastic Compliance Matrix: (Units=1/GPa)
#
#
# Indices 1 2 3 4 5 6 
#
# 1 0.034469 0.000430 -0.006160 -0.001647 0.025413 -0.007791
# 2 0.000430 0.005990 -0.001927 0.001645 0.001915 -0.002595
# 3 -0.006160 -0.001927 0.008528 0.002831 -0.006750 0.002116
# 4 -0.001647 0.001645 0.002831 0.021367 -0.003779 -0.001477
# 5 0.025413 0.001915 -0.006750 -0.003779 0.049752 -0.015369
# 6 -0.007791 -0.002595 0.002116 -0.001477 -0.015369 0.026626
#
#
# Mechanical properties :
#
#
# Convention : Reuss Voigt Hill
#
# Bulk Modulus (GPa) = 29.69717 64.25132 46.97424
# Shear Modulus (GPa) = 28.85662 48.65620 38.75641
#
# Velocity S-wave (km/s) = 3.33121 4.32561 3.86056
# Velocity P-wave (km/s) = 5.12016 7.04670 6.15922
#
# Compressibility (1/GPa) = 0.03367324
#
# Stress axis : x y z
#
# Youngs Moduli (GPa) = 29.01126 166.95097 117.25466
#
# Poissons Ratio (x) = -0.07171 0.72228
# Poissons Ratio (y) = -0.01246 0.22592
# Poissons Ratio (z) = 0.17871 0.32168
#
# Static dielectric constant tensor:
#      x y z
#    x 1.874010 0.367110 -0.232350 
#    y 0.367110 1.820920 0.059310 
#    z -0.232350 0.059310 2.211250 
# 
# From -- ./inp_files/157305.got.cif
#   From: 2010.05.17/outbox.cif.g08.bks.cpg/sg2_79_cif.got.tgz:157305.got - 2010.06.03 11:33:40.
