data_PCOD9065512
_publ_section_title
;
Structure prediction by ZEFSAII (Michael W. Deem and Ramdas Pophale) SiO2 
 PCOD9065512
Probable space group: P -1
;
_chemical_formula_sum "Si O2"
_cell_formula_units_Z 13
_cell_length_a 20.709240
_cell_length_b 9.110795
_cell_length_c 5.795517
_cell_angle_alpha 111.301316
_cell_angle_beta 78.039258
_cell_angle_gamma 148.192269
_cell_volume 525.379334
_symmetry_space_group_name_H-M "P -1"
_symmetry_group_IT_number 2
_symmetry_cell_setting 'triclinic'
loop_
_space_group_symop_operation_xyz
x,y,z
-x,-y,-z
loop_
_atom_site_type_symbol
_atom_site_label
_atom_site_fract_x
_atom_site_fract_y
_atom_site_fract_z
Si Si1 0.644566 0.261612 0.975772
Si Si2 0.932694 0.385340 0.734411
Si Si3 0.234084 0.254819 0.556381
Si Si4 0.671815 0.020320 0.147757
Si Si5 0.164471 0.520659 0.341926
Si Si6 0.436532 0.475797 0.328675
Si Si7 0.000000 0.000000 0.500000
O O1 0.720064 0.576313 0.142301
O O2 0.676249 0.188762 0.095095
O O3 0.711046 0.323932 0.734781
O O4 0.500000 0.000000 0.000000
O O5 0.882085 0.462052 0.819393
O O6 0.000000 0.500000 0.500000
O O7 0.827747 0.040292 0.579082
O O8 0.000000 0.500000 0.000000
O O9 0.364885 0.487350 0.464031
O O10 0.132293 0.168821 0.487286
O O11 0.788805 0.267299 0.370693
O O12 0.545732 0.751918 0.236927
O O13 0.658981 0.837801 0.902514
O O14 0.045785 0.188852 0.341061
O O15 0.500000 0.500000 0.500000
#
# Coordination Sequence:
#
# PCOD9065512 Si02
#       7
#     2   2   2   2   2   2   1
#     4  12  28  48  80 119 163 212 274 354 428 501
#     4  12  30  54  85 119 168 230 292 345 422 517
#     4  12  27  49  79 121 163 218 277 347 429 502
#     4  11  24  48  79 113 158 213 273 347 425 490
#     4  12  28  53  80 115 169 215 286 343 425 517
#     4  11  25  48  79 114 158 211 282 344 418 505
#     4  12  28  50  74 118 166 222 268 334 430 500
#
# _framework density 24.744024
#
# number of rings (size 3 to 8) (size 9 to 14) (size 15 to 20)
#    0.000    0.308    3.077    4.615    8.615    4.308 
#    0.000    0.000    0.000    0.000    0.000    0.000 
#    0.000    0.000    0.000    0.000    0.000    0.000 
#
# Total GULP energy -72382.598143 kJ/mol
# GULP energy per Si atom -5567.892165 kJ/mol
# Density = 2.468771 g / cm^3
# Si number density = 24.744024 Si / 1000 Ang^3
#
#
#
# Elastic Constant Matrix: (Units=GPa)
#
#
# Indices 1 2 3 4 5 6 
#
# 1 143.8392 27.4418 34.2436 -19.3739 -3.7155 35.4880
# 2 27.4418 106.4735 44.4012 -13.9433 -5.7710 -4.1624
# 3 34.2436 44.4012 121.1102 -3.9256 -14.2818 8.8398
# 4 -19.3739 -13.9433 -3.9256 28.7192 -1.9229 -9.4860
# 5 -3.7155 -5.7710 -14.2818 -1.9229 34.6377 -7.5293
# 6 35.4880 -4.1624 8.8398 -9.4860 -7.5293 41.0372
#
#
#
# Elastic Compliance Matrix: (Units=1/GPa)
#
#
# Indices 1 2 3 4 5 6 
#
# 1 0.010071 -0.001953 -0.001624 0.002816 -0.001538 -0.008189
# 2 -0.001953 0.012758 -0.004122 0.006302 0.001796 0.005657
# 3 -0.001624 -0.004122 0.010626 -0.001808 0.003172 -0.001138
# 4 0.002816 0.006302 -0.001808 0.042994 0.005049 0.009458
# 5 -0.001538 0.001796 0.003172 0.005049 0.032316 0.007926
# 6 -0.008189 0.005657 -0.001138 0.009458 0.007926 0.035910
#
#
# Mechanical properties :
#
#
# Convention : Reuss Voigt Hill
#
# Bulk Modulus (GPa) = 55.37991 64.84400 60.11196
# Shear Modulus (GPa) = 30.10372 38.56791 34.33582
#
# Velocity S-wave (km/s) = 3.49177 3.95229 3.72915
# Velocity P-wave (km/s) = 6.21983 6.86224 6.54892
#
# Compressibility (1/GPa) = 0.01805709
#
# Stress axis : x y z
#
# Youngs Moduli (GPa) = 99.29044 78.38122 94.10971
#
# Poissons Ratio (x) = 0.15310 0.15283
# Poissons Ratio (y) = 0.19394 0.38791
# Poissons Ratio (z) = 0.16125 0.32308
#
# Static dielectric constant tensor:
#      x y z
#    x 2.017340 0.060200 -0.037560 
#    y 0.060200 1.989070 -0.032620 
#    z -0.037560 -0.032620 2.001620 
# 
# From -- ./inp_files/89361.got.cif
#   From: 2010.05.17/outbox.cif.g08.bks.cpg/sg2_45_cif.got.tgz:89361.got - 2010.06.03 11:33:40.
