data_PCOD9065834
_publ_section_title
;
Structure prediction by ZEFSAII (Michael W. Deem and Ramdas Pophale) SiO2 
 PCOD9065834
Probable space group: P -1
;
_chemical_formula_sum "Si O2"
_cell_formula_units_Z 12
_cell_length_a 5.015030
_cell_length_b 5.327271
_cell_length_c 20.827927
_cell_angle_alpha 61.971201
_cell_angle_beta 83.069867
_cell_angle_gamma 86.243636
_cell_volume 487.569571
_symmetry_space_group_name_H-M "P -1"
_symmetry_group_IT_number 2
_symmetry_cell_setting 'triclinic'
loop_
_space_group_symop_operation_xyz
x,y,z
-x,-y,-z
loop_
_atom_site_type_symbol
_atom_site_label
_atom_site_fract_x
_atom_site_fract_y
_atom_site_fract_z
Si Si1 0.541116 0.744991 0.577190
Si Si2 0.058039 0.448221 0.580314
Si Si3 0.562431 0.387094 0.268851
Si Si4 0.489876 0.339187 0.951597
Si Si5 0.217175 0.924017 0.262257
Si Si6 0.980245 0.429239 0.151257
O O1 0.371638 0.489131 0.580911
O O2 0.402143 0.777035 0.645641
O O3 0.856665 0.693644 0.584370
O O4 0.500000 0.000000 0.500000
O O5 0.000000 0.500000 0.500000
O O6 0.949003 0.187318 0.657571
O O7 0.382918 0.661961 0.259220
O O8 0.837025 0.484658 0.216923
O O9 0.416361 0.166784 0.252981
O O10 0.227647 0.458773 0.908961
O O11 0.743957 0.420233 0.891112
O O12 0.500000 0.500000 0.000000
O O13 0.500000 0.000000 0.000000
O O14 0.039261 0.090830 0.194696
#
# Coordination Sequence:
#
# PCOD9065834 Si02
#       6
#     2   2   2   2   2   2
#     4  11  25  43  70 105 152 203 260 319 375 441
#     4  11  25  43  70 105 152 203 260 319 375 441
#     4  11  28  48  77 116 155 204 262 315 383 449
#     4  12  30  54  82 118 153 200 249 310 394 470
#     4  11  28  48  77 116 155 204 262 315 383 449
#     4  12  28  52  86 112 163 198 253 320 378 468
#
# _framework density 24.611872999999999
#
# number of rings (size 3 to 8) (size 9 to 14) (size 15 to 20)
#    0.000    0.667    1.667    3.000   14.000    2.667 
#    0.000    0.000    0.000    0.000    0.000    0.000 
#    0.000    0.000    0.000    0.000    0.000    0.000 
#
# Total GULP energy -67174.826780 kJ/mol
# GULP energy per Si atom -5597.902232 kJ/mol
# Density = 2.455586 g / cm^3
# Si number density = 24.611873 Si / 1000 Ang^3
#
#
#
# Elastic Constant Matrix: (Units=GPa)
#
#
# Indices 1 2 3 4 5 6 
#
# 1 100.7994 34.3526 24.5691 -27.3103 -4.7061 -4.0816
# 2 34.3526 133.8222 44.1796 -25.3480 -14.4990 -13.1886
# 3 24.5691 44.1796 163.5565 -42.7885 -15.1905 -6.5240
# 4 -27.3103 -25.3480 -42.7885 42.5181 -8.4787 2.9311
# 5 -4.7061 -14.4990 -15.1905 -8.4787 53.6396 -0.7196
# 6 -4.0816 -13.1886 -6.5240 2.9311 -0.7196 40.7537
#
#
#
# Elastic Compliance Matrix: (Units=1/GPa)
#
#
# Indices 1 2 3 4 5 6 
#
# 1 0.012704 -0.001684 0.001035 0.008639 0.002322 0.000313
# 2 -0.001684 0.009534 -0.000879 0.004115 0.002865 0.002531
# 3 0.001035 -0.000879 0.009289 0.010266 0.004115 0.000641
# 4 0.008639 0.004115 0.010266 0.044139 0.011766 0.000873
# 5 0.002322 0.002865 0.004115 0.011766 0.022665 0.001372
# 6 0.000313 0.002531 0.000641 0.000873 0.001372 0.025452
#
#
# Mechanical properties :
#
#
# Convention : Reuss Voigt Hill
#
# Bulk Modulus (GPa) = 35.12301 67.15342 51.13821
# Shear Modulus (GPa) = 36.67575 47.05407 41.86491
#
# Velocity S-wave (km/s) = 3.86445 4.37721 4.12880
# Velocity P-wave (km/s) = 5.84925 7.27261 6.59941
#
# Compressibility (1/GPa) = 0.02847137
#
# Stress axis : x y z
#
# Youngs Moduli (GPa) = 78.71470 104.88499 107.64882
#
# Poissons Ratio (x) = 0.17663 -0.11139
# Poissons Ratio (y) = 0.13256 0.09462
# Poissons Ratio (z) = -0.08145 0.09219
#
# Static dielectric constant tensor:
#      x y z
#    x 1.977260 0.018640 0.034330 
#    y 0.018640 1.988950 0.033250 
#    z 0.034330 0.033250 1.957570 
# 
# From -- ./inp_files/580915.got.cif
#   From: 2010.05.17/outbox.cif.g08.bks.cpg/sg2_291_cif.got.tgz:580915.got - 2010.06.03 11:33:40.
