data_PCOD9065856
_publ_section_title
;
Structure prediction by ZEFSAII (Michael W. Deem and Ramdas Pophale) SiO2 
 PCOD9065856
Probable space group: P -1
;
_chemical_formula_sum "Si O2"
_cell_formula_units_Z 16
_cell_length_a 11.518902
_cell_length_b 12.476814
_cell_length_c 5.770108
_cell_angle_alpha 85.820534
_cell_angle_beta 107.973813
_cell_angle_gamma 109.648625
_cell_volume 742.433014
_symmetry_space_group_name_H-M "P -1"
_symmetry_group_IT_number 2
_symmetry_cell_setting 'triclinic'
loop_
_space_group_symop_operation_xyz
x,y,z
-x,-y,-z
loop_
_atom_site_type_symbol
_atom_site_label
_atom_site_fract_x
_atom_site_fract_y
_atom_site_fract_z
Si Si1 0.623739 0.524804 0.739134
Si Si2 0.784066 0.061939 0.392093
Si Si3 0.853173 0.986216 0.958559
Si Si4 0.100577 0.481073 0.253225
Si Si5 0.525879 0.904835 0.369015
Si Si6 0.383356 0.709739 0.022966
Si Si7 0.381871 0.232035 0.182422
Si Si8 0.134119 0.672649 0.604236
O O1 0.500000 0.500000 0.500000
O O2 0.769764 0.544205 0.734156
O O3 0.590495 0.404116 0.865187
O O4 0.629179 0.642754 0.844040
O O5 0.852978 0.050499 0.193496
O O6 0.818982 0.194895 0.435281
O O7 0.635972 0.985551 0.259027
O O8 0.810192 0.020763 0.673304
O O9 0.753144 0.859584 0.963372
O O10 0.000000 0.000000 0.000000
O O11 0.146379 0.597846 0.406689
O O12 0.010537 0.381145 0.378765
O O13 0.000000 0.500000 0.000000
O O14 0.400732 0.815202 0.190593
O O15 0.586022 0.816726 0.545923
O O16 0.500000 0.000000 0.500000
O O17 0.493348 0.764057 0.891735
O O18 0.237556 0.662548 0.855615
#
# Coordination Sequence:
#
# PCOD9065856 Si02
#       8
#     2   2   2   2   2   2   2   2
#     4  12  25  45  75 103 146 195 249 316 382 453
#     4  11  26  46  75 107 146 197 252 314 384 455
#     4  11  26  48  70 106 149 199 255 312 384 464
#     4  11  26  50  69 106 145 193 253 312 381 459
#     4  11  25  43  71 107 148 191 248 311 384 455
#     4  12  24  46  72 106 148 189 252 313 381 456
#     4  11  25  44  67 106 143 190 250 313 380 456
#     4  11  27  44  74 104 145 193 252 310 383 456
#
# _framework density 21.550764000000001
#
# number of rings (size 3 to 8) (size 9 to 14) (size 15 to 20)
#    0.000    0.750    3.750    2.250    8.750    1.000 
#    2.250    0.000    0.000    0.000    0.000    0.000 
#    0.000    0.000    0.000    0.000    0.000    0.000 
#
# Total GULP energy -89192.717574 kJ/mol
# GULP energy per Si atom -5574.544848 kJ/mol
# Density = 2.150171 g / cm^3
# Si number density = 21.550764 Si / 1000 Ang^3
#
#
#
# Elastic Constant Matrix: (Units=GPa)
#
#
# Indices 1 2 3 4 5 6 
#
# 1 122.3401 14.7933 22.9698 9.9109 -2.8995 1.9720
# 2 14.7933 142.3792 49.3589 17.5035 5.7676 -4.7465
# 3 22.9698 49.3589 76.8193 21.0701 2.2487 -6.9699
# 4 9.9109 17.5035 21.0701 40.0820 6.4183 -2.7733
# 5 -2.8995 5.7676 2.2487 6.4183 28.6557 6.7245
# 6 1.9720 -4.7465 -6.9699 -2.7733 6.7245 21.6961
#
#
#
# Elastic Compliance Matrix: (Units=1/GPa)
#
#
# Indices 1 2 3 4 5 6 
#
# 1 0.008846 -0.000038 -0.002535 -0.001319 0.001961 -0.002403
# 2 -0.000038 0.009119 -0.005538 -0.000809 -0.001349 0.000534
# 3 -0.002535 -0.005538 0.019653 -0.006945 -0.000185 0.004502
# 4 -0.001319 -0.000809 -0.006945 0.030701 -0.007211 0.003871
# 5 0.001961 -0.001349 -0.000185 -0.007211 0.040266 -0.013935
# 6 -0.002403 0.000534 0.004502 0.003871 -0.013935 0.052686
#
#
# Mechanical properties :
#
#
# Convention : Reuss Voigt Hill
#
# Bulk Modulus (GPa) = 46.73612 57.30917 52.02264
# Shear Modulus (GPa) = 27.08177 35.04787 31.06482
#
# Velocity S-wave (km/s) = 3.54877 4.03711 3.80079
# Velocity P-wave (km/s) = 6.20688 6.95567 6.59191
#
# Compressibility (1/GPa) = 0.02139673
#
# Stress axis : x y z
#
# Youngs Moduli (GPa) = 113.03999 109.65763 50.88380
#
# Poissons Ratio (x) = 0.00416 0.12897
# Poissons Ratio (y) = 0.00429 0.28181
# Poissons Ratio (z) = 0.28650 0.60733
#
# Static dielectric constant tensor:
#      x y z
#    x 1.904600 0.049080 0.052040 
#    y 0.049080 1.616670 0.061900 
#    z 0.052040 0.061900 1.949960 
# 
# From -- ./inp_files/70790.got.cif
#   From: 2010.05.17/outbox.cif.g08.bks.cpg/sg2_36_cif.got.tgz:70790.got - 2010.06.03 11:33:40.
