data_PCOD9065535
_publ_section_title
;
Structure prediction by ZEFSAII (Michael W. Deem and Ramdas Pophale) SiO2 
 PCOD9065535
Probable space group: P -1
;
_chemical_formula_sum "Si O2"
_cell_formula_units_Z 16
_cell_length_a 11.528312
_cell_length_b 26.908634
_cell_length_c 6.720409
_cell_angle_alpha 133.720887
_cell_angle_beta 121.736561
_cell_angle_gamma 30.700366
_cell_volume 755.951671
_symmetry_space_group_name_H-M "P -1"
_symmetry_group_IT_number 2
_symmetry_cell_setting 'triclinic'
loop_
_space_group_symop_operation_xyz
x,y,z
-x,-y,-z
loop_
_atom_site_type_symbol
_atom_site_label
_atom_site_fract_x
_atom_site_fract_y
_atom_site_fract_z
Si Si1 0.889270 0.616877 0.282159
Si Si2 0.013928 0.817189 0.763881
Si Si3 0.480762 0.298655 0.520502
Si Si4 0.052476 0.264571 0.187607
Si Si5 0.531732 0.057992 0.807357
Si Si6 0.433835 0.226975 0.908920
Si Si7 0.201186 0.864795 0.321794
Si Si8 0.334831 0.632315 0.180234
O O1 0.700237 0.666892 0.408317
O O2 0.016227 0.628305 0.535595
O O3 0.801650 0.685002 0.182442
O O4 0.000000 0.500000 0.000000
O O5 0.190311 0.720385 0.483447
O O6 0.941117 0.781700 0.732430
O O7 0.138077 0.819663 0.032014
O O8 0.782528 0.948715 0.834820
O O9 0.725003 0.176160 0.497100
O O10 0.497820 0.373618 0.755085
O O11 0.433156 0.290685 0.236681
O O12 0.311408 0.157122 0.029756
O O13 0.863429 0.307906 0.991155
O O14 0.514373 0.128185 0.831567
O O15 0.500000 0.000000 0.500000
O O16 0.602520 0.179185 0.752599
O O17 0.000000 0.000000 0.500000
O O18 0.500000 0.500000 0.000000
#
# Coordination Sequence:
#
# PCOD9065535 Si02
#       8
#     2   2   2   2   2   2   2   2
#     4  11  28  46  74 103 140 190 235 296 352 417
#     4  12  26  45  71 106 143 188 236 291 360 423
#     4  11  24  49  67 103 142 183 236 285 353 416
#     4  12  27  49  70 108 145 185 242 292 360 421
#     4  12  25  44  73 102 144 190 236 292 356 425
#     4  11  25  45  68 103 142 181 241 287 348 420
#     4  11  25  40  70 103 140 184 223 286 351 420
#     4  12  29  47  75 105 142 192 239 294 353 426
#
# _framework density 21.165375000000001
#
# number of rings (size 3 to 8) (size 9 to 14) (size 15 to 20)
#    0.000    0.500    5.000    1.875    8.750    2.000 
#    0.000    0.000    0.000    0.000    0.000    0.000 
#    0.000    0.000    0.000    0.000    0.000    0.000 
#
# Total GULP energy -89363.267386 kJ/mol
# GULP energy per Si atom -5585.204212 kJ/mol
# Density = 2.111720 g / cm^3
# Si number density = 21.165375 Si / 1000 Ang^3
#
#
#
# Elastic Constant Matrix: (Units=GPa)
#
#
# Indices 1 2 3 4 5 6 
#
# 1 101.0762 4.8780 14.6199 -2.5877 21.1794 23.8096
# 2 4.8780 40.2652 7.4457 0.2110 -3.8368 11.1790
# 3 14.6199 7.4457 101.8097 -6.1443 17.5288 -1.7712
# 4 -2.5877 0.2110 -6.1443 30.6718 7.0657 8.2225
# 5 21.1794 -3.8368 17.5288 7.0657 38.5974 0.6503
# 6 23.8096 11.1790 -1.7712 8.2225 0.6503 27.6163
#
#
#
# Elastic Compliance Matrix: (Units=1/GPa)
#
#
# Indices 1 2 3 4 5 6 
#
# 1 0.016027 0.001876 -0.000620 0.007889 -0.009488 -0.016742
# 2 0.001876 0.029502 -0.003056 0.002546 0.003071 -0.014586
# 3 -0.000620 -0.003056 0.011334 0.003095 -0.005706 0.001711
# 4 0.007889 0.002546 0.003095 0.042166 -0.012865 -0.019885
# 5 -0.009488 0.003071 -0.005706 -0.012865 0.036206 0.009549
# 6 -0.016742 -0.014586 0.001711 -0.019885 0.009549 0.062355
#
#
# Mechanical properties :
#
#
# Convention : Reuss Voigt Hill
#
# Bulk Modulus (GPa) = 18.77509 33.00425 25.88967
# Shear Modulus (GPa) = 22.83703 33.79092 28.31398
#
# Velocity S-wave (km/s) = 3.28835 3.99998 3.66149
# Velocity P-wave (km/s) = 4.82779 6.07951 5.48945
#
# Compressibility (1/GPa) = 0.05326207
#
# Stress axis : x y z
#
# Youngs Moduli (GPa) = 62.39647 33.89600 88.23221
#
# Poissons Ratio (x) = -0.06358 0.05472
# Poissons Ratio (y) = -0.11704 0.26962
# Poissons Ratio (z) = 0.03870 0.10358
#
# Static dielectric constant tensor:
#      x y z
#    x 1.769760 -0.040070 0.013220 
#    y -0.040070 1.809390 -0.039780 
#    z 0.013220 -0.039780 1.778720 
# 
# From -- ./inp_files/85166.got.cif
#   From: 2010.05.17/outbox.cif.g08.bks.cpg/sg2_43_cif.got.tgz:85166.got - 2010.06.03 11:33:40.
