data_PCOD9065669
_publ_section_title
;
Structure prediction by ZEFSAII (Michael W. Deem and Ramdas Pophale) SiO2 
 PCOD9065669
Probable space group: P -1
;
_chemical_formula_sum "Si O2"
_cell_formula_units_Z 14
_cell_length_a 9.123011
_cell_length_b 7.771221
_cell_length_c 19.304222
_cell_angle_alpha 47.270926
_cell_angle_beta 48.283128
_cell_angle_gamma 83.718648
_cell_volume 586.435304
_symmetry_space_group_name_H-M "P -1"
_symmetry_group_IT_number 2
_symmetry_cell_setting 'triclinic'
loop_
_space_group_symop_operation_xyz
x,y,z
-x,-y,-z
loop_
_atom_site_type_symbol
_atom_site_label
_atom_site_fract_x
_atom_site_fract_y
_atom_site_fract_z
Si Si1 0.452313 0.394514 0.312687
Si Si2 0.921532 0.573521 0.187978
Si Si3 0.274837 0.173744 0.134879
Si Si4 0.636283 0.207258 0.518083
Si Si5 0.861573 0.603478 0.475408
Si Si6 0.955810 0.270533 0.137667
Si Si7 0.468624 0.097398 0.910996
O O1 0.742913 0.566889 0.190889
O O2 0.364934 0.467400 0.388701
O O3 0.410883 0.557510 0.222964
O O4 0.338117 0.056955 0.422809
O O5 0.747069 0.379929 0.362246
O O6 0.012414 0.424853 0.152997
O O7 0.176174 0.889820 0.041466
O O8 0.148878 0.193456 0.099367
O O9 0.383766 0.989331 0.154940
O O10 0.500000 0.500000 0.000000
O O11 0.037526 0.961093 0.316798
O O12 0.784455 0.446450 0.467577
O O13 0.339054 0.022324 0.681684
O O14 0.000000 0.500000 0.500000
O O15 0.000000 0.500000 0.000000
O O16 0.500000 0.000000 0.000000
#
# Coordination Sequence:
#
# PCOD9065669 Si02
#       7
#     2   2   2   2   2   2   2
#     4  11  26  49  78 109 151 198 257 316 370 457
#     4  11  24  50  75 109 154 198 255 313 379 450
#     4  12  26  48  73 107 157 190 244 317 376 449
#     4  11  27  51  80 110 150 202 260 312 377 450
#     4  12  27  48  76 116 150 200 256 310 388 447
#     4  11  26  46  81 113 145 205 256 311 382 447
#     4  12  27  44  70 113 149 202 246 306 395 444
#
# _framework density 23.873052999999999
#
# number of rings (size 3 to 8) (size 9 to 14) (size 15 to 20)
#    0.000    0.571    2.857    4.714    8.000    4.000 
#    0.000    0.000    0.000    0.000    0.000    0.000 
#    0.000    0.000    0.000    0.000    0.000    0.000 
#
# Total GULP energy -78130.608753 kJ/mol
# GULP energy per Si atom -5580.757768 kJ/mol
# Density = 2.381872 g / cm^3
# Si number density = 23.873053 Si / 1000 Ang^3
#
#
#
# Elastic Constant Matrix: (Units=GPa)
#
#
# Indices 1 2 3 4 5 6 
#
# 1 75.7182 33.9116 44.8274 -13.4446 17.6563 -18.8008
# 2 33.9116 105.1151 26.9669 -3.7922 6.3047 -9.3185
# 3 44.8274 26.9669 92.3361 -8.4966 20.7737 -9.2492
# 4 -13.4446 -3.7922 -8.4966 37.8542 -4.8362 7.7409
# 5 17.6563 6.3047 20.7737 -4.8362 38.3080 -4.4293
# 6 -18.8008 -9.3185 -9.2492 7.7409 -4.4293 49.0487
#
#
#
# Elastic Compliance Matrix: (Units=1/GPa)
#
#
# Indices 1 2 3 4 5 6 
#
# 1 0.023065 -0.004502 -0.007955 0.004286 -0.004410 0.005411
# 2 -0.004502 0.011260 -0.001336 -0.000729 0.000895 0.000358
# 3 -0.007955 -0.001336 0.016133 0.000183 -0.004924 -0.000734
# 4 0.004286 -0.000729 0.000183 0.028663 0.001333 -0.002865
# 5 -0.004410 0.000895 -0.004924 0.001333 0.030842 0.000126
# 6 0.005411 0.000358 -0.000734 -0.002865 0.000126 0.022855
#
#
# Mechanical properties :
#
#
# Convention : Reuss Voigt Hill
#
# Bulk Modulus (GPa) = 43.71686 53.84236 48.77961
# Shear Modulus (GPa) = 29.75698 36.20641 32.98169
#
# Velocity S-wave (km/s) = 3.53436 3.89861 3.72095
# Velocity P-wave (km/s) = 5.91672 6.54737 6.24002
#
# Compressibility (1/GPa) = 0.02287447
#
# Stress axis : x y z
#
# Youngs Moduli (GPa) = 43.35549 88.80950 61.98457
#
# Poissons Ratio (x) = 0.39979 0.49306
# Poissons Ratio (y) = 0.19517 0.08280
# Poissons Ratio (z) = 0.34487 0.11863
#
# Static dielectric constant tensor:
#      x y z
#    x 1.941400 -0.078120 0.035030 
#    y -0.078120 2.073740 0.164360 
#    z 0.035030 0.164360 2.100150 
# 
# From -- ./inp_files/417036.got.cif
#   From: 2010.05.17/outbox.cif.g08.bks.cpg/sg2_209_cif.got.tgz:417036.got - 2010.06.03 11:33:40.
