data_PCOD9065084
_publ_section_title
;
Structure prediction by ZEFSAII (Michael W. Deem and Ramdas Pophale) SiO2 
 PCOD9065084
Probable space group: P -1
;
_chemical_formula_sum "Si O2"
_cell_formula_units_Z 16
_cell_length_a 10.274124
_cell_length_b 14.387446
_cell_length_c 8.054048
_cell_angle_alpha 115.546042
_cell_angle_beta 47.203502
_cell_angle_gamma 94.370468
_cell_volume 744.729583
_symmetry_space_group_name_H-M "P -1"
_symmetry_group_IT_number 2
_symmetry_cell_setting 'triclinic'
loop_
_space_group_symop_operation_xyz
x,y,z
-x,-y,-z
loop_
_atom_site_type_symbol
_atom_site_label
_atom_site_fract_x
_atom_site_fract_y
_atom_site_fract_z
Si Si1 0.080541 0.829144 0.722635
Si Si2 0.633223 0.848092 0.579711
Si Si3 0.741376 0.320509 0.837622
Si Si4 0.019985 0.884578 0.313991
Si Si5 0.193075 0.279489 0.985713
Si Si6 0.345385 0.297418 0.226175
Si Si7 0.767673 0.040931 0.079845
Si Si8 0.031985 0.520332 0.181903
O O1 0.966988 0.778162 0.909720
O O2 0.208531 0.728425 0.427938
O O3 0.201452 0.906690 0.731567
O O4 0.905696 0.918288 0.850408
O O5 0.811030 0.888173 0.460965
O O6 0.619877 0.790699 0.722342
O O7 0.442504 0.943361 0.775197
O O8 0.674891 0.765597 0.322855
O O9 0.806690 0.424237 0.891922
O O10 0.879522 0.222205 0.749766
O O11 0.528460 0.334294 0.078065
O O12 0.000000 0.000000 0.500000
O O13 0.158176 0.882187 0.041759
O O14 0.300652 0.259339 0.053380
O O15 0.092485 0.407232 0.140634
O O16 0.159692 0.395052 0.515801
O O17 0.000000 0.500000 0.000000
#
# Coordination Sequence:
#
# PCOD9065084 Si02
#       8
#     2   2   2   2   2   2   2   2
#     4  11  24  47  71 104 146 186 236 295 354 421
#     4  12  25  47  73 106 144 189 237 290 358 425
#     4  12  25  46  71 103 144 182 240 292 352 427
#     4  12  23  42  68 100 141 187 231 292 350 416
#     4  12  25  48  75 102 148 187 236 302 351 417
#     4  12  26  45  74 107 139 188 238 290 356 424
#     4  11  25  44  72 105 142 190 233 288 360 424
#     4  12  26  49  73 102 144 191 238 296 360 415
#
# _framework density 21.484310000000001
#
# number of rings (size 3 to 8) (size 9 to 14) (size 15 to 20)
#    0.000    0.250    7.500    1.125    0.000    3.000 
#    2.250    0.000    0.000    0.000    0.000    0.000 
#    0.000    0.000    0.000    0.000    0.000    0.000 
#
# Total GULP energy -89419.679492 kJ/mol
# GULP energy per Si atom -5588.729968 kJ/mol
# Density = 2.143541 g / cm^3
# Si number density = 21.484310 Si / 1000 Ang^3
#
#
#
# Elastic Constant Matrix: (Units=GPa)
#
#
# Indices 1 2 3 4 5 6 
#
# 1 105.5152 11.1719 41.6060 -8.6981 -7.7466 12.4028
# 2 11.1719 68.3004 4.0735 -7.6929 1.8958 -2.9044
# 3 41.6060 4.0735 60.9237 -17.2658 -0.8588 10.3243
# 4 -8.6981 -7.6929 -17.2658 28.4223 4.6687 -6.7679
# 5 -7.7466 1.8958 -0.8588 4.6687 43.1077 -7.4756
# 6 12.4028 -2.9044 10.3243 -6.7679 -7.4756 35.9966
#
#
#
# Elastic Compliance Matrix: (Units=1/GPa)
#
#
# Indices 1 2 3 4 5 6 
#
# 1 0.013707 -0.002184 -0.009714 -0.003211 0.002326 -0.002234
# 2 -0.002184 0.015629 0.001522 0.005236 -0.001216 0.002309
# 3 -0.009714 0.001522 0.027261 0.013955 -0.003195 -0.002389
# 4 -0.003211 0.005236 0.013955 0.046100 -0.004614 0.005236
# 5 0.002326 -0.001216 -0.003195 -0.004614 0.024853 0.004311
# 6 -0.002234 0.002309 -0.002389 0.005236 0.004311 0.031301
#
#
# Mechanical properties :
#
#
# Convention : Reuss Voigt Hill
#
# Bulk Modulus (GPa) = 27.89716 38.71576 33.30646
# Shear Modulus (GPa) = 26.10256 33.36451 29.73353
#
# Velocity S-wave (km/s) = 3.48941 3.94505 3.72420
# Velocity P-wave (km/s) = 5.40812 6.22983 5.83346
#
# Compressibility (1/GPa) = 0.03584595
#
# Stress axis : x y z
#
# Youngs Moduli (GPa) = 72.95295 63.98203 36.68288
#
# Poissons Ratio (x) = 0.13974 0.35633
# Poissons Ratio (y) = 0.15933 -0.05583
# Poissons Ratio (z) = 0.70865 -0.09738
#
# Static dielectric constant tensor:
#      x y z
#    x 1.980600 0.035070 0.068830 
#    y 0.035070 1.775590 -0.047510 
#    z 0.068830 -0.047510 1.810260 
# 
# From -- ./inp_files/270797.got.cif
#   From: 2010.05.17/outbox.cif.g08.bks.cpg/sg2_136_cif.got.tgz:270797.got - 2010.06.03 11:33:40.
