data_PCOD9065956
_publ_section_title
;
Structure prediction by ZEFSAII (Michael W. Deem and Ramdas Pophale) SiO2 
 PCOD9065956
Probable space group: P -1
;
_chemical_formula_sum "Si O2"
_cell_formula_units_Z 16
_cell_length_a 8.519920
_cell_length_b 14.438844
_cell_length_c 13.556950
_cell_angle_alpha 127.998029
_cell_angle_beta 29.231273
_cell_angle_gamma 128.719604
_cell_volume 624.676611
_symmetry_space_group_name_H-M "P -1"
_symmetry_group_IT_number 2
_symmetry_cell_setting 'triclinic'
loop_
_space_group_symop_operation_xyz
x,y,z
-x,-y,-z
loop_
_atom_site_type_symbol
_atom_site_label
_atom_site_fract_x
_atom_site_fract_y
_atom_site_fract_z
Si Si1 0.662320 0.823675 0.254541
Si Si2 0.133267 0.613619 0.375627
Si Si3 0.954341 0.139530 0.743000
Si Si4 0.131539 0.628430 0.063481
Si Si5 0.224344 0.938915 0.429605
Si Si6 0.824043 0.641925 0.777600
Si Si7 0.235662 0.838771 0.813495
Si Si8 0.356858 0.357359 0.497956
O O1 0.514377 0.684172 0.214476
O O2 0.395698 0.886876 0.392121
O O3 0.721501 0.828424 0.341565
O O4 0.009822 0.876708 0.046415
O O5 0.102188 0.472822 0.280909
O O6 0.984566 0.633133 0.576659
O O7 0.918486 0.668059 0.452149
O O8 0.757043 0.237003 0.957379
O O9 0.892388 0.139228 0.656790
O O10 0.921943 0.994001 0.671750
O O11 0.807426 0.648968 0.308995
O O12 0.432571 0.619466 0.962556
O O13 0.000000 0.500000 0.000000
O O14 0.506076 0.049505 0.301974
O O15 0.980369 0.768003 0.825197
O O16 0.407351 0.734667 0.692365
O O17 0.500000 0.500000 0.500000
#
# Coordination Sequence:
#
# PCOD9065956 Si02
#       8
#     2   2   2   2   2   2   2   2
#     4  12  27  45  76 108 139 197 248 299 359 437
#     4  11  25  44  69 106 144 188 243 295 363 434
#     4  11  25  46  74 107 142 191 247 298 364 424
#     4  12  26  44  74 107 147 189 233 304 370 432
#     4  11  25  51  73 103 151 195 242 307 357 422
#     4  11  25  44  70 103 147 189 233 303 365 430
#     4  12  26  46  72 107 148 189 242 299 362 431
#     4  12  25  43  69 107 148 192 237 297 366 438
#
# _framework density 25.613254000000001
#
# number of rings (size 3 to 8) (size 9 to 14) (size 15 to 20)
#    0.000    0.500    2.500    5.250    8.750    1.500 
#    0.000    0.000    0.000    0.000    0.000    0.000 
#    0.000    0.000    0.000    0.000    0.000    0.000 
#
# Total GULP energy -89305.914560 kJ/mol
# GULP energy per Si atom -5581.619660 kJ/mol
# Density = 2.555496 g / cm^3
# Si number density = 25.613254 Si / 1000 Ang^3
#
#
#
# Elastic Constant Matrix: (Units=GPa)
#
#
# Indices 1 2 3 4 5 6 
#
# 1 190.5049 59.0510 20.9177 20.8164 -22.0976 2.5808
# 2 59.0510 120.4564 10.1144 18.8001 5.3967 14.0344
# 3 20.9177 10.1144 70.8263 17.5296 -3.7304 -6.0919
# 4 20.8164 18.8001 17.5296 44.1978 -7.8739 -2.6183
# 5 -22.0976 5.3967 -3.7304 -7.8739 36.8269 11.3284
# 6 2.5808 14.0344 -6.0919 -2.6183 11.3284 55.7465
#
#
#
# Elastic Compliance Matrix: (Units=1/GPa)
#
#
# Indices 1 2 3 4 5 6 
#
# 1 0.007054 -0.003403 -0.001258 -0.000580 0.004658 -0.000581
# 2 -0.003403 0.010980 0.000022 -0.003884 -0.003863 -0.002002
# 3 -0.001258 0.000022 0.016031 -0.005836 -0.000910 0.001715
# 4 -0.000580 -0.003884 -0.005836 0.027863 0.005410 0.000576
# 5 0.004658 -0.003863 -0.000910 0.005410 0.033387 -0.005873
# 6 -0.000581 -0.002002 0.001715 0.000576 -0.005873 0.019877
#
#
# Mechanical properties :
#
#
# Convention : Reuss Voigt Hill
#
# Bulk Modulus (GPa) = 40.34133 62.43931 51.39032
# Shear Modulus (GPa) = 37.66970 46.80121 42.23545
#
# Velocity S-wave (km/s) = 3.83915 4.27924 4.06515
# Velocity P-wave (km/s) = 5.95285 6.98903 6.49165
#
# Compressibility (1/GPa) = 0.02478848
#
# Stress axis : x y z
#
# Youngs Moduli (GPa) = 141.76859 91.07116 62.37746
#
# Poissons Ratio (x) = 0.30989 0.07849
# Poissons Ratio (y) = 0.48239 -0.00140
# Poissons Ratio (z) = 0.17839 -0.00205
#
# Static dielectric constant tensor:
#      x y z
#    x 2.037950 -0.145130 0.060810 
#    y -0.145130 2.435180 -0.062730 
#    z 0.060810 -0.062730 2.081310 
# 
# From -- ./inp_files/505464.got.cif
#   From: 2010.05.17/outbox.cif.g08.bks.cpg/sg2_253_cif.got.tgz:505464.got - 2010.06.03 11:33:40.
