data_PCOD9065685
_publ_section_title
;
Structure prediction by ZEFSAII (Michael W. Deem and Ramdas Pophale) SiO2 
 PCOD9065685
Probable space group: P -1
;
_chemical_formula_sum "Si O2"
_cell_formula_units_Z 14
_cell_length_a 7.832248
_cell_length_b 11.656980
_cell_length_c 7.891313
_cell_angle_alpha 57.848002
_cell_angle_beta 51.893141
_cell_angle_gamma 73.226999
_cell_volume 479.115758
_symmetry_space_group_name_H-M "P -1"
_symmetry_group_IT_number 2
_symmetry_cell_setting 'triclinic'
loop_
_space_group_symop_operation_xyz
x,y,z
-x,-y,-z
loop_
_atom_site_type_symbol
_atom_site_label
_atom_site_fract_x
_atom_site_fract_y
_atom_site_fract_z
Si Si1 0.580324 0.888181 0.315077
Si Si2 0.108641 0.456191 0.142782
Si Si3 0.500000 0.500000 0.000000
Si Si4 0.500000 0.000000 0.000000
Si Si5 0.806323 0.990046 0.441960
Si Si6 0.144273 0.786098 0.342859
Si Si7 0.091880 0.732774 0.025313
Si Si8 0.375391 0.405818 0.514964
O O1 0.712309 0.939662 0.031398
O O2 0.386289 0.993520 0.313570
O O3 0.509471 0.733249 0.481716
O O4 0.689200 0.926581 0.394933
O O5 0.929749 0.363813 0.425971
O O6 0.238726 0.601912 0.013414
O O7 0.332632 0.383468 0.080385
O O8 0.000000 0.500000 0.000000
O O9 0.642502 0.535512 0.706323
O O10 0.387636 0.842330 0.178028
O O11 0.984917 0.886967 0.458236
O O12 0.860112 0.146013 0.229313
O O13 0.107466 0.787266 0.162693
O O14 0.858103 0.651547 0.226200
O O15 0.500000 0.500000 0.500000
#
# Coordination Sequence:
#
# PCOD9065685 Si02
#       8
#     2   2   1   1   2   2   2   2
#     4  11  25  50  75 114 152 203 265 338 404 488
#     4  12  29  52  79 121 165 216 278 344 415 505
#     4  12  26  50  80 118 164 220 266 334 428 484
#     4  12  28  44  78 110 154 200 272 336 406 486
#     4  11  24  50  81 104 153 213 265 327 411 493
#     4  12  26  51  75 114 158 209 271 335 417 486
#     4  12  24  48  79 109 160 210 260 342 416 486
#     4  12  27  49  81 120 163 207 280 339 412 507
#
# _framework density 29.220495
#
# number of rings (size 3 to 8) (size 9 to 14) (size 15 to 20)
#    0.000    0.286    4.286    3.429    6.000    1.714 
#   10.286    0.000    0.000    0.000    0.000    0.000 
#    0.000    0.000    0.000    0.000    0.000    0.000 
#
# Total GULP energy -78069.780432 kJ/mol
# GULP energy per Si atom -5576.412888 kJ/mol
# Density = 2.915399 g / cm^3
# Si number density = 29.220495 Si / 1000 Ang^3
#
#
#
# Elastic Constant Matrix: (Units=GPa)
#
#
# Indices 1 2 3 4 5 6 
#
# 1 140.2181 25.7375 57.4494 -10.3297 -0.0292 41.8199
# 2 25.7375 136.1823 55.0541 -13.8101 -10.1764 5.8957
# 3 57.4494 55.0541 223.2842 -26.4194 3.3645 8.2085
# 4 -10.3297 -13.8101 -26.4194 48.9109 8.8206 -10.1573
# 5 -0.0292 -10.1764 3.3645 8.8206 64.3283 -2.1442
# 6 41.8199 5.8957 8.2085 -10.1573 -2.1442 49.2142
#
#
#
# Elastic Compliance Matrix: (Units=1/GPa)
#
#
# Indices 1 2 3 4 5 6 
#
# 1 0.010850 -0.000818 -0.002384 -0.001058 -0.000153 -0.008949
# 2 -0.000818 0.008404 -0.001764 0.001070 0.001283 0.000259
# 3 -0.002384 -0.001764 0.005789 0.002655 -0.000888 0.001781
# 4 -0.001058 0.001070 0.002655 0.023555 -0.003031 0.005057
# 5 -0.000153 0.001283 -0.000888 -0.003031 0.016217 0.000205
# 6 -0.008949 0.000259 0.001781 0.005057 0.000205 0.028648
#
#
# Mechanical properties :
#
#
# Convention : Reuss Voigt Hill
#
# Bulk Modulus (GPa) = 66.17719 86.24074 76.20896
# Shear Modulus (GPa) = 46.11200 56.58693 51.34946
#
# Velocity S-wave (km/s) = 3.97680 4.40540 4.19658
# Velocity P-wave (km/s) = 6.61690 7.44678 7.04407
#
# Compressibility (1/GPa) = 0.01511095
#
# Stress axis : x y z
#
# Youngs Moduli (GPa) = 92.16939 118.99145 172.74399
#
# Poissons Ratio (x) = 0.09735 0.41177
# Poissons Ratio (y) = 0.07541 0.30471
# Poissons Ratio (z) = 0.21970 0.20989
#
# Static dielectric constant tensor:
#      x y z
#    x -11.992690 10.815410 -2.763550 
#    y 10.815410 -5.295360 2.497480 
#    z -2.763550 2.497480 2.961070 
# 
# From -- ./inp_files/183990.got.cif
#   From: 2010.05.17/outbox.cif.g08.bks.cpg/sg2_92_cif.got.tgz:183990.got - 2010.06.03 11:33:40.
