data_PCOD9065241
_publ_section_title
;
Structure prediction by ZEFSAII (Michael W. Deem and Ramdas Pophale) SiO2 
 PCOD9065241
Probable space group: P -1
;
_chemical_formula_sum "Si O2"
_cell_formula_units_Z 14
_cell_length_a 16.573380
_cell_length_b 7.826875
_cell_length_c 16.546356
_cell_angle_alpha 132.201076
_cell_angle_beta 160.312981
_cell_angle_gamma 46.784096
_cell_volume 523.758169
_symmetry_space_group_name_H-M "P -1"
_symmetry_group_IT_number 2
_symmetry_cell_setting 'triclinic'
loop_
_space_group_symop_operation_xyz
x,y,z
-x,-y,-z
loop_
_atom_site_type_symbol
_atom_site_label
_atom_site_fract_x
_atom_site_fract_y
_atom_site_fract_z
Si Si1 0.219811 0.641891 0.767584
Si Si2 0.627390 0.727373 0.515902
Si Si3 0.137712 0.265445 0.098840
Si Si4 0.186692 0.278017 0.835734
Si Si5 0.987766 0.214377 0.213745
Si Si6 0.537477 0.752341 0.748652
Si Si7 0.141888 0.032498 0.557800
O O1 0.000000 0.500000 0.500000
O O2 0.124879 0.784691 0.803688
O O3 0.136059 0.821749 0.672231
O O4 0.500000 0.500000 0.000000
O O5 0.840192 0.682666 0.770148
O O6 0.745865 0.733894 0.540827
O O7 0.495473 0.515976 0.350399
O O8 0.500000 0.000000 0.500000
O O9 0.379437 0.218613 0.255251
O O10 0.000000 0.500000 0.000000
O O11 0.021927 0.037196 0.911559
O O12 0.271266 0.150512 0.788411
O O13 0.188220 0.551556 0.913596
O O14 0.295286 0.210662 0.005063
O O15 0.912983 0.224815 0.558803
O O16 0.309372 0.971002 0.618306
#
# Coordination Sequence:
#
# PCOD9065241 Si02
#       7
#     2   2   2   2   2   2   2
#     4  12  30  51  79 125 167 214 273 340 420 513
#     4  12  27  49  75 117 157 211 284 345 406 487
#     4  12  28  49  76 113 159 213 277 344 412 488
#     4  11  24  47  75 117 156 207 261 335 405 506
#     4  12  26  48  80 112 166 211 271 333 425 477
#     4  12  26  47  84 111 159 214 269 338 423 486
#     4  11  26  48  76 117 161 206 272 325 419 503
#
# _framework density 26.729896
#
# number of rings (size 3 to 8) (size 9 to 14) (size 15 to 20)
#    0.000    0.286    2.857    4.714    8.000    3.429 
#    0.000    0.000    0.000    0.000    0.000    0.000 
#    0.000    0.000    0.000    0.000    0.000    0.000 
#
# Total GULP energy -78058.544702 kJ/mol
# GULP energy per Si atom -5575.610336 kJ/mol
# Density = 2.666906 g / cm^3
# Si number density = 26.729896 Si / 1000 Ang^3
#
#
#
# Elastic Constant Matrix: (Units=GPa)
#
#
# Indices 1 2 3 4 5 6 
#
# 1 115.4247 13.7213 14.3205 -19.3515 8.3394 -6.3998
# 2 13.7213 126.7312 58.4433 8.8365 0.7729 13.3091
# 3 14.3205 58.4433 99.9705 11.7669 -10.6862 5.9676
# 4 -19.3515 8.8365 11.7669 66.9806 5.7265 8.1716
# 5 8.3394 0.7729 -10.6862 5.7265 43.8325 -3.6807
# 6 -6.3998 13.3091 5.9676 8.1716 -3.6807 51.2345
#
#
#
# Elastic Compliance Matrix: (Units=1/GPa)
#
#
# Indices 1 2 3 4 5 6 
#
# 1 0.009747 -0.000522 -0.001817 0.003328 -0.002652 0.000843
# 2 -0.000522 0.011226 -0.006546 -0.000034 -0.001887 -0.002349
# 3 -0.001817 -0.006546 0.014859 -0.002715 0.004480 0.000498
# 4 0.003328 -0.000034 -0.002715 0.016961 -0.003698 -0.002230
# 5 -0.002652 -0.001887 0.004480 -0.003698 0.025098 0.002030
# 6 0.000843 -0.002349 0.000498 -0.002230 0.002030 0.020677
#
#
# Mechanical properties :
#
#
# Convention : Reuss Voigt Hill
#
# Bulk Modulus (GPa) = 55.35993 57.23294 56.29643
# Shear Modulus (GPa) = 40.86347 49.45229 45.15788
#
# Velocity S-wave (km/s) = 3.91417 4.30591 4.11471
# Velocity P-wave (km/s) = 6.41744 6.79553 6.60919
#
# Compressibility (1/GPa) = 0.01806361
#
# Stress axis : x y z
#
# Youngs Moduli (GPa) = 102.59097 89.07506 67.30075
#
# Poissons Ratio (x) = 0.04650 0.12226
# Poissons Ratio (y) = 0.05356 0.44054
# Poissons Ratio (z) = 0.18637 0.58307
#
# Static dielectric constant tensor:
#      x y z
#    x 2.218950 0.126290 0.044030 
#    y 0.126290 2.430230 -0.036730 
#    z 0.044030 -0.036730 2.165300 
# 
# From -- ./inp_files/575602.got.cif
#   From: 2010.05.17/outbox.cif.g08.bks.cpg/sg2_288_cif.got.tgz:575602.got - 2010.06.03 11:33:40.
