data_PCOD9065444
_publ_section_title
;
Structure prediction by ZEFSAII (Michael W. Deem and Ramdas Pophale) SiO2 
 PCOD9065444
Probable space group: P -1
;
_chemical_formula_sum "Si O2"
_cell_formula_units_Z 16
_cell_length_a 7.722403
_cell_length_b 9.518202
_cell_length_c 13.738301
_cell_angle_alpha 137.501564
_cell_angle_beta 98.195202
_cell_angle_gamma 88.963753
_cell_volume 669.490622
_symmetry_space_group_name_H-M "P -1"
_symmetry_group_IT_number 2
_symmetry_cell_setting 'triclinic'
loop_
_space_group_symop_operation_xyz
x,y,z
-x,-y,-z
loop_
_atom_site_type_symbol
_atom_site_label
_atom_site_fract_x
_atom_site_fract_y
_atom_site_fract_z
Si Si1 0.656192 0.932410 0.844441
Si Si2 0.103248 0.298058 0.796315
Si Si3 0.148821 0.366958 0.631108
Si Si4 0.256649 0.709444 0.122002
Si Si5 0.753514 0.154393 0.163614
Si Si6 0.102182 0.873224 0.646443
Si Si7 0.664108 0.477799 0.573755
Si Si8 0.476102 0.750329 0.355932
O O1 0.448878 0.873191 0.826815
O O2 0.737346 0.719301 0.720940
O O3 0.671727 0.092027 0.837122
O O4 0.748468 0.044840 0.003324
O O5 0.028128 0.330800 0.698948
O O6 0.937526 0.267808 0.840938
O O7 0.180661 0.077718 0.696827
O O8 0.231488 0.499396 0.946889
O O9 0.173062 0.603306 0.719337
O O10 0.332353 0.321724 0.666294
O O11 0.084875 0.209754 0.459045
O O12 0.374681 0.691951 0.217810
O O13 0.873842 0.063794 0.207630
O O14 0.207287 0.673087 0.538955
O O15 0.500000 0.500000 0.500000
O O16 0.609169 0.369522 0.616898
O O17 0.500000 0.000000 0.500000
#
# Coordination Sequence:
#
# PCOD9065444 Si02
#       8
#     2   2   2   2   2   2   2   2
#     4  11  24  48  74 107 147 189 244 304 357 440
#     4  11  26  48  71 109 149 188 243 299 374 433
#     4  12  24  47  71 108 146 186 243 302 364 433
#     4  11  26  48  76 104 149 195 242 302 361 438
#     4  11  25  45  73 109 143 188 243 300 372 429
#     4  12  26  45  74 106 150 194 235 304 366 430
#     4  12  24  46  72 109 147 189 244 295 360 437
#     4  12  25  42  75 111 140 196 243 295 364 433
#
# _framework density 23.898765000000001
#
# number of rings (size 3 to 8) (size 9 to 14) (size 15 to 20)
#    0.000    0.500    3.750    3.750    3.500    2.500 
#    0.000    1.250    0.000    0.000    0.000    0.000 
#    0.000    0.000    0.000    0.000    0.000    0.000 
#
# Total GULP energy -89650.337698 kJ/mol
# GULP energy per Si atom -5603.146106 kJ/mol
# Density = 2.384437 g / cm^3
# Si number density = 23.898765 Si / 1000 Ang^3
#
#
#
# Elastic Constant Matrix: (Units=GPa)
#
#
# Indices 1 2 3 4 5 6 
#
# 1 41.5531 27.6762 13.6699 -8.3831 -2.7901 -15.1714
# 2 27.6762 191.4142 57.1385 -13.5524 15.8495 6.1634
# 3 13.6699 57.1385 124.1762 -14.6205 20.9724 -2.6267
# 4 -8.3831 -13.5524 -14.6205 58.0550 -6.1932 0.9922
# 5 -2.7901 15.8495 20.9724 -6.1932 29.8611 -10.4615
# 6 -15.1714 6.1634 -2.6267 0.9922 -10.4615 29.5962
#
#
#
# Elastic Compliance Matrix: (Units=1/GPa)
#
#
# Indices 1 2 3 4 5 6 
#
# 1 0.045554 -0.008042 -0.004013 0.005695 0.024083 0.032992
# 2 -0.008042 0.007693 -0.001767 -0.000368 -0.006535 -0.008179
# 3 -0.004013 -0.001767 0.010694 0.000907 -0.008023 -0.003607
# 4 0.005695 -0.000368 0.000907 0.018703 0.005510 0.004397
# 5 0.024083 -0.006535 -0.008023 0.005510 0.057606 0.033172
# 6 0.032992 -0.008179 -0.003607 0.004397 0.033172 0.063661
#
#
# Mechanical properties :
#
#
# Convention : Reuss Voigt Hill
#
# Bulk Modulus (GPa) = 27.55161 61.56806 44.55983
# Shear Modulus (GPa) = 20.52099 40.74638 30.63369
#
# Velocity S-wave (km/s) = 2.93347 4.13359 3.58412
# Velocity P-wave (km/s) = 4.79867 6.97138 5.98445
#
# Compressibility (1/GPa) = 0.03629552
#
# Stress axis : x y z
#
# Youngs Moduli (GPa) = 21.95218 129.98941 93.51467
#
# Poissons Ratio (x) = 1.04533 0.37532
# Poissons Ratio (y) = 0.17653 0.16525
# Poissons Ratio (z) = 0.08810 0.22971
#
# Static dielectric constant tensor:
#      x y z
#    x 2.011710 0.070570 -0.069270 
#    y 0.070570 1.950840 -0.054760 
#    z -0.069270 -0.054760 1.934990 
# 
# From -- ./inp_files/383599.got.cif
#   From: 2010.05.17/outbox.cif.g08.bks.cpg/sg2_192_cif.got.tgz:383599.got - 2010.06.03 11:33:40.
