data_PCOD9065719
_publ_section_title
;
Structure prediction by ZEFSAII (Michael W. Deem and Ramdas Pophale) SiO2 
 PCOD9065719
Probable space group: P -1
;
_chemical_formula_sum "Si O2"
_cell_formula_units_Z 10
_cell_length_a 13.421132
_cell_length_b 8.469745
_cell_length_c 6.941218
_cell_angle_alpha 114.057161
_cell_angle_beta 100.705846
_cell_angle_gamma 41.412300
_cell_volume 467.096070
_symmetry_space_group_name_H-M "P -1"
_symmetry_group_IT_number 2
_symmetry_cell_setting 'triclinic'
loop_
_space_group_symop_operation_xyz
x,y,z
-x,-y,-z
loop_
_atom_site_type_symbol
_atom_site_label
_atom_site_fract_x
_atom_site_fract_y
_atom_site_fract_z
Si Si1 0.352572 0.084214 0.419487
Si Si2 0.916692 0.361118 0.222892
Si Si3 0.239856 0.010193 0.034780
Si Si4 0.170473 0.796043 0.167576
Si Si5 0.670756 0.217431 0.463903
O O1 0.203333 0.388989 0.564426
O O2 0.348848 0.017243 0.166579
O O3 0.500000 0.000000 0.500000
O O4 0.335848 0.934368 0.468166
O O5 0.064289 0.281035 0.166117
O O6 0.836311 0.383819 0.015892
O O7 0.999066 0.097118 0.235083
O O8 0.266078 0.795067 0.051722
O O9 0.255839 0.947252 0.787290
O O10 0.236616 0.749293 0.377352
O O11 0.500000 0.500000 0.500000
#
# Coordination Sequence:
#
# PCOD9065719 Si02
#       5
#     2   2   2   2   2
#     4  11  25  40  63  89 129 163 199 256 305 360
#     4   9  19  43  65  90 120 163 207 244 309 361
#     4   9  21  41  62  87 122 166 198 250 303 359
#     4   8  20  40  65  88 123 161 202 249 306 359
#     4  11  25  39  62  95 124 160 207 249 309 362
#
# _framework density 21.408871000000001
#
# number of rings (size 3 to 8) (size 9 to 14) (size 15 to 20)
#    1.200    1.200    0.000    0.600    5.600    4.000 
#    0.000    0.000    0.000    0.000    0.000    0.000 
#    0.000    0.000    0.000    0.000    0.000    0.000 
#
# Total GULP energy -55763.669019 kJ/mol
# GULP energy per Si atom -5576.366902 kJ/mol
# Density = 2.136014 g / cm^3
# Si number density = 21.408871 Si / 1000 Ang^3
#
#
#
# Elastic Constant Matrix: (Units=GPa)
#
#
# Indices 1 2 3 4 5 6 
#
# 1 53.3737 -16.7969 31.1637 -11.7631 28.4275 -17.5144
# 2 -16.7969 37.5587 14.8781 2.4002 4.8978 -10.4036
# 3 31.1637 14.8781 140.5243 -31.9867 36.0064 -19.6513
# 4 -11.7631 2.4002 -31.9867 26.2137 -8.8059 6.5800
# 5 28.4275 4.8978 36.0064 -8.8059 44.0815 -8.4682
# 6 -17.5144 -10.4036 -19.6513 6.5800 -8.4682 25.8058
#
#
#
# Elastic Compliance Matrix: (Units=1/GPa)
#
#
# Indices 1 2 3 4 5 6 
#
# 1 0.097404 0.074920 -0.007628 -0.008978 -0.052164 0.075675
# 2 0.074920 0.090209 -0.010129 -0.018288 -0.040075 0.071015
# 3 -0.007628 -0.010129 0.013150 0.013549 -0.002677 -0.003581
# 4 -0.008978 -0.018288 0.013549 0.058172 0.005252 -0.016258
# 5 -0.052164 -0.040075 -0.002677 0.005252 0.057057 -0.036215
# 6 0.075675 0.071015 -0.003581 -0.016258 -0.036215 0.108276
#
#
# Mechanical properties :
#
#
# Convention : Reuss Voigt Hill
#
# Bulk Modulus (GPa) = 3.17371 32.21628 17.69499
# Shear Modulus (GPa) = 12.04903 32.70100 22.37501
#
# Velocity S-wave (km/s) = 2.37493 3.91250 3.23635
# Velocity P-wave (km/s) = 3.00100 5.95743 4.71683
#
# Compressibility (1/GPa) = 0.31508848
#
# Stress axis : x y z
#
# Youngs Moduli (GPa) = 10.26648 11.08540 76.04667
#
# Poissons Ratio (x) = -0.83052 0.58012
# Poissons Ratio (y) = -0.76917 0.77029
# Poissons Ratio (z) = 0.07832 0.11229
#
# Static dielectric constant tensor:
#      x y z
#    x 1.806540 -0.003930 0.025180 
#    y -0.003930 1.775900 -0.005260 
#    z 0.025180 -0.005260 1.746510 
# 
# From -- ./inp_files/22840.got.cif
#   From: 2010.05.17/outbox.cif.g08.bks.cpg/sg2_12_cif.got.tgz:22840.got - 2010.06.03 11:33:40.
