data_PCOD9065909
_publ_section_title
;
Structure prediction by ZEFSAII (Michael W. Deem and Ramdas Pophale) SiO2 
 PCOD9065909
Probable space group: P -1
;
_chemical_formula_sum "Si O2"
_cell_formula_units_Z 14
_cell_length_a 24.165200
_cell_length_b 6.414746
_cell_length_c 14.651725
_cell_angle_alpha 58.155119
_cell_angle_beta 161.947385
_cell_angle_gamma 119.804744
_cell_volume 597.796135
_symmetry_space_group_name_H-M "P -1"
_symmetry_group_IT_number 2
_symmetry_cell_setting 'triclinic'
loop_
_space_group_symop_operation_xyz
x,y,z
-x,-y,-z
loop_
_atom_site_type_symbol
_atom_site_label
_atom_site_fract_x
_atom_site_fract_y
_atom_site_fract_z
Si Si1 0.688195 0.497360 0.515857
Si Si2 0.826751 0.993683 0.796012
Si Si3 0.613688 0.402733 0.113981
Si Si4 0.869585 0.348230 0.263291
Si Si5 0.535638 0.571350 0.435138
Si Si6 0.098223 0.215197 0.497347
Si Si7 0.121656 0.069323 0.361402
O O1 0.742580 0.264139 0.596238
O O2 0.646109 0.407219 0.572835
O O3 0.833863 0.707043 0.688485
O O4 0.519207 0.625781 0.172042
O O5 0.661230 0.811172 0.572112
O O6 0.929527 0.960954 0.061299
O O7 0.000000 0.000000 0.000000
O O8 0.743310 0.628357 0.248072
O O9 0.731771 0.151863 0.366492
O O10 0.500000 0.500000 0.000000
O O11 0.000000 0.500000 0.500000
O O12 0.929536 0.344624 0.251681
O O13 0.890879 0.067367 0.392758
O O14 0.661032 0.411460 0.921808
O O15 0.500000 0.500000 0.500000
O O16 0.114321 0.202628 0.416917
#
# Coordination Sequence:
#
# PCOD9065909 Si02
#       7
#     2   2   2   2   2   2   2
#     4  12  26  47  75 110 152 194 255 313 380 448
#     4  12  28  49  76 107 155 201 249 309 383 452
#     4  12  25  43  76 114 148 189 250 317 383 447
#     4  11  26  50  74 107 150 201 250 314 375 459
#     4  12  30  47  76 107 155 201 258 304 382 452
#     4  11  25  43  77 104 150 191 250 308 389 436
#     4  12  26  43  77 111 147 195 251 316 383 451
#
# _framework density 23.419356000000001
#
# number of rings (size 3 to 8) (size 9 to 14) (size 15 to 20)
#    0.000    0.286    2.857    5.143    8.000    1.714 
#    0.000    0.000    0.000    0.000    0.000    0.000 
#    0.000    0.000    0.000    0.000    0.000    0.000 
#
# Total GULP energy -78171.965864 kJ/mol
# GULP energy per Si atom -5583.711847 kJ/mol
# Density = 2.336605 g / cm^3
# Si number density = 23.419356 Si / 1000 Ang^3
#
#
#
# Elastic Constant Matrix: (Units=GPa)
#
#
# Indices 1 2 3 4 5 6 
#
# 1 151.4725 25.3161 19.7970 1.4890 22.1499 -14.4622
# 2 25.3161 124.7766 47.3975 17.9625 20.3425 4.9769
# 3 19.7970 47.3975 117.8338 15.9734 7.2476 -5.9329
# 4 1.4890 17.9625 15.9734 50.7882 -3.6486 3.0760
# 5 22.1499 20.3425 7.2476 -3.6486 35.7410 3.3685
# 6 -14.4622 4.9769 -5.9329 3.0760 3.3685 29.7117
#
#
#
# Elastic Compliance Matrix: (Units=1/GPa)
#
#
# Indices 1 2 3 4 5 6 
#
# 1 0.007932 -0.000766 -0.000439 -0.000445 -0.004860 0.004499
# 2 -0.000766 0.010886 -0.003644 -0.002923 -0.005088 -0.002044
# 3 -0.000439 -0.003644 0.010475 -0.002178 -0.000259 0.002743
# 4 -0.000445 -0.002923 -0.002178 0.021955 0.004905 -0.002991
# 5 -0.004860 -0.005088 -0.000259 0.004905 0.035010 -0.006042
# 6 0.004499 -0.002044 0.002743 -0.002991 -0.006042 0.037731
#
#
# Mechanical properties :
#
#
# Convention : Reuss Voigt Hill
#
# Bulk Modulus (GPa) = 51.02977 64.34491 57.68734
# Shear Modulus (GPa) = 35.65900 43.35300 39.50600
#
# Velocity S-wave (km/s) = 3.90632 4.30718 4.11164
# Velocity P-wave (km/s) = 6.49482 7.22983 6.87216
#
# Compressibility (1/GPa) = 0.01959640
#
# Stress axis : x y z
#
# Youngs Moduli (GPa) = 126.07523 91.86431 95.46373
#
# Poissons Ratio (x) = 0.07032 0.04190
# Poissons Ratio (y) = 0.09651 0.34784
# Poissons Ratio (z) = 0.05533 0.33473
#
# Static dielectric constant tensor:
#      x y z
#    x 2.109360 -0.057000 -0.022970 
#    y -0.057000 1.860740 0.042210 
#    z -0.022970 0.042210 1.955850 
# 
# From -- ./inp_files/537645.got.cif
#   From: 2010.05.17/outbox.cif.g08.bks.cpg/sg2_269_cif.got.tgz:537645.got - 2010.06.03 11:33:40.
