data_PCOD9065814
_publ_section_title
;
Structure prediction by ZEFSAII (Michael W. Deem and Ramdas Pophale) SiO2 
 PCOD9065814
Probable space group: P -1
;
_chemical_formula_sum "Si O2"
_cell_formula_units_Z 15
_cell_length_a 16.168426
_cell_length_b 8.566878
_cell_length_c 12.867806
_cell_angle_alpha 107.743584
_cell_angle_beta 151.507477
_cell_angle_gamma 58.119313
_cell_volume 663.734214
_symmetry_space_group_name_H-M "P -1"
_symmetry_group_IT_number 2
_symmetry_cell_setting 'triclinic'
loop_
_space_group_symop_operation_xyz
x,y,z
-x,-y,-z
loop_
_atom_site_type_symbol
_atom_site_label
_atom_site_fract_x
_atom_site_fract_y
_atom_site_fract_z
Si Si1 0.890812 0.552887 0.001528
Si Si2 0.834167 0.280441 0.169100
Si Si3 0.429461 0.724704 0.783456
Si Si4 0.349093 0.915129 0.947138
Si Si5 0.069487 0.654512 0.410175
Si Si6 0.000000 0.500000 0.500000
Si Si7 0.990702 0.858138 0.880504
Si Si8 0.544138 0.053199 0.338823
O O1 0.030453 0.567335 0.247122
O O2 0.877345 0.370120 0.981747
O O3 0.664353 0.765790 0.796943
O O4 0.000000 0.500000 0.000000
O O5 0.756842 0.194430 0.151617
O O6 0.000962 0.320399 0.404468
O O7 0.921264 0.142126 0.135888
O O8 0.636854 0.500620 0.963381
O O9 0.452929 0.824528 0.932336
O O10 0.229566 0.714612 0.575957
O O11 0.414083 0.842464 0.688415
O O12 0.161141 0.148393 0.774858
O O13 0.491391 0.911202 0.195146
O O14 0.128223 0.516108 0.546703
O O15 0.747980 0.936091 0.612177
O O16 0.000000 0.000000 0.000000
#
# Coordination Sequence:
#
# PCOD9065814 Si02
#       8
#     2   2   2   2   2   1   2   2
#     4  11  27  51  72 105 145 194 246 304 362 432
#     4  12  26  44  70 108 149 185 251 292 372 435
#     4  12  24  43  71 109 145 196 230 300 367 444
#     4  11  25  43  68 110 144 191 238 294 365 454
#     4  11  25  44  71 106 149 189 243 298 372 434
#     4  12  24  44  70 100 150 186 228 308 366 422
#     4  12  29  49  74 105 143 196 247 305 359 432
#     4  11  27  48  75 104 148 189 243 305 365 427
#
# _framework density 22.599406999999999
#
# number of rings (size 3 to 8) (size 9 to 14) (size 15 to 20)
#    0.000    0.533    4.000    2.800   11.200    2.133 
#    0.000    0.000    0.000    0.000    0.000    0.000 
#    0.000    0.000    0.000    0.000    0.000    0.000 
#
# Total GULP energy -83803.897873 kJ/mol
# GULP energy per Si atom -5586.926525 kJ/mol
# Density = 2.254797 g / cm^3
# Si number density = 22.599407 Si / 1000 Ang^3
#
#
#
# Elastic Constant Matrix: (Units=GPa)
#
#
# Indices 1 2 3 4 5 6 
#
# 1 36.8145 -87.9744 50.6754 -26.2568 29.6696 -66.9954
# 2 -87.9744 -37.1914 117.0168 -37.5135 29.7961 -93.8956
# 3 50.6754 117.0168 23.1289 45.1028 -12.0692 8.0253
# 4 -26.2568 -37.5135 45.1028 25.1108 13.2565 -18.2213
# 5 29.6696 29.7961 -12.0692 13.2565 18.6025 23.7866
# 6 -66.9954 -93.8956 8.0253 -18.2213 23.7866 26.9046
#
#
#
# Elastic Compliance Matrix: (Units=1/GPa)
#
#
# Indices 1 2 3 4 5 6 
#
# 1 0.011074 -0.004966 0.010908 -0.007783 -0.005471 0.006558
# 2 -0.004966 0.005036 -0.000710 -0.004097 0.008231 -0.004629
# 3 0.010908 -0.000710 0.029054 -0.013001 -0.020186 0.025058
# 4 -0.007783 -0.004097 -0.013001 0.031610 0.009590 -0.016872
# 5 -0.005471 0.008231 -0.020186 0.009590 0.045562 -0.012664
# 6 0.006558 -0.004629 0.025058 -0.016872 -0.012664 0.029640
#
#
# Mechanical properties :
#
#
# Convention : Reuss Voigt Hill
#
# Bulk Modulus (GPa) = 17.97655 20.24305 19.10980
# Shear Modulus (GPa) = 31.23925 10.32587 20.78256
#
# Velocity S-wave (km/s) = 3.72197 2.13986 3.03579
# Velocity P-wave (km/s) = 5.14222 3.88357 4.55656
#
# Compressibility (1/GPa) = 0.05562802
#
# Stress axis : x y z
#
# Youngs Moduli (GPa) = 90.29861 198.55759 34.41873
#
# Poissons Ratio (x) = 0.98600 -0.37542
# Poissons Ratio (y) = 0.44841 0.02444
# Poissons Ratio (z) = -0.98494 0.14099
#
# Static dielectric constant tensor:
#      x y z
#    x 1.812730 0.016670 -0.011990 
#    y 0.016670 1.836320 -0.041850 
#    z -0.011990 -0.041850 1.861070 
# 
# From -- ./inp_files/426802.got.cif
#   From: 2010.05.17/outbox.cif.g08.bks.cpg/sg2_214_cif.got.tgz:426802.got - 2010.06.03 11:33:40.
