data_PCOD9065723
_publ_section_title
;
Structure prediction by ZEFSAII (Michael W. Deem and Ramdas Pophale) SiO2 
 PCOD9065723
Probable space group: P -1
;
_chemical_formula_sum "Si O2"
_cell_formula_units_Z 16
_cell_length_a 12.363394
_cell_length_b 11.548290
_cell_length_c 5.041988
_cell_angle_alpha 110.962530
_cell_angle_beta 71.937774
_cell_angle_gamma 108.757670
_cell_volume 620.852977
_symmetry_space_group_name_H-M "P -1"
_symmetry_group_IT_number 2
_symmetry_cell_setting 'triclinic'
loop_
_space_group_symop_operation_xyz
x,y,z
-x,-y,-z
loop_
_atom_site_type_symbol
_atom_site_label
_atom_site_fract_x
_atom_site_fract_y
_atom_site_fract_z
Si Si1 0.670519 0.307775 0.666049
Si Si2 0.320742 0.967880 0.402344
Si Si3 0.914528 0.404192 0.282605
Si Si4 0.144417 0.402082 0.934996
Si Si5 0.956846 0.067424 0.338458
Si Si6 0.638144 0.868072 0.005268
Si Si7 0.545647 0.374593 0.291872
Si Si8 0.171389 0.276696 0.318904
O O1 0.802774 0.334394 0.475833
O O2 0.594256 0.328062 0.487465
O O3 0.645043 0.164791 0.682508
O O4 0.805314 0.610437 0.821149
O O5 0.350379 0.020843 0.129153
O O6 0.181269 0.945394 0.542972
O O7 0.384368 0.075154 0.649403
O O8 0.869696 0.477867 0.132908
O O9 0.000000 0.500000 0.500000
O O10 0.005574 0.332057 0.024219
O O11 0.355920 0.604970 0.998838
O O12 0.208737 0.326123 0.623894
O O13 0.034261 0.211708 0.388310
O O14 0.000000 0.000000 0.500000
O O15 0.000000 0.000000 0.000000
O O16 0.552785 0.739169 0.856486
O O17 0.761315 0.828267 0.900938
O O18 0.500000 0.500000 0.500000
#
# Coordination Sequence:
#
# PCOD9065723 Si02
#       8
#     2   2   2   2   2   2   2   2
#     4  12  30  51  82 114 158 200 256 339 384 460
#     4  12  25  48  78 118 156 204 260 311 391 474
#     4  11  26  48  71 112 152 203 252 307 392 464
#     4  11  25  40  70 106 149 201 247 301 372 471
#     4  12  22  41  66 110 158 202 243 300 374 450
#     4  12  27  49  78 110 153 206 265 318 385 458
#     4  12  31  56  81 113 148 202 267 334 399 458
#     4  12  23  41  69 107 152 207 242 314 375 450
#
# _framework density 25.770993000000001
#
# number of rings (size 3 to 8) (size 9 to 14) (size 15 to 20)
#    0.000    0.250    3.750    4.125    5.250    4.000 
#    0.000    0.000    0.000    0.000    0.000    0.000 
#    0.000    0.000    0.000    0.000    0.000    0.000 
#
# Total GULP energy -89661.565125 kJ/mol
# GULP energy per Si atom -5603.847820 kJ/mol
# Density = 2.571234 g / cm^3
# Si number density = 25.770993 Si / 1000 Ang^3
#
#
#
# Elastic Constant Matrix: (Units=GPa)
#
#
# Indices 1 2 3 4 5 6 
#
# 1 114.3364 33.1188 21.8832 0.1513 6.3402 -1.3073
# 2 33.1188 126.2468 15.2339 -22.7662 6.8096 -14.6521
# 3 21.8832 15.2339 134.7004 -19.0921 -1.1127 -21.5134
# 4 0.1513 -22.7662 -19.0921 50.0853 -5.3848 1.7645
# 5 6.3402 6.8096 -1.1127 -5.3848 49.0718 1.6724
# 6 -1.3073 -14.6521 -21.5134 1.7645 1.6724 43.4300
#
#
#
# Elastic Compliance Matrix: (Units=1/GPa)
#
#
# Indices 1 2 3 4 5 6 
#
# 1 0.009981 -0.002886 -0.001836 -0.002110 -0.001113 -0.001454
# 2 -0.002886 0.009846 0.000521 0.004501 -0.000601 0.003333
# 3 -0.001836 0.000521 0.008863 0.003533 0.000605 0.004344
# 4 -0.002110 0.004501 0.003533 0.023529 0.002236 0.002163
# 5 -0.001113 -0.000601 0.000605 0.002236 0.020893 -0.000832
# 6 -0.001454 0.003333 0.004344 0.002163 -0.000832 0.026202
#
#
# Mechanical properties :
#
#
# Convention : Reuss Voigt Hill
#
# Bulk Modulus (GPa) = 49.29073 57.30615 53.29844
# Shear Modulus (GPa) = 43.67596 48.85393 46.26494
#
# Velocity S-wave (km/s) = 4.12123 4.35868 4.24162
# Velocity P-wave (km/s) = 6.46637 6.90042 6.68692
#
# Compressibility (1/GPa) = 0.02028779
#
# Stress axis : x y z
#
# Youngs Moduli (GPa) = 100.18686 101.56188 112.83265
#
# Poissons Ratio (x) = 0.29313 0.20712
# Poissons Ratio (y) = 0.28916 -0.05874
# Poissons Ratio (z) = 0.18391 -0.05288
#
# Static dielectric constant tensor:
#      x y z
#    x 2.076300 0.096540 -0.013610 
#    y 0.096540 2.050670 0.046260 
#    z -0.013610 0.046260 2.022840 
# 
# From -- ./inp_files/72329.got.cif
#   From: 2010.05.17/outbox.cif.g08.bks.cpg/sg2_37_cif.got.tgz:72329.got - 2010.06.03 11:33:40.
