data_PCOD9065613
_publ_section_title
;
Structure prediction by ZEFSAII (Michael W. Deem and Ramdas Pophale) SiO2 
 PCOD9065613
Probable space group: P -1
;
_chemical_formula_sum "Si O2"
_cell_formula_units_Z 14
_cell_length_a 10.589245
_cell_length_b 5.702354
_cell_length_c 12.600170
_cell_angle_alpha 81.161808
_cell_angle_beta 50.968531
_cell_angle_gamma 92.392504
_cell_volume 574.420039
_symmetry_space_group_name_H-M "P -1"
_symmetry_group_IT_number 2
_symmetry_cell_setting 'triclinic'
loop_
_space_group_symop_operation_xyz
x,y,z
-x,-y,-z
loop_
_atom_site_type_symbol
_atom_site_label
_atom_site_fract_x
_atom_site_fract_y
_atom_site_fract_z
Si Si1 0.237244 0.115727 0.762554
Si Si2 0.864613 0.636543 0.806848
Si Si3 0.796860 0.070090 0.436161
Si Si4 0.906199 0.292369 0.983897
Si Si5 0.859333 0.664872 0.563245
Si Si6 0.555833 0.753466 0.021854
Si Si7 0.555342 0.330405 0.672636
O O1 0.267303 0.050606 0.631033
O O2 0.383828 0.328974 0.704468
O O3 0.054901 0.173350 0.867685
O O4 0.227112 0.890187 0.864784
O O5 0.828061 0.401507 0.916265
O O6 0.809724 0.647604 0.713426
O O7 0.756235 0.806320 0.910679
O O8 0.062578 0.707695 0.692291
O O9 0.904364 0.921093 0.463930
O O10 0.649972 0.136179 0.580092
O O11 0.000000 0.500000 0.000000
O O12 0.699733 0.560056 0.584331
O O13 0.000000 0.500000 0.500000
O O14 0.491488 0.715154 0.177561
O O15 0.500000 0.500000 0.000000
O O16 0.500000 0.000000 0.000000
#
# Coordination Sequence:
#
# PCOD9065613 Si02
#       7
#     2   2   2   2   2   2   2
#     4  11  27  46  76 112 151 206 262 324 393 472
#     4  12  25  48  77 111 149 202 260 329 394 476
#     4  12  27  48  75 106 152 206 261 317 396 478
#     4  11  24  49  77 109 150 201 264 324 394 467
#     4  12  26  46  74 107 149 198 257 320 399 472
#     4  12  29  49  78 118 161 207 264 336 407 473
#     4  12  28  47  71 113 154 201 256 331 389 476
#
# _framework density 24.372406999999999
#
# number of rings (size 3 to 8) (size 9 to 14) (size 15 to 20)
#    0.000    0.286    4.286    3.429    6.000    1.714 
#    0.000    0.000    0.000    0.000    0.000    0.000 
#    0.000    0.000    0.000    0.000    0.000    0.000 
#
# Total GULP energy -78241.333849 kJ/mol
# GULP energy per Si atom -5588.666704 kJ/mol
# Density = 2.431693 g / cm^3
# Si number density = 24.372407 Si / 1000 Ang^3
#
#
#
# Elastic Constant Matrix: (Units=GPa)
#
#
# Indices 1 2 3 4 5 6 
#
# 1 98.2306 22.9642 37.3070 -11.8266 4.1494 12.4526
# 2 22.9642 59.7620 44.5266 10.3894 22.0334 -7.7970
# 3 37.3070 44.5266 171.8008 27.5318 14.6282 -11.0815
# 4 -11.8266 10.3894 27.5318 30.7075 -10.4259 2.8797
# 5 4.1494 22.0334 14.6282 -10.4259 50.2517 1.2754
# 6 12.4526 -7.7970 -11.0815 2.8797 1.2754 50.7227
#
#
#
# Elastic Compliance Matrix: (Units=1/GPa)
#
#
# Indices 1 2 3 4 5 6 
#
# 1 0.017688 -0.010377 -0.005505 0.019059 0.008860 -0.008445
# 2 -0.010377 0.032782 -0.000689 -0.021434 -0.017994 0.009106
# 3 -0.005505 -0.000689 0.009954 -0.012884 -0.004923 0.004276
# 4 0.019059 -0.021434 -0.012884 0.069079 0.026297 -0.015372
# 5 0.008860 -0.017994 -0.004923 0.026297 0.034160 -0.008369
# 6 -0.008445 0.009106 0.004276 -0.015372 -0.008369 0.025205
#
#
# Mechanical properties :
#
#
# Convention : Reuss Voigt Hill
#
# Bulk Modulus (GPa) = 36.65267 59.93211 48.29239
# Shear Modulus (GPa) = 21.63530 41.33607 31.48569
#
# Velocity S-wave (km/s) = 2.98266 4.12274 3.59814
# Velocity P-wave (km/s) = 5.18969 6.87795 6.09258
#
# Compressibility (1/GPa) = 0.02728314
#
# Stress axis : x y z
#
# Youngs Moduli (GPa) = 56.53651 30.50446 100.45920
#
# Poissons Ratio (x) = 0.31655 0.55302
# Poissons Ratio (y) = 0.58668 0.06917
# Poissons Ratio (z) = 0.31123 0.02100
#
# Static dielectric constant tensor:
#      x y z
#    x 1.980490 0.080940 -0.005170 
#    y 0.080940 2.097430 -0.003350 
#    z -0.005170 -0.003350 1.922770 
# 
# From -- ./inp_files/410175.got.cif
#   From: 2010.05.17/outbox.cif.g08.bks.cpg/sg2_206_cif.got.tgz:410175.got - 2010.06.03 11:33:40.
