data_PCOD9065517
_publ_section_title
;
Structure prediction by ZEFSAII (Michael W. Deem and Ramdas Pophale) SiO2 
 PCOD9065517
Probable space group: P -1
;
_chemical_formula_sum "Si O2"
_cell_formula_units_Z 14
_cell_length_a 16.194264
_cell_length_b 4.832950
_cell_length_c 9.992685
_cell_angle_alpha 83.074627
_cell_angle_beta 134.470266
_cell_angle_gamma 91.932357
_cell_volume 552.613708
_symmetry_space_group_name_H-M "P -1"
_symmetry_group_IT_number 2
_symmetry_cell_setting 'triclinic'
loop_
_space_group_symop_operation_xyz
x,y,z
-x,-y,-z
loop_
_atom_site_type_symbol
_atom_site_label
_atom_site_fract_x
_atom_site_fract_y
_atom_site_fract_z
Si Si1 0.102349 0.663099 0.543434
Si Si2 0.278536 0.171792 0.101825
Si Si3 0.241992 0.136924 0.766985
Si Si4 0.871464 0.653187 0.849634
Si Si5 0.422110 0.395976 0.794294
Si Si6 0.430061 0.667433 0.295789
Si Si7 0.213107 0.762247 0.404657
O O1 0.113270 0.653517 0.396399
O O2 0.000000 0.500000 0.500000
O O3 0.134351 0.973504 0.600147
O O4 0.161204 0.225897 0.048572
O O5 0.336334 0.461645 0.148880
O O6 0.371843 0.945469 0.282067
O O7 0.207653 0.591172 0.271345
O O8 0.263974 0.042840 0.947096
O O9 0.348164 0.149205 0.785501
O O10 0.210800 0.466768 0.729419
O O11 0.828148 0.915249 0.689425
O O12 0.000000 0.500000 0.000000
O O13 0.332516 0.646809 0.618696
O O14 0.492877 0.282342 0.751193
O O15 0.500000 0.500000 0.000000
O O16 0.500000 0.500000 0.500000
#
# Coordination Sequence:
#
# PCOD9065517 Si02
#       7
#     2   2   2   2   2   2   2
#     4  11  25  47  75 108 147 198 251 339 404 455
#     4  12  26  46  72 111 154 197 271 319 395 478
#     4  11  25  45  73 112 155 197 263 319 387 493
#     4  12  27  51  78 107 155 217 265 337 403 473
#     4  11  24  48  79 121 165 215 260 325 412 476
#     4  12  26  45  75 112 159 209 262 328 393 476
#     4  11  26  49  75 116 153 202 277 324 394 495
#
# _framework density 25.334150999999999
#
# number of rings (size 3 to 8) (size 9 to 14) (size 15 to 20)
#    0.000    0.571    1.429    6.429    4.000    4.000 
#    0.000    0.000    0.000    0.000    0.000    0.000 
#    0.000    0.000    0.000    0.000    0.000    0.000 
#
# Total GULP energy -78224.093155 kJ/mol
# GULP energy per Si atom -5587.435225 kJ/mol
# Density = 2.527649 g / cm^3
# Si number density = 25.334151 Si / 1000 Ang^3
#
#
#
# Elastic Constant Matrix: (Units=GPa)
#
#
# Indices 1 2 3 4 5 6 
#
# 1 185.5612 60.5666 52.1654 -16.0298 -2.6095 6.4190
# 2 60.5666 126.7720 25.9999 -8.0584 1.9559 -14.3102
# 3 52.1654 25.9999 113.3298 -2.6787 6.5251 -4.9396
# 4 -16.0298 -8.0584 -2.6787 40.2689 -7.4978 8.1992
# 5 -2.6095 1.9559 6.5251 -7.4978 38.1983 -15.3400
# 6 6.4190 -14.3102 -4.9396 8.1992 -15.3400 52.1145
#
#
#
# Elastic Compliance Matrix: (Units=1/GPa)
#
#
# Indices 1 2 3 4 5 6 
#
# 1 0.007529 -0.003105 -0.002832 0.002795 0.000801 -0.002252
# 2 -0.003105 0.009886 -0.000736 0.000175 0.000733 0.003215
# 3 -0.002832 -0.000736 0.010410 -0.001080 -0.001840 0.000761
# 4 0.002795 0.000175 -0.001080 0.027421 0.004373 -0.003425
# 5 0.000801 0.000733 -0.001840 0.004373 0.030692 0.008274
# 6 -0.002252 0.003215 0.000761 -0.003425 0.008274 0.023396
#
#
# Mechanical properties :
#
#
# Convention : Reuss Voigt Hill
#
# Bulk Modulus (GPa) = 69.07089 78.12520 73.59804
# Shear Modulus (GPa) = 39.21397 45.24507 42.22952
#
# Velocity S-wave (km/s) = 3.93857 4.23061 4.08720
# Velocity P-wave (km/s) = 6.92865 7.40061 7.16851
#
# Compressibility (1/GPa) = 0.01447788
#
# Stress axis : x y z
#
# Youngs Moduli (GPa) = 132.81441 101.15685 96.06420
#
# Poissons Ratio (x) = 0.31413 0.27201
# Poissons Ratio (y) = 0.41244 0.07075
# Poissons Ratio (z) = 0.37607 0.07450
#
# Static dielectric constant tensor:
#      x y z
#    x 2.147040 0.017310 -0.003840 
#    y 0.017310 1.947210 -0.045110 
#    z -0.003840 -0.045110 2.126950 
# 
# From -- ./inp_files/323389.got.cif
#   From: 2010.05.17/outbox.cif.g08.bks.cpg/sg2_162_cif.got.tgz:323389.got - 2010.06.03 11:33:40.
