data_PCOD9065009
_publ_section_title
;
Structure prediction by ZEFSAII (Michael W. Deem and Ramdas Pophale) SiO2 
 PCOD9065009
Probable space group: P -1
;
_chemical_formula_sum "Si O2"
_cell_formula_units_Z 16
_cell_length_a 12.246217
_cell_length_b 7.969359
_cell_length_c 11.187007
_cell_angle_alpha 59.395597
_cell_angle_beta 47.669247
_cell_angle_gamma 63.034154
_cell_volume 684.117894
_symmetry_space_group_name_H-M "P -1"
_symmetry_group_IT_number 2
_symmetry_cell_setting 'triclinic'
loop_
_space_group_symop_operation_xyz
x,y,z
-x,-y,-z
loop_
_atom_site_type_symbol
_atom_site_label
_atom_site_fract_x
_atom_site_fract_y
_atom_site_fract_z
Si Si1 0.462120 0.721855 0.901347
Si Si2 0.549286 0.642150 0.310426
Si Si3 0.784387 0.392268 0.046610
Si Si4 0.564921 0.017244 0.576401
Si Si5 0.897125 0.768990 0.735433
Si Si6 0.962931 0.284241 0.601910
Si Si7 0.336246 0.842842 0.187525
Si Si8 0.106267 0.899842 0.736465
O O1 0.322682 0.716842 0.916914
O O2 0.586353 0.805338 0.702265
O O3 0.500000 0.500000 0.000000
O O4 0.436236 0.850631 0.994037
O O5 0.500000 0.500000 0.500000
O O6 0.685708 0.524756 0.174856
O O7 0.560959 0.837480 0.307747
O O8 0.423553 0.726182 0.274620
O O9 0.895708 0.225066 0.096339
O O10 0.855717 0.551651 0.860598
O O11 0.720135 0.099110 0.425940
O O12 0.500000 0.000000 0.500000
O O13 0.964036 0.800615 0.545850
O O14 0.017142 0.800622 0.736955
O O15 0.752950 0.940056 0.796323
O O16 0.000000 0.500000 0.500000
O O17 0.788056 0.282180 0.720560
O O18 0.029208 0.130208 0.711678
#
# Coordination Sequence:
#
# PCOD9065009 Si02
#       8
#     2   2   2   2   2   2   2   2
#     4  12  26  44  70 107 144 182 230 293 348 417
#     4  12  24  41  70 103 141 185 233 287 351 417
#     4  12  25  45  71 106 142 181 233 290 355 411
#     4  12  25  45  69 102 145 180 229 291 353 416
#     4  11  25  47  72 100 140 186 238 290 337 423
#     4  11  25  44  72 100 137 188 234 289 342 419
#     4  11  25  46  70 104 139 187 239 281 355 415
#     4  11  24  47  68 100 138 182 230 281 353 409
#
# _framework density 23.387782000000001
#
# number of rings (size 3 to 8) (size 9 to 14) (size 15 to 20)
#    0.000    0.500    3.750    4.875    5.250    1.000 
#    0.000    5.625    0.000    0.000    0.000    0.000 
#    0.000    0.000    0.000    0.000    0.000    0.000 
#
# Total GULP energy -89599.794789 kJ/mol
# GULP energy per Si atom -5599.987174 kJ/mol
# Density = 2.333455 g / cm^3
# Si number density = 23.387782 Si / 1000 Ang^3
#
#
#
# Elastic Constant Matrix: (Units=GPa)
#
#
# Indices 1 2 3 4 5 6 
#
# 1 118.1550 34.1699 23.3418 -5.7027 12.6705 -9.6442
# 2 34.1699 78.5314 10.0355 -17.2963 19.2940 -7.0625
# 3 23.3418 10.0355 113.0816 -23.6297 13.7015 -12.5145
# 4 -5.7027 -17.2963 -23.6297 53.1138 2.8638 10.1621
# 5 12.6705 19.2940 13.7015 2.8638 47.1428 -9.1011
# 6 -9.6442 -7.0625 -12.5145 10.1621 -9.1011 30.5953
#
#
#
# Elastic Compliance Matrix: (Units=1/GPa)
#
#
# Indices 1 2 3 4 5 6 
#
# 1 0.010166 -0.004361 -0.001816 -0.001518 0.000054 0.001975
# 2 -0.004361 0.017491 0.001429 0.006424 -0.006978 -0.000962
# 3 -0.001816 0.001429 0.010673 0.004895 -0.003198 0.001546
# 4 -0.001518 0.006424 0.004895 0.024647 -0.006515 -0.007118
# 5 0.000054 -0.006978 -0.003198 -0.006515 0.026774 0.007227
# 6 0.001975 -0.000962 0.001546 -0.007118 0.007227 0.038231
#
#
# Mechanical properties :
#
#
# Convention : Reuss Voigt Hill
#
# Bulk Modulus (GPa) = 34.68199 49.42917 42.05558
# Shear Modulus (GPa) = 33.99293 42.31844 38.15568
#
# Velocity S-wave (km/s) = 3.81655 4.25835 4.04349
# Velocity P-wave (km/s) = 5.85514 6.73487 6.31036
#
# Compressibility (1/GPa) = 0.02883341
#
# Stress axis : x y z
#
# Youngs Moduli (GPa) = 98.37065 57.17123 93.69717
#
# Poissons Ratio (x) = 0.24932 0.17019
# Poissons Ratio (y) = 0.42899 -0.13392
# Poissons Ratio (z) = 0.17868 -0.08171
#
# Static dielectric constant tensor:
#      x y z
#    x 1.887690 0.034210 -0.028760 
#    y 0.034210 1.984190 0.009730 
#    z -0.028760 0.009730 1.888170 
# 
# From -- ./inp_files/418822.got.cif
#   From: 2010.05.17/outbox.cif.g08.bks.cpg/sg2_210_cif.got.tgz:418822.got - 2010.06.03 11:33:40.
