data_PCOD9065174
_publ_section_title
;
Structure prediction by ZEFSAII (Michael W. Deem and Ramdas Pophale) SiO2 
 PCOD9065174
Probable space group: P -1
;
_chemical_formula_sum "Si O2"
_cell_formula_units_Z 16
_cell_length_a 8.016168
_cell_length_b 9.085871
_cell_length_c 12.024401
_cell_angle_alpha 92.547449
_cell_angle_beta 127.612816
_cell_angle_gamma 82.240939
_cell_volume 686.599121
_symmetry_space_group_name_H-M "P -1"
_symmetry_group_IT_number 2
_symmetry_cell_setting 'triclinic'
loop_
_space_group_symop_operation_xyz
x,y,z
-x,-y,-z
loop_
_atom_site_type_symbol
_atom_site_label
_atom_site_fract_x
_atom_site_fract_y
_atom_site_fract_z
Si Si1 0.408961 0.633039 0.887762
Si Si2 0.833799 0.922773 0.360762
Si Si3 0.762800 0.696881 0.855843
Si Si4 0.376447 0.570650 0.343538
Si Si5 0.211641 0.418280 0.638874
Si Si6 0.731467 0.048927 0.089970
Si Si7 0.075064 0.812377 0.138876
Si Si8 0.578879 0.982178 0.661871
O O1 0.589228 0.695379 0.886395
O O2 0.260854 0.546356 0.748170
O O3 0.296241 0.773557 0.916456
O O4 0.500000 0.500000 0.000000
O O5 0.836673 0.744875 0.348365
O O6 0.845897 0.992498 0.247751
O O7 0.620672 0.987305 0.338577
O O8 0.000000 0.000000 0.500000
O O9 0.732614 0.549473 0.772869
O O10 0.698369 0.821691 0.739643
O O11 0.991394 0.711688 0.004311
O O12 0.500000 0.500000 0.500000
O O13 0.573821 0.612804 0.350486
O O14 0.173773 0.700486 0.275406
O O15 0.000000 0.500000 0.500000
O O16 0.874444 0.943669 0.060714
O O17 0.500000 0.000000 0.000000
O O18 0.269964 0.905455 0.224293
O O19 0.500000 0.000000 0.500000
#
# Coordination Sequence:
#
# PCOD9065174 Si02
#       8
#     2   2   2   2   2   2   2   2
#     4  11  24  47  73 107 148 192 250 309 371 450
#     4  12  25  45  73 104 147 190 254 305 375 444
#     4  11  25  46  74 107 146 198 245 308 381 445
#     4  11  26  48  73 106 152 196 249 309 380 455
#     4  11  26  44  72 105 144 192 249 307 376 447
#     4  12  24  46  74 108 145 196 249 304 373 450
#     4  12  25  48  73 108 151 197 251 313 377 455
#     4  12  25  47  72 108 148 196 250 311 376 451
#
# _framework density 23.303263000000001
#
# number of rings (size 3 to 8) (size 9 to 14) (size 15 to 20)
#    0.000    0.500    3.750    3.750    3.500    0.000 
#    6.750    0.000    0.000    0.000    0.000    0.000 
#    0.000    0.000    0.000    0.000    0.000    0.000 
#
# Total GULP energy -89238.420999 kJ/mol
# GULP energy per Si atom -5577.401312 kJ/mol
# Density = 2.325022 g / cm^3
# Si number density = 23.303263 Si / 1000 Ang^3
#
#
#
# Elastic Constant Matrix: (Units=GPa)
#
#
# Indices 1 2 3 4 5 6 
#
# 1 36.0722 32.0703 22.9470 11.0031 14.6699 0.1285
# 2 32.0703 155.6084 58.0260 -12.4820 14.9736 1.0173
# 3 22.9470 58.0260 164.3109 1.1898 23.0906 16.8359
# 4 11.0031 -12.4820 1.1898 54.0495 11.9338 11.5481
# 5 14.6699 14.9736 23.0906 11.9338 39.2591 1.7857
# 6 0.1285 1.0173 16.8359 11.5481 1.7857 37.7805
#
#
#
# Elastic Compliance Matrix: (Units=1/GPa)
#
#
# Indices 1 2 3 4 5 6 
#
# 1 0.042664 -0.007856 -0.002312 -0.009418 -0.008923 0.004397
# 2 -0.007856 0.009186 -0.002046 0.003996 -0.000556 -0.000504
# 3 -0.002312 -0.002046 0.007966 0.001347 -0.003280 -0.003744
# 4 -0.009418 0.003996 0.001347 0.024267 -0.005818 -0.007818
# 5 -0.008923 -0.000556 -0.003280 -0.005818 0.032637 0.001743
# 6 0.004397 -0.000504 -0.003744 -0.007818 0.001743 0.030443
#
#
# Mechanical properties :
#
#
# Convention : Reuss Voigt Hill
#
# Bulk Modulus (GPa) = 28.25896 64.67533 46.46715
# Shear Modulus (GPa) = 27.26476 42.41435 34.83956
#
# Velocity S-wave (km/s) = 3.42423 4.27090 3.87078
# Velocity P-wave (km/s) = 5.27132 7.22044 6.32145
#
# Compressibility (1/GPa) = 0.03538701
#
# Stress axis : x y z
#
# Youngs Moduli (GPa) = 23.43923 108.86366 125.52935
#
# Poissons Ratio (x) = 0.85525 0.29026
# Poissons Ratio (y) = 0.18414 0.25682
# Poissons Ratio (z) = 0.05420 0.22272
#
# Static dielectric constant tensor:
#      x y z
#    x 1.898620 -0.017670 -0.050730 
#    y -0.017670 1.886050 -0.068250 
#    z -0.050730 -0.068250 1.773960 
# 
# From -- ./inp_files/382446.got.cif
#   From: 2010.05.17/outbox.cif.g08.bks.cpg/sg2_192_cif.got.tgz:382446.got - 2010.06.03 11:33:40.
