data_PCOD9065947
_publ_section_title
;
Structure prediction by ZEFSAII (Michael W. Deem and Ramdas Pophale) SiO2 
 PCOD9065947
Probable space group: P -1
;
_chemical_formula_sum "Si O2"
_cell_formula_units_Z 16
_cell_length_a 11.849871
_cell_length_b 16.343351
_cell_length_c 14.059759
_cell_angle_alpha 34.677627
_cell_angle_beta 30.725378
_cell_angle_gamma 54.529362
_cell_volume 712.470909
_symmetry_space_group_name_H-M "P -1"
_symmetry_group_IT_number 2
_symmetry_cell_setting 'triclinic'
loop_
_space_group_symop_operation_xyz
x,y,z
-x,-y,-z
loop_
_atom_site_type_symbol
_atom_site_label
_atom_site_fract_x
_atom_site_fract_y
_atom_site_fract_z
Si Si1 0.279713 0.988571 0.238232
Si Si2 0.491919 0.871655 0.862140
Si Si3 0.016600 0.889611 0.803903
Si Si4 0.019338 0.578259 0.154554
Si Si5 0.593608 0.467802 0.721602
Si Si6 0.451438 0.349628 0.244269
Si Si7 0.052554 0.383406 0.144250
Si Si8 0.968728 0.049270 0.869615
O O1 0.119956 0.804446 0.561291
O O2 0.390271 0.092846 0.151817
O O3 0.118014 0.053192 0.232526
O O4 0.500000 0.000000 0.000000
O O5 0.694406 0.998914 0.525545
O O6 0.435042 0.691242 0.050159
O O7 0.249717 0.898305 0.019092
O O8 0.970278 0.707175 0.005260
O O9 0.924383 0.917332 0.947255
O O10 0.009355 0.435337 0.231924
O O11 0.820653 0.516148 0.440593
O O12 0.295299 0.664396 0.913269
O O13 0.623190 0.607121 0.640040
O O14 0.338126 0.422249 0.895463
O O15 0.223857 0.196778 0.516463
O O16 0.500000 0.500000 0.000000
O O17 0.000000 0.500000 0.000000
O O18 0.000000 0.000000 0.000000
#
# Coordination Sequence:
#
# PCOD9065947 Si02
#       8
#     2   2   2   2   2   2   2   2
#     4  12  25  46  74 101 144 186 226 286 350 412
#     4  12  25  45  73 101 139 183 234 281 350 418
#     4  12  26  45  71 104 142 182 234 284 346 419
#     4  11  26  44  69 102 139 179 229 283 345 406
#     4  11  25  44  69 102 137 179 230 280 346 410
#     4  11  25  45  70  99 139 179 231 290 341 406
#     4  11  26  45  67 103 143 179 227 283 338 413
#     4  12  27  45  70 101 139 184 234 289 345 407
#
# _framework density 22.457056999999999
#
# number of rings (size 3 to 8) (size 9 to 14) (size 15 to 20)
#    0.000    0.500    2.500    4.875    5.250    8.500 
#    0.000    0.000    0.000    0.000    0.000    0.000 
#    0.000    0.000    0.000    0.000    0.000    0.000 
#
# Total GULP energy -89670.023630 kJ/mol
# GULP energy per Si atom -5604.376477 kJ/mol
# Density = 2.240594 g / cm^3
# Si number density = 22.457057 Si / 1000 Ang^3
#
#
#
# Elastic Constant Matrix: (Units=GPa)
#
#
# Indices 1 2 3 4 5 6 
#
# 1 87.6057 28.1771 12.4509 5.0874 1.0806 -14.7515
# 2 28.1771 104.1254 31.0493 15.7422 -13.3440 -11.0773
# 3 12.4509 31.0493 78.8779 11.9000 3.1107 -8.1114
# 4 5.0874 15.7422 11.9000 51.9551 -3.1993 3.4204
# 5 1.0806 -13.3440 3.1107 -3.1993 35.7408 -1.0901
# 6 -14.7515 -11.0773 -8.1114 3.4204 -1.0901 31.5634
#
#
#
# Elastic Compliance Matrix: (Units=1/GPa)
#
#
# Indices 1 2 3 4 5 6 
#
# 1 0.013362 -0.003081 -0.000196 -0.000758 -0.001448 0.005145
# 2 -0.003081 0.012997 -0.004196 -0.002522 0.005161 0.002494
# 3 -0.000196 -0.004196 0.015116 -0.002522 -0.003026 0.002489
# 4 -0.000758 -0.002522 -0.002522 0.021000 0.001055 -0.004127
# 5 -0.001448 0.005161 -0.003026 0.001055 0.030347 0.001291
# 6 0.005145 0.002494 0.002489 -0.004127 0.001291 0.036094
#
#
# Mechanical properties :
#
#
# Convention : Reuss Voigt Hill
#
# Bulk Modulus (GPa) = 37.69493 45.99597 41.84545
# Shear Modulus (GPa) = 32.74281 37.11397 34.92839
#
# Velocity S-wave (km/s) = 3.82254 4.06971 3.94806
# Velocity P-wave (km/s) = 6.02530 6.52760 6.28147
#
# Compressibility (1/GPa) = 0.02652876
#
# Stress axis : x y z
#
# Youngs Moduli (GPa) = 74.83991 76.94153 66.15349
#
# Poissons Ratio (x) = 0.23706 0.01295
# Poissons Ratio (y) = 0.23059 0.27760
# Poissons Ratio (z) = 0.01465 0.32287
#
# Static dielectric constant tensor:
#      x y z
#    x 1.817760 0.042280 0.010880 
#    y 0.042280 1.803830 -0.007300 
#    z 0.010880 -0.007300 1.788570 
# 
# From -- ./inp_files/462234.got.cif
#   From: 2010.05.17/outbox.cif.g08.bks.cpg/sg2_232_cif.got.tgz:462234.got - 2010.06.03 11:33:40.
