data_PCOD9065041
_publ_section_title
;
Structure prediction by ZEFSAII (Michael W. Deem and Ramdas Pophale) SiO2 
 PCOD9065041
Probable space group: P -1
;
_chemical_formula_sum "Si O2"
_cell_formula_units_Z 14
_cell_length_a 9.249552
_cell_length_b 11.863482
_cell_length_c 20.388395
_cell_angle_alpha 146.655889
_cell_angle_beta 138.013833
_cell_angle_gamma 65.816553
_cell_volume 673.265458
_symmetry_space_group_name_H-M "P -1"
_symmetry_group_IT_number 2
_symmetry_cell_setting 'triclinic'
loop_
_space_group_symop_operation_xyz
x,y,z
-x,-y,-z
loop_
_atom_site_type_symbol
_atom_site_label
_atom_site_fract_x
_atom_site_fract_y
_atom_site_fract_z
Si Si1 0.882625 0.315861 0.809681
Si Si2 0.507518 0.752324 0.458068
Si Si3 0.712893 0.419617 0.341014
Si Si4 0.186370 0.527282 0.749782
Si Si5 0.253037 0.990186 0.070562
Si Si6 0.408072 0.896938 0.630725
Si Si7 0.448643 0.558116 0.082076
O O1 0.747722 0.383640 0.741753
O O2 0.676593 0.039165 0.631631
O O3 0.000000 0.500000 0.000000
O O4 0.139667 0.348781 0.884402
O O5 0.675973 0.641657 0.448722
O O6 0.435472 0.752662 0.509566
O O7 0.706654 0.371357 0.237806
O O8 0.472705 0.193923 0.192439
O O9 0.000000 0.500000 0.500000
O O10 0.379289 0.468765 0.820151
O O11 0.890037 0.275640 0.526548
O O12 0.176853 0.726980 0.887733
O O13 0.394300 0.044140 0.214748
O O14 0.000000 0.000000 0.000000
O O15 0.479002 0.161919 0.756639
O O16 0.500000 0.500000 0.000000
#
# Coordination Sequence:
#
# PCOD9065041 Si02
#       7
#     2   2   2   2   2   2   2
#     4  11  24  47  69 108 143 189 234 293 360 435
#     4  11  27  44  75 103 146 190 240 291 361 431
#     4  12  28  49  73 106 145 191 244 302 353 422
#     4  12  27  48  75 105 146 188 240 304 365 420
#     4  12  29  50  76 103 144 200 245 290 359 436
#     4  12  26  48  72 109 145 189 238 299 362 438
#     4  12  25  43  75 107 146 181 236 299 369 423
#
# _framework density 20.794174999999999
#
# number of rings (size 3 to 8) (size 9 to 14) (size 15 to 20)
#    0.000    0.286    4.286    3.429   10.000    2.286 
#    0.000    0.000    0.000    0.000    0.000    0.000 
#    0.000    0.000    0.000    0.000    0.000    0.000 
#
# Total GULP energy -78329.353249 kJ/mol
# GULP energy per Si atom -5594.953803 kJ/mol
# Density = 2.074685 g / cm^3
# Si number density = 20.794175 Si / 1000 Ang^3
#
#
#
# Elastic Constant Matrix: (Units=GPa)
#
#
# Indices 1 2 3 4 5 6 
#
# 1 151.3766 63.1825 43.3708 -30.6702 0.1381 5.1498
# 2 63.1825 160.0486 61.4668 -42.5212 -2.7256 -3.4641
# 3 43.3708 61.4668 93.9361 -25.2423 0.4369 4.5307
# 4 -30.6702 -42.5212 -25.2423 39.5192 1.0026 3.4601
# 5 0.1381 -2.7256 0.4369 1.0026 50.2581 -2.6106
# 6 5.1498 -3.4641 4.5307 3.4601 -2.6106 36.2866
#
#
#
# Elastic Compliance Matrix: (Units=1/GPa)
#
#
# Indices 1 2 3 4 5 6 
#
# 1 0.008679 -0.001773 -0.001731 0.003867 -0.000264 -0.001573
# 2 -0.001773 0.010478 -0.004183 0.007113 0.000526 0.001134
# 3 -0.001731 -0.004183 0.015452 0.004261 -0.000573 -0.002531
# 4 0.003867 0.007113 0.004261 0.039063 -0.000658 -0.004174
# 5 -0.000264 0.000526 -0.000573 -0.000658 0.020031 0.001663
# 6 -0.001573 0.001134 -0.002531 -0.004174 0.001663 0.028723
#
#
# Mechanical properties :
#
#
# Convention : Reuss Voigt Hill
#
# Bulk Modulus (GPa) = 51.98877 82.37792 67.18335
# Shear Modulus (GPa) = 34.67114 41.03553 37.85334
#
# Velocity S-wave (km/s) = 4.08775 4.44713 4.27122
# Velocity P-wave (km/s) = 6.88008 8.12842 7.53016
#
# Compressibility (1/GPa) = 0.01923492
#
# Stress axis : x y z
#
# Youngs Moduli (GPa) = 115.21923 95.43928 64.71689
#
# Poissons Ratio (x) = 0.16917 0.11203
# Poissons Ratio (y) = 0.20423 0.27073
# Poissons Ratio (z) = 0.19945 0.39926
#
# Static dielectric constant tensor:
#      x y z
#    x 1.668600 0.011970 -0.014180 
#    y 0.011970 1.729520 0.014940 
#    z -0.014180 0.014940 1.737890 
# 
# From -- ./inp_files/47535.got.cif
#   From: 2010.05.17/outbox.cif.g08.bks.cpg/sg2_24_cif.got.tgz:47535.got - 2010.06.03 11:33:40.
