data_PCOD9065274
_publ_section_title
;
Structure prediction by ZEFSAII (Michael W. Deem and Ramdas Pophale) SiO2 
 PCOD9065274
Probable space group: P -1
;
_chemical_formula_sum "Si O2"
_cell_formula_units_Z 14
_cell_length_a 9.233925
_cell_length_b 23.571713
_cell_length_c 5.014211
_cell_angle_alpha 99.634858
_cell_angle_beta 99.586125
_cell_angle_gamma 33.416687
_cell_volume 591.852547
_symmetry_space_group_name_H-M "P -1"
_symmetry_group_IT_number 2
_symmetry_cell_setting 'triclinic'
loop_
_space_group_symop_operation_xyz
x,y,z
-x,-y,-z
loop_
_atom_site_type_symbol
_atom_site_label
_atom_site_fract_x
_atom_site_fract_y
_atom_site_fract_z
Si Si1 0.901917 0.473313 0.813144
Si Si2 0.350872 0.993791 0.826144
Si Si3 0.308370 0.671173 0.816643
Si Si4 0.986882 0.676950 0.952214
Si Si5 0.612945 0.733950 0.502805
Si Si6 0.816298 0.218178 0.609711
Si Si7 0.460340 0.134195 0.731751
O O1 0.601854 0.576613 0.710402
O O2 0.129113 0.384818 0.603653
O O3 0.000000 0.500000 0.000000
O O4 0.897420 0.417849 0.954717
O O5 0.507144 0.079213 0.446320
O O6 0.068902 0.105792 0.724867
O O7 0.500000 0.000000 0.000000
O O8 0.356789 0.946737 0.034985
O O9 0.128029 0.762316 0.619494
O O10 0.195106 0.644731 0.819671
O O11 0.311257 0.703524 0.125782
O O12 0.736857 0.736262 0.756376
O O13 0.844679 0.766404 0.186089
O O14 0.389157 0.763143 0.538179
O O15 0.498948 0.812837 0.301544
#
# Coordination Sequence:
#
# PCOD9065274 Si02
#       7
#     2   2   2   2   2   2   2
#     4  11  24  47  77 109 149 198 245 300 368 439
#     4  12  26  46  77 109 149 193 248 302 375 431
#     4  12  28  47  74 110 154 190 246 306 361 436
#     4  11  26  46  77 111 148 196 246 303 370 433
#     4  11  26  47  77 107 153 195 246 298 376 436
#     4  12  29  47  74 111 148 197 247 302 368 437
#     4  11  25  47  74 107 148 193 242 308 363 435
#
# _framework density 23.654543
#
# number of rings (size 3 to 8) (size 9 to 14) (size 15 to 20)
#    0.000    0.571    2.857    3.429   10.000    2.857 
#    0.000    0.000    0.000    0.000    0.000    0.000 
#    0.000    0.000    0.000    0.000    0.000    0.000 
#
# Total GULP energy -78388.680580 kJ/mol
# GULP energy per Si atom -5599.191470 kJ/mol
# Density = 2.360070 g / cm^3
# Si number density = 23.654543 Si / 1000 Ang^3
#
#
#
# Elastic Constant Matrix: (Units=GPa)
#
#
# Indices 1 2 3 4 5 6 
#
# 1 109.7222 28.5168 18.2090 -0.2011 19.1170 -18.2114
# 2 28.5168 114.1007 35.2651 -0.6584 6.3294 0.8233
# 3 18.2090 35.2651 106.1735 4.2348 6.4526 -1.0241
# 4 -0.2011 -0.6584 4.2348 48.4397 7.3214 -0.5252
# 5 19.1170 6.3294 6.4526 7.3214 33.7856 -4.1074
# 6 -18.2114 0.8233 -1.0241 -0.5252 -4.1074 12.8658
#
#
#
# Elastic Compliance Matrix: (Units=1/GPa)
#
#
# Indices 1 2 3 4 5 6 
#
# 1 0.014012 -0.003050 -0.000941 0.001081 -0.005182 0.018344
# 2 -0.003050 0.010521 -0.003014 0.000397 -0.000405 -0.005343
# 3 -0.000941 -0.003014 0.010660 -0.000859 -0.000824 -0.000589
# 4 0.001081 0.000397 -0.000859 0.021507 -0.005099 0.000687
# 5 -0.005182 -0.000405 -0.000824 -0.005099 0.034277 0.003361
# 6 0.018344 -0.005343 -0.000589 0.000687 0.003361 0.105088
#
#
# Mechanical properties :
#
#
# Convention : Reuss Voigt Hill
#
# Bulk Modulus (GPa) = 47.20889 54.88646 51.04767
# Shear Modulus (GPa) = 23.02685 35.55193 29.28939
#
# Velocity S-wave (km/s) = 3.12342 3.88101 3.52264
# Velocity P-wave (km/s) = 5.74532 6.58306 6.17841
#
# Compressibility (1/GPa) = 0.02118245
#
# Stress axis : x y z
#
# Youngs Moduli (GPa) = 71.36582 95.04458 93.80993
#
# Poissons Ratio (x) = 0.28986 0.08832
# Poissons Ratio (y) = 0.21765 0.28277
# Poissons Ratio (z) = 0.06719 0.28650
#
# Static dielectric constant tensor:
#      x y z
#    x 1.979140 0.048910 -0.002730 
#    y 0.048910 1.933360 0.029750 
#    z -0.002730 0.029750 2.002480 
# 
# From -- ./inp_files/34076.got.cif
#   From: 2010.05.17/outbox.cif.g08.bks.cpg/sg2_18_cif.got.tgz:34076.got - 2010.06.03 11:33:40.
