data_PCOD9065218
_publ_section_title
;
Structure prediction by ZEFSAII (Michael W. Deem and Ramdas Pophale) SiO2 
 PCOD9065218
Probable space group: P -1
;
_chemical_formula_sum "Si O2"
_cell_formula_units_Z 10
_cell_length_a 9.371289
_cell_length_b 14.093795
_cell_length_c 10.566689
_cell_angle_alpha 42.929194
_cell_angle_beta 58.799289
_cell_angle_gamma 29.235017
_cell_volume 432.495082
_symmetry_space_group_name_H-M "P -1"
_symmetry_group_IT_number 2
_symmetry_cell_setting 'triclinic'
loop_
_space_group_symop_operation_xyz
x,y,z
-x,-y,-z
loop_
_atom_site_type_symbol
_atom_site_label
_atom_site_fract_x
_atom_site_fract_y
_atom_site_fract_z
Si Si1 0.667944 0.731819 0.683330
Si Si2 0.330175 0.209893 0.766564
Si Si3 0.634234 0.227068 0.437756
Si Si4 0.319531 0.682370 0.281791
Si Si5 0.346741 0.927386 0.877560
O O1 0.472456 0.765248 0.651968
O O2 0.648136 0.703164 0.867613
O O3 0.011971 0.490928 0.700722
O O4 0.500000 0.000000 0.500000
O O5 0.274388 0.134009 0.756654
O O6 0.625972 0.195410 0.896203
O O7 0.500000 0.000000 0.000000
O O8 0.451977 0.498583 0.283613
O O9 0.528188 0.192790 0.628572
O O10 0.000000 0.000000 0.500000
O O11 0.500000 0.500000 0.500000
O O12 0.949486 0.914504 0.223975
#
# Coordination Sequence:
#
# PCOD9065218 Si02
#       5
#     2   2   2   2   2
#     4  12  25  48  80 106 152 200 253 313 380 451
#     4  12  27  48  76 110 151 200 259 311 375 460
#     4  12  26  46  76 111 150 197 252 312 384 452
#     4  11  24  47  74 113 157 192 248 322 383 446
#     4  11  25  47  77 108 151 203 251 311 384 454
#
# _framework density 23.121652000000001
#
# number of rings (size 3 to 8) (size 9 to 14) (size 15 to 20)
#    0.000    0.400    4.000    4.200    2.800    4.800 
#    0.000    0.000    0.000    0.000    0.000    0.000 
#    0.000    0.000    0.000    0.000    0.000    0.000 
#
# Total GULP energy -56023.147611 kJ/mol
# GULP energy per Si atom -5602.314761 kJ/mol
# Density = 2.306903 g / cm^3
# Si number density = 23.121652 Si / 1000 Ang^3
#
#
#
# Elastic Constant Matrix: (Units=GPa)
#
#
# Indices 1 2 3 4 5 6 
#
# 1 88.8132 56.8995 22.1175 -3.0558 -14.7805 -10.9826
# 2 56.8995 186.3062 39.4904 7.5613 -15.2779 -8.9451
# 3 22.1175 39.4904 108.5348 -2.9055 -0.6473 -18.9742
# 4 -3.0558 7.5613 -2.9055 35.9144 5.6165 -10.6016
# 5 -14.7805 -15.2779 -0.6473 5.6165 44.8977 1.4339
# 6 -10.9826 -8.9451 -18.9742 -10.6016 1.4339 47.5560
#
#
#
# Elastic Compliance Matrix: (Units=1/GPa)
#
#
# Indices 1 2 3 4 5 6 
#
# 1 0.015087 -0.004095 -0.001023 0.002376 0.003174 0.002740
# 2 -0.004095 0.007221 -0.002029 -0.002555 0.001432 -0.001010
# 3 -0.001023 -0.002029 0.010999 0.002748 -0.001354 0.004424
# 4 0.002376 -0.002555 0.002748 0.031967 -0.004316 0.008421
# 5 0.003174 0.001432 -0.001354 -0.004316 0.024364 -0.001235
# 6 0.002740 -0.001010 0.004424 0.008421 -0.001235 0.025150
#
#
# Mechanical properties :
#
#
# Convention : Reuss Voigt Hill
#
# Bulk Modulus (GPa) = 52.59798 68.96320 60.78059
# Shear Modulus (GPa) = 36.92189 43.35007 40.13598
#
# Velocity S-wave (km/s) = 4.00040 4.33467 4.17089
# Velocity P-wave (km/s) = 6.64344 7.41239 7.03843
#
# Compressibility (1/GPa) = 0.01901214
#
# Stress axis : x y z
#
# Youngs Moduli (GPa) = 66.28314 138.48480 90.91497
#
# Poissons Ratio (x) = 0.56716 0.09299
# Poissons Ratio (y) = 0.27146 0.18448
# Poissons Ratio (z) = 0.06780 0.28101
#
# Static dielectric constant tensor:
#      x y z
#    x 1.898610 -0.010330 0.014630 
#    y -0.010330 1.867120 0.038990 
#    z 0.014630 0.038990 1.883140 
# 
# From -- ./inp_files/174001.got.cif
#   From: 2010.05.17/outbox.cif.g08.bks.cpg/sg2_88_cif.got.tgz:174001.got - 2010.06.03 11:33:40.
