data_PCOD9065770
_publ_section_title
;
Structure prediction by ZEFSAII (Michael W. Deem and Ramdas Pophale) SiO2 
 PCOD9065770
Probable space group: P -1
;
_chemical_formula_sum "Si O2"
_cell_formula_units_Z 15
_cell_length_a 14.507163
_cell_length_b 12.742993
_cell_length_c 6.309530
_cell_angle_alpha 113.052205
_cell_angle_beta 77.394067
_cell_angle_gamma 142.953071
_cell_volume 637.191013
_symmetry_space_group_name_H-M "P -1"
_symmetry_group_IT_number 2
_symmetry_cell_setting 'triclinic'
loop_
_space_group_symop_operation_xyz
x,y,z
-x,-y,-z
loop_
_atom_site_type_symbol
_atom_site_label
_atom_site_fract_x
_atom_site_fract_y
_atom_site_fract_z
Si Si1 0.081020 0.959023 0.980617
Si Si2 0.473301 0.377562 0.742224
Si Si3 0.958244 0.288586 0.470875
Si Si4 0.729185 0.715299 0.574411
Si Si5 0.740474 0.290909 0.482845
Si Si6 0.119251 0.331535 0.775515
Si Si7 0.500000 0.000000 0.000000
Si Si8 0.436403 0.740944 0.109040
O O1 0.102756 0.888531 0.731609
O O2 0.967039 0.791580 0.071808
O O3 0.232952 0.147082 0.174221
O O4 0.000000 0.000000 0.000000
O O5 0.605291 0.517653 0.604589
O O6 0.323517 0.272652 0.603825
O O7 0.481258 0.266518 0.775156
O O8 0.500000 0.500000 0.000000
O O9 0.829729 0.260334 0.471592
O O10 0.120566 0.484014 0.436290
O O11 0.012374 0.324023 0.713114
O O12 0.862439 0.756127 0.466685
O O13 0.635948 0.228050 0.683999
O O14 0.636217 0.180580 0.237993
O O15 0.291470 0.536310 0.913471
O O16 0.472599 0.103387 0.993209
#
# Coordination Sequence:
#
# PCOD9065770 Si02
#       8
#     2   2   2   2   2   2   1   2
#     4  12  25  41  71 104 141 181 232 288 354 430
#     4  11  25  44  72 104 145 190 230 296 360 428
#     4  11  25  45  73 104 139 187 234 294 355 425
#     4  11  25  42  70 112 142 185 239 281 371 436
#     4  11  26  49  71 103 138 184 245 294 355 417
#     4  12  23  44  74  99 145 187 225 295 362 426
#     4  12  28  46  74 100 136 194 252 292 348 422
#     4  12  25  46  74  99 145 188 241 296 356 422
#
# _framework density 23.540821000000001
#
# number of rings (size 3 to 8) (size 9 to 14) (size 15 to 20)
#    0.000    0.533    5.333    2.400    0.000    4.800 
#    0.000    0.000    0.000    0.000    0.000    0.000 
#    0.000    0.000    0.000    0.000    0.000    0.000 
#
# Total GULP energy -83662.294675 kJ/mol
# GULP energy per Si atom -5577.486312 kJ/mol
# Density = 2.348724 g / cm^3
# Si number density = 23.540821 Si / 1000 Ang^3
#
#
#
# Elastic Constant Matrix: (Units=GPa)
#
#
# Indices 1 2 3 4 5 6 
#
# 1 112.4083 18.5206 43.0160 2.3761 35.7613 -23.0335
# 2 18.5206 62.5391 -0.0621 5.6166 4.3747 -28.0355
# 3 43.0160 -0.0621 72.3133 20.3983 18.6506 1.4339
# 4 2.3761 5.6166 20.3983 37.7256 -2.4548 6.2177
# 5 35.7613 4.3747 18.6506 -2.4548 40.0711 -14.2967
# 6 -23.0335 -28.0355 1.4339 6.2177 -14.2967 36.2705
#
#
#
# Elastic Compliance Matrix: (Units=1/GPa)
#
#
# Indices 1 2 3 4 5 6 
#
# 1 0.016001 -0.002001 -0.008144 0.002284 -0.008242 0.005297
# 2 -0.002001 0.027577 0.001537 -0.008340 0.006038 0.023794
# 3 -0.008144 0.001537 0.023975 -0.012212 -0.006772 -0.005507
# 4 0.002284 -0.008340 -0.012212 0.035969 0.003432 -0.009326
# 5 -0.008242 0.006038 -0.006772 0.003432 0.040375 0.015027
# 6 0.005297 0.023794 -0.005507 -0.009326 0.015027 0.057066
#
#
# Mechanical properties :
#
#
# Convention : Reuss Voigt Hill
#
# Bulk Modulus (GPa) = 19.86543 41.13440 30.49992
# Shear Modulus (GPa) = 21.28038 35.19919 28.23978
#
# Velocity S-wave (km/s) = 3.00988 3.87103 3.46729
# Velocity P-wave (km/s) = 4.53169 6.12302 5.38645
#
# Compressibility (1/GPa) = 0.05033870
#
# Stress axis : x y z
#
# Youngs Moduli (GPa) = 62.49456 36.26160 41.70988
#
# Poissons Ratio (x) = 0.07256 0.33968
# Poissons Ratio (y) = 0.12505 -0.06412
# Poissons Ratio (z) = 0.50896 -0.05575
#
# Static dielectric constant tensor:
#      x y z
#    x 1.890890 0.010400 0.032970 
#    y 0.010400 1.948510 0.008710 
#    z 0.032970 0.008710 1.936840 
# 
# From -- ./inp_files/95307.got.cif
#   From: 2010.05.17/outbox.cif.g08.bks.cpg/sg2_48_cif.got.tgz:95307.got - 2010.06.03 11:33:40.
