data_PCOD9065604
_publ_section_title
;
Structure prediction by ZEFSAII (Michael W. Deem and Ramdas Pophale) SiO2 
 PCOD9065604
Probable space group: P -1
;
_chemical_formula_sum "Si O2"
_cell_formula_units_Z 14
_cell_length_a 5.517907
_cell_length_b 10.851127
_cell_length_c 14.733466
_cell_angle_alpha 132.224521
_cell_angle_beta 91.462427
_cell_angle_gamma 63.411306
_cell_volume 531.312716
_symmetry_space_group_name_H-M "P -1"
_symmetry_group_IT_number 2
_symmetry_cell_setting 'triclinic'
loop_
_space_group_symop_operation_xyz
x,y,z
-x,-y,-z
loop_
_atom_site_type_symbol
_atom_site_label
_atom_site_fract_x
_atom_site_fract_y
_atom_site_fract_z
Si Si1 0.307839 0.129740 0.648244
Si Si2 0.621310 0.324093 0.986422
Si Si3 0.784346 0.698755 0.756828
Si Si4 0.604151 0.353160 0.715928
Si Si5 0.130901 0.098053 0.989888
Si Si6 0.274534 0.058822 0.288771
Si Si7 0.697616 0.369239 0.525792
O O1 0.411670 0.285206 0.731217
O O2 0.963392 0.215363 0.671428
O O3 0.500000 0.000000 0.500000
O O4 0.461038 0.985456 0.666271
O O5 0.588952 0.149656 0.868163
O O6 0.500000 0.500000 0.000000
O O7 0.487807 0.431917 0.135105
O O8 0.971321 0.196777 0.942977
O O9 0.924281 0.717389 0.857888
O O10 0.864882 0.760852 0.696364
O O11 0.815623 0.495157 0.633401
O O12 0.451589 0.900170 0.870646
O O13 0.543374 0.359031 0.610418
O O14 0.000000 0.000000 0.000000
O O15 0.982922 0.144816 0.390328
O O16 0.500000 0.500000 0.500000
#
# Coordination Sequence:
#
# PCOD9065604 Si02
#       7
#     2   2   2   2   2   2   2
#     4  12  28  52  81 114 161 211 266 328 409 486
#     4  12  27  47  78 118 157 209 266 339 404 485
#     4  11  27  46  79 110 151 214 266 336 401 484
#     4  12  30  51  81 115 161 213 265 333 407 485
#     4  11  24  49  76 110 159 204 268 331 410 479
#     4  12  27  48  78 114 158 208 272 337 406 486
#     4  12  29  48  78 115 159 211 274 334 402 489
#
# _framework density 26.349829
#
# number of rings (size 3 to 8) (size 9 to 14) (size 15 to 20)
#    0.000    0.286    4.286    2.571   10.000    0.571 
#    0.000    0.000    0.000    0.000    0.000    0.000 
#    0.000    0.000    0.000    0.000    0.000    0.000 
#
# Total GULP energy -78317.938259 kJ/mol
# GULP energy per Si atom -5594.138447 kJ/mol
# Density = 2.628986 g / cm^3
# Si number density = 26.349829 Si / 1000 Ang^3
#
#
#
# Elastic Constant Matrix: (Units=GPa)
#
#
# Indices 1 2 3 4 5 6 
#
# 1 96.3574 28.2249 27.6720 2.9088 7.7616 -8.0487
# 2 28.2249 117.7397 -5.7431 -8.4820 1.9274 -27.1817
# 3 27.6720 -5.7431 134.8183 2.1264 6.7791 -6.7210
# 4 2.9088 -8.4820 2.1264 43.8535 -2.0138 8.0615
# 5 7.7616 1.9274 6.7791 -2.0138 53.3176 1.4737
# 6 -8.0487 -27.1817 -6.7210 8.0615 1.4737 51.0141
#
#
#
# Elastic Compliance Matrix: (Units=1/GPa)
#
#
# Indices 1 2 3 4 5 6 
#
# 1 0.012175 -0.003070 -0.002527 -0.001382 -0.001398 0.000211
# 2 -0.003070 0.010571 0.001327 0.001231 -0.000199 0.005134
# 3 -0.002527 0.001327 0.008107 -0.000269 -0.000761 0.001441
# 4 -0.001382 0.001231 -0.000269 0.023825 0.001185 -0.003397
# 5 -0.001398 -0.000199 -0.000761 0.001185 0.019140 -0.001167
# 6 0.000211 0.005134 0.001441 -0.003397 -0.001167 0.023132
#
#
# Mechanical properties :
#
#
# Convention : Reuss Voigt Hill
#
# Bulk Modulus (GPa) = 44.81654 49.91367 47.36510
# Shear Modulus (GPa) = 44.27630 49.55449 46.91539
#
# Velocity S-wave (km/s) = 4.10362 4.34134 4.22415
# Velocity P-wave (km/s) = 6.28476 6.64179 6.46574
#
# Compressibility (1/GPa) = 0.02231319
#
# Stress axis : x y z
#
# Youngs Moduli (GPa) = 82.13592 94.59644 123.35111
#
# Poissons Ratio (x) = 0.29040 0.31172
# Poissons Ratio (y) = 0.25214 -0.16369
# Poissons Ratio (z) = 0.20757 -0.12553
#
# Static dielectric constant tensor:
#      x y z
#    x 2.514400 0.195820 0.027380 
#    y 0.195820 2.246600 -0.020270 
#    z 0.027380 -0.020270 2.031380 
# 
# From -- ./inp_files/364402.got.cif
#   From: 2010.05.17/outbox.cif.g08.bks.cpg/sg2_183_cif.got.tgz:364402.got - 2010.06.03 11:33:40.
