data_PCOD9065649
_publ_section_title
;
Structure prediction by ZEFSAII (Michael W. Deem and Ramdas Pophale) SiO2 
 PCOD9065649
Probable space group: P -1
;
_chemical_formula_sum "Si O2"
_cell_formula_units_Z 16
_cell_length_a 11.478937
_cell_length_b 9.385858
_cell_length_c 9.894270
_cell_angle_alpha 57.125136
_cell_angle_beta 118.276563
_cell_angle_gamma 126.160552
_cell_volume 704.078768
_symmetry_space_group_name_H-M "P -1"
_symmetry_group_IT_number 2
_symmetry_cell_setting 'triclinic'
loop_
_space_group_symop_operation_xyz
x,y,z
-x,-y,-z
loop_
_atom_site_type_symbol
_atom_site_label
_atom_site_fract_x
_atom_site_fract_y
_atom_site_fract_z
Si Si1 0.246228 0.888072 0.894905
Si Si2 0.224146 0.415777 0.608329
Si Si3 0.992820 0.791965 0.613384
Si Si4 0.844263 0.693830 0.069839
Si Si5 0.248891 0.501476 0.161996
Si Si6 0.168730 0.927947 0.107795
Si Si7 0.581387 0.152706 0.582217
Si Si8 0.561702 0.739209 0.313158
O O1 0.152786 0.828050 0.736913
O O2 0.396563 0.074419 0.852163
O O3 0.243348 0.701984 0.055125
O O4 0.164068 0.950812 0.931596
O O5 0.061600 0.316354 0.502663
O O6 0.228403 0.376950 0.788644
O O7 0.305061 0.640460 0.515975
O O8 0.309239 0.320155 0.616487
O O9 0.876899 0.655517 0.733322
O O10 0.000000 0.000000 0.500000
O O11 0.017135 0.744134 0.153204
O O12 0.770838 0.559204 0.972941
O O13 0.837501 0.888878 0.928189
O O14 0.411439 0.559073 0.278969
O O15 0.317246 0.918184 0.238621
O O16 0.467323 0.193007 0.592437
O O17 0.500000 0.000000 0.500000
#
# Coordination Sequence:
#
# PCOD9065649 Si02
#       8
#     2   2   2   2   2   2   2   2
#     4  12  24  47  77 106 143 197 259 299 367 443
#     4  12  27  49  72 112 150 196 248 307 373 445
#     4  12  24  45  74 107 145 198 246 304 366 442
#     4  11  27  45  76 106 146 192 245 309 363 432
#     4  12  27  44  78 107 143 197 253 305 364 443
#     4  11  24  50  70 105 147 191 244 305 365 440
#     4  12  30  47  74 107 154 193 247 310 378 440
#     4  12  26  48  76 105 151 196 248 301 373 447
#
# _framework density 22.724730000000001
#
# number of rings (size 3 to 8) (size 9 to 14) (size 15 to 20)
#    0.000    0.250    6.250    1.125    7.000    2.000 
#    0.000    0.000    0.000    0.000    0.000    0.000 
#    0.000    0.000    0.000    0.000    0.000    0.000 
#
# Total GULP energy -89485.123735 kJ/mol
# GULP energy per Si atom -5592.820233 kJ/mol
# Density = 2.267301 g / cm^3
# Si number density = 22.724730 Si / 1000 Ang^3
#
#
#
# Elastic Constant Matrix: (Units=GPa)
#
#
# Indices 1 2 3 4 5 6 
#
# 1 49.9518 20.5566 12.3968 11.4865 -12.1445 -0.4492
# 2 20.5566 127.2013 29.9700 9.8704 -13.5208 0.0673
# 3 12.3968 29.9700 83.3542 1.2311 -9.7297 -2.1310
# 4 11.4865 9.8704 1.2311 54.0364 3.3431 -12.4846
# 5 -12.1445 -13.5208 -9.7297 3.3431 36.3566 -1.0426
# 6 -0.4492 0.0673 -2.1310 -12.4846 -1.0426 29.3168
#
#
#
# Elastic Compliance Matrix: (Units=1/GPa)
#
#
# Indices 1 2 3 4 5 6 
#
# 1 0.024489 -0.002290 -0.001935 -0.005632 0.007274 -0.001900
# 2 -0.002290 0.009204 -0.002730 -0.001442 0.002037 -0.000796
# 3 -0.001935 -0.002730 0.013514 0.000799 0.001921 0.001368
# 4 -0.005632 -0.001442 0.000799 0.022356 -0.003991 0.009354
# 5 0.007274 0.002037 0.001921 -0.003991 0.031564 -0.000331
# 6 -0.001900 -0.000796 0.001368 0.009354 -0.000331 0.038154
#
#
# Mechanical properties :
#
#
# Convention : Reuss Voigt Hill
#
# Bulk Modulus (GPa) = 30.03397 42.92824 36.48110
# Shear Modulus (GPa) = 30.43417 37.11423 33.77420
#
# Velocity S-wave (km/s) = 3.66355 4.04568 3.85935
# Velocity P-wave (km/s) = 5.58038 6.38396 5.99565
#
# Compressibility (1/GPa) = 0.03329564
#
# Stress axis : x y z
#
# Youngs Moduli (GPa) = 40.83545 108.65172 73.99942
#
# Poissons Ratio (x) = 0.24886 0.14318
# Poissons Ratio (y) = 0.09353 0.20201
# Poissons Ratio (z) = 0.07901 0.29660
#
# Static dielectric constant tensor:
#      x y z
#    x 1.866750 0.001530 0.029280 
#    y 0.001530 1.821750 -0.022200 
#    z 0.029280 -0.022200 1.856860 
# 
# From -- ./inp_files/206258.got.cif
#   From: 2010.05.17/outbox.cif.g08.bks.cpg/sg2_104_cif.got.tgz:206258.got - 2010.06.03 11:33:40.
