data_PCOD9065398
_publ_section_title
;
Structure prediction by ZEFSAII (Michael W. Deem and Ramdas Pophale) SiO2 
 PCOD9065398
Probable space group: P -1
;
_chemical_formula_sum "Si O2"
_cell_formula_units_Z 14
_cell_length_a 8.708300
_cell_length_b 5.886629
_cell_length_c 12.485986
_cell_angle_alpha 90.013018
_cell_angle_beta 105.497379
_cell_angle_gamma 115.658989
_cell_volume 550.995002
_symmetry_space_group_name_H-M "P -1"
_symmetry_group_IT_number 2
_symmetry_cell_setting 'triclinic'
loop_
_space_group_symop_operation_xyz
x,y,z
-x,-y,-z
loop_
_atom_site_type_symbol
_atom_site_label
_atom_site_fract_x
_atom_site_fract_y
_atom_site_fract_z
Si Si1 0.351889 0.371620 0.881232
Si Si2 0.089518 0.310026 0.001738
Si Si3 0.119953 0.890228 0.729872
Si Si4 0.791401 0.318900 0.458577
Si Si5 0.224917 0.571970 0.234042
Si Si6 0.477802 0.512189 0.667315
Si Si7 0.189857 0.969735 0.333011
O O1 0.269254 0.066776 0.842657
O O2 0.408418 0.499113 0.775980
O O3 0.500000 0.500000 0.000000
O O4 0.185672 0.385211 0.906229
O O5 0.227434 0.425702 0.126715
O O6 0.000000 0.500000 0.000000
O O7 0.000000 0.000000 0.000000
O O8 0.001119 0.037760 0.677969
O O9 0.222342 0.842355 0.650701
O O10 0.955162 0.631269 0.740135
O O11 0.681313 0.483041 0.431994
O O12 0.754883 0.150983 0.557345
O O13 0.000000 0.500000 0.500000
O O14 0.426017 0.671411 0.318132
O O15 0.189904 0.816839 0.225737
O O16 0.652072 0.757804 0.660548
#
# Coordination Sequence:
#
# PCOD9065398 Si02
#       7
#     2   2   2   2   2   2   2
#     4  12  26  49  73 112 152 198 250 319 389 461
#     4  12  27  48  80 110 152 209 265 319 394 467
#     4  11  25  47  76 106 149 190 263 308 381 465
#     4  12  25  48  77 109 145 201 252 318 392 458
#     4  11  24  48  72 108 149 201 252 316 379 466
#     4  11  28  45  71 112 153 190 257 311 386 468
#     4  11  25  50  75 106 151 199 251 322 388 460
#
# _framework density 25.408579
#
# number of rings (size 3 to 8) (size 9 to 14) (size 15 to 20)
#    0.000    0.571    4.286    2.571    6.000    0.571 
#    0.000    2.143    0.000    0.000    0.000    0.000 
#    0.000    0.000    0.000    0.000    0.000    0.000 
#
# Total GULP energy -78125.138045 kJ/mol
# GULP energy per Si atom -5580.367003 kJ/mol
# Density = 2.535075 g / cm^3
# Si number density = 25.408579 Si / 1000 Ang^3
#
#
#
# Elastic Constant Matrix: (Units=GPa)
#
#
# Indices 1 2 3 4 5 6 
#
# 1 133.8920 52.2030 37.3181 -2.1257 6.1705 -0.9733
# 2 52.2030 67.6933 16.5123 -0.5902 7.0753 11.2315
# 3 37.3181 16.5123 67.2555 1.0856 -3.4758 7.0285
# 4 -2.1257 -0.5902 1.0856 55.8185 1.4017 -8.0831
# 5 6.1705 7.0753 -3.4758 1.4017 68.7439 -3.7638
# 6 -0.9733 11.2315 7.0285 -8.0831 -3.7638 46.4268
#
#
#
# Elastic Compliance Matrix: (Units=1/GPa)
#
#
# Indices 1 2 3 4 5 6 
#
# 1 0.012372 -0.008811 -0.005078 0.000963 -0.000299 0.003303
# 2 -0.008811 0.022787 -0.000162 -0.000911 -0.001872 -0.005983
# 3 -0.005078 -0.000162 0.018108 -0.000996 0.001251 -0.002880
# 4 0.000963 -0.000911 -0.000996 0.018487 -0.000223 0.003592
# 5 -0.000299 -0.001872 0.001251 -0.000223 0.014912 0.001427
# 6 0.003303 -0.005983 -0.002880 0.003592 0.001427 0.024233
#
#
# Mechanical properties :
#
#
# Convention : Reuss Voigt Hill
#
# Bulk Modulus (GPa) = 39.73820 53.43418 46.58619
# Shear Modulus (GPa) = 33.92333 45.05167 39.48750
#
# Velocity S-wave (km/s) = 3.65788 4.21537 3.94649
# Velocity P-wave (km/s) = 5.78911 6.69090 6.25627
#
# Compressibility (1/GPa) = 0.02516470
#
# Stress axis : x y z
#
# Youngs Moduli (GPa) = 80.82511 43.88430 55.22440
#
# Poissons Ratio (x) = 0.38666 0.28043
# Poissons Ratio (y) = 0.71214 0.00897
# Poissons Ratio (z) = 0.41043 0.00713
#
# Static dielectric constant tensor:
#      x y z
#    x 2.059450 -0.116740 0.068740 
#    y -0.116740 2.127780 0.002810 
#    z 0.068740 0.002810 2.213100 
# 
# From -- ./inp_files/480034.got.cif
#   From: 2010.05.17/outbox.cif.g08.bks.cpg/sg2_241_cif.got.tgz:480034.got - 2010.06.03 11:33:40.
