data_PCOD9065361
_publ_section_title
;
Structure prediction by ZEFSAII (Michael W. Deem and Ramdas Pophale) SiO2 
 PCOD9065361
Probable space group: P -1
;
_chemical_formula_sum "Si O2"
_cell_formula_units_Z 13
_cell_length_a 10.317509
_cell_length_b 4.947685
_cell_length_c 9.898816
_cell_angle_alpha 105.494269
_cell_angle_beta 107.482512
_cell_angle_gamma 76.568050
_cell_volume 458.057338
_symmetry_space_group_name_H-M "P -1"
_symmetry_group_IT_number 2
_symmetry_cell_setting 'triclinic'
loop_
_space_group_symop_operation_xyz
x,y,z
-x,-y,-z
loop_
_atom_site_type_symbol
_atom_site_label
_atom_site_fract_x
_atom_site_fract_y
_atom_site_fract_z
Si Si1 0.330479 0.080535 0.349628
Si Si2 0.000000 0.500000 0.500000
Si Si3 0.481761 0.450746 0.758843
Si Si4 0.363623 0.234402 0.963147
Si Si5 0.874563 0.194210 0.916176
Si Si6 0.272458 0.704135 0.513949
Si Si7 0.097324 0.325102 0.808823
O O1 0.467964 0.850700 0.340798
O O2 0.234547 0.998845 0.188209
O O3 0.264634 0.980468 0.454696
O O4 0.322037 0.416033 0.402374
O O5 0.875107 0.322878 0.476151
O O6 0.925332 0.591465 0.340778
O O7 0.397718 0.387959 0.855849
O O8 0.389293 0.665836 0.659440
O O9 0.614642 0.571961 0.872430
O O10 0.228824 0.091205 0.862941
O O11 0.500000 0.000000 0.000000
O O12 0.949452 0.295175 0.820215
O O13 0.844390 0.440950 0.049346
O O14 0.000000 0.000000 0.000000
#
# Coordination Sequence:
#
# PCOD9065361 Si02
#       7
#     2   1   2   2   2   2   2
#     4  12  27  48  75 108 148 199 252 307 379 456
#     4  12  24  50  74 110 156 192 254 314 386 446
#     4  11  26  46  70 105 148 192 255 307 376 445
#     4  11  26  44  73 106 144 202 246 316 378 455
#     4  11  25  43  74 106 145 201 247 313 376 461
#     4  12  28  48  75 111 148 198 250 312 383 449
#     4  11  24  48  71 107 149 192 258 309 383 453
#
# _framework density 28.380728000000001
#
# number of rings (size 3 to 8) (size 9 to 14) (size 15 to 20)
#    0.000    0.615    4.615    1.846    8.615    0.615 
#    5.538    0.000    0.000    0.000    0.000    0.000 
#    0.000    0.000    0.000    0.000    0.000    0.000 
#
# Total GULP energy -72637.648066 kJ/mol
# GULP energy per Si atom -5587.511390 kJ/mol
# Density = 2.831613 g / cm^3
# Si number density = 28.380728 Si / 1000 Ang^3
#
#
#
# Elastic Constant Matrix: (Units=GPa)
#
#
# Indices 1 2 3 4 5 6 
#
# 1 115.5162 -14.4661 37.8238 -2.2401 7.4551 24.8981
# 2 -14.4661 64.1578 35.0987 10.7019 -2.8676 19.9742
# 3 37.8238 35.0987 172.6869 -18.5239 18.8558 2.1983
# 4 -2.2401 10.7019 -18.5239 51.5084 -3.1420 -5.2050
# 5 7.4551 -2.8676 18.8558 -3.1420 79.7750 -11.1379
# 6 24.8981 19.9742 2.1983 -5.2050 -11.1379 27.2212
#
#
#
# Elastic Compliance Matrix: (Units=1/GPa)
#
#
# Indices 1 2 3 4 5 6 
#
# 1 0.031367 0.036835 -0.014729 -0.018202 -0.007362 -0.061022
# 2 0.036835 0.070871 -0.023623 -0.031686 -0.009655 -0.093796
# 3 -0.014729 -0.023623 0.014548 0.012971 0.002209 0.033015
# 4 -0.018202 -0.031686 0.012971 0.035042 0.005553 0.047824
# 5 -0.007362 -0.009655 0.002209 0.005553 0.015512 0.021049
# 6 -0.061022 -0.093796 0.033015 0.047824 0.021049 0.176466
#
#
# Mechanical properties :
#
#
# Convention : Reuss Voigt Hill
#
# Bulk Modulus (GPa) = 8.79100 52.14152 30.46626
# Shear Modulus (GPa) = 12.99519 51.29454 32.14487
#
# Velocity S-wave (km/s) = 2.14215 4.25593 3.36911
# Velocity P-wave (km/s) = 3.03689 6.52401 5.08848
#
# Compressibility (1/GPa) = 0.11375271
#
# Stress axis : x y z
#
# Youngs Moduli (GPa) = 31.88040 14.11015 68.73681
#
# Poissons Ratio (x) = -0.51975 1.01242
# Poissons Ratio (y) = -1.17433 1.62379
# Poissons Ratio (z) = 0.46957 0.33333
#
# Static dielectric constant tensor:
#      x y z
#    x 1.843260 0.363620 -0.039680 
#    y 0.363620 1.898760 0.026610 
#    z -0.039680 0.026610 2.165040 
# 
# From -- ./inp_files/24073.got.cif
#   From: 2010.05.17/outbox.cif.g08.bks.cpg/sg2_13_cif.got.tgz:24073.got - 2010.06.03 11:33:40.
