data_PCOD9065306
_publ_section_title
;
Structure prediction by ZEFSAII (Michael W. Deem and Ramdas Pophale) SiO2 
 PCOD9065306
Probable space group: P -1
;
_chemical_formula_sum "Si O2"
_cell_formula_units_Z 14
_cell_length_a 4.866139
_cell_length_b 10.127310
_cell_length_c 11.559332
_cell_angle_alpha 87.811605
_cell_angle_beta 77.840069
_cell_angle_gamma 70.339401
_cell_volume 524.078037
_symmetry_space_group_name_H-M "P -1"
_symmetry_group_IT_number 2
_symmetry_cell_setting 'triclinic'
loop_
_space_group_symop_operation_xyz
x,y,z
-x,-y,-z
loop_
_atom_site_type_symbol
_atom_site_label
_atom_site_fract_x
_atom_site_fract_y
_atom_site_fract_z
Si Si1 0.879808 0.373132 0.986082
Si Si2 0.317936 0.062639 0.901283
Si Si3 0.063096 0.226306 0.363071
Si Si4 0.342203 0.789689 0.803944
Si Si5 0.500000 0.000000 0.500000
Si Si6 0.455672 0.800816 0.322200
Si Si7 0.000000 0.500000 0.500000
Si Si8 0.883906 0.376412 0.730092
O O1 0.739891 0.406199 0.868498
O O2 0.125862 0.221157 0.944306
O O3 0.704485 0.328234 0.105636
O O4 0.000000 0.500000 0.000000
O O5 0.504362 0.086946 0.775289
O O6 0.191064 0.942985 0.871784
O O7 0.500000 0.000000 0.000000
O O8 0.310883 0.235090 0.246618
O O9 0.945902 0.365528 0.445900
O O10 0.807902 0.203738 0.307273
O O11 0.231181 0.099000 0.436816
O O12 0.464493 0.859253 0.445805
O O13 0.175969 0.761881 0.305777
O O14 0.755864 0.662598 0.291960
O O15 0.207784 0.513328 0.368131
#
# Coordination Sequence:
#
# PCOD9065306 Si02
#       8
#     2   2   2   2   1   2   1   2
#     4  11  26  49  76 112 155 199 251 320 386 455
#     4  11  24  47  79 113 152 199 254 318 378 458
#     4  12  30  47  83 110 157 199 257 318 379 460
#     4  12  27  51  79 118 150 204 263 317 382 455
#     4  12  26  50  74 114 152 200 252 318 372 462
#     4  11  26  45  74 110 148 192 252 305 381 433
#     4  12  28  54  74 114 154 206 254 310 386 462
#     4  11  27  47  74 108 150 201 243 313 371 456
#
# _framework density 26.713577999999998
#
# number of rings (size 3 to 8) (size 9 to 14) (size 15 to 20)
#    0.000    0.571    2.857    3.000    6.000    6.857 
#    0.000    6.429    0.000    0.000    0.000    0.000 
#    0.000    0.000    0.000    0.000    0.000    0.000 
#
# Total GULP energy -77959.719533 kJ/mol
# GULP energy per Si atom -5568.551395 kJ/mol
# Density = 2.665278 g / cm^3
# Si number density = 26.713578 Si / 1000 Ang^3
#
#
#
# Elastic Constant Matrix: (Units=GPa)
#
#
# Indices 1 2 3 4 5 6 
#
# 1 67.3288 26.9292 42.0410 -8.2338 10.8777 4.2587
# 2 26.9292 167.6754 46.2136 9.8377 19.5303 7.0672
# 3 42.0410 46.2136 142.5826 -8.3765 23.2772 2.9778
# 4 -8.2338 9.8377 -8.3765 50.0666 22.3957 -4.4439
# 5 10.8777 19.5303 23.2772 22.3957 32.9702 1.2584
# 6 4.2587 7.0672 2.9778 -4.4439 1.2584 38.8228
#
#
#
# Elastic Compliance Matrix: (Units=1/GPa)
#
#
# Indices 1 2 3 4 5 6 
#
# 1 0.019771 -0.001645 -0.003810 0.005954 -0.006878 -0.000673
# 2 -0.001645 0.006963 -0.001575 -0.001307 -0.001542 -0.001066
# 3 -0.003810 -0.001575 0.010408 0.005485 -0.008916 0.000823
# 4 0.005954 -0.001307 0.005485 0.035677 -0.029458 0.004203
# 5 -0.006878 -0.001542 -0.008916 -0.029458 0.059954 -0.003596
# 6 -0.000673 -0.001066 0.000823 0.004203 -0.003596 0.026560
#
#
# Mechanical properties :
#
#
# Convention : Reuss Voigt Hill
#
# Bulk Modulus (GPa) = 43.32201 67.55051 55.43626
# Shear Modulus (GPa) = 27.61091 41.86544 34.73818
#
# Velocity S-wave (km/s) = 3.21844 3.96308 3.61001
# Velocity P-wave (km/s) = 5.48302 6.80317 6.17846
#
# Compressibility (1/GPa) = 0.02308296
#
# Stress axis : x y z
#
# Youngs Moduli (GPa) = 50.57862 143.60941 96.08186
#
# Poissons Ratio (x) = 0.23627 0.36605
# Poissons Ratio (y) = 0.08321 0.15130
# Poissons Ratio (z) = 0.19269 0.22615
#
# Static dielectric constant tensor:
#      x y z
#    x 2.111530 -0.064250 -0.079790 
#    y -0.064250 2.131850 -0.009060 
#    z -0.079790 -0.009060 2.131740 
# 
# From -- ./inp_files/360728.got.cif
#   From: 2010.05.17/outbox.cif.g08.bks.cpg/sg2_181_cif.got.tgz:360728.got - 2010.06.03 11:33:40.
