data_PCOD9065216
_publ_section_title
;
Structure prediction by ZEFSAII (Michael W. Deem and Ramdas Pophale) SiO2 
 PCOD9065216
Probable space group: P -1
;
_chemical_formula_sum "Si O2"
_cell_formula_units_Z 14
_cell_length_a 8.628541
_cell_length_b 17.388899
_cell_length_c 11.975466
_cell_angle_alpha 30.162144
_cell_angle_beta 124.978230
_cell_angle_gamma 140.765532
_cell_volume 544.098545
_symmetry_space_group_name_H-M "P -1"
_symmetry_group_IT_number 2
_symmetry_cell_setting 'triclinic'
loop_
_space_group_symop_operation_xyz
x,y,z
-x,-y,-z
loop_
_atom_site_type_symbol
_atom_site_label
_atom_site_fract_x
_atom_site_fract_y
_atom_site_fract_z
Si Si1 0.582207 0.710563 0.529759
Si Si2 0.218921 0.372237 0.100447
Si Si3 0.720785 0.166291 0.226472
Si Si4 0.127410 0.666101 0.444359
Si Si5 0.196099 0.714680 0.648348
Si Si6 0.833636 0.975531 0.092396
Si Si7 0.598859 0.713201 0.110954
O O1 0.777016 0.754816 0.644642
O O2 0.365221 0.683256 0.539685
O O3 0.689794 0.880635 0.267229
O O4 0.476068 0.497923 0.692488
O O5 0.908339 0.205753 0.156777
O O6 0.500000 0.500000 0.000000
O O7 0.240760 0.564716 0.890436
O O8 0.865731 0.244410 0.309008
O O9 0.459444 0.934027 0.437197
O O10 0.618758 0.280165 0.010256
O O11 0.015362 0.624359 0.576263
O O12 0.000000 0.500000 0.500000
O O13 0.180170 0.863470 0.170033
O O14 0.698057 0.786635 0.186328
O O15 0.134154 0.100765 0.077115
#
# Coordination Sequence:
#
# PCOD9065216 Si02
#       7
#     2   2   2   2   2   2   2
#     4  12  26  45  72 109 149 202 253 308 388 448
#     4  12  27  48  72 112 150 194 250 318 385 452
#     4  11  26  46  81 110 149 200 252 321 380 446
#     4  12  25  50  73 107 159 205 245 318 379 458
#     4  11  25  48  75 112 149 194 259 309 381 448
#     4  11  26  46  73 107 153 197 261 306 379 457
#     4  11  24  47  74 113 147 199 255 320 373 454
#
# _framework density 25.730634999999999
#
# number of rings (size 3 to 8) (size 9 to 14) (size 15 to 20)
#    0.000    0.571    5.714    1.286    4.000    1.714 
#    5.143    0.000    0.000    0.000    0.000    0.000 
#    0.000    0.000    0.000    0.000    0.000    0.000 
#
# Total GULP energy -78143.087454 kJ/mol
# GULP energy per Si atom -5581.649104 kJ/mol
# Density = 2.567207 g / cm^3
# Si number density = 25.730635 Si / 1000 Ang^3
#
#
#
# Elastic Constant Matrix: (Units=GPa)
#
#
# Indices 1 2 3 4 5 6 
#
# 1 97.0294 44.4681 26.1438 -0.6494 15.8256 10.0987
# 2 44.4681 83.8506 25.2406 7.8816 0.9871 -11.2803
# 3 26.1438 25.2406 126.0367 7.9043 10.2586 -6.3054
# 4 -0.6494 7.8816 7.9043 27.6820 7.4838 2.2615
# 5 15.8256 0.9871 10.2586 7.4838 44.0992 6.4403
# 6 10.0987 -11.2803 -6.3054 2.2615 6.4403 46.5081
#
#
#
# Elastic Compliance Matrix: (Units=1/GPa)
#
#
# Indices 1 2 3 4 5 6 
#
# 1 0.016665 -0.009537 -0.001733 0.005545 -0.005476 -0.005678
# 2 -0.009537 0.018819 -0.001345 -0.006665 0.003527 0.006289
# 3 -0.001733 -0.001345 0.008869 -0.001963 -0.001301 0.001528
# 4 0.005545 -0.006665 -0.001963 0.041144 -0.007781 -0.004010
# 5 -0.005476 0.003527 -0.001301 -0.007781 0.026391 -0.001408
# 6 -0.005678 0.006289 0.001528 -0.004010 -0.001408 0.024857
#
#
# Mechanical properties :
#
#
# Convention : Reuss Voigt Hill
#
# Bulk Modulus (GPa) = 52.29305 55.40241 53.84773
# Shear Modulus (GPa) = 29.70018 37.72882 33.71450
#
# Velocity S-wave (km/s) = 3.40115 3.83338 3.62371
# Velocity P-wave (km/s) = 5.98257 6.41650 6.20333
#
# Compressibility (1/GPa) = 0.01912300
#
# Stress axis : x y z
#
# Youngs Moduli (GPa) = 60.00621 53.13646 112.75844
#
# Poissons Ratio (x) = 0.50675 0.19542
# Poissons Ratio (y) = 0.57227 0.15167
# Poissons Ratio (z) = 0.10400 0.07147
#
# Static dielectric constant tensor:
#      x y z
#    x 2.052000 0.010140 -0.059150 
#    y 0.010140 2.217630 -0.037690 
#    z -0.059150 -0.037690 1.963330 
# 
# From -- ./inp_files/402748.got.cif
#   From: 2010.05.17/outbox.cif.g08.bks.cpg/sg2_202_cif.got.tgz:402748.got - 2010.06.03 11:33:40.
