data_PCOD9065262
_publ_section_title
;
Structure prediction by ZEFSAII (Michael W. Deem and Ramdas Pophale) SiO2 
 PCOD9065262
Probable space group: P -1
;
_chemical_formula_sum "Si O2"
_cell_formula_units_Z 14
_cell_length_a 8.389005
_cell_length_b 9.099546
_cell_length_c 17.017617
_cell_angle_alpha 62.628152
_cell_angle_beta 33.404868
_cell_angle_gamma 60.999453
_cell_volume 621.424609
_symmetry_space_group_name_H-M "P -1"
_symmetry_group_IT_number 2
_symmetry_cell_setting 'triclinic'
loop_
_space_group_symop_operation_xyz
x,y,z
-x,-y,-z
loop_
_atom_site_type_symbol
_atom_site_label
_atom_site_fract_x
_atom_site_fract_y
_atom_site_fract_z
Si Si1 0.208905 0.548031 0.335676
Si Si2 0.290545 0.996525 0.013958
Si Si3 0.236305 0.398983 0.635294
Si Si4 0.744483 0.106643 0.692418
Si Si5 0.681512 0.235617 0.185639
Si Si6 0.772965 0.347696 0.943612
Si Si7 0.642776 0.066742 0.567500
O O1 0.249783 0.734216 0.294139
O O2 0.517478 0.414146 0.243920
O O3 0.000000 0.500000 0.500000
O O4 0.032107 0.536299 0.330420
O O5 0.222589 0.811925 0.075908
O O6 0.997054 0.138870 0.110883
O O7 0.500000 0.000000 0.000000
O O8 0.471417 0.031104 0.853670
O O9 0.500000 0.500000 0.500000
O O10 0.389690 0.206091 0.598134
O O11 0.078910 0.404316 0.783794
O O12 0.709484 0.147570 0.603917
O O13 0.061808 0.977993 0.594867
O O14 0.465817 0.104217 0.322503
O O15 0.740078 0.278233 0.060810
O O16 0.500000 0.500000 0.000000
#
# Coordination Sequence:
#
# PCOD9065262 Si02
#       7
#     2   2   2   2   2   2   2
#     4  12  26  47  69 108 152 183 238 301 357 425
#     4  12  27  47  70 108 144 185 241 296 363 429
#     4  12  27  45  74 110 142 188 245 292 357 431
#     4  11  25  44  74 104 141 187 240 295 357 421
#     4  12  25  49  74 102 145 198 235 296 362 424
#     4  12  25  48  75 103 146 188 242 299 352 428
#     4  11  24  47  77 101 142 192 244 290 358 429
#
# _framework density 22.528880999999998
#
# number of rings (size 3 to 8) (size 9 to 14) (size 15 to 20)
#    0.000    0.286    5.714    3.000    4.000    2.286 
#    2.571    0.000    0.000    0.000    0.000    0.000 
#    0.000    0.000    0.000    0.000    0.000    0.000 
#
# Total GULP energy -78355.851611 kJ/mol
# GULP energy per Si atom -5596.846544 kJ/mol
# Density = 2.247760 g / cm^3
# Si number density = 22.528881 Si / 1000 Ang^3
#
#
#
# Elastic Constant Matrix: (Units=GPa)
#
#
# Indices 1 2 3 4 5 6 
#
# 1 57.5767 36.6970 1.5973 15.8576 -11.5850 -5.6250
# 2 36.6970 123.2840 50.7881 29.9243 -15.7180 -15.5324
# 3 1.5973 50.7881 137.8159 14.5548 -19.8352 4.7085
# 4 15.8576 29.9243 14.5548 54.2160 -7.8813 -11.5053
# 5 -11.5850 -15.7180 -19.8352 -7.8813 29.8163 8.7954
# 6 -5.6250 -15.5324 4.7085 -11.5053 8.7954 35.6270
#
#
#
# Elastic Compliance Matrix: (Units=1/GPa)
#
#
# Indices 1 2 3 4 5 6 
#
# 1 0.024322 -0.007407 0.004124 -0.003597 0.008263 -0.003136
# 2 -0.007407 0.013538 -0.004901 -0.003179 -0.001215 0.004654
# 3 0.004124 -0.004901 0.010336 -0.001318 0.007024 -0.005012
# 4 -0.003597 -0.003179 -0.001318 0.022836 0.000470 0.005479
# 5 0.008263 -0.001215 0.007024 0.000470 0.044119 -0.010894
# 6 -0.003136 0.004654 -0.005012 0.005479 -0.010894 0.034724
#
#
# Mechanical properties :
#
#
# Convention : Reuss Voigt Hill
#
# Bulk Modulus (GPa) = 31.41980 55.20461 43.31221
# Shear Modulus (GPa) = 28.27198 39.23815 33.75507
#
# Velocity S-wave (km/s) = 3.54633 4.17787 3.87499
# Velocity P-wave (km/s) = 5.54485 6.91592 6.26799
#
# Compressibility (1/GPa) = 0.03182706
#
# Stress axis : x y z
#
# Youngs Moduli (GPa) = 41.11568 73.86349 96.74951
#
# Poissons Ratio (x) = 0.54711 -0.39900
# Poissons Ratio (y) = 0.30455 0.47422
# Poissons Ratio (z) = -0.16956 0.36204
#
# Static dielectric constant tensor:
#      x y z
#    x 1.904710 0.150480 -0.068710 
#    y 0.150480 2.398860 -0.346590 
#    z -0.068710 -0.346590 2.056020 
# 
# From -- ./inp_files/158300.got.cif
#   From: 2010.05.17/outbox.cif.g08.bks.cpg/sg2_80_cif.got.tgz:158300.got - 2010.06.03 11:33:40.
