data_PCOD9065101
_publ_section_title
;
Structure prediction by ZEFSAII (Michael W. Deem and Ramdas Pophale) SiO2 
 PCOD9065101
Probable space group: P -1
;
_chemical_formula_sum "Si O2"
_cell_formula_units_Z 15
_cell_length_a 16.440756
_cell_length_b 4.962289
_cell_length_c 12.437878
_cell_angle_alpha 109.555090
_cell_angle_beta 145.424655
_cell_angle_gamma 69.969089
_cell_volume 538.366214
_symmetry_space_group_name_H-M "P -1"
_symmetry_group_IT_number 2
_symmetry_cell_setting 'triclinic'
loop_
_space_group_symop_operation_xyz
x,y,z
-x,-y,-z
loop_
_atom_site_type_symbol
_atom_site_label
_atom_site_fract_x
_atom_site_fract_y
_atom_site_fract_z
Si Si1 0.883300 0.408070 0.943763
Si Si2 0.501434 0.764508 0.375270
Si Si3 0.500000 0.500000 0.000000
Si Si4 0.685229 0.173010 0.534145
Si Si5 0.751272 0.786504 0.188887
Si Si6 0.233193 0.680643 0.591211
Si Si7 0.752434 0.960773 0.988681
Si Si8 0.013476 0.696020 0.720364
O O1 0.790889 0.195427 0.752520
O O2 0.773083 0.682622 0.898731
O O3 0.960798 0.293826 0.121620
O O4 0.000000 0.500000 0.000000
O O5 0.561275 0.448079 0.436768
O O6 0.346717 0.794784 0.152563
O O7 0.500000 0.000000 0.500000
O O8 0.612114 0.884283 0.427547
O O9 0.364493 0.348839 0.884073
O O10 0.397262 0.609444 0.799578
O O11 0.768613 0.220160 0.521523
O O12 0.872659 0.542359 0.246060
O O13 0.819704 0.035975 0.358653
O O14 0.678752 0.929813 0.019596
O O15 0.137237 0.425225 0.473517
O O16 0.916032 0.020913 0.199912
#
# Coordination Sequence:
#
# PCOD9065101 Si02
#       8
#     2   2   1   2   2   2   2   2
#     4  11  24  47  71 112 151 200 255 316 386 466
#     4  12  26  47  77 114 159 206 261 322 399 468
#     4  12  28  48  76 102 150 192 260 322 388 446
#     4  12  28  46  78 115 157 205 262 325 394 469
#     4  11  27  49  75 107 146 200 258 323 384 466
#     4  12  28  48  73 112 150 201 255 324 387 465
#     4  11  26  46  76 109 152 200 259 319 386 477
#     4  11  26  49  78 105 153 199 256 315 397 467
#
# _framework density 27.862075000000001
#
# number of rings (size 3 to 8) (size 9 to 14) (size 15 to 20)
#    0.000    0.533    2.667    3.600    9.333    5.867 
#    0.000    0.000    0.000    0.000    0.000    0.000 
#    0.000    0.000    0.000    0.000    0.000    0.000 
#
# Total GULP energy -84040.310045 kJ/mol
# GULP energy per Si atom -5602.687336 kJ/mol
# Density = 2.779866 g / cm^3
# Si number density = 27.862075 Si / 1000 Ang^3
#
#
#
# Elastic Constant Matrix: (Units=GPa)
#
#
# Indices 1 2 3 4 5 6 
#
# 1 145.4726 26.6150 62.5653 15.0193 -2.6989 24.0370
# 2 26.6150 80.2003 17.5525 12.2910 3.3653 2.2289
# 3 62.5653 17.5525 174.0340 5.1075 22.2514 -7.1938
# 4 15.0193 12.2910 5.1075 28.8623 5.6836 -2.1021
# 5 -2.6989 3.3653 22.2514 5.6836 55.3472 14.1871
# 6 24.0370 2.2289 -7.1938 -2.1021 14.1871 46.0298
#
#
#
# Elastic Compliance Matrix: (Units=1/GPa)
#
#
# Indices 1 2 3 4 5 6 
#
# 1 0.011391 -0.001804 -0.004780 -0.005998 0.005393 -0.008544
# 2 -0.001804 0.013949 -0.000589 -0.004856 -0.000205 0.000016
# 3 -0.004780 -0.000589 0.008347 0.002703 -0.005259 0.005574
# 4 -0.005998 -0.004856 0.002703 0.041389 -0.007372 0.007952
# 5 0.005393 -0.000205 -0.005259 -0.007372 0.024138 -0.011405
# 6 -0.008544 0.000016 0.005574 0.007952 -0.011405 0.030935
#
#
# Mechanical properties :
#
#
# Convention : Reuss Voigt Hill
#
# Bulk Modulus (GPa) = 51.70179 68.13028 59.91604
# Shear Modulus (GPa) = 33.12550 45.57948 39.35249
#
# Velocity S-wave (km/s) = 3.45180 4.04901 3.76227
# Velocity P-wave (km/s) = 5.87224 6.80919 6.35800
#
# Compressibility (1/GPa) = 0.01934169
#
# Stress axis : x y z
#
# Youngs Moduli (GPa) = 87.78924 71.69193 119.79988
#
# Poissons Ratio (x) = 0.12931 0.57262
# Poissons Ratio (y) = 0.15835 0.07057
# Poissons Ratio (z) = 0.41961 0.04223
#
# Static dielectric constant tensor:
#      x y z
#    x 2.180430 -0.061950 0.017580 
#    y -0.061950 2.225040 -0.020250 
#    z 0.017580 -0.020250 2.083800 
# 
# From -- ./inp_files/442214.got.cif
#   From: 2010.05.17/outbox.cif.g08.bks.cpg/sg2_222_cif.got.tgz:442214.got - 2010.06.03 11:33:40.
