data_PCOD9065233
_publ_section_title
;
Structure prediction by ZEFSAII (Michael W. Deem and Ramdas Pophale) SiO2 
 PCOD9065233
Probable space group: P -1
;
_chemical_formula_sum "Si O2"
_cell_formula_units_Z 11
_cell_length_a 13.522254
_cell_length_b 9.759995
_cell_length_c 6.620946
_cell_angle_alpha 125.928268
_cell_angle_beta 135.378440
_cell_angle_gamma 50.068138
_cell_volume 456.760894
_symmetry_space_group_name_H-M "P -1"
_symmetry_group_IT_number 2
_symmetry_cell_setting 'triclinic'
loop_
_space_group_symop_operation_xyz
x,y,z
-x,-y,-z
loop_
_atom_site_type_symbol
_atom_site_label
_atom_site_fract_x
_atom_site_fract_y
_atom_site_fract_z
Si Si1 0.910525 0.631603 0.301894
Si Si2 0.393546 0.699387 0.593211
Si Si3 0.165581 0.008679 0.244293
Si Si4 0.500000 0.000000 0.000000
Si Si5 0.191636 0.544004 0.360587
Si Si6 0.662839 0.869871 0.714493
O O1 0.000000 0.500000 0.500000
O O2 0.033660 0.649861 0.338057
O O3 0.828725 0.826932 0.463776
O O4 0.838230 0.516146 0.960350
O O5 0.500000 0.500000 0.500000
O O6 0.292413 0.826821 0.373162
O O7 0.285921 0.669939 0.580837
O O8 0.494899 0.806514 0.904922
O O9 0.216230 0.056391 0.141605
O O10 0.000000 0.000000 0.000000
O O11 0.372124 0.109125 0.082708
O O12 0.280337 0.348664 0.432810
O O13 0.500000 0.000000 0.500000
#
# Coordination Sequence:
#
# PCOD9065233 Si02
#       6
#     2   2   2   1   2   2
#     4  11  24  47  75 109 153 197 249 319 386 452
#     4  12  26  49  74 111 151 201 261 311 386 459
#     4  12  27  47  76 116 157 199 258 322 388 455
#     4  12  26  48  76 106 154 208 252 316 380 462
#     4  11  25  45  76 108 148 201 253 314 383 457
#     4  12  25  49  72 110 153 203 254 312 385 461
#
# _framework density 24.082623999999999
#
# number of rings (size 3 to 8) (size 9 to 14) (size 15 to 20)
#    0.000    0.364    5.455    2.182    5.091    0.727 
#    3.273    1.818    0.000    0.000    0.000    0.000 
#    0.000    0.000    0.000    0.000    0.000    0.000 
#
# Total GULP energy -61285.470014 kJ/mol
# GULP energy per Si atom -5571.406365 kJ/mol
# Density = 2.402781 g / cm^3
# Si number density = 24.082624 Si / 1000 Ang^3
#
#
#
# Elastic Constant Matrix: (Units=GPa)
#
#
# Indices 1 2 3 4 5 6 
#
# 1 175.3204 10.4972 21.6364 20.2972 5.3481 30.4577
# 2 10.4972 128.6204 18.9709 12.6341 5.2902 21.0500
# 3 21.6364 18.9709 76.9363 -3.7243 2.0671 5.4407
# 4 20.2972 12.6341 -3.7243 51.1929 1.8096 -2.3336
# 5 5.3481 5.2902 2.0671 1.8096 30.8354 13.9889
# 6 30.4577 21.0500 5.4407 -2.3336 13.9889 41.8442
#
#
#
# Elastic Compliance Matrix: (Units=1/GPa)
#
#
# Indices 1 2 3 4 5 6 
#
# 1 0.007396 0.001053 -0.002111 -0.003705 0.001824 -0.006455
# 2 0.001053 0.009226 -0.002355 -0.003164 0.001146 -0.005662
# 3 -0.002111 -0.002355 0.014227 0.002547 -0.000935 0.001326
# 4 -0.003705 -0.003164 0.002547 0.022365 -0.003134 0.006252
# 5 0.001824 0.001146 -0.000935 -0.003134 0.038961 -0.014983
# 6 -0.006455 -0.005662 0.001326 0.006252 -0.014983 0.036630
#
#
# Mechanical properties :
#
#
# Convention : Reuss Voigt Hill
#
# Bulk Modulus (GPa) = 41.62691 53.67623 47.65157
# Shear Modulus (GPa) = 34.80954 46.75936 40.78445
#
# Velocity S-wave (km/s) = 3.80599 4.41116 4.11971
# Velocity P-wave (km/s) = 6.05282 6.94847 6.51605
#
# Compressibility (1/GPa) = 0.02402292
#
# Stress axis : x y z
#
# Youngs Moduli (GPa) = 135.20769 108.38410 70.28976
#
# Poissons Ratio (x) = -0.11414 0.14842
# Poissons Ratio (y) = -0.14239 0.16552
# Poissons Ratio (z) = 0.28549 0.25523
#
# Static dielectric constant tensor:
#      x y z
#    x 1.946350 -0.088780 0.080920 
#    y -0.088780 2.076210 -0.077890 
#    z 0.080920 -0.077890 2.126310 
# 
# From -- ./inp_files/60079.got.cif
#   From: 2010.05.17/outbox.cif.g08.bks.cpg/sg2_31_cif.got.tgz:60079.got - 2010.06.03 11:33:40.
