data_PCOD9065612
_publ_section_title
;
Structure prediction by ZEFSAII (Michael W. Deem and Ramdas Pophale) SiO2 
 PCOD9065612
Probable space group: P -1
;
_chemical_formula_sum "Si O2"
_cell_formula_units_Z 14
_cell_length_a 12.240531
_cell_length_b 12.153110
_cell_length_c 11.831793
_cell_angle_alpha 155.714260
_cell_angle_beta 48.972825
_cell_angle_gamma 126.586489
_cell_volume 546.100584
_symmetry_space_group_name_H-M "P -1"
_symmetry_group_IT_number 2
_symmetry_cell_setting 'triclinic'
loop_
_space_group_symop_operation_xyz
x,y,z
-x,-y,-z
loop_
_atom_site_type_symbol
_atom_site_label
_atom_site_fract_x
_atom_site_fract_y
_atom_site_fract_z
Si Si1 0.379345 0.911403 0.148836
Si Si2 0.327042 0.705826 0.407550
Si Si3 0.329642 0.301979 0.344527
Si Si4 0.891913 0.583378 0.874111
Si Si5 0.930136 0.272414 0.760169
Si Si6 0.622570 0.827064 0.371217
Si Si7 0.807739 0.161315 0.134828
O O1 0.238417 0.745771 0.115910
O O2 0.333345 0.149827 0.318561
O O3 0.426882 0.037609 0.353024
O O4 0.506480 0.732061 0.842825
O O5 0.217415 0.504075 0.232480
O O6 0.493969 0.617942 0.235794
O O7 0.251447 0.802695 0.664549
O O8 0.353883 0.952018 0.535164
O O9 0.273942 0.605356 0.663842
O O10 0.234356 0.122787 0.155029
O O11 0.954095 0.331485 0.666440
O O12 0.022295 0.769241 0.921157
O O13 0.784566 0.714076 0.161704
O O14 0.000000 0.000000 0.500000
O O15 0.000000 0.500000 0.000000
#
# Coordination Sequence:
#
# PCOD9065612 Si02
#       7
#     2   2   2   2   2   2   2
#     4  11  24  49  77 108 150 199 253 314 375 448
#     4  11  26  47  74 112 150 203 255 310 371 456
#     4  11  28  48  77 111 149 201 253 308 381 446
#     4  12  27  44  76 110 154 200 250 312 388 437
#     4  12  26  44  72 108 149 189 243 305 370 443
#     4  11  25  48  77 113 148 200 259 312 375 447
#     4  12  28  49  76 111 156 198 251 312 371 459
#
# _framework density 25.636302000000001
#
# number of rings (size 3 to 8) (size 9 to 14) (size 15 to 20)
#    0.000    0.571    2.857    3.429    6.000    5.143 
#    0.000    0.000    0.000    0.000    0.000    0.000 
#    0.000    0.000    0.000    0.000    0.000    0.000 
#
# Total GULP energy -78562.027726 kJ/mol
# GULP energy per Si atom -5611.573409 kJ/mol
# Density = 2.557795 g / cm^3
# Si number density = 25.636302 Si / 1000 Ang^3
#
#
#
# Elastic Constant Matrix: (Units=GPa)
#
#
# Indices 1 2 3 4 5 6 
#
# 1 77.3882 -24.3453 -13.1722 -8.4092 56.6965 14.4772
# 2 -24.3453 -49.4969 -40.7059 -39.8882 106.6373 -40.7664
# 3 -13.1722 -40.7059 46.7916 -1.4178 27.7568 -4.2774
# 4 -8.4092 -39.8882 -1.4178 37.4850 14.1382 -8.0148
# 5 56.6965 106.6373 27.7568 14.1382 -15.4997 37.7852
# 6 14.4772 -40.7664 -4.2774 -8.0148 37.7852 44.0589
#
#
#
# Elastic Compliance Matrix: (Units=1/GPa)
#
#
# Indices 1 2 3 4 5 6 
#
# 1 0.014590 -0.005226 0.000485 -0.002815 -0.002878 -0.007626
# 2 -0.005226 0.005254 -0.002521 0.000503 0.009267 -0.001522
# 3 0.000485 -0.002521 0.017265 -0.003743 0.002680 -0.003795
# 4 -0.002815 0.000503 -0.003743 0.023746 0.006844 -0.000523
# 5 -0.002878 0.009267 0.002680 0.006844 0.008617 0.003635
# 6 -0.007626 -0.001522 -0.003795 -0.000523 0.003635 0.020213
#
#
# Mechanical properties :
#
#
# Convention : Reuss Voigt Hill
#
# Bulk Modulus (GPa) = 44.27775 -9.08485 17.59645
# Shear Modulus (GPa) = 44.74758 23.40258 34.07508
#
# Velocity S-wave (km/s) = 4.18242 3.02465 3.64974
# Velocity P-wave (km/s) = 6.37437 2.94051 4.96383
#
# Compressibility (1/GPa) = 0.02258471
#
# Stress axis : x y z
#
# Youngs Moduli (GPa) = 68.54130 190.31342 57.92188
#
# Poissons Ratio (x) = 0.99462 -0.02812
# Poissons Ratio (y) = 0.35821 0.14604
# Poissons Ratio (z) = -0.03327 0.47984
#
# Static dielectric constant tensor:
#      x y z
#    x 2.095780 -0.027080 -0.047420 
#    y -0.027080 1.945900 0.003140 
#    z -0.047420 0.003140 2.053470 
# 
# From -- ./inp_files/363819.got.cif
#   From: 2010.05.17/outbox.cif.g08.bks.cpg/sg2_182_cif.got.tgz:363819.got - 2010.06.03 11:33:40.
