data_PCOD9065918
_publ_section_title
;
Structure prediction by ZEFSAII (Michael W. Deem and Ramdas Pophale) SiO2 
 PCOD9065918
Probable space group: P -1
;
_chemical_formula_sum "Si O2"
_cell_formula_units_Z 16
_cell_length_a 8.904834
_cell_length_b 21.197334
_cell_length_c 20.151556
_cell_angle_alpha 19.227085
_cell_angle_beta 36.628131
_cell_angle_gamma 36.089969
_cell_volume 722.406517
_symmetry_space_group_name_H-M "P -1"
_symmetry_group_IT_number 2
_symmetry_cell_setting 'triclinic'
loop_
_space_group_symop_operation_xyz
x,y,z
-x,-y,-z
loop_
_atom_site_type_symbol
_atom_site_label
_atom_site_fract_x
_atom_site_fract_y
_atom_site_fract_z
Si Si1 0.012149 0.840753 0.757906
Si Si2 0.708225 0.777098 0.811935
Si Si3 0.153027 0.858042 0.897921
Si Si4 0.056225 0.821942 0.443696
Si Si5 0.205548 0.521469 0.106906
Si Si6 0.414437 0.394469 0.463124
Si Si7 0.938389 0.210936 0.847115
Si Si8 0.715598 0.328787 0.292186
O O1 0.249083 0.794683 0.666222
O O2 0.760192 0.877947 0.762617
O O3 0.032160 0.638433 0.991955
O O4 0.012246 0.004170 0.649779
O O5 0.448360 0.879309 0.764921
O O6 0.989804 0.743706 0.710821
O O7 0.681751 0.556672 0.057246
O O8 0.143040 0.666648 0.048084
O O9 0.113329 0.818399 0.028121
O O10 0.961773 0.055368 0.740076
O O11 0.337496 0.680954 0.502666
O O12 0.856893 0.685198 0.651607
O O13 0.500000 0.500000 0.000000
O O14 0.301366 0.630236 0.260210
O O15 0.506818 0.319611 0.430213
O O16 0.184650 0.303091 0.659986
O O17 0.000000 0.000000 0.000000
#
# Coordination Sequence:
#
# PCOD9065918 Si02
#       8
#     2   2   2   2   2   2   2   2
#     4   9  21  41  67 108 145 192 235 282 359 439
#     4   9  18  38  72 104 143 189 229 293 360 425
#     4  11  25  47  71 109 153 188 238 299 370 424
#     4  11  27  45  71 111 147 199 234 292 366 446
#     4  11  25  44  66 103 160 195 226 286 366 439
#     4  11  25  47  74 105 140 187 256 296 363 421
#     4  11  28  50  77 107 135 186 252 322 352 416
#     4   9  18  37  72 105 142 189 235 287 359 421
#
# _framework density 22.148194
#
# number of rings (size 3 to 8) (size 9 to 14) (size 15 to 20)
#    0.750    1.000    1.250    1.500    3.500    6.000 
#    2.250    1.250    0.000    0.000    0.000    0.000 
#    0.000    0.000    0.000    0.000    0.000    0.000 
#
# Total GULP energy -89445.563394 kJ/mol
# GULP energy per Si atom -5590.347712 kJ/mol
# Density = 2.209778 g / cm^3
# Si number density = 22.148194 Si / 1000 Ang^3
#
#
#
# Elastic Constant Matrix: (Units=GPa)
#
#
# Indices 1 2 3 4 5 6 
#
# 1 95.3795 35.4985 39.8831 -17.2070 12.8404 -3.0027
# 2 35.4985 99.9699 43.7848 -14.6859 9.2855 -3.4841
# 3 39.8831 43.7848 124.4446 -21.1340 10.7582 0.9805
# 4 -17.2070 -14.6859 -21.1340 35.9200 0.8439 -2.0890
# 5 12.8404 9.2855 10.7582 0.8439 39.2311 -4.2919
# 6 -3.0027 -3.4841 0.9805 -2.0890 -4.2919 32.6470
#
#
#
# Elastic Compliance Matrix: (Units=1/GPa)
#
#
# Indices 1 2 3 4 5 6 
#
# 1 0.013772 -0.002899 -0.002431 0.004107 -0.003147 0.000879
# 2 -0.002899 0.012871 -0.003150 0.002116 -0.001149 0.001186
# 3 -0.002431 -0.003150 0.010718 0.003842 -0.001573 -0.000843
# 4 0.004107 0.002116 0.003842 0.033138 -0.003374 0.002165
# 5 -0.003147 -0.001149 -0.001573 -0.003374 0.027630 0.003052
# 6 0.000879 0.001186 -0.000843 0.002165 0.003052 0.031403
#
#
# Mechanical properties :
#
#
# Convention : Reuss Voigt Hill
#
# Bulk Modulus (GPa) = 49.01843 62.01409 55.51626
# Shear Modulus (GPa) = 32.61718 34.93479 33.77598
#
# Velocity S-wave (km/s) = 3.84171 3.97586 3.90936
# Velocity P-wave (km/s) = 6.46981 7.00978 6.74520
#
# Compressibility (1/GPa) = 0.02040049
#
# Stress axis : x y z
#
# Youngs Moduli (GPa) = 72.60917 77.69320 93.29932
#
# Poissons Ratio (x) = 0.22526 0.22683
# Poissons Ratio (y) = 0.21052 0.29389
# Poissons Ratio (z) = 0.17653 0.24473
#
# Static dielectric constant tensor:
#      x y z
#    x 1.834220 -0.023120 0.028690 
#    y -0.023120 1.799100 -0.027110 
#    z 0.028690 -0.027110 1.847020 
# 
# From -- ./inp_files/591765.got.cif
#   From: 2010.05.17/outbox.cif.g08.bks.cpg/sg2_296_cif.got.tgz:591765.got - 2010.06.03 11:33:40.
