data_PCOD9065755
_publ_section_title
;
Structure prediction by ZEFSAII (Michael W. Deem and Ramdas Pophale) SiO2 
 PCOD9065755
Probable space group: P -1
;
_chemical_formula_sum "Si O2"
_cell_formula_units_Z 11
_cell_length_a 6.816978
_cell_length_b 9.220358
_cell_length_c 7.591131
_cell_angle_alpha 111.843418
_cell_angle_beta 109.587027
_cell_angle_gamma 72.838626
_cell_volume 409.263977
_symmetry_space_group_name_H-M "P -1"
_symmetry_group_IT_number 2
_symmetry_cell_setting 'triclinic'
loop_
_space_group_symop_operation_xyz
x,y,z
-x,-y,-z
loop_
_atom_site_type_symbol
_atom_site_label
_atom_site_fract_x
_atom_site_fract_y
_atom_site_fract_z
Si Si1 0.759358 0.089549 0.940823
Si Si2 0.357858 0.934700 0.734729
Si Si3 0.906778 0.517932 0.781878
Si Si4 0.368788 0.705119 0.330565
Si Si5 0.148553 0.267491 0.456217
Si Si6 0.000000 0.000000 0.500000
O O1 0.722032 0.232513 0.855593
O O2 0.905919 0.901766 0.592650
O O3 0.657676 0.153235 0.128734
O O4 0.000000 0.000000 0.000000
O O5 0.260342 0.840780 0.503259
O O6 0.582474 0.979895 0.791371
O O7 0.162533 0.081259 0.728595
O O8 0.679398 0.464980 0.712804
O O9 0.898224 0.676507 0.735766
O O10 0.022243 0.389780 0.616307
O O11 0.000000 0.500000 0.000000
O O12 0.609643 0.718656 0.429163
#
# Coordination Sequence:
#
# PCOD9065755 Si02
#       6
#     2   2   2   2   2   1
#     4  11  26  40  67 107 154 191 239 304 364 437
#     4  11  25  42  66 112 147 186 241 298 370 434
#     4  11  28  50  73 106 146 199 247 298 367 444
#     4  12  25  45  75 104 144 198 242 301 372 431
#     4  11  27  48  75 107 150 190 242 308 366 440
#     4  12  22  48  78 106 152 190 240 310 374 432
#
# _framework density 26.877517999999998
#
# number of rings (size 3 to 8) (size 9 to 14) (size 15 to 20)
#    0.000    0.727    3.636    2.182    5.091    2.182 
#    0.000    0.909    0.000    0.000    0.000    0.000 
#    0.000    0.000    0.000    0.000    0.000    0.000 
#
# Total GULP energy -61389.770680 kJ/mol
# GULP energy per Si atom -5580.888244 kJ/mol
# Density = 2.681634 g / cm^3
# Si number density = 26.877518 Si / 1000 Ang^3
#
#
#
# Elastic Constant Matrix: (Units=GPa)
#
#
# Indices 1 2 3 4 5 6 
#
# 1 247.4427 51.0548 62.6578 -28.2698 0.0482 11.4636
# 2 51.0548 87.2170 45.3972 -28.6163 -7.6578 33.7581
# 3 62.6578 45.3972 197.8879 -56.0338 -8.7437 22.5141
# 4 -28.2698 -28.6163 -56.0338 40.1005 9.6597 -9.1502
# 5 0.0482 -7.6578 -8.7437 9.6597 53.0566 -14.4582
# 6 11.4636 33.7581 22.5141 -9.1502 -14.4582 49.0049
#
#
#
# Elastic Compliance Matrix: (Units=1/GPa)
#
#
# Indices 1 2 3 4 5 6 
#
# 1 0.004826 -0.002609 -0.000892 0.000627 -0.000344 0.001093
# 2 -0.002609 0.021357 0.000689 0.012022 -0.002510 -0.012914
# 3 -0.000892 0.000689 0.008754 0.011844 -0.001282 -0.002455
# 4 0.000627 0.012022 0.011844 0.050783 -0.007346 -0.006555
# 5 -0.000344 -0.002510 -0.001282 -0.007346 0.021631 0.007409
# 6 0.001093 -0.012914 -0.002455 -0.006555 0.007409 0.031136
#
#
# Mechanical properties :
#
#
# Convention : Reuss Voigt Hill
#
# Bulk Modulus (GPa) = 34.11275 94.52966 64.32120
# Shear Modulus (GPa) = 32.49257 53.32824 42.91041
#
# Velocity S-wave (km/s) = 3.48071 4.45918 3.99998
# Velocity P-wave (km/s) = 5.37339 7.85871 6.73174
#
# Compressibility (1/GPa) = 0.02931456
#
# Stress axis : x y z
#
# Youngs Moduli (GPa) = 207.19009 46.82369 114.23257
#
# Poissons Ratio (x) = 0.12215 0.10187
# Poissons Ratio (y) = 0.54051 -0.07872
# Poissons Ratio (z) = 0.18476 -0.03227
#
# Static dielectric constant tensor:
#      x y z
#    x 2.162600 -0.222560 -0.057420 
#    y -0.222560 2.355620 0.133750 
#    z -0.057420 0.133750 2.348560 
# 
# From -- ./inp_files/32978.got.cif
#   From: 2010.05.17/outbox.cif.g08.bks.cpg/sg2_17_cif.got.tgz:32978.got - 2010.06.03 11:33:40.
