data_PCOD9065328
_publ_section_title
;
Structure prediction by ZEFSAII (Michael W. Deem and Ramdas Pophale) SiO2 
 PCOD9065328
Probable space group: P -1
;
_chemical_formula_sum "Si O2"
_cell_formula_units_Z 16
_cell_length_a 5.603463
_cell_length_b 18.219047
_cell_length_c 9.244318
_cell_angle_alpha 80.833890
_cell_angle_beta 127.653677
_cell_angle_gamma 88.495250
_cell_volume 728.365364
_symmetry_space_group_name_H-M "P -1"
_symmetry_group_IT_number 2
_symmetry_cell_setting 'triclinic'
loop_
_space_group_symop_operation_xyz
x,y,z
-x,-y,-z
loop_
_atom_site_type_symbol
_atom_site_label
_atom_site_fract_x
_atom_site_fract_y
_atom_site_fract_z
Si Si1 0.428649 0.204971 0.327350
Si Si2 0.774314 0.192126 0.033665
Si Si3 0.409248 0.432008 0.896516
Si Si4 0.165028 0.986414 0.913642
Si Si5 0.249439 0.701202 0.747358
Si Si6 0.567758 0.728103 0.393342
Si Si7 0.317970 0.573405 0.326918
Si Si8 0.759577 0.043434 0.511948
O O1 0.542160 0.283208 0.312009
O O2 0.450623 0.206895 0.510336
O O3 0.607969 0.124007 0.376102
O O4 0.109318 0.212436 0.123588
O O5 0.821613 0.102057 0.086258
O O6 0.731947 0.225394 0.169076
O O7 0.539191 0.231402 0.812578
O O8 0.542404 0.434687 0.782568
O O9 0.045814 0.428371 0.781492
O O10 0.500000 0.500000 0.000000
O O11 0.607576 0.362322 0.072336
O O12 0.971002 0.049394 0.723826
O O13 0.500000 0.000000 0.000000
O O14 0.000000 0.000000 0.000000
O O15 0.924905 0.693931 0.560340
O O16 0.386889 0.657197 0.368828
O O17 0.500000 0.500000 0.500000
O O18 0.500000 0.000000 0.500000
O O19 0.000000 0.000000 0.500000
#
# Coordination Sequence:
#
# PCOD9065328 Si02
#       8
#     2   2   2   2   2   2   2   2
#     4  11  26  43  73 101 144 197 240 306 366 439
#     4  11  24  48  68 100 147 189 240 306 364 433
#     4  12  27  49  78 110 154 195 242 296 359 433
#     4  12  27  44  71 102 139 186 246 302 365 431
#     4  11  26  44  74 107 145 197 241 296 365 434
#     4  11  26  45  72 110 146 188 249 294 367 433
#     4  12  27  49  79 112 153 193 239 304 356 428
#     4  12  25  47  71 101 141 190 243 303 368 433
#
# _framework density 21.966996999999999
#
# number of rings (size 3 to 8) (size 9 to 14) (size 15 to 20)
#    0.000    0.500    2.500    4.500   10.500    1.000 
#    0.000    0.000    0.000    0.000    0.000    0.000 
#    0.000    0.000    0.000    0.000    0.000    0.000 
#
# Total GULP energy -89125.114871 kJ/mol
# GULP energy per Si atom -5570.319679 kJ/mol
# Density = 2.191700 g / cm^3
# Si number density = 21.966997 Si / 1000 Ang^3
#
#
#
# Elastic Constant Matrix: (Units=GPa)
#
#
# Indices 1 2 3 4 5 6 
#
# 1 136.9679 25.8895 56.6576 3.9527 12.6321 16.9205
# 2 25.8895 105.1888 14.8630 2.5145 2.6080 8.2667
# 3 56.6576 14.8630 154.1726 -17.5945 11.2053 10.2749
# 4 3.9527 2.5145 -17.5945 45.1546 5.3360 -2.7463
# 5 12.6321 2.6080 11.2053 5.3360 41.1463 7.8797
# 6 16.9205 8.2667 10.2749 -2.7463 7.8797 35.3346
#
#
#
# Elastic Compliance Matrix: (Units=1/GPa)
#
#
# Indices 1 2 3 4 5 6 
#
# 1 0.009505 -0.001549 -0.003297 -0.002099 -0.001045 -0.003161
# 2 -0.001549 0.010082 -0.000402 -0.000724 0.000353 -0.001635
# 3 -0.003297 -0.000402 0.008291 0.003737 -0.001691 -0.000071
# 4 -0.002099 -0.000724 0.003737 0.024482 -0.004057 0.002895
# 5 -0.001045 0.000353 -0.001691 -0.004057 0.026611 -0.005340
# 6 -0.003161 -0.001635 -0.000071 0.002895 -0.005340 0.031633
#
#
# Mechanical properties :
#
#
# Convention : Reuss Voigt Hill
#
# Bulk Modulus (GPa) = 57.53095 65.68328 61.60711
# Shear Modulus (GPa) = 39.40333 44.25503 41.82918
#
# Velocity S-wave (km/s) = 4.23986 4.49332 4.36843
# Velocity P-wave (km/s) = 7.08627 7.54226 7.31781
#
# Compressibility (1/GPa) = 0.01738195
#
# Stress axis : x y z
#
# Youngs Moduli (GPa) = 105.20961 99.18855 120.61888
#
# Poissons Ratio (x) = 0.15365 0.39764
# Poissons Ratio (y) = 0.16298 0.04848
# Poissons Ratio (z) = 0.34684 0.03987
#
# Static dielectric constant tensor:
#      x y z
#    x 1.992050 -0.011650 -0.071420 
#    y -0.011650 1.773390 0.130140 
#    z -0.071420 0.130140 1.871560 
# 
# From -- ./inp_files/44829.got.cif
#   From: 2010.05.17/outbox.cif.g08.bks.cpg/sg2_23_cif.got.tgz:44829.got - 2010.06.03 11:33:40.
