data_PCOD9065894
_publ_section_title
;
Structure prediction by ZEFSAII (Michael W. Deem and Ramdas Pophale) SiO2 
 PCOD9065894
Probable space group: P -1
;
_chemical_formula_sum "Si O2"
_cell_formula_units_Z 13
_cell_length_a 5.100937
_cell_length_b 18.681904
_cell_length_c 9.321552
_cell_angle_alpha 144.189793
_cell_angle_beta 73.512478
_cell_angle_gamma 106.843127
_cell_volume 495.554975
_symmetry_space_group_name_H-M "P -1"
_symmetry_group_IT_number 2
_symmetry_cell_setting 'triclinic'
loop_
_space_group_symop_operation_xyz
x,y,z
-x,-y,-z
loop_
_atom_site_type_symbol
_atom_site_label
_atom_site_fract_x
_atom_site_fract_y
_atom_site_fract_z
Si Si1 0.422173 0.695449 0.091353
Si Si2 0.296090 0.086234 0.410166
Si Si3 0.893578 0.117356 0.279777
Si Si4 0.208136 0.400191 0.308437
Si Si5 0.000000 0.500000 0.000000
Si Si6 0.255094 0.796815 0.971163
Si Si7 0.315597 0.332414 0.482345
O O1 0.600164 0.812897 0.324073
O O2 0.638116 0.598740 0.863848
O O3 0.330287 0.735830 0.012242
O O4 0.178976 0.625461 0.109359
O O5 0.018923 0.113600 0.416251
O O6 0.567092 0.105187 0.299095
O O7 0.272214 0.943183 0.224148
O O8 0.043894 0.236332 0.375526
O O9 0.000000 0.000000 0.000000
O O10 0.330907 0.416035 0.473491
O O11 0.000000 0.500000 0.500000
O O12 0.049673 0.262938 0.111984
O O13 0.250851 0.415776 0.764785
O O14 0.442725 0.750791 0.737683
#
# Coordination Sequence:
#
# PCOD9065894 Si02
#       7
#     2   2   2   2   1   2   2
#     4  11  27  47  72 115 147 201 251 322 379 455
#     4  12  27  46  82 113 157 196 259 315 385 455
#     4  12  25  47  75 117 154 203 249 315 386 456
#     4  11  25  47  74 105 149 203 259 306 384 456
#     4  12  24  48  74 102 156 194 262 314 380 444
#     4  11  25  47  75 106 152 199 248 314 387 459
#     4  11  25  43  74 105 148 198 253 313 375 451
#
# _framework density 26.233217
#
# number of rings (size 3 to 8) (size 9 to 14) (size 15 to 20)
#    0.000    0.615    3.077    3.692    6.462    4.308 
#    0.000    4.615    0.000    0.000    0.000    0.000 
#    0.000    0.000    0.000    0.000    0.000    0.000 
#
# Total GULP energy -72393.387826 kJ/mol
# GULP energy per Si atom -5568.722140 kJ/mol
# Density = 2.617351 g / cm^3
# Si number density = 26.233217 Si / 1000 Ang^3
#
#
#
# Elastic Constant Matrix: (Units=GPa)
#
#
# Indices 1 2 3 4 5 6 
#
# 1 47.7125 14.7568 32.7804 -8.9925 5.7493 5.7132
# 2 14.7568 138.2980 53.7380 4.2676 -9.9293 29.5177
# 3 32.7804 53.7380 192.1030 -3.0165 -5.0379 14.9096
# 4 -8.9925 4.2676 -3.0165 52.0707 12.4308 -2.1129
# 5 5.7493 -9.9293 -5.0379 12.4308 43.2312 -1.0615
# 6 5.7132 29.5177 14.9096 -2.1129 -1.0615 51.3247
#
#
#
# Elastic Compliance Matrix: (Units=1/GPa)
#
#
# Indices 1 2 3 4 5 6 
#
# 1 0.026139 -0.001710 -0.003998 0.005835 -0.006029 -0.000649
# 2 -0.001710 0.009419 -0.001941 -0.001996 0.002623 -0.004690
# 3 -0.003998 -0.001941 0.006474 -0.000395 0.000946 -0.000316
# 4 0.005835 -0.001996 -0.000395 0.022233 -0.007640 0.001371
# 5 -0.006029 0.002623 0.000946 -0.007640 0.026821 -0.000872
# 6 -0.000649 -0.004690 -0.000316 0.001371 -0.000872 0.022384
#
#
# Mechanical properties :
#
#
# Convention : Reuss Voigt Hill
#
# Bulk Modulus (GPa) = 37.40781 64.51821 50.96301
# Shear Modulus (GPa) = 36.31655 47.78123 42.04889
#
# Velocity S-wave (km/s) = 3.72475 4.27242 4.00795
# Velocity P-wave (km/s) = 5.72617 6.99897 6.39432
#
# Compressibility (1/GPa) = 0.02673239
#
# Stress axis : x y z
#
# Youngs Moduli (GPa) = 38.25769 106.17238 154.46456
#
# Poissons Ratio (x) = 0.18154 0.61755
# Poissons Ratio (y) = 0.06542 0.29989
# Poissons Ratio (z) = 0.15296 0.20613
#
# Static dielectric constant tensor:
#      x y z
#    x 2.187010 -0.025410 0.003090 
#    y -0.025410 2.036330 -0.016060 
#    z 0.003090 -0.016060 2.134230 
# 
# From -- ./inp_files/59922.got.cif
#   From: 2010.05.17/outbox.cif.g08.bks.cpg/sg2_30_cif.got.tgz:59922.got - 2010.06.03 11:33:40.
