data_PCOD9065951
_publ_section_title
;
Structure prediction by ZEFSAII (Michael W. Deem and Ramdas Pophale) SiO2 
 PCOD9065951
Probable space group: P -1
;
_chemical_formula_sum "Si O2"
_cell_formula_units_Z 16
_cell_length_a 9.427325
_cell_length_b 25.756670
_cell_length_c 8.760613
_cell_angle_alpha 142.569562
_cell_angle_beta 68.095438
_cell_angle_gamma 138.994391
_cell_volume 698.667370
_symmetry_space_group_name_H-M "P -1"
_symmetry_group_IT_number 2
_symmetry_cell_setting 'triclinic'
loop_
_space_group_symop_operation_xyz
x,y,z
-x,-y,-z
loop_
_atom_site_type_symbol
_atom_site_label
_atom_site_fract_x
_atom_site_fract_y
_atom_site_fract_z
Si Si1 0.905923 0.840253 0.774702
Si Si2 0.905192 0.860594 0.178649
Si Si3 0.502719 0.568783 0.794793
Si Si4 0.163223 0.655774 0.084906
Si Si5 0.216618 0.365474 0.870895
Si Si6 0.606466 0.862453 0.883364
Si Si7 0.394004 0.042966 0.582429
Si Si8 0.062842 0.624681 0.407688
O O1 0.929558 0.768184 0.491327
O O2 0.654563 0.782392 0.686906
O O3 0.880370 0.822219 0.923484
O O4 0.177374 0.012345 0.034563
O O5 0.627020 0.714318 0.027105
O O6 0.000000 0.000000 0.500000
O O7 0.136738 0.910238 0.275694
O O8 0.500000 0.500000 0.500000
O O9 0.199914 0.439569 0.664578
O O10 0.710679 0.633210 0.987709
O O11 0.408016 0.808695 0.252818
O O12 0.183933 0.666699 0.287518
O O13 0.932294 0.613820 0.026397
O O14 0.056339 0.511236 0.771467
O O15 0.500000 0.500000 0.000000
O O16 0.317991 0.764874 0.730296
O O17 0.678932 0.934424 0.186571
O O18 0.500000 0.000000 0.500000
#
# Coordination Sequence:
#
# PCOD9065951 Si02
#       8
#     2   2   2   2   2   2   2   2
#     4  11  25  45  75 105 140 190 243 296 362 433
#     4  12  25  47  73 105 144 190 239 296 361 430
#     4  12  28  47  73 110 147 190 245 297 363 434
#     4  11  25  46  71 105 142 190 238 295 365 428
#     4  12  24  47  73 103 144 187 241 293 364 431
#     4  11  25  44  69 105 143 185 242 293 363 425
#     4  12  26  46  72 106 141 185 237 307 359 423
#     4  11  26  46  71 104 145 192 235 297 359 431
#
# _framework density 22.900739000000002
#
# number of rings (size 3 to 8) (size 9 to 14) (size 15 to 20)
#    0.000    0.500    2.500    5.250    7.000    0.500 
#    0.000    2.500    0.000    0.000    0.000    0.000 
#    0.000    0.000    0.000    0.000    0.000    0.000 
#
# Total GULP energy -89386.848852 kJ/mol
# GULP energy per Si atom -5586.678053 kJ/mol
# Density = 2.284862 g / cm^3
# Si number density = 22.900739 Si / 1000 Ang^3
#
#
#
# Elastic Constant Matrix: (Units=GPa)
#
#
# Indices 1 2 3 4 5 6 
#
# 1 102.0221 0.0269 11.4520 5.2614 11.4539 -12.0883
# 2 0.0269 101.4079 5.6036 19.2842 9.1985 -16.9126
# 3 11.4520 5.6036 59.2319 3.0318 14.7949 -17.0816
# 4 5.2614 19.2842 3.0318 35.5426 1.0665 5.3342
# 5 11.4539 9.1985 14.7949 1.0665 43.1031 1.1143
# 6 -12.0883 -16.9126 -17.0816 5.3342 1.1143 34.5740
#
#
#
# Elastic Compliance Matrix: (Units=1/GPa)
#
#
# Indices 1 2 3 4 5 6 
#
# 1 0.010990 0.001871 0.000353 -0.003403 -0.003501 0.005570
# 2 0.001871 0.013596 0.002915 -0.009319 -0.004436 0.010326
# 3 0.000353 0.002915 0.023097 -0.005452 -0.008873 0.014088
# 4 -0.003403 -0.009319 -0.005452 0.036158 0.004236 -0.014157
# 5 -0.003501 -0.004436 -0.008873 0.004236 0.028259 -0.009342
# 6 0.005570 0.010326 0.014088 -0.014157 -0.009342 0.045368
#
#
# Mechanical properties :
#
#
# Convention : Reuss Voigt Hill
#
# Bulk Modulus (GPa) = 17.25284 32.98079 25.11681
# Shear Modulus (GPa) = 30.02817 39.01590 34.52204
#
# Velocity S-wave (km/s) = 3.62502 4.13206 3.88682
# Velocity P-wave (km/s) = 5.00711 6.09903 5.57984
#
# Compressibility (1/GPa) = 0.05796148
#
# Stress axis : x y z
#
# Youngs Moduli (GPa) = 90.99005 73.54961 43.29613
#
# Poissons Ratio (x) = -0.13763 -0.01529
# Poissons Ratio (y) = -0.17027 -0.12620
# Poissons Ratio (z) = -0.03213 -0.21438
#
# Static dielectric constant tensor:
#      x y z
#    x 1.941820 -0.028350 -0.029960 
#    y -0.028350 1.839230 0.063490 
#    z -0.029960 0.063490 1.785440 
# 
# From -- ./inp_files/226640.got.cif
#   From: 2010.05.17/outbox.cif.g08.bks.cpg/sg2_114_cif.got.tgz:226640.got - 2010.06.03 11:33:40.
