data_PCOD9065263
_publ_section_title
;
Structure prediction by ZEFSAII (Michael W. Deem and Ramdas Pophale) SiO2 
 PCOD9065263
Probable space group: P -1
;
_chemical_formula_sum "Si O2"
_cell_formula_units_Z 16
_cell_length_a 9.630915
_cell_length_b 20.828569
_cell_length_c 7.872243
_cell_angle_alpha 84.866760
_cell_angle_beta 49.258150
_cell_angle_gamma 124.069951
_cell_volume 682.491236
_symmetry_space_group_name_H-M "P -1"
_symmetry_group_IT_number 2
_symmetry_cell_setting 'triclinic'
loop_
_space_group_symop_operation_xyz
x,y,z
-x,-y,-z
loop_
_atom_site_type_symbol
_atom_site_label
_atom_site_fract_x
_atom_site_fract_y
_atom_site_fract_z
Si Si1 0.764537 0.244050 0.251723
Si Si2 0.651434 0.366271 0.829368
Si Si3 0.822547 0.057716 0.154838
Si Si4 0.641171 0.220563 0.974943
Si Si5 0.280038 0.290071 0.842974
Si Si6 0.650592 0.603838 0.757740
Si Si7 0.746848 0.916943 0.014654
Si Si8 0.794325 0.505239 0.183643
O O1 0.512891 0.182166 0.615434
O O2 0.623967 0.190063 0.188497
O O3 0.985311 0.249693 0.142994
O O4 0.982395 0.369083 0.016157
O O5 0.654935 0.302528 0.948977
O O6 0.480649 0.301713 0.803254
O O7 0.000000 0.500000 0.500000
O O8 0.414873 0.351181 0.095270
O O9 0.500000 0.000000 0.500000
O O10 0.792229 0.004095 0.023877
O O11 0.099995 0.191695 0.876435
O O12 0.957120 0.045289 0.189871
O O13 0.377194 0.123368 0.069791
O O14 0.983161 0.299628 0.604765
O O15 0.550524 0.420280 0.549199
O O16 0.440433 0.552472 0.771331
O O17 0.500000 0.500000 0.000000
O O18 0.000000 0.500000 0.000000
#
# Coordination Sequence:
#
# PCOD9065263 Si02
#       8
#     2   2   2   2   2   2   2   2
#     4  12  25  45  72 107 148 187 237 298 359 434
#     4  12  24  40  65 102 143 186 237 290 351 430
#     4  11  24  47  77 103 137 192 242 296 362 420
#     4  12  25  45  68 105 140 185 239 296 358 421
#     4  12  23  44  69  99 146 187 231 296 357 416
#     4  12  24  39  63  97 143 191 236 283 351 426
#     4  11  25  48  78 101 138 191 242 294 364 425
#     4  12  25  41  64 103 145 189 234 283 360 434
#
# _framework density 23.443525000000001
#
# number of rings (size 3 to 8) (size 9 to 14) (size 15 to 20)
#    0.000    0.250    5.000    5.625    0.000    0.000 
#    0.000    3.125    2.750    0.000    0.000    0.000 
#    0.000    0.000    0.000    0.000    0.000    0.000 
#
# Total GULP energy -89469.321664 kJ/mol
# GULP energy per Si atom -5591.832604 kJ/mol
# Density = 2.339017 g / cm^3
# Si number density = 23.443525 Si / 1000 Ang^3
#
#
#
# Elastic Constant Matrix: (Units=GPa)
#
#
# Indices 1 2 3 4 5 6 
#
# 1 100.6911 6.7949 25.1181 5.8685 -37.0481 12.9493
# 2 6.7949 115.9271 26.4547 -13.4785 -19.9712 -5.3693
# 3 25.1181 26.4547 97.8585 -3.6075 -14.6834 -15.0718
# 4 5.8685 -13.4785 -3.6075 39.7184 -11.2853 -6.9975
# 5 -37.0481 -19.9712 -14.6834 -11.2853 37.1127 4.2395
# 6 12.9493 -5.3693 -15.0718 -6.9975 4.2395 49.6816
#
#
#
# Elastic Compliance Matrix: (Units=1/GPa)
#
#
# Indices 1 2 3 4 5 6 
#
# 1 0.019141 0.003328 -0.003650 0.002702 0.021094 -0.007156
# 2 0.003328 0.011438 -0.002195 0.006117 0.010506 -0.000332
# 3 -0.003650 -0.002195 0.012575 0.001822 0.000159 0.004772
# 4 0.002702 0.006117 0.001822 0.032240 0.016094 0.003677
# 5 0.021094 0.010506 0.000159 0.016094 0.059426 -0.007119
# 6 -0.007156 -0.000332 0.004772 0.003677 -0.007119 0.024531
#
#
# Mechanical properties :
#
#
# Convention : Reuss Voigt Hill
#
# Bulk Modulus (GPa) = 26.23395 47.91245 37.07320
# Shear Modulus (GPa) = 28.23374 42.37647 35.30511
#
# Velocity S-wave (km/s) = 3.47411 4.25620 3.88489
# Velocity P-wave (km/s) = 5.22563 6.68097 5.99761
#
# Compressibility (1/GPa) = 0.03811855
#
# Stress axis : x y z
#
# Youngs Moduli (GPa) = 52.24257 87.42918 79.52082
#
# Poissons Ratio (x) = -0.29094 0.29027
# Poissons Ratio (y) = -0.17385 0.17458
# Poissons Ratio (z) = 0.19070 0.19194
#
# Static dielectric constant tensor:
#      x y z
#    x 1.803760 -0.009830 -0.085330 
#    y -0.009830 1.894740 -0.013380 
#    z -0.085330 -0.013380 1.807840 
# 
# From -- ./inp_files/223577.got.cif
#   From: 2010.05.17/outbox.cif.g08.bks.cpg/sg2_112_cif.got.tgz:223577.got - 2010.06.03 11:33:40.
