data_PCOD9065430
_publ_section_title
;
Structure prediction by ZEFSAII (Michael W. Deem and Ramdas Pophale) SiO2 
 PCOD9065430
Probable space group: P -1
;
_chemical_formula_sum "Si O2"
_cell_formula_units_Z 15
_cell_length_a 14.770004
_cell_length_b 20.547478
_cell_length_c 11.214264
_cell_angle_alpha 148.026236
_cell_angle_beta 140.726138
_cell_angle_gamma 18.145231
_cell_volume 550.598962
_symmetry_space_group_name_H-M "P -1"
_symmetry_group_IT_number 2
_symmetry_cell_setting 'triclinic'
loop_
_space_group_symop_operation_xyz
x,y,z
-x,-y,-z
loop_
_atom_site_type_symbol
_atom_site_label
_atom_site_fract_x
_atom_site_fract_y
_atom_site_fract_z
Si Si1 0.861831 0.936688 0.625510
Si Si2 0.348691 0.405472 0.988642
Si Si3 0.842014 0.676114 0.228129
Si Si4 0.409933 0.310620 0.528644
Si Si5 0.500000 0.000000 0.000000
Si Si6 0.231165 0.127590 0.180748
Si Si7 0.670133 0.227302 0.262527
Si Si8 0.691459 0.300005 0.655142
O O1 0.952005 0.731624 0.439756
O O2 0.100022 0.854979 0.695568
O O3 0.623051 0.110815 0.544515
O O4 0.672370 0.130760 0.843862
O O5 0.390414 0.414298 0.181601
O O6 0.253946 0.596025 0.116264
O O7 0.132760 0.450214 0.842012
O O8 0.490060 0.951068 0.269678
O O9 0.000000 0.500000 0.000000
O O10 0.497073 0.382188 0.684686
O O11 0.069312 0.577016 0.633703
O O12 0.483432 0.162297 0.266219
O O13 0.630479 0.929378 0.889412
O O14 0.186828 0.014305 0.951153
O O15 0.575627 0.355822 0.491402
O O16 0.000000 0.000000 0.500000
#
# Coordination Sequence:
#
# PCOD9065430 Si02
#       8
#     2   2   2   2   1   2   2   2
#     4  12  25  46  77 113 152 201 262 317 384 465
#     4  11  27  47  73 109 155 204 253 323 383 467
#     4  11  26  50  72 107 148 204 263 314 387 467
#     4  12  27  46  78 117 157 202 265 319 395 465
#     4  12  24  48  72 110 154 208 244 330 390 452
#     4  11  26  48  75 114 155 207 256 325 392 466
#     4  11  24  48  73 111 155 200 261 308 399 452
#     4  12  25  46  78 112 151 204 260 322 383 459
#
# _framework density 27.243058000000001
#
# number of rings (size 3 to 8) (size 9 to 14) (size 15 to 20)
#    0.000    0.533    4.000    3.200    1.867    4.267 
#    4.800    0.000    0.000    0.000    0.000    0.000 
#    0.000    0.000    0.000    0.000    0.000    0.000 
#
# Total GULP energy -83982.063693 kJ/mol
# GULP energy per Si atom -5598.804246 kJ/mol
# Density = 2.718105 g / cm^3
# Si number density = 27.243058 Si / 1000 Ang^3
#
#
#
# Elastic Constant Matrix: (Units=GPa)
#
#
# Indices 1 2 3 4 5 6 
#
# 1 202.7173 21.1854 51.8345 0.1841 50.0310 -16.3927
# 2 21.1854 91.3286 15.6308 -12.8933 8.1961 -9.8106
# 3 51.8345 15.6308 123.1030 9.3437 43.5388 -2.6428
# 4 0.1841 -12.8933 9.3437 30.8012 4.3855 -1.2353
# 5 50.0310 8.1961 43.5388 4.3855 71.3330 -5.9164
# 6 -16.3927 -9.8106 -2.6428 -1.2353 -5.9164 36.6833
#
#
#
# Elastic Compliance Matrix: (Units=1/GPa)
#
#
# Indices 1 2 3 4 5 6 
#
# 1 0.006362 -0.000610 -0.001406 0.000700 -0.003407 0.002053
# 2 -0.000610 0.012561 -0.001688 0.005912 -0.000087 0.003150
# 3 -0.001406 -0.001688 0.011099 -0.003334 -0.005495 -0.001279
# 4 0.000700 0.005912 -0.003334 0.036219 -0.001139 0.002690
# 5 -0.003407 -0.000087 -0.005495 -0.001139 0.019945 0.001237
# 6 0.002053 0.003150 -0.001279 0.002690 0.001237 0.029218
#
#
# Mechanical properties :
#
#
# Convention : Reuss Voigt Hill
#
# Bulk Modulus (GPa) = 44.22065 66.05004 55.13534
# Shear Modulus (GPa) = 38.35824 49.66336 44.01080
#
# Velocity S-wave (km/s) = 3.75640 4.27426 4.02367
# Velocity P-wave (km/s) = 5.92294 6.97542 6.47061
#
# Compressibility (1/GPa) = 0.02261387
#
# Stress axis : x y z
#
# Youngs Moduli (GPa) = 157.17303 79.61240 90.10046
#
# Poissons Ratio (x) = 0.04858 0.12664
# Poissons Ratio (y) = 0.09590 0.15212
# Poissons Ratio (z) = 0.22092 0.13441
#
# Static dielectric constant tensor:
#      x y z
#    x 2.120550 0.038210 0.091120 
#    y 0.038210 2.120180 0.152580 
#    z 0.091120 0.152580 2.205320 
# 
# From -- ./inp_files/457774.got.cif
#   From: 2010.05.17/outbox.cif.g08.bks.cpg/sg2_229_cif.got.tgz:457774.got - 2010.06.03 11:33:40.
