data_PCOD9065631
_publ_section_title
;
Structure prediction by ZEFSAII (Michael W. Deem and Ramdas Pophale) SiO2 
 PCOD9065631
Probable space group: P -1
;
_chemical_formula_sum "Si O2"
_cell_formula_units_Z 12
_cell_length_a 9.830772
_cell_length_b 9.746632
_cell_length_c 11.890718
_cell_angle_alpha 65.892260
_cell_angle_beta 52.153072
_cell_angle_gamma 32.604221
_cell_volume 468.775639
_symmetry_space_group_name_H-M "P -1"
_symmetry_group_IT_number 2
_symmetry_cell_setting 'triclinic'
loop_
_space_group_symop_operation_xyz
x,y,z
-x,-y,-z
loop_
_atom_site_type_symbol
_atom_site_label
_atom_site_fract_x
_atom_site_fract_y
_atom_site_fract_z
Si Si1 0.137294 0.289690 0.093950
Si Si2 0.157601 0.997899 0.508369
Si Si3 0.265884 0.213054 0.741150
Si Si4 0.076551 0.879748 0.804001
Si Si5 0.962154 0.377060 0.629553
Si Si6 0.651885 0.180274 0.087822
O O1 0.965222 0.256661 0.175480
O O2 0.003240 0.473365 0.208020
O O3 0.000000 0.500000 0.000000
O O4 0.500000 0.000000 0.000000
O O5 0.431090 0.904915 0.355764
O O6 0.238778 0.850526 0.631136
O O7 0.000000 0.000000 0.500000
O O8 0.920483 0.282353 0.587475
O O9 0.242868 0.164190 0.643386
O O10 0.260799 0.061170 0.865589
O O11 0.214183 0.815560 0.878450
O O12 0.735370 0.170621 0.921808
O O13 0.692362 0.564159 0.790731
O O14 0.000000 0.500000 0.500000
#
# Coordination Sequence:
#
# PCOD9065631 Si02
#       6
#     2   2   2   2   2   2
#     4  12  29  50  81 116 164 211 265 336 411 481
#     4  12  29  47  75 118 163 209 264 335 405 485
#     4  12  26  51  76 109 156 210 269 322 411 486
#     4  11  26  48  74 116 159 200 273 334 399 476
#     4  12  25  46  80 106 156 208 271 323 407 486
#     4  11  24  49  79 113 146 209 265 337 399 477
#
# _framework density 25.598600999999999
#
# number of rings (size 3 to 8) (size 9 to 14) (size 15 to 20)
#    0.000    0.333    5.000    2.500    7.000    1.333 
#    0.000    0.000    0.000    0.000    0.000    0.000 
#    0.000    0.000    0.000    0.000    0.000    0.000 
#
# Total GULP energy -66990.671790 kJ/mol
# GULP energy per Si atom -5582.555982 kJ/mol
# Density = 2.554034 g / cm^3
# Si number density = 25.598601 Si / 1000 Ang^3
#
#
#
# Elastic Constant Matrix: (Units=GPa)
#
#
# Indices 1 2 3 4 5 6 
#
# 1 210.9944 42.9939 31.4738 4.7397 8.7465 42.3718
# 2 42.9939 95.4574 19.8885 11.2184 -9.6246 22.7536
# 3 31.4738 19.8885 87.2635 9.5209 -4.3661 6.6352
# 4 4.7397 11.2184 9.5209 56.8157 8.5778 2.1236
# 5 8.7465 -9.6246 -4.3661 8.5778 46.0975 -1.6493
# 6 42.3718 22.7536 6.6352 2.1236 -1.6493 41.9735
#
#
#
# Elastic Compliance Matrix: (Units=1/GPa)
#
#
# Indices 1 2 3 4 5 6 
#
# 1 0.006496 -0.001503 -0.001738 0.000559 -0.002014 -0.005575
# 2 -0.001503 0.013362 -0.001672 -0.002521 0.003199 -0.005208
# 3 -0.001738 -0.001672 0.012694 -0.001919 0.001569 0.000813
# 4 0.000559 -0.002521 -0.001919 0.019032 -0.004357 -0.000028
# 5 -0.002014 0.003199 0.001569 -0.004357 0.023746 0.001205
# 6 -0.005575 -0.005208 0.000813 -0.000028 0.001205 0.032196
#
#
# Mechanical properties :
#
#
# Convention : Reuss Voigt Hill
#
# Bulk Modulus (GPa) = 44.00606 64.71419 54.36013
# Shear Modulus (GPa) = 40.02363 48.93459 44.47911
#
# Velocity S-wave (km/s) = 3.95841 4.37694 4.17293
# Velocity P-wave (km/s) = 6.17415 7.13293 6.67079
#
# Compressibility (1/GPa) = 0.02272414
#
# Stress axis : x y z
#
# Youngs Moduli (GPa) = 153.95111 74.84109 78.78013
#
# Poissons Ratio (x) = 0.11252 0.13692
# Poissons Ratio (y) = 0.23145 0.13171
# Poissons Ratio (z) = 0.26757 0.12513
#
# Static dielectric constant tensor:
#      x y z
#    x 2.121020 -0.108860 -0.054130 
#    y -0.108860 2.251720 0.077520 
#    z -0.054130 0.077520 2.169670 
# 
# From -- ./inp_files/381895.got.cif
#   From: 2010.05.17/outbox.cif.g08.bks.cpg/sg2_191_cif.got.tgz:381895.got - 2010.06.03 11:33:40.
