data_PCOD9065004
_publ_section_title
;
Structure prediction by ZEFSAII (Michael W. Deem and Ramdas Pophale) SiO2 
 PCOD9065004
Probable space group: P -1
;
_chemical_formula_sum "Si O2"
_cell_formula_units_Z 12
_cell_length_a 19.548220
_cell_length_b 11.538552
_cell_length_c 17.422450
_cell_angle_alpha 33.067234
_cell_angle_beta 21.550602
_cell_angle_gamma 22.815536
_cell_volume 554.581002
_symmetry_space_group_name_H-M "P -1"
_symmetry_group_IT_number 2
_symmetry_cell_setting 'triclinic'
loop_
_space_group_symop_operation_xyz
x,y,z
-x,-y,-z
loop_
_atom_site_type_symbol
_atom_site_label
_atom_site_fract_x
_atom_site_fract_y
_atom_site_fract_z
Si Si1 0.479048 0.254200 0.847442
Si Si2 0.341392 0.845783 0.457482
Si Si3 0.387373 0.435947 0.372661
Si Si4 0.858082 0.790981 0.181047
Si Si5 0.746285 0.277855 0.809145
Si Si6 0.741404 0.842425 0.099205
O O1 0.606434 0.147551 0.689631
O O2 0.608725 0.342075 0.711297
O O3 0.169459 0.563111 0.992116
O O4 0.500000 0.000000 0.000000
O O5 0.500000 0.500000 0.500000
O O6 0.480555 0.913147 0.325210
O O7 0.027900 0.088050 0.661131
O O8 0.220087 0.387456 0.615750
O O9 0.281898 0.562523 0.326478
O O10 0.680615 0.096065 0.246681
O O11 0.779359 0.890054 0.119688
O O12 0.500000 0.500000 0.000000
O O13 0.737395 0.034747 0.935335
O O14 0.000000 0.500000 0.000000
#
# Coordination Sequence:
#
# PCOD9065004 Si02
#       6
#     2   2   2   2   2   2
#     4  12  25  43  71 102 136 179 233 283 342 409
#     4  12  25  42  72 103 132 180 230 277 344 403
#     4  11  26  44  68  99 141 184 228 282 346 410
#     4  11  24  47  67 100 141 185 225 282 347 408
#     4  12  26  47  67 104 139 177 231 285 344 406
#     4  12  23  45  74  99 139 180 229 284 340 408
#
# _framework density 21.637955999999999
#
# number of rings (size 3 to 8) (size 9 to 14) (size 15 to 20)
#    0.000    0.333    5.000    3.500    0.000    2.000 
#    6.000    0.000    0.000    0.000    0.000    0.000 
#    0.000    0.000    0.000    0.000    0.000    0.000 
#
# Total GULP energy -67145.808191 kJ/mol
# GULP energy per Si atom -5595.484016 kJ/mol
# Density = 2.158871 g / cm^3
# Si number density = 21.637956 Si / 1000 Ang^3
#
#
#
# Elastic Constant Matrix: (Units=GPa)
#
#
# Indices 1 2 3 4 5 6 
#
# 1 60.2308 8.6577 17.1690 -3.9163 -1.6814 -12.3593
# 2 8.6577 93.4626 31.4272 -8.3301 -4.3261 -14.5768
# 3 17.1690 31.4272 106.2027 7.0000 -5.2476 -21.1796
# 4 -3.9163 -8.3301 7.0000 54.4276 -10.6473 -2.1892
# 5 -1.6814 -4.3261 -5.2476 -10.6473 46.9979 0.7099
# 6 -12.3593 -14.5768 -21.1796 -2.1892 0.7099 33.5368
#
#
#
# Elastic Compliance Matrix: (Units=1/GPa)
#
#
# Indices 1 2 3 4 5 6 
#
# 1 0.018475 0.000049 -0.001953 0.001976 0.000809 0.005708
# 2 0.000049 0.012630 -0.003124 0.002757 0.001385 0.003686
# 3 -0.001953 -0.003124 0.011853 -0.001839 0.000470 0.005278
# 4 0.001976 0.002757 -0.001839 0.020165 0.004657 0.001983
# 5 0.000809 0.001385 0.000470 0.004657 0.022526 0.001024
# 6 0.005708 0.003686 0.005278 0.001983 0.001024 0.036965
#
#
# Mechanical properties :
#
#
# Convention : Reuss Voigt Hill
#
# Bulk Modulus (GPa) = 30.39267 41.60044 35.99655
# Shear Modulus (GPa) = 34.81020 40.50193 37.65606
#
# Velocity S-wave (km/s) = 4.01528 4.33112 4.17619
# Velocity P-wave (km/s) = 5.96432 6.65424 6.31871
#
# Compressibility (1/GPa) = 0.03290267
#
# Stress axis : x y z
#
# Youngs Moduli (GPa) = 54.12759 79.17683 84.36643
#
# Poissons Ratio (x) = -0.00390 0.16478
# Poissons Ratio (y) = -0.00266 0.26353
# Poissons Ratio (z) = 0.10572 0.24732
#
# Static dielectric constant tensor:
#      x y z
#    x 1.873360 -0.121060 -0.076320 
#    y -0.121060 1.959470 0.064100 
#    z -0.076320 0.064100 1.804020 
# 
# From -- ./inp_files/35887.got.cif
#   From: 2010.05.17/outbox.cif.g08.bks.cpg/sg2_18_cif.got.tgz:35887.got - 2010.06.03 11:33:40.
