data_PCOD9065182
_publ_section_title
;
Structure prediction by ZEFSAII (Michael W. Deem and Ramdas Pophale) SiO2 
 PCOD9065182
Probable space group: P -1
;
_chemical_formula_sum "Si O2"
_cell_formula_units_Z 14
_cell_length_a 16.024966
_cell_length_b 10.549527
_cell_length_c 10.941688
_cell_angle_alpha 39.515952
_cell_angle_beta 143.751575
_cell_angle_gamma 148.019134
_cell_volume 556.272837
_symmetry_space_group_name_H-M "P -1"
_symmetry_group_IT_number 2
_symmetry_cell_setting 'triclinic'
loop_
_space_group_symop_operation_xyz
x,y,z
-x,-y,-z
loop_
_atom_site_type_symbol
_atom_site_label
_atom_site_fract_x
_atom_site_fract_y
_atom_site_fract_z
Si Si1 0.786718 0.957589 0.650536
Si Si2 0.915037 0.085512 0.957730
Si Si3 0.180918 0.258764 0.557563
Si Si4 0.516689 0.430476 0.710111
Si Si5 0.799471 0.301616 0.862006
Si Si6 0.586977 0.132669 0.173093
Si Si7 0.686268 0.552757 0.160364
O O1 0.607378 0.701631 0.674943
O O2 0.892822 0.149298 0.745897
O O3 0.720859 0.056956 0.395443
O O4 0.899228 0.853772 0.823867
O O5 0.827063 0.157042 0.897829
O O6 0.801986 0.788841 0.035380
O O7 0.332095 0.243034 0.699048
O O8 0.225241 0.499874 0.364568
O O9 0.203514 0.336831 0.666923
O O10 0.000000 0.000000 0.500000
O O11 0.500000 0.500000 0.500000
O O12 0.608579 0.299039 0.957764
O O13 0.618815 0.101050 0.872139
O O14 0.000000 0.500000 0.000000
O O15 0.646491 0.311440 0.229000
O O16 0.500000 0.500000 0.000000
#
# Coordination Sequence:
#
# PCOD9065182 Si02
#       7
#     2   2   2   2   2   2   2
#     4  11  26  47  74 109 157 202 259 312 399 460
#     4  11  24  47  73 113 155 199 253 331 379 468
#     4  12  26  48  76 116 153 202 260 327 390 459
#     4  12  27  48  74 107 160 203 258 319 392 465
#     4  12  26  46  78 113 154 200 267 318 393 460
#     4  12  25  49  80 114 146 211 264 315 394 465
#     4  12  22  43  80 108 150 195 261 322 380 454
#
# _framework density 25.167505999999999
#
# number of rings (size 3 to 8) (size 9 to 14) (size 15 to 20)
#    0.000    0.286    5.714    2.571    4.000    2.286 
#    2.571    0.000    0.000    0.000    0.000    0.000 
#    0.000    0.000    0.000    0.000    0.000    0.000 
#
# Total GULP energy -78093.326138 kJ/mol
# GULP energy per Si atom -5578.094724 kJ/mol
# Density = 2.511022 g / cm^3
# Si number density = 25.167506 Si / 1000 Ang^3
#
#
#
# Elastic Constant Matrix: (Units=GPa)
#
#
# Indices 1 2 3 4 5 6 
#
# 1 77.1190 20.4145 29.9776 8.8066 -6.2917 -24.4898
# 2 20.4145 123.5979 44.2738 6.6622 -8.6335 -11.6470
# 3 29.9776 44.2738 186.4641 -17.0659 -12.2162 0.7054
# 4 8.8066 6.6622 -17.0659 47.5141 -2.3867 -0.5377
# 5 -6.2917 -8.6335 -12.2162 -2.3867 53.7564 4.5080
# 6 -24.4898 -11.6470 0.7054 -0.5377 4.5080 34.0841
#
#
#
# Elastic Compliance Matrix: (Units=1/GPa)
#
#
# Indices 1 2 3 4 5 6 
#
# 1 0.019320 -0.000396 -0.003484 -0.004619 0.000049 0.013739
# 2 -0.000396 0.009411 -0.002327 -0.002019 0.000606 0.002867
# 3 -0.003484 -0.002327 0.006887 0.003468 0.001235 -0.003549
# 4 -0.004619 -0.002019 0.003468 0.023452 0.001290 -0.003881
# 5 0.000049 0.000606 0.001235 0.001290 0.019237 -0.002307
# 6 0.013739 0.002867 -0.003549 -0.003881 -0.002307 0.040508
#
#
# Mechanical properties :
#
#
# Convention : Reuss Voigt Hill
#
# Bulk Modulus (GPa) = 43.09305 64.05698 53.57502
# Shear Modulus (GPa) = 35.98054 46.57194 41.27624
#
# Velocity S-wave (km/s) = 3.78516 4.30639 4.05416
# Velocity P-wave (km/s) = 6.02187 7.08760 6.57636
#
# Compressibility (1/GPa) = 0.02320560
#
# Stress axis : x y z
#
# Youngs Moduli (GPa) = 51.75865 106.25834 145.19717
#
# Poissons Ratio (x) = 0.04210 0.50580
# Poissons Ratio (y) = 0.02051 0.33784
# Poissons Ratio (z) = 0.18030 0.24724
#
# Static dielectric constant tensor:
#      x y z
#    x -1.041850 -0.599720 4.861810 
#    y -0.599720 1.816800 0.780460 
#    z 4.861810 0.780460 -7.086540 
# 
# From -- ./inp_files/465039.got.cif
#   From: 2010.05.17/outbox.cif.g08.bks.cpg/sg2_233_cif.got.tgz:465039.got - 2010.06.03 11:33:40.
