data_PCOD9065596
_publ_section_title
;
Structure prediction by ZEFSAII (Michael W. Deem and Ramdas Pophale) SiO2 
 PCOD9065596
Probable space group: P -1
;
_chemical_formula_sum "Si O2"
_cell_formula_units_Z 12
_cell_length_a 5.678751
_cell_length_b 9.594373
_cell_length_c 11.426706
_cell_angle_alpha 106.648088
_cell_angle_beta 56.874380
_cell_angle_gamma 91.807250
_cell_volume 493.432383
_symmetry_space_group_name_H-M "P -1"
_symmetry_group_IT_number 2
_symmetry_cell_setting 'triclinic'
loop_
_space_group_symop_operation_xyz
x,y,z
-x,-y,-z
loop_
_atom_site_type_symbol
_atom_site_label
_atom_site_fract_x
_atom_site_fract_y
_atom_site_fract_z
Si Si1 0.661279 0.045455 0.584649
Si Si2 0.884299 0.424111 0.364807
Si Si3 0.481392 0.386405 0.660901
Si Si4 0.757930 0.090007 0.949729
Si Si5 0.265209 0.870138 0.765560
Si Si6 0.509865 0.403923 0.088115
O O1 0.559352 0.222643 0.652865
O O2 0.500000 0.000000 0.500000
O O3 0.537311 0.949000 0.695205
O O4 0.000000 0.000000 0.500000
O O5 0.772168 0.423651 0.529076
O O6 0.753565 0.574449 0.368726
O O7 0.728402 0.290516 0.325523
O O8 0.208431 0.380432 0.223032
O O9 0.368431 0.502548 0.820590
O O10 0.819750 0.132262 0.076945
O O11 0.672354 0.249517 0.960095
O O12 0.019683 0.984839 0.798499
O O13 0.500000 0.000000 0.000000
O O14 0.500000 0.500000 0.000000
#
# Coordination Sequence:
#
# PCOD9065596 Si02
#       6
#     2   2   2   2   2   2
#     4  12  30  48  79 115 151 198 256 321 385 455
#     4  11  24  49  75 106 147 200 253 316 388 453
#     4  11  27  47  74 106 151 194 257 315 386 454
#     4  11  25  45  71 103 148 200 250 306 378 464
#     4  11  25  46  74 106 145 198 255 315 379 457
#     4  12  28  43  74 109 150 198 250 317 383 458
#
# _framework density 24.319441999999999
#
# number of rings (size 3 to 8) (size 9 to 14) (size 15 to 20)
#    0.000    0.667    5.000    0.500   11.667    0.667 
#    0.000    0.000    0.000    0.000    0.000    0.000 
#    0.000    0.000    0.000    0.000    0.000    0.000 
#
# Total GULP energy -67018.454763 kJ/mol
# GULP energy per Si atom -5584.871230 kJ/mol
# Density = 2.426409 g / cm^3
# Si number density = 24.319442 Si / 1000 Ang^3
#
#
#
# Elastic Constant Matrix: (Units=GPa)
#
#
# Indices 1 2 3 4 5 6 
#
# 1 51.8173 10.0803 3.1128 13.5470 -14.3336 -1.4672
# 2 10.0803 146.7643 5.1636 21.4218 -0.7033 -20.7578
# 3 3.1128 5.1636 50.5431 1.3921 7.4376 -2.8128
# 4 13.5470 21.4218 1.3921 48.7719 -3.9154 -4.4403
# 5 -14.3336 -0.7033 7.4376 -3.9154 43.2598 -2.9508
# 6 -1.4672 -20.7578 -2.8128 -4.4403 -2.9508 30.2557
#
#
#
# Elastic Compliance Matrix: (Units=1/GPa)
#
#
# Indices 1 2 3 4 5 6 
#
# 1 0.023082 -0.000616 -0.002300 -0.005429 0.007571 0.000425
# 2 -0.000616 0.007998 -0.000434 -0.002867 0.000082 0.005004
# 3 -0.002300 -0.000434 0.020657 -0.000001 -0.004246 0.001097
# 4 -0.005429 -0.002867 -0.000001 0.023413 0.000359 0.001240
# 5 0.007571 0.000082 -0.004246 0.000359 0.026571 0.002673
# 6 0.000425 0.005004 0.001097 0.001240 0.002673 0.037050
#
#
# Mechanical properties :
#
#
# Convention : Reuss Voigt Hill
#
# Bulk Modulus (GPa) = 22.20315 31.75978 26.98147
# Shear Modulus (GPa) = 31.15622 39.84202 35.49912
#
# Velocity S-wave (km/s) = 3.58316 4.05196 3.82475
# Velocity P-wave (km/s) = 5.12527 5.91430 5.53386
#
# Compressibility (1/GPa) = 0.04503865
#
# Stress axis : x y z
#
# Youngs Moduli (GPa) = 43.32367 125.03326 48.40993
#
# Poissons Ratio (x) = 0.07698 0.11132
# Poissons Ratio (y) = 0.02667 0.02100
# Poissons Ratio (z) = 0.09963 0.05424
#
# Static dielectric constant tensor:
#      x y z
#    x 2.004830 -0.011810 -0.094290 
#    y -0.011810 1.874370 0.122630 
#    z -0.094290 0.122630 1.803940 
# 
# From -- ./inp_files/26202.got.cif
#   From: 2010.05.17/outbox.cif.g08.bks.cpg/sg2_14_cif.got.tgz:26202.got - 2010.06.03 11:33:40.
