data_PCOD9065194
_publ_section_title
;
Structure prediction by ZEFSAII (Michael W. Deem and Ramdas Pophale) SiO2 
 PCOD9065194
Probable space group: P -1
;
_chemical_formula_sum "Si O2"
_cell_formula_units_Z 14
_cell_length_a 17.322402
_cell_length_b 9.568081
_cell_length_c 9.089801
_cell_angle_alpha 64.767921
_cell_angle_beta 152.205805
_cell_angle_gamma 118.039067
_cell_volume 619.851126
_symmetry_space_group_name_H-M "P -1"
_symmetry_group_IT_number 2
_symmetry_cell_setting 'triclinic'
loop_
_space_group_symop_operation_xyz
x,y,z
-x,-y,-z
loop_
_atom_site_type_symbol
_atom_site_label
_atom_site_fract_x
_atom_site_fract_y
_atom_site_fract_z
Si Si1 0.973537 0.521106 0.121876
Si Si2 0.290812 0.803217 0.148318
Si Si3 0.489867 0.875877 0.170855
Si Si4 0.870401 0.841579 0.909631
Si Si5 0.535716 0.702154 0.830470
Si Si6 0.860389 0.923414 0.181484
Si Si7 0.348360 0.613734 0.836391
O O1 0.154260 0.546109 0.496912
O O2 0.849181 0.358396 0.039554
O O3 0.903395 0.679643 0.965825
O O4 0.000000 0.500000 0.000000
O O5 0.376432 0.900244 0.107728
O O6 0.442130 0.753543 0.511298
O O7 0.216233 0.926995 0.063771
O O8 0.677861 0.857708 0.542540
O O9 0.381639 0.712171 0.995609
O O10 0.500000 0.000000 0.000000
O O11 0.901358 0.840782 0.138588
O O12 0.000000 0.000000 0.000000
O O13 0.431448 0.722042 0.790841
O O14 0.726026 0.798545 0.103444
O O15 0.544819 0.520765 0.912686
O O16 0.000000 0.000000 0.500000
#
# Coordination Sequence:
#
# PCOD9065194 Si02
#       7
#     2   2   2   2   2   2   2
#     4  12  26  49  76 109 149 191 244 302 368 434
#     4  12  26  48  78 102 149 195 240 302 369 430
#     4  12  28  47  73 109 147 191 250 300 363 437
#     4  12  29  47  76 106 150 193 241 304 365 433
#     4  11  24  47  74 104 142 195 243 300 365 434
#     4  12  28  47  74 108 147 190 246 300 366 434
#     4  11  26  44  75 106 145 190 246 299 365 437
#
# _framework density 22.586068000000001
#
# number of rings (size 3 to 8) (size 9 to 14) (size 15 to 20)
#    0.000    0.286    2.857    4.714   12.000    1.714 
#    0.000    0.000    0.000    0.000    0.000    0.000 
#    0.000    0.000    0.000    0.000    0.000    0.000 
#
# Total GULP energy -78344.627947 kJ/mol
# GULP energy per Si atom -5596.044853 kJ/mol
# Density = 2.253466 g / cm^3
# Si number density = 22.586068 Si / 1000 Ang^3
#
#
#
# Elastic Constant Matrix: (Units=GPa)
#
#
# Indices 1 2 3 4 5 6 
#
# 1 109.5145 40.9880 21.6442 4.3039 -1.4840 -4.0239
# 2 40.9880 94.2982 -2.7999 2.1235 -1.0288 -8.0407
# 3 21.6442 -2.7999 82.2355 16.3681 -11.8130 -6.1959
# 4 4.3039 2.1235 16.3681 47.1478 2.0458 5.4769
# 5 -1.4840 -1.0288 -11.8130 2.0458 25.1296 3.2147
# 6 -4.0239 -8.0407 -6.1959 5.4769 3.2147 53.1477
#
#
#
# Elastic Compliance Matrix: (Units=1/GPa)
#
#
# Indices 1 2 3 4 5 6 
#
# 1 0.011761 -0.005268 -0.003567 0.000489 -0.001199 -0.000300
# 2 -0.005268 0.013170 0.002396 -0.001220 0.001208 0.001926
# 3 -0.003567 0.002396 0.015539 -0.005736 0.007397 0.002048
# 4 0.000489 -0.001220 -0.005736 0.023746 -0.004266 -0.003005
# 5 -0.001199 0.001208 0.007397 -0.004266 0.043757 -0.001253
# 6 -0.000300 0.001926 0.002048 -0.003005 -0.001253 0.019708
#
#
# Mechanical properties :
#
#
# Convention : Reuss Voigt Hill
#
# Bulk Modulus (GPa) = 36.24016 45.07919 40.65968
# Shear Modulus (GPa) = 33.38739 40.16607 36.77673
#
# Velocity S-wave (km/s) = 3.84895 4.22163 4.03959
# Velocity P-wave (km/s) = 5.98604 6.61552 6.30864
#
# Compressibility (1/GPa) = 0.02759370
#
# Stress axis : x y z
#
# Youngs Moduli (GPa) = 85.02471 75.92781 64.35356
#
# Poissons Ratio (x) = 0.39997 0.22956
# Poissons Ratio (y) = 0.44789 -0.15421
# Poissons Ratio (z) = 0.30329 -0.18195
#
# Static dielectric constant tensor:
#      x y z
#    x 2.079340 -0.146760 -0.002420 
#    y -0.146760 1.930960 -0.013840 
#    z -0.002420 -0.013840 1.853220 
# 
# From -- ./inp_files/184467.got.cif
#   From: 2010.05.17/outbox.cif.g08.bks.cpg/sg2_93_cif.got.tgz:184467.got - 2010.06.03 11:33:40.
