data_PCOD9065766
_publ_section_title
;
Structure prediction by ZEFSAII (Michael W. Deem and Ramdas Pophale) SiO2 
 PCOD9065766
Probable space group: P -1
;
_chemical_formula_sum "Si O2"
_cell_formula_units_Z 14
_cell_length_a 9.578672
_cell_length_b 25.252795
_cell_length_c 27.598142
_cell_angle_alpha 170.409971
_cell_angle_beta 33.949930
_cell_angle_gamma 147.338140
_cell_volume 600.191055
_symmetry_space_group_name_H-M "P -1"
_symmetry_group_IT_number 2
_symmetry_cell_setting 'triclinic'
loop_
_space_group_symop_operation_xyz
x,y,z
-x,-y,-z
loop_
_atom_site_type_symbol
_atom_site_label
_atom_site_fract_x
_atom_site_fract_y
_atom_site_fract_z
Si Si1 0.543027 0.674588 0.220528
Si Si2 0.729274 0.736819 0.678539
Si Si3 0.763469 0.392327 0.612078
Si Si4 0.506613 0.564809 0.689842
Si Si5 0.998954 0.556662 0.798038
Si Si6 0.272360 0.952017 0.397108
Si Si7 0.270148 0.035554 0.925923
O O1 0.248156 0.453308 0.107638
O O2 0.500000 0.000000 0.500000
O O3 0.650111 0.812917 0.366755
O O4 0.711719 0.417748 0.926339
O O5 0.500000 0.500000 0.500000
O O6 0.626520 0.761747 0.784528
O O7 0.994778 0.628140 0.509153
O O8 0.831769 0.076137 0.927412
O O9 0.888246 0.424905 0.658940
O O10 0.700844 0.723803 0.911033
O O11 0.503825 0.096941 0.422258
O O12 0.527380 0.793396 0.936597
O O13 0.207156 0.380469 0.599959
O O14 0.672958 0.301582 0.410901
O O15 0.000000 0.000000 0.500000
O O16 0.000000 0.000000 0.000000
#
# Coordination Sequence:
#
# PCOD9065766 Si02
#       7
#     2   2   2   2   2   2   2
#     4  11  25  46  75 103 137 175 227 300 347 402
#     4  12  22  41  68  97 135 179 233 269 330 396
#     4  11  25  42  69  95 136 181 224 278 331 407
#     4  12  26  40  64  94 132 180 218 276 323 398
#     4  11  25  43  68  99 134 175 237 270 340 404
#     4  11  25  47  73 102 137 180 231 280 353 420
#     4  12  26  41  59  94 137 174 222 270 335 384
#
# _framework density 23.325904999999999
#
# number of rings (size 3 to 8) (size 9 to 14) (size 15 to 20)
#    0.000    0.571    4.286    3.429    2.000    2.286 
#    0.000    0.000    0.000    0.000    0.000    0.000 
#    0.000    0.000    0.000    0.000    0.000    0.000 
#
# Total GULP energy -78251.762684 kJ/mol
# GULP energy per Si atom -5589.411620 kJ/mol
# Density = 2.327281 g / cm^3
# Si number density = 23.325905 Si / 1000 Ang^3
#
#
#
# Elastic Constant Matrix: (Units=GPa)
#
#
# Indices 1 2 3 4 5 6 
#
# 1 74.0920 33.1281 1.5938 -4.7211 -3.0845 32.5812
# 2 33.1281 98.7194 35.0980 -2.7164 -16.2788 41.2826
# 3 1.5938 35.0980 110.7683 0.6408 -15.8130 16.1565
# 4 -4.7211 -2.7164 0.6408 27.1970 -1.0300 -1.8941
# 5 -3.0845 -16.2788 -15.8130 -1.0300 42.5976 -4.7972
# 6 32.5812 41.2826 16.1565 -1.8941 -4.7972 28.3268
#
#
#
# Elastic Compliance Matrix: (Units=1/GPa)
#
#
# Indices 1 2 3 4 5 6 
#
# 1 0.034155 0.011862 0.004595 0.003005 0.002183 -0.058622
# 2 0.011862 0.032116 -0.000893 0.001429 0.006214 -0.058791
# 3 0.004595 -0.000893 0.011106 -0.000123 0.003006 -0.009818
# 4 0.003005 0.001429 -0.000123 0.037294 0.001310 -0.002753
# 5 0.002183 0.006214 0.003006 0.001310 0.026169 -0.008762
# 6 -0.058622 -0.058791 -0.009818 -0.002753 -0.008762 0.192341
#
#
# Mechanical properties :
#
#
# Convention : Reuss Voigt Hill
#
# Bulk Modulus (GPa) = 9.21612 47.02440 28.12026
# Shear Modulus (GPa) = 14.78318 33.87495 24.32906
#
# Velocity S-wave (km/s) = 2.52020 3.81497 3.23306
# Velocity P-wave (km/s) = 3.52536 6.29355 5.10083
#
# Compressibility (1/GPa) = 0.10850549
#
# Stress axis : x y z
#
# Youngs Moduli (GPa) = 29.27828 31.13713 90.03799
#
# Poissons Ratio (x) = -0.36935 -0.41370
# Poissons Ratio (y) = -0.34730 0.08039
# Poissons Ratio (z) = -0.13453 0.02780
#
# Static dielectric constant tensor:
#      x y z
#    x 1.925240 0.025370 -0.077340 
#    y 0.025370 1.941820 -0.042320 
#    z -0.077340 -0.042320 1.972900 
# 
# From -- ./inp_files/46790.got.cif
#   From: 2010.05.17/outbox.cif.g08.bks.cpg/sg2_24_cif.got.tgz:46790.got - 2010.06.03 11:33:40.
