data_PCOD9065329
_publ_section_title
;
Structure prediction by ZEFSAII (Michael W. Deem and Ramdas Pophale) SiO2 
 PCOD9065329
Probable space group: P -1
;
_chemical_formula_sum "Si O2"
_cell_formula_units_Z 15
_cell_length_a 7.563480
_cell_length_b 14.537483
_cell_length_c 9.242572
_cell_angle_alpha 53.870355
_cell_angle_beta 49.781528
_cell_angle_gamma 77.263983
_cell_volume 605.235703
_symmetry_space_group_name_H-M "P -1"
_symmetry_group_IT_number 2
_symmetry_cell_setting 'triclinic'
loop_
_space_group_symop_operation_xyz
x,y,z
-x,-y,-z
loop_
_atom_site_type_symbol
_atom_site_label
_atom_site_fract_x
_atom_site_fract_y
_atom_site_fract_z
Si Si1 0.388495 0.129527 0.328209
Si Si2 0.236460 0.487978 0.081929
Si Si3 0.576647 0.273629 0.379363
Si Si4 0.948033 0.750466 0.777550
Si Si5 0.661754 0.775507 0.160432
Si Si6 0.015729 0.978935 0.181216
Si Si7 0.000000 0.500000 0.500000
Si Si8 0.223425 0.772547 0.196157
O O1 0.474318 0.222419 0.327306
O O2 0.191257 0.160133 0.297501
O O3 0.227290 0.019473 0.605480
O O4 0.617410 0.144928 0.089523
O O5 0.137377 0.364769 0.168888
O O6 0.071413 0.501171 0.289828
O O7 0.500000 0.500000 0.000000
O O8 0.276468 0.592621 0.848084
O O9 0.379574 0.265397 0.614685
O O10 0.766791 0.206606 0.401991
O O11 0.845255 0.723551 0.019422
O O12 0.412407 0.743675 0.236448
O O13 0.769325 0.916243 0.973096
O O14 0.070863 0.851577 0.280296
O O15 0.000000 0.000000 0.000000
O O16 0.918948 0.352427 0.675190
#
# Coordination Sequence:
#
# PCOD9065329 Si02
#       8
#     2   2   2   2   2   2   1   2
#     4  11  24  48  68 102 141 188 237 298 365 421
#     4  12  24  43  71 103 145 191 238 299 364 435
#     4  12  24  43  72 103 143 187 241 298 361 435
#     4  11  26  45  69 106 142 189 245 298 363 430
#     4  11  26  48  70 106 142 189 245 298 358 431
#     4  12  26  44  73 105 144 191 246 298 360 432
#     4  12  24  44  78 108 142 190 240 298 372 432
#     4  11  26  46  75 106 143 192 238 302 369 431
#
# _framework density 24.783733999999999
#
# number of rings (size 3 to 8) (size 9 to 14) (size 15 to 20)
#    0.000    0.533    4.000    4.000    1.867    5.333 
#    0.000    0.000    0.000    0.000    0.000    0.000 
#    0.000    0.000    0.000    0.000    0.000    0.000 
#
# Total GULP energy -83747.052998 kJ/mol
# GULP energy per Si atom -5583.136867 kJ/mol
# Density = 2.472732 g / cm^3
# Si number density = 24.783734 Si / 1000 Ang^3
#
#
#
# Elastic Constant Matrix: (Units=GPa)
#
#
# Indices 1 2 3 4 5 6 
#
# 1 80.2529 11.0598 4.5595 -1.0985 -2.7166 7.9988
# 2 11.0598 119.4354 36.6469 23.0706 -8.8014 13.2965
# 3 4.5595 36.6469 140.8604 25.9066 1.0919 0.5958
# 4 -1.0985 23.0706 25.9066 48.0364 8.3530 11.0634
# 5 -2.7166 -8.8014 1.0919 8.3530 27.9850 2.8999
# 6 7.9988 13.2965 0.5958 11.0634 2.8999 22.3054
#
#
#
# Elastic Compliance Matrix: (Units=1/GPa)
#
#
# Indices 1 2 3 4 5 6 
#
# 1 0.013202 -0.000760 -0.000593 0.002059 0.001012 -0.005418
# 2 -0.000760 0.010725 -0.002084 -0.003804 0.005016 -0.004830
# 3 -0.000593 -0.002084 0.008443 -0.004329 -0.000102 0.003390
# 4 0.002059 -0.003804 -0.004329 0.029178 -0.008320 -0.011746
# 5 0.001012 0.005016 -0.000102 -0.008320 0.040360 -0.004471
# 6 -0.005418 -0.004830 0.003390 -0.011746 -0.004471 0.055971
#
#
# Mechanical properties :
#
#
# Convention : Reuss Voigt Hill
#
# Bulk Modulus (GPa) = 39.22495 49.45345 44.33920
# Shear Modulus (GPa) = 28.85954 38.88420 33.87187
#
# Velocity S-wave (km/s) = 3.41611 3.96528 3.70090
# Velocity P-wave (km/s) = 5.60545 6.40015 6.01594
#
# Compressibility (1/GPa) = 0.02549398
#
# Stress axis : x y z
#
# Youngs Moduli (GPa) = 75.74886 93.24060 118.43587
#
# Poissons Ratio (x) = 0.07090 0.07024
# Poissons Ratio (y) = 0.05760 0.24688
# Poissons Ratio (z) = 0.04492 0.19436
#
# Static dielectric constant tensor:
#      x y z
#    x 2.020950 -0.056420 0.010620 
#    y -0.056420 1.923690 -0.002800 
#    z 0.010620 -0.002800 1.993440 
# 
# From -- ./inp_files/200107.got.cif
#   From: 2010.05.17/outbox.cif.g08.bks.cpg/sg2_101_cif.got.tgz:200107.got - 2010.06.03 11:33:40.
