data_PCOD9065458
_publ_section_title
;
Structure prediction by ZEFSAII (Michael W. Deem and Ramdas Pophale) SiO2 
 PCOD9065458
Probable space group: P -1
;
_chemical_formula_sum "Si O2"
_cell_formula_units_Z 16
_cell_length_a 13.077961
_cell_length_b 9.069765
_cell_length_c 13.927305
_cell_angle_alpha 105.079512
_cell_angle_beta 145.398046
_cell_angle_gamma 98.215160
_cell_volume 687.467405
_symmetry_space_group_name_H-M "P -1"
_symmetry_group_IT_number 2
_symmetry_cell_setting 'triclinic'
loop_
_space_group_symop_operation_xyz
x,y,z
-x,-y,-z
loop_
_atom_site_type_symbol
_atom_site_label
_atom_site_fract_x
_atom_site_fract_y
_atom_site_fract_z
Si Si1 0.483243 0.087778 0.717780
Si Si2 0.392285 0.532962 0.058178
Si Si3 0.890244 0.769787 0.378732
Si Si4 0.645857 0.151382 0.226021
Si Si5 0.894495 0.281040 0.923351
Si Si6 0.292774 0.409879 0.399771
Si Si7 0.441769 0.302019 0.184248
Si Si8 0.902636 0.004839 0.732518
O O1 0.637533 0.305398 0.924532
O O2 0.632934 0.132671 0.745114
O O3 0.433216 0.945834 0.743452
O O4 0.233745 0.015743 0.472369
O O5 0.652842 0.651707 0.236789
O O6 0.391408 0.450297 0.145028
O O7 0.201922 0.344991 0.813268
O O8 0.087676 0.760406 0.566026
O O9 0.000000 0.000000 0.500000
O O10 0.581347 0.293814 0.205782
O O11 0.500000 0.000000 0.000000
O O12 0.905635 0.151143 0.831801
O O13 0.000000 0.500000 0.000000
O O14 0.063944 0.333225 0.151582
O O15 0.500000 0.500000 0.500000
O O16 0.387901 0.593128 0.575531
O O17 0.239450 0.218614 0.375355
O O18 0.173717 0.093770 0.948611
#
# Coordination Sequence:
#
# PCOD9065458 Si02
#       8
#     2   2   2   2   2   2   2   2
#     4  12  26  46  76 109 144 200 250 300 374 443
#     4  11  25  46  74 101 137 194 246 298 364 443
#     4  11  24  48  74  99 143 188 240 305 371 427
#     4  12  29  46  74 109 150 193 249 311 368 438
#     4  12  27  46  77 113 155 192 249 310 373 451
#     4  12  26  47  73 108 150 198 245 301 378 450
#     4  12  27  46  74 108 145 193 250 303 374 441
#     4  12  26  51  75 106 154 200 243 308 381 446
#
# _framework density 23.273831999999999
#
# number of rings (size 3 to 8) (size 9 to 14) (size 15 to 20)
#    0.000    0.250    3.750    4.500    8.750    1.500 
#    0.000    0.000    0.000    0.000    0.000    0.000 
#    0.000    0.000    0.000    0.000    0.000    0.000 
#
# Total GULP energy -89465.371718 kJ/mol
# GULP energy per Si atom -5591.585732 kJ/mol
# Density = 2.322086 g / cm^3
# Si number density = 23.273832 Si / 1000 Ang^3
#
#
#
# Elastic Constant Matrix: (Units=GPa)
#
#
# Indices 1 2 3 4 5 6 
#
# 1 74.3694 8.9735 40.2094 5.2428 -8.6631 -18.8041
# 2 8.9735 78.2010 22.5840 7.8690 -1.1999 7.0045
# 3 40.2094 22.5840 164.4048 1.6607 -11.9978 -7.0398
# 4 5.2428 7.8690 1.6607 33.5221 -2.2197 -2.8638
# 5 -8.6631 -1.1999 -11.9978 -2.2197 48.5936 6.9486
# 6 -18.8041 7.0045 -7.0398 -2.8638 6.9486 43.8935
#
#
#
# Elastic Compliance Matrix: (Units=1/GPa)
#
#
# Indices 1 2 3 4 5 6 
#
# 1 0.017611 -0.001386 -0.003724 -0.001581 0.001129 0.006887
# 2 -0.001386 0.014067 -0.001702 -0.003285 0.000006 -0.003327
# 3 -0.003724 -0.001702 0.007293 0.000673 0.001168 -0.000295
# 4 -0.001581 -0.003285 0.000673 0.031036 0.000959 0.001828
# 5 0.001129 0.000006 0.001168 0.000959 0.021494 -0.002670
# 6 0.006887 -0.003327 -0.000295 0.001828 -0.002670 0.026758
#
#
# Mechanical properties :
#
#
# Convention : Reuss Voigt Hill
#
# Bulk Modulus (GPa) = 39.45187 51.16766 45.30976
# Shear Modulus (GPa) = 35.62991 41.54908 38.58949
#
# Velocity S-wave (km/s) = 3.91692 4.22978 4.07635
# Velocity P-wave (km/s) = 6.11917 6.77403 6.45491
#
# Compressibility (1/GPa) = 0.02534734
#
# Stress axis : x y z
#
# Youngs Moduli (GPa) = 56.78217 71.08950 137.12009
#
# Poissons Ratio (x) = 0.09852 0.51058
# Poissons Ratio (y) = 0.07869 0.23341
# Poissons Ratio (z) = 0.21144 0.12101
#
# Static dielectric constant tensor:
#      x y z
#    x 1.922920 -0.003270 -0.041210 
#    y -0.003270 1.888720 -0.020990 
#    z -0.041210 -0.020990 1.771310 
# 
# From -- ./inp_files/107437.got.cif
#   From: 2010.05.17/outbox.cif.g08.bks.cpg/sg2_54_cif.got.tgz:107437.got - 2010.06.03 11:33:40.
