data_PCOD9065092
_publ_section_title
;
Structure prediction by ZEFSAII (Michael W. Deem and Ramdas Pophale) SiO2 
 PCOD9065092
Probable space group: P -1
;
_chemical_formula_sum "Si O2"
_cell_formula_units_Z 13
_cell_length_a 12.662166
_cell_length_b 14.138219
_cell_length_c 13.819647
_cell_angle_alpha 159.922343
_cell_angle_beta 39.928182
_cell_angle_gamma 137.894561
_cell_volume 542.467029
_symmetry_space_group_name_H-M "P -1"
_symmetry_group_IT_number 2
_symmetry_cell_setting 'triclinic'
loop_
_space_group_symop_operation_xyz
x,y,z
-x,-y,-z
loop_
_atom_site_type_symbol
_atom_site_label
_atom_site_fract_x
_atom_site_fract_y
_atom_site_fract_z
Si Si1 0.725161 0.830479 0.633524
Si Si2 0.365121 0.569496 0.387250
Si Si3 0.000000 0.500000 0.500000
Si Si4 0.927785 0.367867 0.022511
Si Si5 0.134550 0.560670 0.252296
Si Si6 0.632211 0.890772 0.374372
Si Si7 0.434268 0.021307 0.910994
O O1 0.758230 0.514211 0.293912
O O2 0.637177 0.875274 0.839585
O O3 0.891556 0.039005 0.722272
O O4 0.615325 0.936741 0.726953
O O5 0.201257 0.560393 0.429374
O O6 0.522831 0.737259 0.387488
O O7 0.414963 0.266852 0.085653
O O8 0.334493 0.746746 0.674849
O O9 0.018786 0.579657 0.445828
O O10 0.035863 0.454336 0.123530
O O11 0.000000 0.500000 0.000000
O O12 0.240506 0.851135 0.436653
O O13 0.261158 0.331399 0.963719
O O14 0.500000 0.000000 0.500000
#
# Coordination Sequence:
#
# PCOD9065092 Si02
#       7
#     2   2   1   2   2   2   2
#     4  11  24  47  71 106 148 183 248 294 363 423
#     4  12  27  45  77 107 147 188 250 295 376 429
#     4  12  28  48  76 110 144 196 238 316 356 438
#     4  12  27  46  72 109 147 194 237 299 358 438
#     4  12  28  48  77 107 152 191 248 298 371 430
#     4  12  27  51  72 110 144 197 242 304 362 448
#     4  11  25  45  76 106 140 193 237 306 354 441
#
# _framework density 23.964589
#
# number of rings (size 3 to 8) (size 9 to 14) (size 15 to 20)
#    0.000    0.308    1.538    6.462    8.615    4.923 
#    0.000    0.000    0.000    0.000    0.000    0.000 
#    0.000    0.000    0.000    0.000    0.000    0.000 
#
# Total GULP energy -72601.276962 kJ/mol
# GULP energy per Si atom -5584.713612 kJ/mol
# Density = 2.391005 g / cm^3
# Si number density = 23.964589 Si / 1000 Ang^3
#
#
#
# Elastic Constant Matrix: (Units=GPa)
#
#
# Indices 1 2 3 4 5 6 
#
# 1 133.3733 38.2769 13.2239 9.8490 19.5162 7.3269
# 2 38.2769 90.5499 -0.3727 15.2565 10.5915 1.4437
# 3 13.2239 -0.3727 95.2584 13.9798 -7.6256 9.2913
# 4 9.8490 15.2565 13.9798 36.6848 -3.6020 7.1377
# 5 19.5162 10.5915 -7.6256 -3.6020 23.4135 0.9863
# 6 7.3269 1.4437 9.2913 7.1377 0.9863 32.0686
#
#
#
# Elastic Compliance Matrix: (Units=1/GPa)
#
#
# Indices 1 2 3 4 5 6 
#
# 1 0.009782 -0.003042 -0.001678 -0.001240 -0.007469 -0.001106
# 2 -0.003042 0.013830 0.000872 -0.005949 -0.004406 0.001279
# 3 -0.001678 0.000872 0.011842 -0.003516 0.004423 -0.002440
# 4 -0.001240 -0.005949 -0.003516 0.033376 0.007971 -0.006104
# 5 -0.007469 -0.004406 0.004423 0.007971 0.053714 -0.002803
# 6 -0.001106 0.001279 -0.002440 -0.006104 -0.002803 0.033530
#
#
# Mechanical properties :
#
#
# Convention : Reuss Voigt Hill
#
# Bulk Modulus (GPa) = 36.02421 46.82642 41.42531
# Shear Modulus (GPa) = 28.89771 36.30361 32.60066
#
# Velocity S-wave (km/s) = 3.47630 3.89638 3.69232
# Velocity P-wave (km/s) = 5.58371 6.31067 5.95829
#
# Compressibility (1/GPa) = 0.02775911
#
# Stress axis : x y z
#
# Youngs Moduli (GPa) = 102.22542 72.30474 84.44389
#
# Poissons Ratio (x) = 0.21994 0.14169
# Poissons Ratio (y) = 0.31096 -0.07363
# Poissons Ratio (z) = 0.17152 -0.06305
#
# Static dielectric constant tensor:
#      x y z
#    x 1.892840 -0.004160 0.012590 
#    y -0.004160 1.916820 -0.041970 
#    z 0.012590 -0.041970 1.907140 
# 
# From -- ./inp_files/31328.got.cif
#   From: 2010.05.17/outbox.cif.g08.bks.cpg/sg2_16_cif.got.tgz:31328.got - 2010.06.03 11:33:40.
