data_PCOD9065068
_publ_section_title
;
Structure prediction by ZEFSAII (Michael W. Deem and Ramdas Pophale) SiO2 
 PCOD9065068
Probable space group: P -1
;
_chemical_formula_sum "Si O2"
_cell_formula_units_Z 14
_cell_length_a 17.386519
_cell_length_b 8.122003
_cell_length_c 9.268595
_cell_angle_alpha 72.979436
_cell_angle_beta 60.867932
_cell_angle_gamma 124.257891
_cell_volume 585.349621
_symmetry_space_group_name_H-M "P -1"
_symmetry_group_IT_number 2
_symmetry_cell_setting 'triclinic'
loop_
_space_group_symop_operation_xyz
x,y,z
-x,-y,-z
loop_
_atom_site_type_symbol
_atom_site_label
_atom_site_fract_x
_atom_site_fract_y
_atom_site_fract_z
Si Si1 0.551755 0.864028 0.844897
Si Si2 0.707649 0.476170 0.612452
Si Si3 0.041679 0.984747 0.313551
Si Si4 0.222678 0.232925 0.824066
Si Si5 0.098725 0.652232 0.018405
Si Si6 0.541077 0.865519 0.516799
Si Si7 0.870042 0.194794 0.590076
O O1 0.534509 0.799603 0.707920
O O2 0.590794 0.132849 0.748008
O O3 0.706394 0.021141 0.734239
O O4 0.392731 0.577342 0.165418
O O5 0.772803 0.688411 0.362089
O O6 0.861275 0.639788 0.508025
O O7 0.165124 0.037913 0.234451
O O8 0.000000 0.000000 0.500000
O O9 0.130755 0.204224 0.032622
O O10 0.409888 0.540168 0.628383
O O11 0.130542 0.897281 0.988523
O O12 0.982969 0.352290 0.306544
O O13 0.000000 0.500000 0.000000
O O14 0.276435 0.865531 0.776637
O O15 0.500000 0.000000 0.500000
O O16 0.000000 0.500000 0.500000
#
# Coordination Sequence:
#
# PCOD9065068 Si02
#       7
#     2   2   2   2   2   2   2
#     4  11  24  47  70 111 144 197 239 305 369 438
#     4  11  25  43  76 105 150 188 248 302 367 433
#     4  12  28  46  74 110 145 194 246 308 373 440
#     4  12  27  48  74 112 150 192 252 307 366 446
#     4  12  28  49  76 106 149 201 247 303 374 433
#     4  12  27  46  75 111 150 192 247 306 371 441
#     4  12  25  47  75 102 149 193 249 300 367 443
#
# _framework density 23.91733
#
# number of rings (size 3 to 8) (size 9 to 14) (size 15 to 20)
#    0.000    0.286    5.714    1.714    8.000    1.143 
#    0.000    2.143    0.000    0.000    0.000    0.000 
#    0.000    0.000    0.000    0.000    0.000    0.000 
#
# Total GULP energy -78313.450140 kJ/mol
# GULP energy per Si atom -5593.817867 kJ/mol
# Density = 2.386289 g / cm^3
# Si number density = 23.917330 Si / 1000 Ang^3
#
#
#
# Elastic Constant Matrix: (Units=GPa)
#
#
# Indices 1 2 3 4 5 6 
#
# 1 111.9630 32.6551 50.3971 10.9503 -7.6354 31.3298
# 2 32.6551 83.8714 16.9280 2.0516 -3.6784 25.8623
# 3 50.3971 16.9280 165.4605 22.9326 -7.0958 17.0777
# 4 10.9503 2.0516 22.9326 43.9406 9.4405 1.4231
# 5 -7.6354 -3.6784 -7.0958 9.4405 46.6423 -1.7843
# 6 31.3298 25.8623 17.0777 1.4231 -1.7843 37.9428
#
#
#
# Elastic Compliance Matrix: (Units=1/GPa)
#
#
# Indices 1 2 3 4 5 6 
#
# 1 0.013337 -0.001968 -0.002661 -0.001938 0.001697 -0.008321
# 2 -0.001968 0.015456 -0.000036 -0.000046 0.000561 -0.008866
# 3 -0.002661 -0.000036 0.007503 -0.003516 0.001378 -0.000959
# 4 -0.001938 -0.000046 -0.003516 0.026328 -0.006111 0.001939
# 5 0.001697 0.000561 0.001378 -0.006111 0.023167 -0.001086
# 6 -0.008321 -0.008866 -0.000959 0.001939 -0.001086 0.039577
#
#
# Mechanical properties :
#
#
# Convention : Reuss Voigt Hill
#
# Bulk Modulus (GPa) = 37.08358 62.36170 49.72264
# Shear Modulus (GPa) = 34.79793 43.12612 38.96202
#
# Velocity S-wave (km/s) = 3.81849 4.25094 4.04050
# Velocity P-wave (km/s) = 5.91436 7.08692 6.52702
#
# Compressibility (1/GPa) = 0.02696611
#
# Stress axis : x y z
#
# Youngs Moduli (GPa) = 74.98053 64.69933 133.27553
#
# Poissons Ratio (x) = 0.12733 0.35459
# Poissons Ratio (y) = 0.14756 0.00485
# Poissons Ratio (z) = 0.19949 0.00236
#
# Static dielectric constant tensor:
#      x y z
#    x 1.260890 -0.457820 -0.731500 
#    y -0.457820 1.701850 -0.440590 
#    z -0.731500 -0.440590 1.050500 
# 
# From -- ./inp_files/244854.got.cif
#   From: 2010.05.17/outbox.cif.g08.bks.cpg/sg2_123_cif.got.tgz:244854.got - 2010.06.03 11:33:40.
