data_PCOD9065338
_publ_section_title
;
Structure prediction by ZEFSAII (Michael W. Deem and Ramdas Pophale) SiO2 
 PCOD9065338
Probable space group: P -1
;
_chemical_formula_sum "Si O2"
_cell_formula_units_Z 16
_cell_length_a 15.263028
_cell_length_b 9.855001
_cell_length_c 9.462525
_cell_angle_alpha 72.241439
_cell_angle_beta 75.371583
_cell_angle_gamma 130.344995
_cell_volume 810.599289
_symmetry_space_group_name_H-M "P -1"
_symmetry_group_IT_number 2
_symmetry_cell_setting 'triclinic'
loop_
_space_group_symop_operation_xyz
x,y,z
-x,-y,-z
loop_
_atom_site_type_symbol
_atom_site_label
_atom_site_fract_x
_atom_site_fract_y
_atom_site_fract_z
Si Si1 0.604897 0.704117 0.779579
Si Si2 0.619237 0.022101 0.791949
Si Si3 0.105424 0.049172 0.836026
Si Si4 0.910198 0.535429 0.023173
Si Si5 0.718780 0.345754 0.881692
Si Si6 0.414976 0.496084 0.643735
Si Si7 0.151561 0.215772 0.450770
Si Si8 0.641742 0.243207 0.442448
O O1 0.504914 0.616733 0.713017
O O2 0.731024 0.754097 0.661965
O O3 0.665788 0.924100 0.753118
O O4 0.500000 0.500000 0.000000
O O5 0.691888 0.169696 0.858285
O O6 0.655290 0.179333 0.605034
O O7 0.442884 0.803665 0.955121
O O8 0.257388 0.226847 0.801644
O O9 0.131622 0.166367 0.641732
O O10 0.000000 0.000000 0.000000
O O11 0.029132 0.807244 0.904595
O O12 0.786490 0.397381 0.239528
O O13 0.821838 0.446288 0.941518
O O14 0.000000 0.500000 0.000000
O O15 0.788309 0.555042 0.689880
O O16 0.500000 0.500000 0.500000
O O17 0.388028 0.625655 0.566284
O O18 0.000000 0.000000 0.500000
O O19 0.500000 0.000000 0.500000
#
# Coordination Sequence:
#
# PCOD9065338 Si02
#       8
#     2   2   2   2   2   2   2   2
#     4  12  26  44  70 108 140 181 240 288 345 423
#     4  11  25  44  75 102 139 182 234 290 350 410
#     4  12  27  48  72 102 143 190 234 291 357 419
#     4  12  28  47  69 104 144 187 234 287 354 425
#     4  11  24  48  69 102 140 183 231 288 353 414
#     4  12  26  45  73 106 138 185 246 292 347 419
#     4  12  26  47  74 101 146 187 229 293 360 416
#     4  12  24  45  74 101 143 184 233 293 352 414
#
# _framework density 19.738484
#
# number of rings (size 3 to 8) (size 9 to 14) (size 15 to 20)
#    0.000    0.250    7.500    0.750    5.250    1.000 
#    0.000    1.250    0.000    0.000    0.000    0.000 
#    0.000    0.000    0.000    0.000    0.000    0.000 
#
# Total GULP energy -89514.886612 kJ/mol
# GULP energy per Si atom -5594.680413 kJ/mol
# Density = 1.969356 g / cm^3
# Si number density = 19.738484 Si / 1000 Ang^3
#
#
#
# Elastic Constant Matrix: (Units=GPa)
#
#
# Indices 1 2 3 4 5 6 
#
# 1 92.9497 45.7642 46.1204 -9.6360 -14.9606 -23.6514
# 2 45.7642 130.6897 23.5583 -15.7856 -5.8413 -18.1038
# 3 46.1204 23.5583 125.0809 -5.7720 -6.9055 -23.1881
# 4 -9.6360 -15.7856 -5.7720 34.4075 -3.2015 -10.5781
# 5 -14.9606 -5.8413 -6.9055 -3.2015 34.5615 -5.7541
# 6 -23.6514 -18.1038 -23.1881 -10.5781 -5.7541 30.2826
#
#
#
# Elastic Compliance Matrix: (Units=1/GPa)
#
#
# Indices 1 2 3 4 5 6 
#
# 1 0.021611 -0.002279 -0.002516 0.012014 0.012951 0.020247
# 2 -0.002279 0.010404 0.000879 0.007060 0.002957 0.008141
# 3 -0.002516 0.000879 0.010820 0.004588 0.003152 0.009047
# 4 0.012014 0.007060 0.004588 0.049813 0.018249 0.037985
# 5 0.012951 0.002957 0.003152 0.018249 0.042134 0.028677
# 6 0.020247 0.008141 0.009047 0.037985 0.028677 0.079347
#
#
# Mechanical properties :
#
#
# Convention : Reuss Voigt Hill
#
# Bulk Modulus (GPa) = 28.56995 64.40067 46.48531
# Shear Modulus (GPa) = 21.40130 35.40214 28.40172
#
# Velocity S-wave (km/s) = 3.29636 4.23964 3.79740
# Velocity P-wave (km/s) = 5.38457 7.52754 6.54437
#
# Compressibility (1/GPa) = 0.03500181
#
# Stress axis : x y z
#
# Youngs Moduli (GPa) = 46.27238 96.11620 92.42033
#
# Poissons Ratio (x) = 0.21909 0.23257
# Poissons Ratio (y) = 0.10548 -0.08125
# Poissons Ratio (z) = 0.11644 -0.08450
#
# Static dielectric constant tensor:
#      x y z
#    x 1.675830 -0.012870 0.002600 
#    y -0.012870 1.694540 -0.000450 
#    z 0.002600 -0.000450 1.673770 
# 
# From -- ./inp_files/206249.got.cif
#   From: 2010.05.17/outbox.cif.g08.bks.cpg/sg2_104_cif.got.tgz:206249.got - 2010.06.03 11:33:40.
