data_PCOD9065192
_publ_section_title
;
Structure prediction by ZEFSAII (Michael W. Deem and Ramdas Pophale) SiO2 
 PCOD9065192
Probable space group: P -1
;
_chemical_formula_sum "Si O2"
_cell_formula_units_Z 14
_cell_length_a 5.979326
_cell_length_b 8.911043
_cell_length_c 11.048372
_cell_angle_alpha 83.100763
_cell_angle_beta 87.407527
_cell_angle_gamma 105.842705
_cell_volume 560.338428
_symmetry_space_group_name_H-M "P -1"
_symmetry_group_IT_number 2
_symmetry_cell_setting 'triclinic'
loop_
_space_group_symop_operation_xyz
x,y,z
-x,-y,-z
loop_
_atom_site_type_symbol
_atom_site_label
_atom_site_fract_x
_atom_site_fract_y
_atom_site_fract_z
Si Si1 0.107347 0.106921 0.212467
Si Si2 0.362036 0.126285 0.459440
Si Si3 0.744529 0.378446 0.768515
Si Si4 0.147345 0.646200 0.840180
Si Si5 0.437905 0.545251 0.651915
Si Si6 0.928890 0.791157 0.333133
Si Si7 0.506194 0.820906 0.003568
O O1 0.269088 0.103511 0.325759
O O2 0.268780 0.171600 0.085826
O O3 0.946895 0.219828 0.233318
O O4 0.947535 0.927709 0.218921
O O5 0.534693 0.303908 0.446561
O O6 0.150366 0.130561 0.554055
O O7 0.500000 0.000000 0.500000
O O8 0.677091 0.503050 0.670610
O O9 0.937266 0.487166 0.843916
O O10 0.836020 0.257279 0.697363
O O11 0.524794 0.277214 0.861503
O O12 0.357820 0.601454 0.774209
O O13 0.267726 0.730310 0.949125
O O14 0.251044 0.381933 0.644780
O O15 0.500000 0.000000 0.000000
#
# Coordination Sequence:
#
# PCOD9065192 Si02
#       7
#     2   2   2   2   2   2   2
#     4  12  26  49  70 110 143 192 242 295 359 433
#     4  12  26  50  77 102 145 194 239 302 359 422
#     4  11  25  48  72 108 148 189 237 297 362 424
#     4  11  24  47  74 103 149 185 245 286 366 421
#     4  11  25  49  73 111 146 185 241 301 356 431
#     4  11  27  43  75 106 147 187 241 294 357 425
#     4  12  26  45  75 107 149 187 240 300 354 427
#
# _framework density 24.984902999999999
#
# number of rings (size 3 to 8) (size 9 to 14) (size 15 to 20)
#    0.000    0.571    4.286    2.143    4.000    5.714 
#    0.000    0.000    0.000    0.000    0.000    0.000 
#    0.000    0.000    0.000    0.000    0.000    0.000 
#
# Total GULP energy -78196.092966 kJ/mol
# GULP energy per Si atom -5585.435212 kJ/mol
# Density = 2.492804 g / cm^3
# Si number density = 24.984903 Si / 1000 Ang^3
#
#
#
# Elastic Constant Matrix: (Units=GPa)
#
#
# Indices 1 2 3 4 5 6 
#
# 1 54.1486 58.1259 36.6156 6.5529 -10.2171 -9.0695
# 2 58.1259 181.5249 57.4551 -9.6144 -15.8347 -17.3638
# 3 36.6156 57.4551 81.2767 -8.6777 -13.6650 -1.3632
# 4 6.5529 -9.6144 -8.6777 39.4336 6.3148 -6.2627
# 5 -10.2171 -15.8347 -13.6650 6.3148 26.3994 -6.3976
# 6 -9.0695 -17.3638 -1.3632 -6.2627 -6.3976 58.5347
#
#
#
# Elastic Compliance Matrix: (Units=1/GPa)
#
#
# Indices 1 2 3 4 5 6 
#
# 1 0.038454 -0.008442 -0.011309 -0.011690 0.007428 0.002752
# 2 -0.008442 0.009364 -0.002291 0.003347 0.000815 0.001863
# 3 -0.011309 -0.002291 0.020073 0.005060 0.003168 -0.001077
# 4 -0.011690 0.003347 0.005060 0.030607 -0.006774 0.001834
# 5 0.007428 0.000815 0.003168 -0.006774 0.045899 0.005758
# 6 0.002752 0.001863 -0.001077 0.001834 0.005758 0.018863
#
#
# Mechanical properties :
#
#
# Convention : Reuss Voigt Hill
#
# Bulk Modulus (GPa) = 42.00441 69.03817 55.52129
# Shear Modulus (GPa) = 23.22575 35.85712 29.54143
#
# Velocity S-wave (km/s) = 3.05223 3.79245 3.44229
# Velocity P-wave (km/s) = 5.41016 6.84608 6.17004
#
# Compressibility (1/GPa) = 0.02380702
#
# Stress axis : x y z
#
# Youngs Moduli (GPa) = 26.00511 106.79682 49.81931
#
# Poissons Ratio (x) = 0.90155 0.56342
# Poissons Ratio (y) = 0.21953 0.11411
# Poissons Ratio (z) = 0.29410 0.24463
#
# Static dielectric constant tensor:
#      x y z
#    x 1.970240 0.081700 -0.003300 
#    y 0.081700 1.980220 0.016860 
#    z -0.003300 0.016860 2.025140 
# 
# From -- ./inp_files/360635.got.cif
#   From: 2010.05.17/outbox.cif.g08.bks.cpg/sg2_181_cif.got.tgz:360635.got - 2010.06.03 11:33:40.
