data_PCOD9065639
_publ_section_title
;
Structure prediction by ZEFSAII (Michael W. Deem and Ramdas Pophale) SiO2 
 PCOD9065639
Probable space group: P -1
;
_chemical_formula_sum "Si O2"
_cell_formula_units_Z 16
_cell_length_a 7.076497
_cell_length_b 9.397005
_cell_length_c 20.944937
_cell_angle_alpha 42.936325
_cell_angle_beta 125.327014
_cell_angle_gamma 124.346651
_cell_volume 748.776702
_symmetry_space_group_name_H-M "P -1"
_symmetry_group_IT_number 2
_symmetry_cell_setting 'triclinic'
loop_
_space_group_symop_operation_xyz
x,y,z
-x,-y,-z
loop_
_atom_site_type_symbol
_atom_site_label
_atom_site_fract_x
_atom_site_fract_y
_atom_site_fract_z
Si Si1 0.726136 0.238105 0.399385
Si Si2 0.868896 0.954338 0.862365
Si Si3 0.050548 0.649226 0.728641
Si Si4 0.492006 0.540160 0.909511
Si Si5 0.828683 0.992589 0.621418
Si Si6 0.877547 0.740080 0.302177
Si Si7 0.348702 0.735200 0.204863
Si Si8 0.307831 0.769953 0.039916
O O1 0.831712 0.240215 0.349005
O O2 0.822327 0.095026 0.516662
O O3 0.801797 0.485681 0.356951
O O4 0.440542 0.142342 0.372073
O O5 0.640836 0.784883 0.844143
O O6 0.773040 0.074692 0.861829
O O7 0.008693 0.130070 0.781445
O O8 0.050578 0.814244 0.964347
O O9 0.226088 0.520165 0.837746
O O10 0.800422 0.479076 0.718783
O O11 0.995132 0.826631 0.706643
O O12 0.617073 0.380903 0.948374
O O13 0.500000 0.500000 0.000000
O O14 0.932105 0.179636 0.631017
O O15 0.629558 0.798561 0.252742
O O16 0.320914 0.680651 0.142531
O O17 0.500000 0.000000 0.000000
#
# Coordination Sequence:
#
# PCOD9065639 Si02
#       8
#     2   2   2   2   2   2   2   2
#     4  11  24  50  68 106 138 181 235 289 356 415
#     4  12  25  43  67  96 142 182 236 286 343 413
#     4  12  24  45  71  98 143 184 228 286 353 410
#     4  12  27  44  69 106 141 182 235 291 341 417
#     4  11  26  43  77 100 139 184 231 294 351 419
#     4  12  24  44  71 103 139 180 235 286 355 414
#     4  12  24  43  68  99 137 190 229 285 345 414
#     4  12  24  43  67  95 138 186 230 283 344 405
#
# _framework density 21.368185
#
# number of rings (size 3 to 8) (size 9 to 14) (size 15 to 20)
#    0.000    0.250    3.750    6.000    3.500    0.000 
#    0.000    0.625    0.000    0.000    0.000    0.000 
#    0.000    0.000    0.000    0.000    0.000    0.000 
#
# Total GULP energy -89579.778614 kJ/mol
# GULP energy per Si atom -5598.736163 kJ/mol
# Density = 2.131955 g / cm^3
# Si number density = 21.368185 Si / 1000 Ang^3
#
#
#
# Elastic Constant Matrix: (Units=GPa)
#
#
# Indices 1 2 3 4 5 6 
#
# 1 104.4473 44.5384 25.0889 -9.2604 -4.9268 -2.6224
# 2 44.5384 118.8453 9.8460 -2.2215 -1.4020 5.2418
# 3 25.0889 9.8460 48.6856 -1.3824 -11.9132 5.5105
# 4 -9.2604 -2.2215 -1.3824 30.9860 0.1846 -3.1423
# 5 -4.9268 -1.4020 -11.9132 0.1846 38.2992 -7.5838
# 6 -2.6224 5.2418 5.5105 -3.1423 -7.5838 32.2684
#
#
#
# Elastic Compliance Matrix: (Units=1/GPa)
#
#
# Indices 1 2 3 4 5 6 
#
# 1 0.013457 -0.004602 -0.006208 0.003751 0.000273 0.003331
# 2 -0.004602 0.010184 0.000416 -0.000858 -0.000543 -0.002311
# 3 -0.006208 0.000416 0.025611 -0.001079 0.006490 -0.003525
# 4 0.003751 -0.000858 -0.001079 0.033694 0.000763 0.004089
# 5 0.000273 -0.000543 0.006490 0.000763 0.029322 0.005968
# 6 0.003331 -0.002311 -0.003525 0.004089 0.005968 0.034039
#
#
# Mechanical properties :
#
#
# Convention : Reuss Voigt Hill
#
# Bulk Modulus (GPa) = 35.13072 47.88054 41.50563
# Shear Modulus (GPa) = 28.31526 33.14437 30.72981
#
# Velocity S-wave (km/s) = 3.64416 3.94268 3.79636
# Velocity P-wave (km/s) = 5.84661 6.57133 6.21954
#
# Compressibility (1/GPa) = 0.02846512
#
# Stress axis : x y z
#
# Youngs Moduli (GPa) = 74.31104 98.19257 39.04536
#
# Poissons Ratio (x) = 0.45192 0.24238
# Poissons Ratio (y) = 0.34201 -0.01626
# Poissons Ratio (z) = 0.46129 -0.04089
#
# Static dielectric constant tensor:
#      x y z
#    x 1.774180 0.024490 0.005140 
#    y 0.024490 1.773040 -0.003810 
#    z 0.005140 -0.003810 1.766500 
# 
# From -- ./inp_files/38086.got.cif
#   From: 2010.05.17/outbox.cif.g08.bks.cpg/sg2_20_cif.got.tgz:38086.got - 2010.06.03 11:33:40.
