data_PCOD9065002
_publ_section_title
;
Structure prediction by ZEFSAII (Michael W. Deem and Ramdas Pophale) SiO2 
 PCOD9065002
Probable space group: P -1
;
_chemical_formula_sum "Si O2"
_cell_formula_units_Z 16
_cell_length_a 5.798430
_cell_length_b 26.893081
_cell_length_c 5.539196
_cell_angle_alpha 53.269165
_cell_angle_beta 82.170942
_cell_angle_gamma 91.200370
_cell_volume 680.089161
_symmetry_space_group_name_H-M "P -1"
_symmetry_group_IT_number 2
_symmetry_cell_setting 'triclinic'
loop_
_space_group_symop_operation_xyz
x,y,z
-x,-y,-z
loop_
_atom_site_type_symbol
_atom_site_label
_atom_site_fract_x
_atom_site_fract_y
_atom_site_fract_z
Si Si1 0.053141 0.110292 0.426908
Si Si2 0.217048 0.718980 0.331581
Si Si3 0.130100 0.349345 0.747211
Si Si4 0.723954 0.373590 0.062252
Si Si5 0.445906 0.272994 0.130612
Si Si6 0.640666 0.508519 0.706688
Si Si7 0.480071 0.960801 0.366668
Si Si8 0.088906 0.185680 0.703269
O O1 0.286800 0.075514 0.542307
O O2 0.033214 0.145673 0.583535
O O3 0.789289 0.074762 0.510933
O O4 0.109100 0.149514 0.056875
O O5 0.372851 0.671285 0.575521
O O6 0.012496 0.665918 0.430955
O O7 0.114484 0.770228 0.354833
O O8 0.348191 0.749655 0.988718
O O9 0.238375 0.421039 0.506064
O O10 0.239869 0.285073 0.947893
O O11 0.955498 0.349438 0.998626
O O12 0.529923 0.346318 0.972478
O O13 0.775435 0.447219 0.869422
O O14 0.335842 0.228291 0.483891
O O15 0.500000 0.500000 0.500000
O O16 0.500000 0.500000 0.000000
O O17 0.500000 0.000000 0.500000
O O18 0.500000 0.000000 0.000000
#
# Coordination Sequence:
#
# PCOD9065002 Si02
#       8
#     2   2   2   2   2   2   2   2
#     4  12  29  50  83 128 168 218 272 325 386 453
#     4  11  27  44  73 104 143 203 255 312 397 472
#     4  11  24  47  66  99 135 183 251 316 402 480
#     4  11  25  43  71  97 132 189 248 318 398 486
#     4  11  25  46  71  99 147 200 250 314 395 473
#     4  12  27  44  70  97 132 177 242 327 402 473
#     4  12  26  54  89 125 171 217 268 323 386 453
#     4  12  28  49  73 116 165 208 264 326 375 464
#
# _framework density 23.526323999999999
#
# number of rings (size 3 to 8) (size 9 to 14) (size 15 to 20)
#    0.000    0.500    2.500    4.125   12.250    0.500 
#    0.000    0.000    0.000    0.000    0.000    0.000 
#    0.000    0.000    0.000    0.000    0.000    0.000 
#
# Total GULP energy -89167.355125 kJ/mol
# GULP energy per Si atom -5572.959695 kJ/mol
# Density = 2.347278 g / cm^3
# Si number density = 23.526324 Si / 1000 Ang^3
#
#
#
# Elastic Constant Matrix: (Units=GPa)
#
#
# Indices 1 2 3 4 5 6 
#
# 1 103.3761 67.6017 61.3084 -12.1669 -5.0213 -2.5731
# 2 67.6017 178.7863 66.6627 15.2208 2.5049 -2.0048
# 3 61.3084 66.6627 196.0021 9.2025 -3.4649 -7.6144
# 4 -12.1669 15.2208 9.2025 32.0127 4.2423 -0.0260
# 5 -5.0213 2.5049 -3.4649 4.2423 39.7625 -2.4000
# 6 -2.5731 -2.0048 -7.6144 -0.0260 -2.4000 39.5877
#
#
#
# Elastic Compliance Matrix: (Units=1/GPa)
#
#
# Indices 1 2 3 4 5 6 
#
# 1 0.017047 -0.005924 -0.003772 0.010232 0.001115 0.000157
# 2 -0.005924 0.008665 -0.000830 -0.006036 -0.000732 -0.000154
# 3 -0.003772 -0.000830 0.006758 -0.003054 0.000554 0.001044
# 4 0.010232 -0.006036 -0.003054 0.039246 -0.002803 -0.000372
# 5 0.001115 -0.000732 0.000554 -0.002803 0.025786 0.001703
# 6 0.000157 -0.000154 0.001044 -0.000372 0.001703 0.025567
#
#
# Mechanical properties :
#
#
# Convention : Reuss Voigt Hill
#
# Bulk Modulus (GPa) = 87.57889 96.59000 92.08444
# Shear Modulus (GPa) = 33.80077 41.11203 37.45640
#
# Velocity S-wave (km/s) = 3.79452 4.18483 3.99445
# Velocity P-wave (km/s) = 7.51695 8.03092 7.77818
#
# Compressibility (1/GPa) = 0.01141828
#
# Stress axis : x y z
#
# Youngs Moduli (GPa) = 58.66191 115.40654 147.97960
#
# Poissons Ratio (x) = 0.68370 0.55816
# Poissons Ratio (y) = 0.34753 0.12275
# Poissons Ratio (z) = 0.22126 0.09573
#
# Static dielectric constant tensor:
#      x y z
#    x 2.028770 -0.012760 0.027380 
#    y -0.012760 1.912850 -0.002940 
#    z 0.027380 -0.002940 2.002610 
# 
# From -- ./inp_files/14284.got.cif
#   From: 2010.05.17/outbox.cif.g08.bks.cpg/sg2_8_cif.got.tgz:14284.got - 2010.06.03 11:33:40.
