data_PCOD9065608
_publ_section_title
;
Structure prediction by ZEFSAII (Michael W. Deem and Ramdas Pophale) SiO2 
 PCOD9065608
Probable space group: P -1
;
_chemical_formula_sum "Si O2"
_cell_formula_units_Z 12
_cell_length_a 9.300933
_cell_length_b 9.397889
_cell_length_c 14.982106
_cell_angle_alpha 150.414832
_cell_angle_beta 129.347885
_cell_angle_gamma 47.488150
_cell_volume 472.715202
_symmetry_space_group_name_H-M "P -1"
_symmetry_group_IT_number 2
_symmetry_cell_setting 'triclinic'
loop_
_space_group_symop_operation_xyz
x,y,z
-x,-y,-z
loop_
_atom_site_type_symbol
_atom_site_label
_atom_site_fract_x
_atom_site_fract_y
_atom_site_fract_z
Si Si1 0.597599 0.878866 0.240363
Si Si2 0.195800 0.708527 0.353276
Si Si3 0.954668 0.360540 0.174993
Si Si4 0.663252 0.759026 0.990307
Si Si5 0.796469 0.734073 0.618385
Si Si6 0.946597 0.089817 0.321135
O O1 0.739345 0.572462 0.176289
O O2 0.608821 0.805326 0.099200
O O3 0.679659 0.147639 0.455036
O O4 0.374692 0.015359 0.261095
O O5 0.110187 0.467330 0.235925
O O6 0.306698 0.551433 0.221095
O O7 0.014204 0.979218 0.387459
O O8 0.006524 0.407515 0.322293
O O9 0.000000 0.000000 0.000000
O O10 0.866517 0.836218 0.108474
O O11 0.500000 0.000000 0.000000
O O12 0.765968 0.408991 0.413185
O O13 0.868866 0.884292 0.646950
#
# Coordination Sequence:
#
# PCOD9065608 Si02
#       6
#     2   2   2   2   2   2
#     4  12  27  51  83 117 155 208 270 319 389 478
#     4  12  25  51  81 110 158 213 257 324 399 464
#     4  12  26  48  76 115 162 207 260 332 392 459
#     4  12  26  46  79 117 152 207 268 320 388 473
#     4  11  26  47  77 115 160 207 260 327 397 462
#     4  11  24  49  76 114 162 206 259 328 396 467
#
# _framework density 25.385263999999999
#
# number of rings (size 3 to 8) (size 9 to 14) (size 15 to 20)
#    0.000    0.333    3.333    5.000    2.333    3.333 
#    6.000    0.000    0.000    0.000    0.000    0.000 
#    0.000    0.000    0.000    0.000    0.000    0.000 
#
# Total GULP energy -67111.337981 kJ/mol
# GULP energy per Si atom -5592.611498 kJ/mol
# Density = 2.532749 g / cm^3
# Si number density = 25.385264 Si / 1000 Ang^3
#
#
#
# Elastic Constant Matrix: (Units=GPa)
#
#
# Indices 1 2 3 4 5 6 
#
# 1 139.6901 63.9825 72.9714 11.0677 -35.2947 5.7174
# 2 63.9825 167.8531 43.2917 16.2819 -3.3936 6.9517
# 3 72.9714 43.2917 119.0850 16.7389 -24.5192 2.8063
# 4 11.0677 16.2819 16.7389 53.6342 3.5943 -3.8944
# 5 -35.2947 -3.3936 -24.5192 3.5943 43.2349 8.5418
# 6 5.7174 6.9517 2.8063 -3.8944 8.5418 44.0069
#
#
#
# Elastic Compliance Matrix: (Units=1/GPa)
#
#
# Indices 1 2 3 4 5 6 
#
# 1 0.013922 -0.003577 -0.005241 -0.000930 0.008720 -0.002684
# 2 -0.003577 0.007638 -0.000988 -0.001106 -0.002741 -0.000245
# 3 -0.005241 -0.000988 0.013145 -0.003028 0.003539 -0.000956
# 4 -0.000930 -0.001106 -0.003028 0.020686 -0.004930 0.003276
# 5 0.008720 -0.002741 0.003539 -0.004930 0.034023 -0.007966
# 6 -0.002684 -0.000245 -0.000956 0.003276 -0.007966 0.025008
#
#
# Mechanical properties :
#
#
# Convention : Reuss Voigt Hill
#
# Bulk Modulus (GPa) = 66.25709 87.45773 76.85741
# Shear Modulus (GPa) = 35.95455 44.60068 40.27761
#
# Velocity S-wave (km/s) = 3.76753 4.19615 3.98760
# Velocity P-wave (km/s) = 6.71439 7.61602 7.17937
#
# Compressibility (1/GPa) = 0.01509272
#
# Stress axis : x y z
#
# Youngs Moduli (GPa) = 71.83050 130.92515 76.07633
#
# Poissons Ratio (x) = 0.46835 0.39871
# Poissons Ratio (y) = 0.25696 0.07513
# Poissons Ratio (z) = 0.37646 0.12930
#
# Static dielectric constant tensor:
#      x y z
#    x 2.028010 -0.026970 0.046080 
#    y -0.026970 2.052810 0.192820 
#    z 0.046080 0.192820 2.643630 
# 
# From -- ./inp_files/494183.got.cif
#   From: 2010.05.17/outbox.cif.g08.bks.cpg/sg2_248_cif.got.tgz:494183.got - 2010.06.03 11:33:40.
