data_PCOD9065183
_publ_section_title
;
Structure prediction by ZEFSAII (Michael W. Deem and Ramdas Pophale) SiO2 
 PCOD9065183
Probable space group: P -1
;
_chemical_formula_sum "Si O2"
_cell_formula_units_Z 15
_cell_length_a 9.243560
_cell_length_b 8.979759
_cell_length_c 14.506748
_cell_angle_alpha 104.646820
_cell_angle_beta 75.828331
_cell_angle_gamma 48.828570
_cell_volume 723.716917
_symmetry_space_group_name_H-M "P -1"
_symmetry_group_IT_number 2
_symmetry_cell_setting 'triclinic'
loop_
_space_group_symop_operation_xyz
x,y,z
-x,-y,-z
loop_
_atom_site_type_symbol
_atom_site_label
_atom_site_fract_x
_atom_site_fract_y
_atom_site_fract_z
Si Si1 0.500000 0.000000 0.000000
Si Si2 0.255478 0.379972 0.620822
Si Si3 0.983651 0.660292 0.962727
Si Si4 0.407045 0.468567 0.760515
Si Si5 0.295329 0.122239 0.220949
Si Si6 0.843598 0.029810 0.183571
Si Si7 0.341694 0.738399 0.126342
Si Si8 0.463725 0.954341 0.646263
O O1 0.225279 0.203350 0.052044
O O2 0.430515 0.131492 0.134300
O O3 0.419788 0.377570 0.644617
O O4 0.350964 0.266499 0.487072
O O5 0.983968 0.643616 0.699413
O O6 0.299124 0.194486 0.647894
O O7 0.215727 0.513965 0.848439
O O8 0.000000 0.500000 0.000000
O O9 0.938080 0.843100 0.061132
O O10 0.304002 0.717452 0.798223
O O11 0.607974 0.321585 0.782230
O O12 0.399189 0.061080 0.297291
O O13 0.383856 0.888358 0.124715
O O14 0.691917 0.050707 0.281044
O O15 0.073656 0.918738 0.176366
O O16 0.500000 0.500000 0.000000
#
# Coordination Sequence:
#
# PCOD9065183 Si02
#       8
#     1   2   2   2   2   2   2   2
#     4  12  24  34  68 100 130 166 218 272 330 400
#     4  11  24  47  73  93 133 182 232 283 331 391
#     4  12  24  40  66  98 139 179 222 277 335 402
#     4  12  24  43  65  95 141 179 218 276 343 401
#     4  12  24  44  68 102 135 178 223 277 339 404
#     4  12  26  42  65 101 136 176 223 277 341 404
#     4  12  26  40  66  98 140 177 214 266 347 411
#     4  11  26  46  72  99 128 179 239 283 326 392
#
# _framework density 20.726334999999999
#
# number of rings (size 3 to 8) (size 9 to 14) (size 15 to 20)
#    0.000    0.267    6.667    2.400    1.867    1.600 
#    0.000    0.667    0.000    0.000    0.000    0.000 
#    0.000    0.000    0.000    0.000    0.000    0.000 
#
# Total GULP energy -83617.301908 kJ/mol
# GULP energy per Si atom -5574.486794 kJ/mol
# Density = 2.067916 g / cm^3
# Si number density = 20.726335 Si / 1000 Ang^3
#
#
#
# Elastic Constant Matrix: (Units=GPa)
#
#
# Indices 1 2 3 4 5 6 
#
# 1 54.9929 1.1521 -10.4118 -5.0532 10.1949 -11.8492
# 2 1.1521 59.4450 -10.5081 0.2855 8.9753 -15.7656
# 3 -10.4118 -10.5081 101.9286 -5.9765 17.4266 2.5985
# 4 -5.0532 0.2855 -5.9765 27.3181 -5.3736 12.6121
# 5 10.1949 8.9753 17.4266 -5.3736 32.2555 2.3638
# 6 -11.8492 -15.7656 2.5985 12.6121 2.3638 37.9077
#
#
#
# Elastic Compliance Matrix: (Units=1/GPa)
#
#
# Indices 1 2 3 4 5 6 
#
# 1 0.023332 0.005034 0.004634 -0.002011 -0.012384 0.010510
# 2 0.005034 0.023177 0.004265 -0.007401 -0.012616 0.014169
# 3 0.004634 0.004265 0.012284 0.000321 -0.009445 0.002862
# 4 -0.002011 -0.007401 0.000321 0.048231 0.012061 -0.020528
# 5 -0.012384 -0.012616 -0.009445 0.012061 0.046667 -0.015393
# 6 0.010510 0.014169 0.002862 -0.020528 -0.015393 0.043151
#
#
# Mechanical properties :
#
#
# Convention : Reuss Voigt Hill
#
# Bulk Modulus (GPa) = 11.53956 19.64788 15.59372
# Shear Modulus (GPa) = 25.26997 35.23854 30.25425
#
# Velocity S-wave (km/s) = 3.49552 4.12780 3.82475
# Velocity P-wave (km/s) = 4.67667 5.67614 5.20047
#
# Compressibility (1/GPa) = 0.08665841
#
# Stress axis : x y z
#
# Youngs Moduli (GPa) = 42.86032 43.14622 81.40415
#
# Poissons Ratio (x) = -0.21719 -0.37719
# Poissons Ratio (y) = -0.21575 -0.34722
# Poissons Ratio (z) = -0.19860 -0.18403
#
# Static dielectric constant tensor:
#      x y z
#    x 2.036630 0.281650 -0.227800 
#    y 0.281650 2.084650 -0.317070 
#    z -0.227800 -0.317070 2.073970 
# 
# From -- ./inp_files/177215.got.cif
#   From: 2010.05.17/outbox.cif.g08.bks.cpg/sg2_89_cif.got.tgz:177215.got - 2010.06.03 11:33:40.
