data_PCOD9065016
_publ_section_title
;
Structure prediction by ZEFSAII (Michael W. Deem and Ramdas Pophale) SiO2 
 PCOD9065016
Probable space group: P -1
;
_chemical_formula_sum "Si O2"
_cell_formula_units_Z 15
_cell_length_a 15.186982
_cell_length_b 11.329729
_cell_length_c 12.539257
_cell_angle_alpha 107.932834
_cell_angle_beta 36.608479
_cell_angle_gamma 134.590211
_cell_volume 731.679587
_symmetry_space_group_name_H-M "P -1"
_symmetry_group_IT_number 2
_symmetry_cell_setting 'triclinic'
loop_
_space_group_symop_operation_xyz
x,y,z
-x,-y,-z
loop_
_atom_site_type_symbol
_atom_site_label
_atom_site_fract_x
_atom_site_fract_y
_atom_site_fract_z
Si Si1 0.626562 0.210720 0.247689
Si Si2 0.669912 0.516841 0.904526
Si Si3 0.245164 0.141791 0.370959
Si Si4 0.755022 0.730348 0.362732
Si Si5 0.592245 0.025554 0.801349
Si Si6 0.000000 0.500000 0.500000
Si Si7 0.916934 0.100542 0.238993
Si Si8 0.040339 0.334555 0.974111
O O1 0.807054 0.267376 0.170999
O O2 0.629543 0.145008 0.112924
O O3 0.347789 0.019008 0.506525
O O4 0.724468 0.415369 0.187568
O O5 0.805541 0.494261 0.706054
O O6 0.880701 0.735948 0.822431
O O7 0.500000 0.500000 0.000000
O O8 0.484994 0.335139 0.121731
O O9 0.250574 0.225210 0.498173
O O10 0.267968 0.011950 0.339809
O O11 0.000000 0.000000 0.500000
O O12 0.500000 0.500000 0.500000
O O13 0.851035 0.910679 0.248874
O O14 0.943457 0.744671 0.164972
O O15 0.768341 0.251472 0.652211
O O16 0.500000 0.000000 0.000000
O O17 0.016299 0.232842 0.072652
#
# Coordination Sequence:
#
# PCOD9065016 Si02
#       8
#     2   2   2   2   2   1   2   2
#     4  11  24  47  68 103 146 179 243 303 357 438
#     4  12  26  47  73 109 149 194 248 305 372 441
#     4  12  26  47  73 104 149 192 239 311 371 438
#     4  12  23  45  72 102 142 188 241 294 369 430
#     4  12  24  43  70 100 142 187 233 295 365 428
#     4  12  24  44  72 104 142 192 244 290 358 442
#     4  12  23  46  71 101 145 183 241 310 359 430
#     4  11  26  43  73 103 137 193 238 293 370 433
#
# _framework density 20.500776999999999
#
# number of rings (size 3 to 8) (size 9 to 14) (size 15 to 20)
#    0.000    0.267    5.333    4.000    1.867    1.067 
#    0.000    1.333    0.000    0.000    0.000    0.000 
#    0.000    0.000    0.000    0.000    0.000    0.000 
#
# Total GULP energy -83524.778256 kJ/mol
# GULP energy per Si atom -5568.318550 kJ/mol
# Density = 2.045412 g / cm^3
# Si number density = 20.500777 Si / 1000 Ang^3
#
#
#
# Elastic Constant Matrix: (Units=GPa)
#
#
# Indices 1 2 3 4 5 6 
#
# 1 104.1884 67.5312 34.5125 -2.0585 -8.6237 -5.6199
# 2 67.5312 176.3751 50.6833 -3.4187 0.0728 -14.7887
# 3 34.5125 50.6833 86.5954 6.6603 -14.4117 -0.5017
# 4 -2.0585 -3.4187 6.6603 41.0619 3.1419 6.0529
# 5 -8.6237 0.0728 -14.4117 3.1419 32.1735 -6.0299
# 6 -5.6199 -14.7887 -0.5017 6.0529 -6.0299 36.2154
#
#
#
# Elastic Compliance Matrix: (Units=1/GPa)
#
#
# Indices 1 2 3 4 5 6 
#
# 1 0.013521 -0.004434 -0.002381 0.000400 0.002647 0.000629
# 2 -0.004434 0.008664 -0.003799 0.000989 -0.002594 0.002200
# 3 -0.002381 -0.003799 0.016158 -0.003600 0.006972 0.000066
# 4 0.000400 0.000989 -0.003600 0.026123 -0.004953 -0.004775
# 5 0.002647 -0.002594 0.006972 -0.004953 0.036597 0.006369
# 6 0.000629 0.002200 0.000066 -0.004775 0.006369 0.030468
#
#
# Mechanical properties :
#
#
# Convention : Reuss Voigt Hill
#
# Bulk Modulus (GPa) = 58.42274 74.73478 66.57876
# Shear Modulus (GPa) = 31.55343 36.18560 33.86952
#
# Velocity S-wave (km/s) = 3.92744 4.20585 4.06902
# Velocity P-wave (km/s) = 7.00900 7.75366 7.39071
#
# Compressibility (1/GPa) = 0.01711662
#
# Stress axis : x y z
#
# Youngs Moduli (GPa) = 73.95836 115.42529 61.89027
#
# Poissons Ratio (x) = 0.51175 0.14733
# Poissons Ratio (y) = 0.32790 0.23511
# Poissons Ratio (z) = 0.17606 0.43847
#
# Static dielectric constant tensor:
#      x y z
#    x 1.762840 -0.002490 -0.007650 
#    y -0.002490 1.718610 0.033650 
#    z -0.007650 0.033650 1.772060 
# 
# From -- ./inp_files/451510.got.cif
#   From: 2010.05.17/outbox.cif.g08.bks.cpg/sg2_226_cif.got.tgz:451510.got - 2010.06.03 11:33:40.
