data_PCOD9065406
_publ_section_title
;
Structure prediction by ZEFSAII (Michael W. Deem and Ramdas Pophale) SiO2 
 PCOD9065406
Probable space group: P -1
;
_chemical_formula_sum "Si O2"
_cell_formula_units_Z 16
_cell_length_a 22.148758
_cell_length_b 18.589900
_cell_length_c 12.492411
_cell_angle_alpha 24.510170
_cell_angle_beta 154.081564
_cell_angle_gamma 161.764231
_cell_volume 642.694750
_symmetry_space_group_name_H-M "P -1"
_symmetry_group_IT_number 2
_symmetry_cell_setting 'triclinic'
loop_
_space_group_symop_operation_xyz
x,y,z
-x,-y,-z
loop_
_atom_site_type_symbol
_atom_site_label
_atom_site_fract_x
_atom_site_fract_y
_atom_site_fract_z
Si Si1 0.761335 0.133448 0.369120
Si Si2 0.831852 0.961366 0.147003
Si Si3 0.795230 0.206201 0.564882
Si Si4 0.386435 0.608817 0.931175
Si Si5 0.978812 0.630172 0.933266
Si Si6 0.921224 0.966554 0.728793
Si Si7 0.683227 0.261219 0.788261
Si Si8 0.316815 0.462586 0.776536
O O1 0.787216 0.108955 0.568017
O O2 0.931500 0.425442 0.214398
O O3 0.778772 0.992886 0.503220
O O4 0.538077 0.005325 0.179648
O O5 0.793911 0.070669 0.843939
O O6 0.960729 0.158601 0.180772
O O7 0.603868 0.720589 0.145994
O O8 0.963701 0.934706 0.334885
O O9 0.627160 0.205090 0.302852
O O10 0.000000 0.500000 0.500000
O O11 0.342689 0.570993 0.786152
O O12 0.210270 0.326919 0.078141
O O13 0.163774 0.748016 0.992295
O O14 0.781883 0.448982 0.791560
O O15 0.108366 0.169799 0.831831
O O16 0.674662 0.388129 0.505012
O O17 0.500000 0.500000 0.000000
#
# Coordination Sequence:
#
# PCOD9065406 Si02
#       8
#     2   2   2   2   2   2   2   2
#     4  12  24  43  71 101 137 175 227 283 336 401
#     4  12  25  43  64 100 138 181 224 274 345 400
#     4  12  22  40  65  99 139 175 223 280 341 392
#     4  12  24  40  67 100 138 176 220 280 343 400
#     4  11  24  48  72  95 139 178 230 287 322 401
#     4  12  26  41  69 103 138 176 218 278 346 405
#     4  11  25  44  73 101 126 185 236 272 338 397
#     4  12  23  43  69 101 140 174 222 279 339 406
#
# _framework density 24.895178000000001
#
# number of rings (size 3 to 8) (size 9 to 14) (size 15 to 20)
#    0.000    0.250    5.000    4.875    1.750    0.000 
#    0.000    1.250    0.000    0.000    0.000    0.000 
#    0.000    0.000    0.000    0.000    0.000    0.000 
#
# Total GULP energy -89675.919584 kJ/mol
# GULP energy per Si atom -5604.744974 kJ/mol
# Density = 2.483852 g / cm^3
# Si number density = 24.895178 Si / 1000 Ang^3
#
#
#
# Elastic Constant Matrix: (Units=GPa)
#
#
# Indices 1 2 3 4 5 6 
#
# 1 144.1210 37.3109 17.7834 6.8409 16.5546 -14.0764
# 2 37.3109 117.1082 -8.0117 4.0453 7.7654 12.3446
# 3 17.7834 -8.0117 39.2443 -9.8760 8.0225 4.9377
# 4 6.8409 4.0453 -9.8760 36.2871 0.4072 1.6038
# 5 16.5546 7.7654 8.0225 0.4072 39.0969 8.0635
# 6 -14.0764 12.3446 4.9377 1.6038 8.0635 52.0496
#
#
#
# Elastic Compliance Matrix: (Units=1/GPa)
#
#
# Indices 1 2 3 4 5 6 
#
# 1 0.009528 -0.003602 -0.005794 -0.003139 -0.003035 0.004548
# 2 -0.003602 0.010418 0.004624 0.000952 -0.000719 -0.003802
# 3 -0.005794 0.004624 0.033086 0.009870 -0.004233 -0.005451
# 4 -0.003139 0.000952 0.009870 0.030863 -0.000616 -0.002867
# 5 -0.003035 -0.000719 -0.004233 -0.000616 0.028850 -0.004699
# 6 0.004548 -0.003802 -0.005451 -0.002867 -0.004699 0.022677
#
#
# Mechanical properties :
#
#
# Convention : Reuss Voigt Hill
#
# Bulk Modulus (GPa) = 22.99483 43.84873 33.42178
# Shear Modulus (GPa) = 31.35531 42.37944 36.86738
#
# Velocity S-wave (km/s) = 3.55278 4.13039 3.85243
# Velocity P-wave (km/s) = 5.10749 6.35597 5.76562
#
# Compressibility (1/GPa) = 0.04348804
#
# Stress axis : x y z
#
# Youngs Moduli (GPa) = 104.95629 95.98353 30.22432
#
# Poissons Ratio (x) = 0.34570 0.17513
# Poissons Ratio (y) = 0.37802 -0.13975
# Poissons Ratio (z) = 0.60815 -0.44382
#
# Static dielectric constant tensor:
#      x y z
#    x 1.962670 0.024000 0.019580 
#    y 0.024000 1.931150 0.003720 
#    z 0.019580 0.003720 2.022430 
# 
# From -- ./inp_files/472365.got.cif
#   From: 2010.05.17/outbox.cif.g08.bks.cpg/sg2_237_cif.got.tgz:472365.got - 2010.06.03 11:33:40.
