data_PCOD9065929
_publ_section_title
;
Structure prediction by ZEFSAII (Michael W. Deem and Ramdas Pophale) SiO2 
 PCOD9065929
Probable space group: P -1
;
_chemical_formula_sum "Si O2"
_cell_formula_units_Z 14
_cell_length_a 9.319013
_cell_length_b 19.994874
_cell_length_c 12.127743
_cell_angle_alpha 23.581919
_cell_angle_beta 63.108630
_cell_angle_gamma 49.870995
_cell_volume 616.447437
_symmetry_space_group_name_H-M "P -1"
_symmetry_group_IT_number 2
_symmetry_cell_setting 'triclinic'
loop_
_space_group_symop_operation_xyz
x,y,z
-x,-y,-z
loop_
_atom_site_type_symbol
_atom_site_label
_atom_site_fract_x
_atom_site_fract_y
_atom_site_fract_z
Si Si1 0.987595 0.803585 0.219399
Si Si2 0.675909 0.746579 0.333203
Si Si3 0.293367 0.587725 0.260283
Si Si4 0.905476 0.423463 0.068632
Si Si5 0.777840 0.286914 0.512888
Si Si6 0.946382 0.854134 0.783600
Si Si7 0.497416 0.703943 0.672289
O O1 0.884082 0.703350 0.362671
O O2 0.187716 0.731987 0.187439
O O3 0.073750 0.722590 0.434468
O O4 0.819046 0.065002 0.863823
O O5 0.693144 0.621216 0.409631
O O6 0.585237 0.680622 0.555993
O O7 0.500000 0.000000 0.000000
O O8 0.529038 0.495600 0.295138
O O9 0.111442 0.719433 0.030016
O O10 0.861795 0.286036 0.365264
O O11 0.020311 0.292660 0.111299
O O12 0.677439 0.645861 0.778829
O O13 0.000000 0.500000 0.000000
O O14 0.709831 0.045345 0.619020
O O15 0.000000 0.000000 0.500000
O O16 0.500000 0.500000 0.000000
#
# Coordination Sequence:
#
# PCOD9065929 Si02
#       7
#     2   2   2   2   2   2   2
#     4  11  25  44  68 101 140 183 235 286 362 410
#     4  12  23  43  70 105 141 180 232 300 348 407
#     4  12  24  43  73 103 135 184 241 289 348 424
#     4  12  26  46  70 105 150 183 235 296 364 421
#     4  11  25  45  68  97 145 188 225 293 352 429
#     4  12  24  42  76 105 134 191 242 289 354 427
#     4  12  25  46  73 105 144 187 242 296 356 429
#
# _framework density 22.710778999999999
#
# number of rings (size 3 to 8) (size 9 to 14) (size 15 to 20)
#    0.000    0.286    4.286    5.143    0.000    0.571 
#    0.000    0.000    0.000    0.000    0.000    0.000 
#    0.000    0.000    0.000    0.000    0.000    0.000 
#
# Total GULP energy -78147.538745 kJ/mol
# GULP energy per Si atom -5581.967053 kJ/mol
# Density = 2.265909 g / cm^3
# Si number density = 22.710779 Si / 1000 Ang^3
#
#
#
# Elastic Constant Matrix: (Units=GPa)
#
#
# Indices 1 2 3 4 5 6 
#
# 1 73.6762 3.3147 9.0780 -10.6963 14.7223 -3.2779
# 2 3.3147 98.1535 31.1818 -10.4117 19.3041 -11.9627
# 3 9.0780 31.1818 104.4945 -11.9246 25.7090 -8.0094
# 4 -10.6963 -10.4117 -11.9246 38.0508 -5.1041 7.5095
# 5 14.7223 19.3041 25.7090 -5.1041 43.2240 -0.0370
# 6 -3.2779 -11.9627 -8.0094 7.5095 -0.0370 33.1460
#
#
#
# Elastic Compliance Matrix: (Units=1/GPa)
#
#
# Indices 1 2 3 4 5 6 
#
# 1 0.015139 0.000985 0.000188 0.003667 -0.005274 0.001061
# 2 0.000985 0.012332 -0.002237 0.001655 -0.004313 0.003628
# 3 0.000188 -0.002237 0.012059 0.002092 -0.005989 0.001645
# 4 0.003667 0.001655 0.002092 0.029482 0.000244 -0.005213
# 5 -0.005274 -0.004313 -0.005989 0.000244 0.030446 -0.003547
# 6 0.001061 0.003628 0.001645 -0.005213 -0.003547 0.033158
#
#
# Mechanical properties :
#
#
# Convention : Reuss Voigt Hill
#
# Bulk Modulus (GPa) = 26.73673 40.38591 33.56132
# Shear Modulus (GPa) = 33.96463 38.40082 36.18272
#
# Velocity S-wave (km/s) = 3.87140 4.11647 3.99582
# Velocity P-wave (km/s) = 5.63755 6.35729 6.00820
#
# Compressibility (1/GPa) = 0.03740173
#
# Stress axis : x y z
#
# Youngs Moduli (GPa) = 66.05489 81.09221 82.92231
#
# Poissons Ratio (x) = -0.07984 -0.01563
# Poissons Ratio (y) = -0.06503 0.18551
# Poissons Ratio (z) = -0.01245 0.18142
#
# Static dielectric constant tensor:
#      x y z
#    x 1.849730 0.051470 -0.068660 
#    y 0.051470 1.922470 0.017040 
#    z -0.068660 0.017040 1.828860 
# 
# From -- ./inp_files/400895.got.cif
#   From: 2010.05.17/outbox.cif.g08.bks.cpg/sg2_201_cif.got.tgz:400895.got - 2010.06.03 11:33:40.
