data_PCOD9065003
_publ_section_title
;
Structure prediction by ZEFSAII (Michael W. Deem and Ramdas Pophale) SiO2 
 PCOD9065003
Probable space group: P -1
;
_chemical_formula_sum "Si O2"
_cell_formula_units_Z 16
_cell_length_a 10.180089
_cell_length_b 9.522219
_cell_length_c 19.665063
_cell_angle_alpha 34.561996
_cell_angle_beta 134.561495
_cell_angle_gamma 110.398379
_cell_volume 634.537785
_symmetry_space_group_name_H-M "P -1"
_symmetry_group_IT_number 2
_symmetry_cell_setting 'triclinic'
loop_
_space_group_symop_operation_xyz
x,y,z
-x,-y,-z
loop_
_atom_site_type_symbol
_atom_site_label
_atom_site_fract_x
_atom_site_fract_y
_atom_site_fract_z
Si Si1 0.597845 0.734007 0.197276
Si Si2 0.856561 0.991799 0.233927
Si Si3 0.237570 0.435019 0.090842
Si Si4 0.199889 0.632754 0.393400
Si Si5 0.295042 0.841577 0.606392
Si Si6 0.824131 0.855607 0.052299
Si Si7 0.812363 0.318314 0.226713
Si Si8 0.334270 0.967760 0.212832
O O1 0.720839 0.408076 0.338945
O O2 0.754682 0.798518 0.270109
O O3 0.500000 0.000000 0.000000
O O4 0.377233 0.821567 0.122035
O O5 0.792416 0.169829 0.210677
O O6 0.768277 0.265565 0.038985
O O7 0.101672 0.765839 0.379158
O O8 0.468625 0.211932 0.303644
O O9 0.290070 0.274616 0.101194
O O10 0.000000 0.500000 0.000000
O O11 0.285372 0.823281 0.315602
O O12 0.409245 0.287159 0.610625
O O13 0.011597 0.693640 0.244248
O O14 0.264928 0.793845 0.693854
O O15 0.080018 0.167534 0.382369
O O16 0.721451 0.658495 0.078107
O O17 0.845354 0.935104 0.950918
#
# Coordination Sequence:
#
# PCOD9065003 Si02
#       8
#     2   2   2   2   2   2   2   2
#     4  12  23  42  69  98 136 182 222 293 343 412
#     4  12  24  44  69 100 137 176 231 285 351 412
#     4  12  23  43  70  98 137 185 229 284 344 415
#     4  11  24  47  66  99 143 176 232 285 339 414
#     4  11  25  46  67 102 141 183 231 286 356 410
#     4  12  23  45  69  99 136 183 229 279 350 411
#     4  11  25  43  71 103 136 179 231 294 350 415
#     4  11  26  42  71 100 133 189 230 281 342 414
#
# _framework density 25.215205000000001
#
# number of rings (size 3 to 8) (size 9 to 14) (size 15 to 20)
#    0.000    0.500    6.250    1.125    3.500    2.500 
#    0.000    0.625    0.000    0.000    0.000    0.000 
#    0.000    0.000    0.000    0.000    0.000    0.000 
#
# Total GULP energy -89328.925268 kJ/mol
# GULP energy per Si atom -5583.057829 kJ/mol
# Density = 2.515781 g / cm^3
# Si number density = 25.215205 Si / 1000 Ang^3
#
#
#
# Elastic Constant Matrix: (Units=GPa)
#
#
# Indices 1 2 3 4 5 6 
#
# 1 51.8882 43.7119 22.2663 5.7086 11.4950 -6.9991
# 2 43.7119 153.6730 25.8712 -5.7448 11.7093 -26.5652
# 3 22.2663 25.8712 74.3477 1.8828 16.9711 0.3042
# 4 5.7086 -5.7448 1.8828 37.8988 -1.8915 10.5448
# 5 11.4950 11.7093 16.9711 -1.8915 40.3531 5.4237
# 6 -6.9991 -26.5652 0.3042 10.5448 5.4237 37.5358
#
#
#
# Elastic Compliance Matrix: (Units=1/GPa)
#
#
# Indices 1 2 3 4 5 6 
#
# 1 0.029466 -0.006813 -0.005171 -0.006358 -0.004973 0.003219
# 2 -0.006813 0.009705 -0.001135 0.000971 -0.001091 0.005492
# 3 -0.005171 -0.001135 0.016546 -0.000149 -0.005011 -0.001135
# 4 -0.006358 0.000971 -0.000149 0.030402 0.004316 -0.009661
# 5 -0.004973 -0.001091 -0.005011 0.004316 0.029788 -0.007175
# 6 0.003219 0.005492 -0.001135 -0.009661 -0.007175 0.034889
#
#
# Mechanical properties :
#
#
# Convention : Reuss Voigt Hill
#
# Bulk Modulus (GPa) = 33.92205 51.51198 42.71701
# Shear Modulus (GPa) = 26.75784 35.69484 31.22634
#
# Velocity S-wave (km/s) = 3.26111 3.76654 3.52290
# Velocity P-wave (km/s) = 5.25947 6.27607 5.79012
#
# Compressibility (1/GPa) = 0.02947935
#
# Stress axis : x y z
#
# Youngs Moduli (GPa) = 33.93713 103.03693 60.43728
#
# Poissons Ratio (x) = 0.70203 0.31252
# Poissons Ratio (y) = 0.23123 0.06858
# Poissons Ratio (z) = 0.17549 0.11692
#
# Static dielectric constant tensor:
#      x y z
#    x 2.039920 -0.023320 -0.000070 
#    y -0.023320 1.992820 0.098140 
#    z -0.000070 0.098140 2.097880 
# 
# From -- ./inp_files/593978.got.cif
#   From: 2010.05.17/outbox.cif.g08.bks.cpg/sg2_297_cif.got.tgz:593978.got - 2010.06.03 11:33:40.
