data_PCOD9065578
_publ_section_title
;
Structure prediction by ZEFSAII (Michael W. Deem and Ramdas Pophale) SiO2 
 PCOD9065578
Probable space group: P -1
;
_chemical_formula_sum "Si O2"
_cell_formula_units_Z 13
_cell_length_a 6.367200
_cell_length_b 8.884284
_cell_length_c 17.646157
_cell_angle_alpha 140.390603
_cell_angle_beta 87.601312
_cell_angle_gamma 110.182577
_cell_volume 553.923597
_symmetry_space_group_name_H-M "P -1"
_symmetry_group_IT_number 2
_symmetry_cell_setting 'triclinic'
loop_
_space_group_symop_operation_xyz
x,y,z
-x,-y,-z
loop_
_atom_site_type_symbol
_atom_site_label
_atom_site_fract_x
_atom_site_fract_y
_atom_site_fract_z
Si Si1 0.053057 0.139571 0.230466
Si Si2 0.094523 0.460623 0.656800
Si Si3 0.536784 0.614431 0.459607
Si Si4 0.029452 0.362838 0.871398
Si Si5 0.554795 0.399580 0.156830
Si Si6 0.344009 0.797649 0.322545
Si Si7 0.000000 0.000000 0.000000
O O1 0.334191 0.365362 0.318659
O O2 0.915762 0.312789 0.306799
O O3 0.996351 0.921258 0.211563
O O4 0.993300 0.010110 0.098030
O O5 0.199674 0.304932 0.545866
O O6 0.280388 0.600477 0.777297
O O7 0.839806 0.291341 0.637972
O O8 0.500000 0.500000 0.500000
O O9 0.510567 0.880481 0.560048
O O10 0.286037 0.544729 0.898983
O O11 0.827976 0.314945 0.792826
O O12 0.000000 0.500000 0.000000
O O13 0.504195 0.652225 0.267727
O O14 0.294240 0.143117 0.054996
#
# Coordination Sequence:
#
# PCOD9065578 Si02
#       7
#     2   2   2   2   2   2   1
#     4  12  27  46  75 114 145 194 247 303 381 435
#     4  11  25  47  74 110 146 195 247 307 369 447
#     4  12  26  47  75 111 150 192 247 311 365 442
#     4  11  27  48  75 110 151 196 249 302 374 439
#     4  11  26  49  77 110 146 201 244 311 369 442
#     4  11  24  49  73 108 149 197 247 301 376 435
#     4  12  24  50  74 106 146 190 252 300 368 434
#
# _framework density 23.468942999999999
#
# number of rings (size 3 to 8) (size 9 to 14) (size 15 to 20)
#    0.000    0.615    4.615    1.385    4.308    9.846 
#    0.000    0.000    0.000    0.000    0.000    0.000 
#    0.000    0.000    0.000    0.000    0.000    0.000 
#
# Total GULP energy -72580.171223 kJ/mol
# GULP energy per Si atom -5583.090094 kJ/mol
# Density = 2.341553 g / cm^3
# Si number density = 23.468943 Si / 1000 Ang^3
#
#
#
# Elastic Constant Matrix: (Units=GPa)
#
#
# Indices 1 2 3 4 5 6 
#
# 1 81.2123 43.1509 7.3934 10.5512 -9.5547 -0.5588
# 2 43.1509 72.3135 18.7749 -4.7672 -2.9449 -5.3269
# 3 7.3934 18.7749 46.9901 -8.8183 2.7463 -0.2156
# 4 10.5512 -4.7672 -8.8183 33.4911 3.2897 -8.2575
# 5 -9.5547 -2.9449 2.7463 3.2897 40.2408 4.7526
# 6 -0.5588 -5.3269 -0.2156 -8.2575 4.7526 48.1719
#
#
#
# Elastic Compliance Matrix: (Units=1/GPa)
#
#
# Indices 1 2 3 4 5 6 
#
# 1 0.021366 -0.013394 -0.000231 -0.010084 0.005345 -0.003490
# 2 -0.013394 0.024063 -0.006011 0.007232 -0.002063 0.003922
# 3 -0.000231 -0.006011 0.025068 0.006292 -0.002815 0.000801
# 4 -0.010084 0.007232 0.006292 0.038295 -0.006358 0.007902
# 5 0.005345 -0.002063 -0.002815 -0.006358 0.027147 -0.003947
# 6 -0.003490 0.003922 0.000801 0.007902 -0.003947 0.022900
#
#
# Mechanical properties :
#
#
# Convention : Reuss Voigt Hill
#
# Bulk Modulus (GPa) = 32.02567 37.68384 34.85476
# Shear Modulus (GPa) = 23.97859 33.12721 28.55290
#
# Velocity S-wave (km/s) = 3.19990 3.76111 3.49180
# Velocity P-wave (km/s) = 5.22762 5.91211 5.58037
#
# Compressibility (1/GPa) = 0.03122495
#
# Stress axis : x y z
#
# Youngs Moduli (GPa) = 46.80333 41.55698 39.89122
#
# Poissons Ratio (x) = 0.55660 0.00922
# Poissons Ratio (y) = 0.62687 0.23980
# Poissons Ratio (z) = 0.01082 0.24982
#
# Static dielectric constant tensor:
#      x y z
#    x 1.861180 -0.015670 -0.035920 
#    y -0.015670 1.866540 0.023630 
#    z -0.035920 0.023630 1.922700 
# 
# From -- ./inp_files/23063.got.cif
#   From: 2010.05.17/outbox.cif.g08.bks.cpg/sg2_12_cif.got.tgz:23063.got - 2010.06.03 11:33:40.
