data_PCOD9065238
_publ_section_title
;
Structure prediction by ZEFSAII (Michael W. Deem and Ramdas Pophale) SiO2 
 PCOD9065238
Probable space group: P -1
;
_chemical_formula_sum "Si O2"
_cell_formula_units_Z 12
_cell_length_a 6.841648
_cell_length_b 5.555164
_cell_length_c 16.214046
_cell_angle_alpha 59.118539
_cell_angle_beta 110.664856
_cell_angle_gamma 109.563179
_cell_volume 485.696876
_symmetry_space_group_name_H-M "P -1"
_symmetry_group_IT_number 2
_symmetry_cell_setting 'triclinic'
loop_
_space_group_symop_operation_xyz
x,y,z
-x,-y,-z
loop_
_atom_site_type_symbol
_atom_site_label
_atom_site_fract_x
_atom_site_fract_y
_atom_site_fract_z
Si Si1 0.053731 0.439782 0.275603
Si Si2 0.334869 0.238662 0.063444
Si Si3 0.097391 0.716260 0.548303
Si Si4 0.690988 0.970669 0.234057
Si Si5 0.490069 0.561655 0.586071
Si Si6 0.086934 0.020365 0.905019
O O1 0.283628 0.385569 0.344215
O O2 0.944217 0.465920 0.342737
O O3 0.906367 0.172004 0.259784
O O4 0.036810 0.713978 0.170904
O O5 0.485285 0.118011 0.171383
O O6 0.500000 0.500000 0.000000
O O7 0.230877 0.049459 0.003055
O O8 0.110790 0.250714 0.074888
O O9 0.344670 0.788620 0.549848
O O10 0.000000 0.500000 0.500000
O O11 0.000000 0.000000 0.500000
O O12 0.630949 0.724336 0.335413
O O13 0.746320 0.930047 0.153855
O O14 0.500000 0.500000 0.500000
#
# Coordination Sequence:
#
# PCOD9065238 Si02
#       6
#     2   2   2   2   2   2
#     4  12  26  46  75 111 152 208 265 325 405 479
#     4  11  24  47  75 111 152 204 261 328 400 478
#     4  12  27  52  78 113 160 212 275 339 405 486
#     4  12  26  47  75 110 158 206 263 332 395 483
#     4  12  27  50  80 115 160 211 269 334 405 481
#     4  11  25  46  74 108 158 198 263 323 403 479
#
# _framework density 24.706768
#
# number of rings (size 3 to 8) (size 9 to 14) (size 15 to 20)
#    0.000    0.333    6.667    1.500    0.000    4.000 
#    3.000    0.000    0.000    0.000    0.000    0.000 
#    0.000    0.000    0.000    0.000    0.000    0.000 
#
# Total GULP energy -67059.290528 kJ/mol
# GULP energy per Si atom -5588.274211 kJ/mol
# Density = 2.465053 g / cm^3
# Si number density = 24.706768 Si / 1000 Ang^3
#
#
#
# Elastic Constant Matrix: (Units=GPa)
#
#
# Indices 1 2 3 4 5 6 
#
# 1 168.8747 45.8899 55.4600 -14.1175 12.3207 19.0798
# 2 45.8899 71.2733 43.8024 2.0383 11.5965 10.5291
# 3 55.4600 43.8024 143.8916 4.4576 -6.2127 -1.6694
# 4 -14.1175 2.0383 4.4576 39.8518 7.8563 -2.6348
# 5 12.3207 11.5965 -6.2127 7.8563 68.4598 3.3182
# 6 19.0798 10.5291 -1.6694 -2.6348 3.3182 51.1801
#
#
#
# Elastic Compliance Matrix: (Units=1/GPa)
#
#
# Indices 1 2 3 4 5 6 
#
# 1 0.008263 -0.003434 -0.002334 0.003498 -0.001413 -0.002178
# 2 -0.003434 0.020242 -0.004960 -0.001305 -0.002970 -0.002920
# 3 -0.002334 -0.004960 0.009540 -0.001956 0.002256 0.001955
# 4 0.003498 -0.001305 -0.001956 0.027395 -0.003757 0.000554
# 5 -0.001413 -0.002970 0.002256 -0.003757 0.016001 -0.000020
# 6 -0.002178 -0.002920 0.001955 0.000554 -0.000020 0.021045
#
#
# Mechanical properties :
#
#
# Convention : Reuss Voigt Hill
#
# Bulk Modulus (GPa) = 60.28330 74.92714 67.60522
# Shear Modulus (GPa) = 38.61861 47.82416 43.22139
#
# Velocity S-wave (km/s) = 3.95787 4.40440 4.18709
# Velocity P-wave (km/s) = 6.73341 7.50049 7.12728
#
# Compressibility (1/GPa) = 0.01658834
#
# Stress axis : x y z
#
# Youngs Moduli (GPa) = 121.02286 49.40314 104.82397
#
# Poissons Ratio (x) = 0.16965 0.24467
# Poissons Ratio (y) = 0.41560 0.51992
# Poissons Ratio (z) = 0.28248 0.24503
#
# Static dielectric constant tensor:
#      x y z
#    x 2.094240 -0.031170 -0.022730 
#    y -0.031170 2.020480 -0.086870 
#    z -0.022730 -0.086870 1.947290 
# 
# From -- ./inp_files/545871.got.cif
#   From: 2010.05.17/outbox.cif.g08.bks.cpg/sg2_273_cif.got.tgz:545871.got - 2010.06.03 11:33:40.
