data_PCOD9065171
_publ_section_title
;
Structure prediction by ZEFSAII (Michael W. Deem and Ramdas Pophale) SiO2 
 PCOD9065171
Probable space group: P -1
;
_chemical_formula_sum "Si O2"
_cell_formula_units_Z 14
_cell_length_a 5.244203
_cell_length_b 12.905150
_cell_length_c 13.638788
_cell_angle_alpha 118.283200
_cell_angle_beta 124.219098
_cell_angle_gamma 48.749693
_cell_volume 565.903741
_symmetry_space_group_name_H-M "P -1"
_symmetry_group_IT_number 2
_symmetry_cell_setting 'triclinic'
loop_
_space_group_symop_operation_xyz
x,y,z
-x,-y,-z
loop_
_atom_site_type_symbol
_atom_site_label
_atom_site_fract_x
_atom_site_fract_y
_atom_site_fract_z
Si Si1 0.160325 0.862055 0.909919
Si Si2 0.901371 0.602602 0.436316
Si Si3 0.991157 0.702902 0.956384
Si Si4 0.826455 0.275036 0.773992
Si Si5 0.932022 0.222857 0.333808
Si Si6 0.118148 0.001473 0.415799
Si Si7 0.185198 0.511326 0.254841
O O1 0.553658 0.815654 0.928397
O O2 0.909595 0.878528 0.770290
O O3 0.170516 0.749893 0.935421
O O4 0.000000 0.000000 0.000000
O O5 0.567874 0.620132 0.311410
O O6 0.000000 0.500000 0.500000
O O7 0.816786 0.739666 0.535292
O O8 0.180462 0.556730 0.386936
O O9 0.022101 0.563041 0.862288
O O10 0.143833 0.699024 0.095090
O O11 0.885844 0.124916 0.696805
O O12 0.015540 0.340690 0.781659
O O13 0.600817 0.369273 0.282657
O O14 0.837662 0.144260 0.359387
O O15 0.500000 0.000000 0.500000
O O16 0.000000 0.000000 0.500000
#
# Coordination Sequence:
#
# PCOD9065171 Si02
#       7
#     2   2   2   2   2   2   2
#     4  11  25  49  77 106 149 198 245 303 364 444
#     4  12  24  42  73 105 146 189 249 297 368 435
#     4  11  27  46  74 112 144 193 250 301 369 428
#     4  12  27  46  72 108 149 192 242 310 365 436
#     4  11  24  47  73 107 144 192 247 301 365 442
#     4  12  28  46  71 107 149 189 240 302 369 431
#     4  11  26  46  74 104 148 197 244 303 363 445
#
# _framework density 24.739189
#
# number of rings (size 3 to 8) (size 9 to 14) (size 15 to 20)
#    0.000    0.571    2.857    3.857    6.000    5.143 
#    0.000    0.000    0.000    0.000    0.000    0.000 
#    0.000    0.000    0.000    0.000    0.000    0.000 
#
# Total GULP energy -78115.178907 kJ/mol
# GULP energy per Si atom -5579.655636 kJ/mol
# Density = 2.468288 g / cm^3
# Si number density = 24.739189 Si / 1000 Ang^3
#
#
#
# Elastic Constant Matrix: (Units=GPa)
#
#
# Indices 1 2 3 4 5 6 
#
# 1 57.9774 11.0581 24.0470 -3.7730 -12.9315 10.9595
# 2 11.0581 122.5139 34.2093 9.3147 -1.1754 39.0255
# 3 24.0470 34.2093 224.0656 11.0203 -19.6570 21.5673
# 4 -3.7730 9.3147 11.0203 40.5692 9.6301 -9.3134
# 5 -12.9315 -1.1754 -19.6570 9.6301 44.4352 -4.5089
# 6 10.9595 39.0255 21.5673 -9.3134 -4.5089 43.6965
#
#
#
# Elastic Compliance Matrix: (Units=1/GPa)
#
#
# Indices 1 2 3 4 5 6 
#
# 1 0.019570 -0.000278 -0.001333 0.000345 0.004674 -0.003447
# 2 -0.000278 0.012613 -0.000446 -0.005602 0.000035 -0.012165
# 3 -0.001333 -0.000446 0.005193 -0.002444 0.002212 -0.002123
# 4 0.000345 -0.005602 -0.002444 0.030967 -0.006618 0.012040
# 5 0.004674 0.000035 0.002212 -0.006618 0.026177 -0.001005
# 6 -0.003447 -0.012165 -0.002123 0.012040 -0.001005 0.038125
#
#
# Mechanical properties :
#
#
# Convention : Reuss Voigt Hill
#
# Bulk Modulus (GPa) = 30.06427 60.35398 45.20912
# Shear Modulus (GPa) = 33.81886 48.08967 40.95427
#
# Velocity S-wave (km/s) = 3.70133 4.41371 4.07313
# Velocity P-wave (km/s) = 5.51773 7.10095 6.35881
#
# Compressibility (1/GPa) = 0.03326207
#
# Stress axis : x y z
#
# Youngs Moduli (GPa) = 51.09751 79.28040 192.57493
#
# Poissons Ratio (x) = 0.02202 0.25673
# Poissons Ratio (y) = 0.01419 0.08597
# Poissons Ratio (z) = 0.06812 0.03539
#
# Static dielectric constant tensor:
#      x y z
#    x 1.590890 -0.241800 0.141800 
#    y -0.241800 1.934530 0.025510 
#    z 0.141800 0.025510 1.910040 
# 
# From -- ./inp_files/126694.got.cif
#   From: 2010.05.17/outbox.cif.g08.bks.cpg/sg2_64_cif.got.tgz:126694.got - 2010.06.03 11:33:40.
