data_PCOD9065440
_publ_section_title
;
Structure prediction by ZEFSAII (Michael W. Deem and Ramdas Pophale) SiO2 
 PCOD9065440
Probable space group: P -1
;
_chemical_formula_sum "Si O2"
_cell_formula_units_Z 15
_cell_length_a 7.015882
_cell_length_b 8.357521
_cell_length_c 21.240928
_cell_angle_alpha 139.194734
_cell_angle_beta 116.711987
_cell_angle_gamma 84.357073
_cell_volume 661.668450
_symmetry_space_group_name_H-M "P -1"
_symmetry_group_IT_number 2
_symmetry_cell_setting 'triclinic'
loop_
_space_group_symop_operation_xyz
x,y,z
-x,-y,-z
loop_
_atom_site_type_symbol
_atom_site_label
_atom_site_fract_x
_atom_site_fract_y
_atom_site_fract_z
Si Si1 0.312727 0.920491 0.352862
Si Si2 0.475075 0.625998 0.661161
Si Si3 0.893348 0.778595 0.677025
Si Si4 0.179335 0.391410 0.094398
Si Si5 0.646699 0.985548 0.914978
Si Si6 0.775489 0.974768 0.498054
Si Si7 0.000000 0.500000 0.500000
Si Si8 0.675779 0.732072 0.050583
O O1 0.252105 0.674070 0.223384
O O2 0.583458 0.023041 0.442575
O O3 0.236726 0.131726 0.370666
O O4 0.174728 0.849726 0.378303
O O5 0.709532 0.655993 0.668836
O O6 0.351893 0.330934 0.586039
O O7 0.288084 0.651332 0.592785
O O8 0.549607 0.848192 0.792653
O O9 0.985977 0.583566 0.597360
O O10 0.105635 0.047660 0.814066
O O11 0.316673 0.235061 0.102368
O O12 0.237078 0.398858 0.031735
O O13 0.903853 0.220545 0.013427
O O14 0.470141 0.106310 0.949792
O O15 0.000000 0.000000 0.500000
O O16 0.500000 0.500000 0.000000
#
# Coordination Sequence:
#
# PCOD9065440 Si02
#       8
#     2   2   2   2   2   2   1   2
#     4  11  26  46  72 108 142 190 239 300 366 424
#     4  12  25  49  76 106 141 194 239 305 357 440
#     4  12  27  46  74 107 145 189 247 299 364 435
#     4  11  25  48  74 101 147 188 240 307 353 432
#     4  11  24  48  74 105 136 192 247 287 367 430
#     4  11  27  49  72 107 146 188 241 302 364 432
#     4  12  26  44  76 104 144 190 246 296 366 426
#     4  12  27  46  72 108 146 190 240 296 363 432
#
# _framework density 22.669964
#
# number of rings (size 3 to 8) (size 9 to 14) (size 15 to 20)
#    0.000    0.533    5.333    1.600    3.733    4.267 
#    4.800    0.000    0.000    0.000    0.000    0.000 
#    0.000    0.000    0.000    0.000    0.000    0.000 
#
# Total GULP energy -83754.384672 kJ/mol
# GULP energy per Si atom -5583.625645 kJ/mol
# Density = 2.261837 g / cm^3
# Si number density = 22.669964 Si / 1000 Ang^3
#
#
#
# Elastic Constant Matrix: (Units=GPa)
#
#
# Indices 1 2 3 4 5 6 
#
# 1 134.5168 9.1673 32.3304 -8.9708 -9.3683 21.5315
# 2 9.1673 49.4296 8.4373 -9.7407 14.2644 0.0280
# 3 32.3304 8.4373 125.5368 -19.3558 -15.2199 17.1813
# 4 -8.9708 -9.7407 -19.3558 29.3348 2.4899 4.5294
# 5 -9.3683 14.2644 -15.2199 2.4899 45.9466 -8.8087
# 6 21.5315 0.0280 17.1813 4.5294 -8.8087 42.4855
#
#
#
# Elastic Compliance Matrix: (Units=1/GPa)
#
#
# Indices 1 2 3 4 5 6 
#
# 1 0.008626 -0.001269 -0.001189 0.001959 0.000903 -0.003911
# 2 -0.001269 0.024882 -0.000923 0.008308 -0.009078 -0.001768
# 3 -0.001189 -0.000923 0.010102 0.006364 0.002341 -0.003675
# 4 0.001959 0.008308 0.006364 0.043399 -0.004161 -0.009061
# 5 0.000903 -0.009078 0.002341 -0.004161 0.026644 0.004570
# 6 -0.003911 -0.001768 -0.003675 -0.009061 0.004570 0.028921
#
#
# Mechanical properties :
#
#
# Convention : Reuss Voigt Hill
#
# Bulk Modulus (GPa) = 27.13926 45.48370 36.31148
# Shear Modulus (GPa) = 30.93703 40.85660 35.89681
#
# Velocity S-wave (km/s) = 3.69815 4.24988 3.98358
# Velocity P-wave (km/s) = 5.49841 6.64748 6.10006
#
# Compressibility (1/GPa) = 0.03684699
#
# Stress axis : x y z
#
# Youngs Moduli (GPa) = 115.92896 40.18994 98.98829
#
# Poissons Ratio (x) = 0.05100 0.11774
# Poissons Ratio (y) = 0.14711 0.09138
# Poissons Ratio (z) = 0.13788 0.03710
#
# Static dielectric constant tensor:
#      x y z
#    x 1.837780 -0.024880 -0.035550 
#    y -0.024880 1.876080 0.009600 
#    z -0.035550 0.009600 1.799120 
# 
# From -- ./inp_files/52742.got.cif
#   From: 2010.05.17/outbox.cif.g08.bks.cpg/sg2_27_cif.got.tgz:52742.got - 2010.06.03 11:33:40.
