data_PCOD9065597
_publ_section_title
;
Structure prediction by ZEFSAII (Michael W. Deem and Ramdas Pophale) SiO2 
 PCOD9065597
Probable space group: P -1
;
_chemical_formula_sum "Si O2"
_cell_formula_units_Z 14
_cell_length_a 18.061847
_cell_length_b 6.583272
_cell_length_c 8.400830
_cell_angle_alpha 123.706086
_cell_angle_beta 127.424546
_cell_angle_gamma 54.477139
_cell_volume 613.358863
_symmetry_space_group_name_H-M "P -1"
_symmetry_group_IT_number 2
_symmetry_cell_setting 'triclinic'
loop_
_space_group_symop_operation_xyz
x,y,z
-x,-y,-z
loop_
_atom_site_type_symbol
_atom_site_label
_atom_site_fract_x
_atom_site_fract_y
_atom_site_fract_z
Si Si1 0.771158 0.026304 0.362187
Si Si2 0.057901 0.701789 0.880618
Si Si3 0.002763 0.250786 0.523330
Si Si4 0.674133 0.259099 0.015368
Si Si5 0.275022 0.630357 0.227182
Si Si6 0.541942 0.906403 0.685912
Si Si7 0.601068 0.862738 0.169343
O O1 0.752619 0.161749 0.222528
O O2 0.743013 0.209558 0.560886
O O3 0.885868 0.845340 0.445786
O O4 0.698862 0.864399 0.213434
O O5 0.997015 0.502634 0.732256
O O6 0.067639 0.706313 0.703437
O O7 0.169371 0.585482 0.048885
O O8 0.000000 0.000000 0.000000
O O9 0.000000 0.000000 0.500000
O O10 0.616785 0.567950 0.101973
O O11 0.711846 0.240619 0.871180
O O12 0.599131 0.106963 0.880811
O O13 0.375046 0.374627 0.281752
O O14 0.500000 0.000000 0.500000
O O15 0.434842 0.948566 0.645732
O O16 0.500000 0.000000 0.000000
#
# Coordination Sequence:
#
# PCOD9065597 Si02
#       7
#     2   2   2   2   2   2   2
#     4  12  26  46  73 107 144 193 244 298 375 444
#     4  11  24  49  75 106 149 190 244 315 377 439
#     4  11  25  48  78 109 147 192 247 312 379 444
#     4  12  24  44  69  98 144 189 242 298 365 428
#     4  12  26  46  72 106 147 192 245 303 366 446
#     4  12  26  43  68 104 140 191 246 298 362 440
#     4  12  24  43  69  97 145 192 236 301 361 431
#
# _framework density 22.825135
#
# number of rings (size 3 to 8) (size 9 to 14) (size 15 to 20)
#    0.000    0.286    4.286    4.714    2.000    2.857 
#    2.571    0.000    0.000    0.000    0.000    0.000 
#    0.000    0.000    0.000    0.000    0.000    0.000 
#
# Total GULP energy -78057.232798 kJ/mol
# GULP energy per Si atom -5575.516628 kJ/mol
# Density = 2.277318 g / cm^3
# Si number density = 22.825135 Si / 1000 Ang^3
#
#
#
# Elastic Constant Matrix: (Units=GPa)
#
#
# Indices 1 2 3 4 5 6 
#
# 1 93.8734 33.3500 24.5252 1.7090 -8.1588 -0.5124
# 2 33.3500 125.4702 41.0467 11.8289 -10.9965 5.6229
# 3 24.5252 41.0467 121.8716 -3.3824 -12.6227 6.4324
# 4 1.7090 11.8289 -3.3824 47.3020 7.4995 -6.1615
# 5 -8.1588 -10.9965 -12.6227 7.4995 36.5821 -0.3435
# 6 -0.5124 5.6229 6.4324 -6.1615 -0.3435 42.7147
#
#
#
# Elastic Compliance Matrix: (Units=1/GPa)
#
#
# Indices 1 2 3 4 5 6 
#
# 1 0.012097 -0.002655 -0.001432 -0.000006 0.001414 0.000721
# 2 -0.002655 0.010092 -0.002655 -0.003141 0.002156 -0.001396
# 3 -0.001432 -0.002655 0.009674 0.000962 0.002014 -0.000970
# 4 -0.000006 -0.003141 0.000962 0.023312 -0.005359 0.003588
# 5 0.001414 0.002156 0.002014 -0.005359 0.030083 -0.001101
# 6 0.000721 -0.001396 -0.000970 0.003588 -0.001101 0.024258
#
#
# Mechanical properties :
#
#
# Convention : Reuss Voigt Hill
#
# Bulk Modulus (GPa) = 54.40781 59.89544 57.15162
# Shear Modulus (GPa) = 38.72182 41.47264 40.09723
#
# Velocity S-wave (km/s) = 4.12327 4.26722 4.19586
# Velocity P-wave (km/s) = 6.82327 7.11174 6.96900
#
# Compressibility (1/GPa) = 0.01837971
#
# Stress axis : x y z
#
# Youngs Moduli (GPa) = 82.66639 99.08946 103.36754
#
# Poissons Ratio (x) = 0.26305 0.14802
# Poissons Ratio (y) = 0.21946 0.27443
# Poissons Ratio (z) = 0.11838 0.26307
#
# Static dielectric constant tensor:
#      x y z
#    x 1.839760 0.004580 -0.065250 
#    y 0.004580 1.915410 -0.090750 
#    z -0.065250 -0.090750 2.240130 
# 
# From -- ./inp_files/91139.got.cif
#   From: 2010.05.17/outbox.cif.g08.bks.cpg/sg2_46_cif.got.tgz:91139.got - 2010.06.03 11:33:40.
