data_PCOD9065058
_publ_section_title
;
Structure prediction by ZEFSAII (Michael W. Deem and Ramdas Pophale) SiO2 
 PCOD9065058
Probable space group: P -1
;
_chemical_formula_sum "Si O2"
_cell_formula_units_Z 16
_cell_length_a 19.216862
_cell_length_b 9.168432
_cell_length_c 7.517958
_cell_angle_alpha 89.360763
_cell_angle_beta 89.949312
_cell_angle_gamma 151.035672
_cell_volume 641.251659
_symmetry_space_group_name_H-M "P -1"
_symmetry_group_IT_number 2
_symmetry_cell_setting 'triclinic'
loop_
_space_group_symop_operation_xyz
x,y,z
-x,-y,-z
loop_
_atom_site_type_symbol
_atom_site_label
_atom_site_fract_x
_atom_site_fract_y
_atom_site_fract_z
Si Si1 0.903063 0.221041 0.873663
Si Si2 0.153099 0.634818 0.644970
Si Si3 0.109572 0.047877 0.853718
Si Si4 0.596742 0.603903 0.769858
Si Si5 0.295278 0.675910 0.871818
Si Si6 0.325141 0.239807 0.634806
Si Si7 0.872960 0.681218 0.606063
Si Si8 0.597119 0.274369 0.783852
O O1 0.989408 0.378039 0.687426
O O2 0.735247 0.942193 0.842378
O O3 0.000000 0.500000 0.000000
O O4 0.898814 0.050411 0.958311
O O5 0.212609 0.671670 0.826885
O O6 0.161448 0.526100 0.500485
O O7 0.251185 0.950091 0.600699
O O8 0.188559 0.346410 0.846828
O O9 0.204912 0.120152 0.724864
O O10 0.949562 0.775219 0.786815
O O11 0.455040 0.444064 0.768988
O O12 0.618342 0.606416 0.558922
O O13 0.584164 0.417623 0.853839
O O14 0.435140 0.933478 0.738439
O O15 0.357233 0.759113 0.065354
O O16 0.728262 0.505025 0.642835
O O17 0.000000 0.000000 0.500000
#
# Coordination Sequence:
#
# PCOD9065058 Si02
#       8
#     2   2   2   2   2   2   2   2
#     4  12  26  45  70 102 142 185 233 289 354 422
#     4  12  25  46  69 104 140 187 233 291 354 420
#     4  12  25  46  69 105 138 188 233 292 355 419
#     4  11  25  46  72 101 142 188 231 292 349 423
#     4  11  25  45  73 103 140 182 239 294 348 419
#     4  11  26  47  69 102 144 183 236 286 354 423
#     4  12  26  42  71 104 143 184 233 291 353 420
#     4  11  24  47  70 106 139 185 236 294 353 411
#
# _framework density 24.951204000000001
#
# number of rings (size 3 to 8) (size 9 to 14) (size 15 to 20)
#    0.000    0.500    5.000    3.000    1.750    5.000 
#    4.500    0.000    0.000    0.000    0.000    0.000 
#    0.000    0.000    0.000    0.000    0.000    0.000 
#
# Total GULP energy -89608.530832 kJ/mol
# GULP energy per Si atom -5600.533177 kJ/mol
# Density = 2.489441 g / cm^3
# Si number density = 24.951204 Si / 1000 Ang^3
#
#
#
# Elastic Constant Matrix: (Units=GPa)
#
#
# Indices 1 2 3 4 5 6 
#
# 1 90.9051 47.6984 8.5825 3.0672 -7.6275 9.5057
# 2 47.6984 123.6023 28.2005 6.8566 1.0752 32.6447
# 3 8.5825 28.2005 33.5063 -0.4313 3.1860 4.7454
# 4 3.0672 6.8566 -0.4313 45.3979 3.2028 0.7985
# 5 -7.6275 1.0752 3.1860 3.2028 43.3094 -5.1364
# 6 9.5057 32.6447 4.7454 0.7985 -5.1364 36.1449
#
#
#
# Elastic Compliance Matrix: (Units=1/GPa)
#
#
# Indices 1 2 3 4 5 6 
#
# 1 0.014245 -0.006360 0.001107 -0.000234 0.002871 0.002266
# 2 -0.006360 0.016059 -0.010048 -0.001740 -0.002046 -0.011764
# 3 0.001107 -0.010048 0.037744 0.001885 -0.002057 0.003495
# 4 -0.000234 -0.001740 0.001885 0.022434 -0.001719 0.000646
# 5 0.002871 -0.002046 -0.002057 -0.001719 0.024504 0.004883
# 6 0.002266 -0.011764 0.003495 0.000646 0.004883 0.037916
#
#
# Mechanical properties :
#
#
# Convention : Reuss Voigt Hill
#
# Bulk Modulus (GPa) = 26.70600 46.33074 36.51837
# Shear Modulus (GPa) = 25.51203 35.87259 30.69231
#
# Velocity S-wave (km/s) = 3.20109 3.79583 3.51107
# Velocity P-wave (km/s) = 4.93854 6.14979 5.57714
#
# Compressibility (1/GPa) = 0.03744477
#
# Stress axis : x y z
#
# Youngs Moduli (GPa) = 70.19964 62.27074 26.49455
#
# Poissons Ratio (x) = 0.39606 -0.02934
# Poissons Ratio (y) = 0.44649 0.26623
# Poissons Ratio (z) = -0.07774 0.62573
#
# Static dielectric constant tensor:
#      x y z
#    x 1.924080 0.035950 0.028840 
#    y 0.035950 1.940350 -0.010440 
#    z 0.028840 -0.010440 2.064820 
# 
# From -- ./inp_files/158726.got.cif
#   From: 2010.05.17/outbox.cif.g08.bks.cpg/sg2_80_cif.got.tgz:158726.got - 2010.06.03 11:33:40.
