data_PCOD9065735
_publ_section_title
;
Structure prediction by ZEFSAII (Michael W. Deem and Ramdas Pophale) SiO2 
 PCOD9065735
Probable space group: P -1
;
_chemical_formula_sum "Si O2"
_cell_formula_units_Z 16
_cell_length_a 9.416586
_cell_length_b 13.516486
_cell_length_c 12.083613
_cell_angle_alpha 111.496946
_cell_angle_beta 36.130534
_cell_angle_gamma 124.340801
_cell_volume 736.109744
_symmetry_space_group_name_H-M "P -1"
_symmetry_group_IT_number 2
_symmetry_cell_setting 'triclinic'
loop_
_space_group_symop_operation_xyz
x,y,z
-x,-y,-z
loop_
_atom_site_type_symbol
_atom_site_label
_atom_site_fract_x
_atom_site_fract_y
_atom_site_fract_z
Si Si1 0.274156 0.301438 0.070015
Si Si2 0.476764 0.746236 0.751026
Si Si3 0.248958 0.758536 0.308008
Si Si4 0.319928 0.857744 0.548920
Si Si5 0.716076 0.022376 0.776768
Si Si6 0.845126 0.656251 0.088895
Si Si7 0.271400 0.193640 0.597535
Si Si8 0.663172 0.600060 0.702669
O O1 0.537514 0.281146 0.890315
O O2 0.207554 0.325204 0.997918
O O3 0.305366 0.400199 0.184098
O O4 0.994305 0.184599 0.240207
O O5 0.617433 0.722171 0.546215
O O6 0.582094 0.704935 0.773359
O O7 0.593871 0.891741 0.740807
O O8 0.148473 0.673119 0.919003
O O9 0.340216 0.812695 0.395905
O O10 0.248145 0.865647 0.277786
O O11 0.946889 0.643268 0.475535
O O12 0.461639 0.809680 0.527089
O O13 0.500000 0.000000 0.500000
O O14 0.012374 0.067651 0.667162
O O15 0.500000 0.000000 0.000000
O O16 0.834909 0.754884 0.216731
O O17 0.590944 0.525732 0.227607
#
# Coordination Sequence:
#
# PCOD9065735 Si02
#       8
#     2   2   2   2   2   2   2   2
#     4  11  25  46  69 101 138 178 234 280 344 398
#     4  12  25  46  70 102 140 178 229 281 343 406
#     4  11  25  45  67 103 137 179 227 280 344 410
#     4  11  25  41  69 102 138 181 224 282 344 408
#     4  12  25  44  73 102 141 179 224 282 348 409
#     4  12  26  47  69 102 138 181 234 283 333 405
#     4  12  25  44  69 102 140 181 222 283 348 398
#     4  11  27  46  72  99 136 186 231 280 339 403
#
# _framework density 21.735889
#
# number of rings (size 3 to 8) (size 9 to 14) (size 15 to 20)
#    0.000    0.500    5.000    2.625    5.250    2.500 
#    0.000    0.000    0.000    0.000    0.000    0.000 
#    0.000    0.000    0.000    0.000    0.000    0.000 
#
# Total GULP energy -89438.028449 kJ/mol
# GULP energy per Si atom -5589.876778 kJ/mol
# Density = 2.168642 g / cm^3
# Si number density = 21.735889 Si / 1000 Ang^3
#
#
#
# Elastic Constant Matrix: (Units=GPa)
#
#
# Indices 1 2 3 4 5 6 
#
# 1 91.4831 -2.1341 35.5788 -1.6653 -0.5089 14.3587
# 2 -2.1341 34.0518 18.7741 -29.6625 -10.2357 19.4758
# 3 35.5788 18.7741 125.7239 -12.9975 -10.1907 17.8692
# 4 -1.6653 -29.6625 -12.9975 30.9019 7.4037 -10.2166
# 5 -0.5089 -10.2357 -10.1907 7.4037 41.1679 -4.3370
# 6 14.3587 19.4758 17.8692 -10.2166 -4.3370 24.5141
#
#
#
# Elastic Compliance Matrix: (Units=1/GPa)
#
#
# Indices 1 2 3 4 5 6 
#
# 1 -0.049960 -0.484048 0.010729 -0.375861 -0.024911 0.244954
# 2 -0.484048 -3.713616 0.106146 -2.863666 -0.184663 1.930376
# 3 0.010729 0.106146 0.006737 0.084066 0.006828 -0.059282
# 4 -0.375861 -2.863666 0.084066 -2.168793 -0.147348 1.504040
# 5 -0.024911 -0.184663 0.006828 -0.147348 0.016567 0.097846
# 6 0.244954 1.930376 -0.059282 1.504040 0.097846 -0.948965
#
#
# Mechanical properties :
#
#
# Convention : Reuss Voigt Hill
#
# Bulk Modulus (GPa) = -0.22266 39.52183 19.64959
# Shear Modulus (GPa) = -0.65610 32.58611 15.96501
#
# Velocity S-wave (km/s) = -0.55001 3.87613 2.71311
# Velocity P-wave (km/s) = 0.71134 6.18504 4.34446
#
# Compressibility (1/GPa) = -4.49118494
#
# Stress axis : x y z
#
# Youngs Moduli (GPa) = -20.01585 -0.26928 148.42984
#
# Poissons Ratio (x) = -0.13034 -1.59248
# Poissons Ratio (y) = -9.68864 -15.75529
# Poissons Ratio (z) = 0.21475 0.02858
#
# Static dielectric constant tensor:
#      x y z
#    x 1.759850 -0.019780 0.008520 
#    y -0.019780 1.791430 -0.004370 
#    z 0.008520 -0.004370 1.778070 
# 
# From -- ./inp_files/274225.got.cif
#   From: 2010.05.17/outbox.cif.g08.bks.cpg/sg2_138_cif.got.tgz:274225.got - 2010.06.03 11:33:40.
