data_PCOD9065665
_publ_section_title
;
Structure prediction by ZEFSAII (Michael W. Deem and Ramdas Pophale) SiO2 
 PCOD9065665
Probable space group: P -1
;
_chemical_formula_sum "Si O2"
_cell_formula_units_Z 12
_cell_length_a 5.991268
_cell_length_b 14.513449
_cell_length_c 5.955540
_cell_angle_alpha 104.985490
_cell_angle_beta 102.367601
_cell_angle_gamma 83.594572
_cell_volume 487.770320
_symmetry_space_group_name_H-M "P -1"
_symmetry_group_IT_number 2
_symmetry_cell_setting 'triclinic'
loop_
_space_group_symop_operation_xyz
x,y,z
-x,-y,-z
loop_
_atom_site_type_symbol
_atom_site_label
_atom_site_fract_x
_atom_site_fract_y
_atom_site_fract_z
Si Si1 0.477181 0.646587 0.528959
Si Si2 0.647098 0.044197 0.357764
Si Si3 0.305146 0.290413 0.783018
Si Si4 0.233340 0.128651 0.015121
Si Si5 0.898577 0.216785 0.377056
Si Si6 0.235785 0.467899 0.156125
O O1 0.524480 0.722700 0.395045
O O2 0.301244 0.704962 0.691187
O O3 0.353187 0.559820 0.332575
O O4 0.715498 0.603448 0.662654
O O5 0.812509 0.131375 0.459303
O O6 0.500000 0.000000 0.500000
O O7 0.799580 0.959523 0.214391
O O8 0.445728 0.088427 0.183034
O O9 0.313383 0.213929 0.931923
O O10 0.061747 0.277306 0.605413
O O11 0.344545 0.396214 0.947319
O O12 0.031330 0.168012 0.161814
O O13 0.000000 0.500000 0.000000
#
# Coordination Sequence:
#
# PCOD9065665 Si02
#       6
#     2   2   2   2   2   2
#     4  11  26  48  76 108 154 194 251 311 363 445
#     4  11  25  48  72 105 147 194 249 308 368 446
#     4  12  25  46  71 108 147 193 252 305 372 441
#     4  11  26  45  71 105 147 193 251 301 377 442
#     4  12  24  44  72 107 145 197 244 307 372 445
#     4  11  24  50  74 112 146 201 249 307 373 438
#
# _framework density 24.601742999999999
#
# number of rings (size 3 to 8) (size 9 to 14) (size 15 to 20)
#    0.000    0.667    1.667    6.000    0.000    8.667 
#   12.000    0.000    0.000    0.000    0.000    0.000 
#    0.000    0.000    0.000    0.000    0.000    0.000 
#
# Total GULP energy -66965.909083 kJ/mol
# GULP energy per Si atom -5580.492424 kJ/mol
# Density = 2.454575 g / cm^3
# Si number density = 24.601743 Si / 1000 Ang^3
#
#
#
# Elastic Constant Matrix: (Units=GPa)
#
#
# Indices 1 2 3 4 5 6 
#
# 1 76.2461 71.9192 56.0202 -16.5180 -7.1870 -12.3504
# 2 71.9192 148.9714 59.9401 -2.2328 -16.2700 -22.3857
# 3 56.0202 59.9401 102.0556 -9.6461 -1.7527 -15.8852
# 4 -16.5180 -2.2328 -9.6461 64.6707 3.6796 7.7187
# 5 -7.1870 -16.2700 -1.7527 3.6796 46.8221 -1.8832
# 6 -12.3504 -22.3857 -15.8852 7.7187 -1.8832 39.9552
#
#
#
# Elastic Compliance Matrix: (Units=1/GPa)
#
#
# Indices 1 2 3 4 5 6 
#
# 1 0.033818 -0.012042 -0.011167 0.006803 -0.000029 -0.002049
# 2 -0.012042 0.014000 -0.001186 -0.003500 0.003427 0.004488
# 3 -0.011167 -0.001186 0.016962 -0.000607 -0.001336 0.002682
# 4 0.006803 -0.003500 -0.000607 0.017512 -0.001714 -0.003563
# 5 -0.000029 0.003427 -0.001336 -0.001714 0.022741 0.002783
# 6 -0.002049 0.004488 0.002682 -0.003563 0.002783 0.028795
#
#
# Mechanical properties :
#
#
# Convention : Reuss Voigt Hill
#
# Bulk Modulus (GPa) = 62.54009 78.11467 70.32738
# Shear Modulus (GPa) = 26.60322 39.58252 33.09287
#
# Velocity S-wave (km/s) = 3.29196 4.01550 3.67160
# Velocity P-wave (km/s) = 6.31867 7.30203 6.82807
#
# Compressibility (1/GPa) = 0.01598974
#
# Stress axis : x y z
#
# Youngs Moduli (GPa) = 29.56972 71.43041 58.95597
#
# Poissons Ratio (x) = 0.86019 0.65837
# Poissons Ratio (y) = 0.35609 0.06989
# Poissons Ratio (z) = 0.33021 0.08468
#
# Static dielectric constant tensor:
#      x y z
#    x 1.981220 0.025270 0.022520 
#    y 0.025270 1.958470 0.022540 
#    z 0.022520 0.022540 2.002590 
# 
# From -- ./inp_files/3770.got.cif
#   From: 2010.05.17/outbox.cif.g08.bks.cpg/sg2_2_cif.got.tgz:3770.got - 2010.06.03 11:33:40.
