data_PCOD9065795
_publ_section_title
;
Structure prediction by ZEFSAII (Michael W. Deem and Ramdas Pophale) SiO2 
 PCOD9065795
Probable space group: P -1
;
_chemical_formula_sum "Si O2"
_cell_formula_units_Z 13
_cell_length_a 5.817770
_cell_length_b 4.778974
_cell_length_c 17.487162
_cell_angle_alpha 84.857474
_cell_angle_beta 102.049676
_cell_angle_gamma 105.211716
_cell_volume 458.510056
_symmetry_space_group_name_H-M "P -1"
_symmetry_group_IT_number 2
_symmetry_cell_setting 'triclinic'
loop_
_space_group_symop_operation_xyz
x,y,z
-x,-y,-z
loop_
_atom_site_type_symbol
_atom_site_label
_atom_site_fract_x
_atom_site_fract_y
_atom_site_fract_z
Si Si1 0.500000 0.000000 0.000000
Si Si2 0.906095 0.801358 0.424032
Si Si3 0.943457 0.298000 0.287663
Si Si4 0.406519 0.794499 0.426128
Si Si5 0.111093 0.632495 0.887382
Si Si6 0.207903 0.986177 0.124966
Si Si7 0.556194 0.716999 0.711044
O O1 0.353053 0.707005 0.949925
O O2 0.634866 0.113255 0.926132
O O3 0.625092 0.640036 0.427668
O O4 0.121756 0.641112 0.425817
O O5 0.917596 0.029866 0.350016
O O6 0.000000 0.000000 0.500000
O O7 0.870412 0.207300 0.197369
O O8 0.727632 0.445109 0.294729
O O9 0.233489 0.441823 0.294640
O O10 0.500000 0.000000 0.500000
O O11 0.421195 0.026702 0.354003
O O12 0.005501 0.300495 0.867417
O O13 0.928737 0.775543 0.919475
O O14 0.354623 0.128376 0.205797
#
# Coordination Sequence:
#
# PCOD9065795 Si02
#       7
#     1   2   2   2   2   2   2
#     4  12  24  46  68  96 132 170 228 270 346 390
#     4   8  13  22  43  75 111 154 202 253 314 376
#     4   9  17  34  54  85 122 163 213 263 323 388
#     4   8  13  22  43  75 111 154 202 253 314 376
#     4  11  25  43  65  96 130 174 221 276 336 401
#     4  11  25  43  65  96 130 174 221 276 336 401
#     4   9  17  34  54  85 122 163 213 263 323 388
#
# _framework density 28.352706999999999
#
# number of rings (size 3 to 8) (size 9 to 14) (size 15 to 20)
#    0.000    2.462    1.538    0.923    0.000    2.462 
#    0.000    0.000    0.000    0.000    0.000   53.846 
#    0.000    0.000    0.000    0.000    0.000    0.000 
#
# Total GULP energy -72511.259613 kJ/mol
# GULP energy per Si atom -5577.789201 kJ/mol
# Density = 2.828817 g / cm^3
# Si number density = 28.352707 Si / 1000 Ang^3
#
#
#
# Elastic Constant Matrix: (Units=GPa)
#
#
# Indices 1 2 3 4 5 6 
#
# 1 272.0379 39.6826 48.9384 19.7047 1.2852 26.1622
# 2 39.6826 119.9348 26.2934 13.5300 8.5529 9.6648
# 3 48.9384 26.2934 124.9248 7.3927 -22.0712 -3.4267
# 4 19.7047 13.5300 7.3927 18.8908 3.8962 -0.7686
# 5 1.2852 8.5529 -22.0712 3.8962 52.8264 11.1227
# 6 26.1622 9.6648 -3.4267 -0.7686 11.1227 39.6841
#
#
#
# Elastic Compliance Matrix: (Units=1/GPa)
#
#
# Indices 1 2 3 4 5 6 
#
# 1 0.004622 -0.000506 -0.001494 -0.004072 0.000324 -0.003223
# 2 -0.000506 0.009799 -0.001863 -0.005519 -0.001548 -0.001887
# 3 -0.001494 -0.001863 0.009896 -0.001844 0.004392 0.001027
# 4 -0.004072 -0.005519 -0.001844 0.063342 -0.005869 0.006741
# 5 0.000324 -0.001548 0.004392 -0.005869 0.022689 -0.005930
# 6 -0.003223 -0.001887 0.001027 0.006741 -0.005930 0.029664
#
#
# Mechanical properties :
#
#
# Convention : Reuss Voigt Hill
#
# Bulk Modulus (GPa) = 60.27673 82.96960 71.62316
# Shear Modulus (GPa) = 32.62258 49.07914 40.85086
#
# Velocity S-wave (km/s) = 3.39573 4.16507 3.79992
# Velocity P-wave (km/s) = 6.05643 7.24274 6.67599
#
# Compressibility (1/GPa) = 0.01659015
#
# Stress axis : x y z
#
# Youngs Moduli (GPa) = 216.36189 102.05495 101.05514
#
# Poissons Ratio (x) = 0.05161 0.15101
# Poissons Ratio (y) = 0.10941 0.18826
# Poissons Ratio (z) = 0.32332 0.19012
#
# Static dielectric constant tensor:
#      x y z
#    x 2.447620 0.003070 0.003180 
#    y 0.003070 2.076810 0.037660 
#    z 0.003180 0.037660 2.281630 
# 
# From -- ./inp_files/6658.got.cif
#   From: 2010.05.17/outbox.cif.g08.bks.cpg/sg2_4_cif.got.tgz:6658.got - 2010.06.03 11:33:40.
