data_PCOD9065492
_publ_section_title
;
Structure prediction by ZEFSAII (Michael W. Deem and Ramdas Pophale) SiO2 
 PCOD9065492
Probable space group: P -1
;
_chemical_formula_sum "Si O2"
_cell_formula_units_Z 10
_cell_length_a 11.933808
_cell_length_b 9.987621
_cell_length_c 16.371061
_cell_angle_alpha 25.967070
_cell_angle_beta 26.410070
_cell_angle_gamma 35.884652
_cell_volume 379.894580
_symmetry_space_group_name_H-M "P -1"
_symmetry_group_IT_number 2
_symmetry_cell_setting 'triclinic'
loop_
_space_group_symop_operation_xyz
x,y,z
-x,-y,-z
loop_
_atom_site_type_symbol
_atom_site_label
_atom_site_fract_x
_atom_site_fract_y
_atom_site_fract_z
Si Si1 0.503802 0.692860 0.222164
Si Si2 0.312261 0.689432 0.944711
Si Si3 0.757526 0.047094 0.387570
Si Si4 0.139228 0.121615 0.966840
Si Si5 0.043030 0.170571 0.461552
O O1 0.641383 0.388330 0.264672
O O2 0.209383 0.632479 0.461775
O O3 0.643944 0.757228 0.181812
O O4 0.500000 0.000000 0.000000
O O5 0.068836 0.658711 0.060443
O O6 0.537708 0.807538 0.677231
O O7 0.292213 0.366729 0.180228
O O8 0.249975 0.938790 0.918191
O O9 0.956190 0.941767 0.246973
O O10 0.907552 0.051262 0.372783
O O11 0.000000 0.000000 0.500000
#
# Coordination Sequence:
#
# PCOD9065492 Si02
#       5
#     2   2   2   2   2
#     4  12  26  47  75 110 145 195 252 297 361 444
#     4  11  26  47  74 114 146 192 249 305 367 440
#     4  12  26  49  76 108 149 199 245 302 369 438
#     4  11  24  48  77 105 152 195 243 305 366 436
#     4  12  27  48  77 108 149 195 245 308 372 437
#
# _framework density 26.323091000000002
#
# number of rings (size 3 to 8) (size 9 to 14) (size 15 to 20)
#    0.000    0.400    2.000    6.600    2.800    3.200 
#    3.600    0.000    0.000    0.000    0.000    0.000 
#    0.000    0.000    0.000    0.000    0.000    0.000 
#
# Total GULP energy -56004.959114 kJ/mol
# GULP energy per Si atom -5600.495911 kJ/mol
# Density = 2.626318 g / cm^3
# Si number density = 26.323091 Si / 1000 Ang^3
#
#
#
# Elastic Constant Matrix: (Units=GPa)
#
#
# Indices 1 2 3 4 5 6 
#
# 1 139.4480 44.4603 14.4140 8.7477 1.2997 8.5149
# 2 44.4603 56.8593 24.3881 23.4795 -8.2984 -13.3959
# 3 14.4140 24.3881 153.9396 23.3608 -5.7763 -5.9377
# 4 8.7477 23.4795 23.3608 37.8103 -4.1012 -1.0638
# 5 1.2997 -8.2984 -5.7763 -4.1012 48.4342 3.9215
# 6 8.5149 -13.3959 -5.9377 -1.0638 3.9215 49.7582
#
#
#
# Elastic Compliance Matrix: (Units=1/GPa)
#
#
# Indices 1 2 3 4 5 6 
#
# 1 0.010955 -0.011757 -0.000094 0.004520 -0.001545 -0.004833
# 2 -0.011757 0.038899 -0.001461 -0.019752 0.004198 0.011557
# 3 -0.000094 -0.001461 0.007299 -0.003538 0.000291 0.000395
# 4 0.004520 -0.019752 -0.003538 0.039683 -0.000109 -0.005656
# 5 -0.001545 0.004198 0.000291 -0.000109 0.021454 -0.000264
# 6 -0.004833 0.011557 0.000395 -0.005656 -0.000264 0.023983
#
#
# Mechanical properties :
#
#
# Convention : Reuss Voigt Hill
#
# Bulk Modulus (GPa) = 32.75400 57.41907 45.08653
# Shear Modulus (GPa) = 27.92158 44.99950 36.46054
#
# Velocity S-wave (km/s) = 3.26041 4.13910 3.72575
# Velocity P-wave (km/s) = 5.16176 6.68606 5.97274
#
# Compressibility (1/GPa) = 0.03053062
#
# Stress axis : x y z
#
# Youngs Moduli (GPa) = 91.28101 25.70760 136.99780
#
# Poissons Ratio (x) = 0.30224 0.01282
# Poissons Ratio (y) = 1.07318 0.20016
# Poissons Ratio (z) = 0.00854 0.03756
#
# Static dielectric constant tensor:
#      x y z
#    x 2.190690 -0.091150 -0.035760 
#    y -0.091150 2.039510 0.020800 
#    z -0.035760 0.020800 2.167770 
# 
# From -- ./inp_files/324332.got.cif
#   From: 2010.05.17/outbox.cif.g08.bks.cpg/sg2_163_cif.got.tgz:324332.got - 2010.06.03 11:33:40.
