data_PCOD9065141
_publ_section_title
;
Structure prediction by ZEFSAII (Michael W. Deem and Ramdas Pophale) SiO2 
 PCOD9065141
Probable space group: P -1
;
_chemical_formula_sum "Si O2"
_cell_formula_units_Z 13
_cell_length_a 5.628643
_cell_length_b 18.403605
_cell_length_c 9.193060
_cell_angle_alpha 41.474762
_cell_angle_beta 122.261777
_cell_angle_gamma 103.445401
_cell_volume 508.933522
_symmetry_space_group_name_H-M "P -1"
_symmetry_group_IT_number 2
_symmetry_cell_setting 'triclinic'
loop_
_space_group_symop_operation_xyz
x,y,z
-x,-y,-z
loop_
_atom_site_type_symbol
_atom_site_label
_atom_site_fract_x
_atom_site_fract_y
_atom_site_fract_z
Si Si1 0.262443 0.585286 0.498214
Si Si2 0.243697 0.352729 0.964578
Si Si3 0.799052 0.628821 0.740623
Si Si4 0.284652 0.100903 0.369105
Si Si5 0.000000 0.000000 0.000000
Si Si6 0.927460 0.767188 0.348373
Si Si7 0.287738 0.949146 0.855036
O O1 0.352658 0.451207 0.775378
O O2 0.537166 0.631951 0.539165
O O3 0.101517 0.604566 0.261772
O O4 0.027110 0.662604 0.422172
O O5 0.299699 0.350844 0.156946
O O6 0.342907 0.217907 0.163941
O O7 0.966236 0.712487 0.603023
O O8 0.000000 0.500000 0.000000
O O9 0.955269 0.100453 0.225256
O O10 0.500000 0.000000 0.500000
O O11 0.342744 0.054649 0.622201
O O12 0.897058 0.142002 0.757540
O O13 0.847378 0.001253 0.109841
O O14 0.592931 0.848431 0.100218
#
# Coordination Sequence:
#
# PCOD9065141 Si02
#       7
#     2   2   2   2   1   2   2
#     4  11  26  49  73 107 153 191 252 318 380 460
#     4  11  24  48  74 107 146 200 245 307 389 444
#     4  12  26  48  72 111 150 195 255 314 378 462
#     4  11  24  47  72 108 152 197 256 314 375 460
#     4  12  24  42  70 102 144 194 242 308 380 440
#     4  12  25  47  72 104 150 196 253 318 379 456
#     4  11  25  45  70 107 149 198 255 313 380 457
#
# _framework density 25.543610999999999
#
# number of rings (size 3 to 8) (size 9 to 14) (size 15 to 20)
#    0.000    0.615    1.538    6.462    0.000    4.308 
#   11.077    0.000    0.000    0.000    0.000    0.000 
#    0.000    0.000    0.000    0.000    0.000    0.000 
#
# Total GULP energy -72588.624811 kJ/mol
# GULP energy per Si atom -5583.740370 kJ/mol
# Density = 2.548547 g / cm^3
# Si number density = 25.543611 Si / 1000 Ang^3
#
#
#
# Elastic Constant Matrix: (Units=GPa)
#
#
# Indices 1 2 3 4 5 6 
#
# 1 66.2477 20.3464 36.2318 -7.1687 -21.0672 -12.0347
# 2 20.3464 81.3715 38.2074 -29.0178 -13.5426 13.6531
# 3 36.2318 38.2074 150.3746 -36.0060 -30.1412 11.0849
# 4 -7.1687 -29.0178 -36.0060 59.1341 7.3437 -1.5712
# 5 -21.0672 -13.5426 -30.1412 7.3437 52.8483 -6.3624
# 6 -12.0347 13.6531 11.0849 -1.5712 -6.3624 33.1983
#
#
#
# Elastic Compliance Matrix: (Units=1/GPa)
#
#
# Indices 1 2 3 4 5 6 
#
# 1 0.024116 -0.006230 -0.004584 -0.003492 0.007588 0.014124
# 2 -0.006230 0.018413 -0.000739 0.007629 -0.000365 -0.009293
# 3 -0.004584 -0.000739 0.009847 0.004665 0.002475 -0.003950
# 4 -0.003492 0.007629 0.004665 0.023010 -0.000574 -0.004982
# 5 0.007588 -0.000365 0.002475 -0.000574 0.024149 0.006676
# 6 0.014124 -0.009293 -0.003950 -0.004982 0.006676 0.041427
#
#
# Mechanical properties :
#
#
# Convention : Reuss Voigt Hill
#
# Bulk Modulus (GPa) = 34.16413 54.17388 44.16901
# Shear Modulus (GPa) = 28.76473 42.58336 35.67404
#
# Velocity S-wave (km/s) = 3.35939 4.08742 3.74116
# Velocity P-wave (km/s) = 5.33396 6.59776 5.99923
#
# Compressibility (1/GPa) = 0.02927047
#
# Stress axis : x y z
#
# Youngs Moduli (GPa) = 41.46544 54.30953 101.55792
#
# Poissons Ratio (x) = 0.33834 0.46554
# Poissons Ratio (y) = 0.25833 0.07504
# Poissons Ratio (z) = 0.19008 0.04013
#
# Static dielectric constant tensor:
#      x y z
#    x 2.035730 0.093100 0.058330 
#    y 0.093100 1.934600 0.066490 
#    z 0.058330 0.066490 2.021640 
# 
# From -- ./inp_files/131925.got.cif
#   From: 2010.05.17/outbox.cif.g08.bks.cpg/sg2_66_cif.got.tgz:131925.got - 2010.06.03 11:33:40.
