data_PCOD9065227
_publ_section_title
;
Structure prediction by ZEFSAII (Michael W. Deem and Ramdas Pophale) SiO2 
 PCOD9065227
Probable space group: P -1
;
_chemical_formula_sum "Si O2"
_cell_formula_units_Z 11
_cell_length_a 10.776450
_cell_length_b 7.934237
_cell_length_c 8.909720
_cell_angle_alpha 99.159958
_cell_angle_beta 51.336576
_cell_angle_gamma 70.357413
_cell_volume 484.506569
_symmetry_space_group_name_H-M "P -1"
_symmetry_group_IT_number 2
_symmetry_cell_setting 'triclinic'
loop_
_space_group_symop_operation_xyz
x,y,z
-x,-y,-z
loop_
_atom_site_type_symbol
_atom_site_label
_atom_site_fract_x
_atom_site_fract_y
_atom_site_fract_z
Si Si1 0.701409 0.800998 0.495940
Si Si2 0.500000 0.500000 0.500000
Si Si3 0.685757 0.802316 0.151432
Si Si4 0.602654 0.473266 0.078729
Si Si5 0.106826 0.656859 0.718181
Si Si6 0.987855 0.945978 0.332689
O O1 0.667480 0.784568 0.341973
O O2 0.816277 0.569727 0.441502
O O3 0.827642 0.895127 0.427178
O O4 0.483766 0.965888 0.739556
O O5 0.480282 0.506889 0.327107
O O6 0.270313 0.610728 0.705661
O O7 0.648639 0.646802 0.076629
O O8 0.900283 0.736543 0.955921
O O9 0.500000 0.500000 0.000000
O O10 0.803829 0.250846 0.896743
O O11 0.067944 0.850024 0.682857
O O12 0.000000 0.000000 0.500000
#
# Coordination Sequence:
#
# PCOD9065227 Si02
#       6
#     2   1   2   2   2   2
#     4  11  24  47  75 105 159 196 260 325 383 475
#     4  12  26  46  78 118 148 208 258 312 398 462
#     4  11  24  48  73 114 152 205 259 324 391 461
#     4  12  26  51  79 114 163 202 264 329 388 470
#     4  12  26  46  76 113 147 205 265 308 396 467
#     4  12  28  50  74 112 162 208 259 332 393 462
#
# _framework density 22.703509
#
# number of rings (size 3 to 8) (size 9 to 14) (size 15 to 20)
#    0.000    0.364    3.636    4.909    5.091    2.182 
#    3.273    1.818    0.000    0.000    0.000    0.000 
#    0.000    0.000    0.000    0.000    0.000    0.000 
#
# Total GULP energy -61276.858986 kJ/mol
# GULP energy per Si atom -5570.623544 kJ/mol
# Density = 2.265183 g / cm^3
# Si number density = 22.703509 Si / 1000 Ang^3
#
#
#
# Elastic Constant Matrix: (Units=GPa)
#
#
# Indices 1 2 3 4 5 6 
#
# 1 144.4316 59.3601 70.8608 4.7079 8.4355 -5.4985
# 2 59.3601 136.5637 61.4200 39.0407 -16.7248 9.8777
# 3 70.8608 61.4200 151.1576 31.3116 -25.3738 -4.0187
# 4 4.7079 39.0407 31.3116 39.6965 -12.6114 -1.1637
# 5 8.4355 -16.7248 -25.3738 -12.6114 46.2679 4.0304
# 6 -5.4985 9.8777 -4.0187 -1.1637 4.0304 19.0305
#
#
#
# Elastic Compliance Matrix: (Units=1/GPa)
#
#
# Indices 1 2 3 4 5 6 
#
# 1 0.012914 -0.006518 -0.005884 0.007676 -0.006518 0.007721
# 2 -0.006518 0.015301 -0.000029 -0.013293 0.004083 -0.011509
# 3 -0.005884 -0.000029 0.011717 -0.006720 0.005729 -0.000835
# 4 0.007676 -0.013293 -0.006720 0.043277 0.001024 0.010128
# 5 -0.006518 0.004083 0.005729 0.001024 0.028461 -0.008758
# 6 0.007721 -0.011509 -0.000835 0.010128 -0.008758 0.063050
#
#
# Mechanical properties :
#
#
# Convention : Reuss Voigt Hill
#
# Bulk Modulus (GPa) = 66.35450 90.60388 78.47919
# Shear Modulus (GPa) = 24.43715 37.03311 30.73513
#
# Velocity S-wave (km/s) = 3.28435 4.04315 3.68334
# Velocity P-wave (km/s) = 6.60853 7.86067 7.26164
#
# Compressibility (1/GPa) = 0.01507057
#
# Stress axis : x y z
#
# Youngs Moduli (GPa) = 77.43656 65.35365 85.34251
#
# Poissons Ratio (x) = 0.42596 0.50218
# Poissons Ratio (y) = 0.50471 0.00248
# Poissons Ratio (z) = 0.45566 0.00190
#
# Static dielectric constant tensor:
#      x y z
#    x 1.813080 0.036840 0.023400 
#    y 0.036840 1.819610 -0.004010 
#    z 0.023400 -0.004010 1.850350 
# 
# From -- ./inp_files/155758.got.cif
#   From: 2010.05.17/outbox.cif.g08.bks.cpg/sg2_78_cif.got.tgz:155758.got - 2010.06.03 11:33:40.
