data_PCOD9065089
_publ_section_title
;
Structure prediction by ZEFSAII (Michael W. Deem and Ramdas Pophale) SiO2 
 PCOD9065089
Probable space group: P -1
;
_chemical_formula_sum "Si O2"
_cell_formula_units_Z 16
_cell_length_a 21.011992
_cell_length_b 11.905195
_cell_length_c 18.518856
_cell_angle_alpha 145.202771
_cell_angle_beta 19.449261
_cell_angle_gamma 154.933042
_cell_volume 635.448905
_symmetry_space_group_name_H-M "P -1"
_symmetry_group_IT_number 2
_symmetry_cell_setting 'triclinic'
loop_
_space_group_symop_operation_xyz
x,y,z
-x,-y,-z
loop_
_atom_site_type_symbol
_atom_site_label
_atom_site_fract_x
_atom_site_fract_y
_atom_site_fract_z
Si Si1 0.098965 0.016160 0.982407
Si Si2 0.866716 0.640402 0.331908
Si Si3 0.687460 0.194386 0.969871
Si Si4 0.236453 0.100878 0.069811
Si Si5 0.451554 0.992480 0.652714
Si Si6 0.415895 0.529132 0.684135
Si Si7 0.075387 0.417268 0.202949
Si Si8 0.209587 0.497542 0.237594
O O1 0.864672 0.770795 0.153527
O O2 0.178185 0.292173 0.068606
O O3 0.346313 0.048150 0.728077
O O4 0.000000 0.000000 0.000000
O O5 0.719450 0.325650 0.325059
O O6 0.621010 0.613912 0.573395
O O7 0.024436 0.807325 0.178879
O O8 0.083401 0.797213 0.247055
O O9 0.611789 0.257147 0.158175
O O10 0.850633 0.482446 0.903314
O O11 0.500000 0.000000 0.000000
O O12 0.123160 0.228562 0.231577
O O13 0.478751 0.297567 0.969356
O O14 0.366737 0.078360 0.852346
O O15 0.762979 0.188473 0.426573
O O16 0.500000 0.500000 0.500000
O O17 0.219864 0.645602 0.228855
O O18 0.000000 0.500000 0.500000
#
# Coordination Sequence:
#
# PCOD9065089 Si02
#       8
#     2   2   2   2   2   2   2   2
#     4  12  24  46  73 105 150 192 254 315 378 452
#     4  12  27  45  78 111 155 196 251 319 390 454
#     4  12  30  53  74 111 158 209 253 315 390 467
#     4  11  25  43  70 110 151 193 255 310 379 460
#     4  12  24  42  74 112 146 192 249 316 388 447
#     4  12  28  48  77 115 155 201 257 318 390 458
#     4  12  25  45  75 105 151 198 257 312 380 460
#     4  11  24  47  71 105 149 207 251 313 374 456
#
# _framework density 25.17905
#
# number of rings (size 3 to 8) (size 9 to 14) (size 15 to 20)
#    0.000    0.250    6.250    1.875    3.500    3.500 
#    0.000    0.000    0.000    0.000    0.000    0.000 
#    0.000    0.000    0.000    0.000    0.000    0.000 
#
# Total GULP energy -89082.705750 kJ/mol
# GULP energy per Si atom -5567.669109 kJ/mol
# Density = 2.512174 g / cm^3
# Si number density = 25.179050 Si / 1000 Ang^3
#
#
#
# Elastic Constant Matrix: (Units=GPa)
#
#
# Indices 1 2 3 4 5 6 
#
# 1 144.5204 7.1091 29.2247 1.0165 -15.2389 5.9719
# 2 7.1091 67.4090 20.6332 -23.5586 -16.6069 -18.7526
# 3 29.2247 20.6332 93.4879 15.5671 -12.8564 1.1087
# 4 1.0165 -23.5586 15.5671 -20.2641 -20.7416 -38.5494
# 5 -15.2389 -16.6069 -12.8564 -20.7416 42.6831 -18.6014
# 6 5.9719 -18.7526 1.1087 -38.5494 -18.6014 24.2836
#
#
#
# Elastic Compliance Matrix: (Units=1/GPa)
#
#
# Indices 1 2 3 4 5 6 
#
# 1 0.007545 -0.000207 -0.002076 -0.000191 0.001389 -0.001160
# 2 -0.000207 0.011575 -0.001367 -0.007303 -0.000959 -0.003276
# 3 -0.002076 -0.001367 0.012052 0.000693 0.004047 0.003105
# 4 -0.000191 -0.007303 0.000693 -0.001243 -0.009932 -0.015205
# 5 0.001389 -0.000959 0.004047 -0.009932 0.018796 -0.002635
# 6 -0.001160 -0.003276 0.003105 -0.015205 -0.002635 0.012637
#
#
# Mechanical properties :
#
#
# Convention : Reuss Voigt Hill
#
# Bulk Modulus (GPa) = 41.89169 46.59459 44.24314
# Shear Modulus (GPa) = 65.25805 25.90386 45.58096
#
# Velocity S-wave (km/s) = 5.09646 3.21095 4.25935
# Velocity P-wave (km/s) = 7.16278 5.68264 6.46521
#
# Compressibility (1/GPa) = 0.02387108
#
# Stress axis : x y z
#
# Youngs Moduli (GPa) = 132.53314 86.39302 82.97669
#
# Poissons Ratio (x) = 0.01792 0.17228
# Poissons Ratio (y) = 0.02748 0.11341
# Poissons Ratio (z) = 0.27518 0.11808
#
# Static dielectric constant tensor:
#      x y z
#    x 2.185990 -0.038620 0.075620 
#    y -0.038620 2.117140 0.005760 
#    z 0.075620 0.005760 2.111070 
# 
# From -- ./inp_files/577981.got.cif
#   From: 2010.05.17/outbox.cif.g08.bks.cpg/sg2_289_cif.got.tgz:577981.got - 2010.06.03 11:33:40.
