data_PCOD9065972
_publ_section_title
;
Structure prediction by ZEFSAII (Michael W. Deem and Ramdas Pophale) SiO2 
 PCOD9065972
Probable space group: P -1
;
_chemical_formula_sum "Si O2"
_cell_formula_units_Z 16
_cell_length_a 5.579501
_cell_length_b 14.738730
_cell_length_c 8.520021
_cell_angle_alpha 80.461906
_cell_angle_beta 84.065036
_cell_angle_gamma 110.667658
_cell_volume 636.460936
_symmetry_space_group_name_H-M "P -1"
_symmetry_group_IT_number 2
_symmetry_cell_setting 'triclinic'
loop_
_space_group_symop_operation_xyz
x,y,z
-x,-y,-z
loop_
_atom_site_type_symbol
_atom_site_label
_atom_site_fract_x
_atom_site_fract_y
_atom_site_fract_z
Si Si1 0.926528 0.268188 0.804050
Si Si2 0.332514 0.908439 0.927516
Si Si3 0.694096 0.877238 0.696131
Si Si4 0.190410 0.616212 0.959385
Si Si5 0.087149 0.034029 0.801735
Si Si6 0.469257 0.793467 0.414321
Si Si7 0.627264 0.616500 0.470179
Si Si8 0.787625 0.683490 0.773562
O O1 0.770905 0.215419 0.674350
O O2 0.204718 0.341058 0.708221
O O3 0.899010 0.175372 0.943125
O O4 0.796558 0.336370 0.881725
O O5 0.504861 0.851450 0.866168
O O6 0.253966 0.965636 0.779943
O O7 0.500000 0.000000 0.000000
O O8 0.529591 0.853217 0.555388
O O9 0.836130 0.799418 0.714019
O O10 0.866427 0.990907 0.697173
O O11 0.485447 0.635144 0.873916
O O12 0.014441 0.666074 0.860859
O O13 0.000000 0.500000 0.000000
O O14 0.276161 0.145190 0.724940
O O15 0.000000 0.000000 0.000000
O O16 0.450481 0.681976 0.480615
O O17 0.500000 0.500000 0.500000
O O18 0.789969 0.640128 0.613154
#
# Coordination Sequence:
#
# PCOD9065972 Si02
#       8
#     2   2   2   2   2   2   2   2
#     4  12  26  45  77 107 152 196 259 320 381 472
#     4  12  23  44  71 107 144 196 249 315 384 462
#     4  11  25  44  70 103 155 194 251 312 389 462
#     4  12  27  48  81 113 151 200 265 329 391 457
#     4  12  23  42  71 104 148 193 252 315 381 461
#     4  11  27  44  70 109 146 198 257 310 397 458
#     4  11  28  48  75 105 151 202 259 323 392 460
#     4  11  27  50  75 111 155 203 256 318 398 460
#
# _framework density 25.139012000000001
#
# number of rings (size 3 to 8) (size 9 to 14) (size 15 to 20)
#    0.000    0.500    3.750    3.000    7.000    2.000 
#    0.000    0.000    0.000    0.000    0.000    0.000 
#    0.000    0.000    0.000    0.000    0.000    0.000 
#
# Total GULP energy -89408.148727 kJ/mol
# GULP energy per Si atom -5588.009295 kJ/mol
# Density = 2.508179 g / cm^3
# Si number density = 25.139012 Si / 1000 Ang^3
#
#
#
# Elastic Constant Matrix: (Units=GPa)
#
#
# Indices 1 2 3 4 5 6 
#
# 1 71.8630 16.3244 15.2394 -1.7148 3.2678 4.0075
# 2 16.3244 159.5287 46.5359 -11.6257 -3.8884 6.9130
# 3 15.2394 46.5359 85.9611 9.1982 -6.1341 -1.6661
# 4 -1.7148 -11.6257 9.1982 44.5642 6.0336 -4.0273
# 5 3.2678 -3.8884 -6.1341 6.0336 50.2987 -3.8225
# 6 4.0075 6.9130 -1.6661 -4.0273 -3.8225 24.1214
#
#
#
# Elastic Compliance Matrix: (Units=1/GPa)
#
#
# Indices 1 2 3 4 5 6 
#
# 1 0.014840 -0.000636 -0.002551 0.000921 -0.001630 -0.002564
# 2 -0.000636 0.007955 -0.004569 0.002861 -0.000402 -0.002076
# 3 -0.002551 -0.004569 0.015264 -0.004548 0.002403 0.002409
# 4 0.000921 0.002861 -0.004548 0.024804 -0.003190 0.002349
# 5 -0.001630 -0.000402 0.002403 -0.003190 0.020885 0.003329
# 6 -0.002564 -0.002076 0.002409 0.002349 0.003329 0.043564
#
#
# Mechanical properties :
#
#
# Convention : Reuss Voigt Hill
#
# Bulk Modulus (GPa) = 44.35203 52.61691 48.48447
# Shear Modulus (GPa) = 33.25835 39.74707 36.50271
#
# Velocity S-wave (km/s) = 3.64122 3.98061 3.81469
# Velocity P-wave (km/s) = 5.94634 6.48867 6.22342
#
# Compressibility (1/GPa) = 0.02254688
#
# Stress axis : x y z
#
# Youngs Moduli (GPa) = 67.38607 125.70869 65.51547
#
# Poissons Ratio (x) = 0.07994 0.16714
# Poissons Ratio (y) = 0.04285 0.29932
# Poissons Ratio (z) = 0.17191 0.57433
#
# Static dielectric constant tensor:
#      x y z
#    x 2.216060 0.000240 -0.072230 
#    y 0.000240 2.003500 0.016930 
#    z -0.072230 0.016930 2.050970 
# 
# From -- ./inp_files/135136.got.cif
#   From: 2010.05.17/outbox.cif.g08.bks.cpg/sg2_68_cif.got.tgz:135136.got - 2010.06.03 11:33:40.
