data_PCOD9065314
_publ_section_title
;
Structure prediction by ZEFSAII (Michael W. Deem and Ramdas Pophale) SiO2 
 PCOD9065314
Probable space group: P -1
;
_chemical_formula_sum "Si O2"
_cell_formula_units_Z 12
_cell_length_a 14.183323
_cell_length_b 19.919934
_cell_length_c 11.959746
_cell_angle_alpha 150.693693
_cell_angle_beta 148.909956
_cell_angle_gamma 16.454246
_cell_volume 463.553142
_symmetry_space_group_name_H-M "P -1"
_symmetry_group_IT_number 2
_symmetry_cell_setting 'triclinic'
loop_
_space_group_symop_operation_xyz
x,y,z
-x,-y,-z
loop_
_atom_site_type_symbol
_atom_site_label
_atom_site_fract_x
_atom_site_fract_y
_atom_site_fract_z
Si Si1 0.219615 0.808524 0.340418
Si Si2 0.191915 0.602552 0.381370
Si Si3 0.128405 0.764660 0.778931
Si Si4 0.385270 0.163705 0.231811
Si Si5 0.961084 0.480371 0.078943
Si Si6 0.766430 0.950142 0.899267
O O1 0.477125 0.526336 0.232336
O O2 0.992003 0.901854 0.141439
O O3 0.000000 0.000000 0.500000
O O4 0.428830 0.810823 0.524253
O O5 0.500000 0.500000 0.500000
O O6 0.024445 0.786977 0.581162
O O7 0.216147 0.436205 0.224950
O O8 0.962430 0.794035 0.758329
O O9 0.000000 0.000000 0.000000
O O10 0.018903 0.432870 0.198595
O O11 0.327863 0.117841 0.219086
O O12 0.500000 0.000000 0.000000
O O13 0.989963 0.687803 0.189520
O O14 0.579300 0.760739 0.070907
#
# Coordination Sequence:
#
# PCOD9065314 Si02
#       6
#     2   2   2   2   2   2
#     4  12  27  55  82 120 166 221 285 342 407 506
#     4  11  24  47  81 114 157 216 281 336 404 497
#     4  12  29  51  83 125 169 225 274 347 436 498
#     4  12  26  49  84 123 159 216 284 346 413 494
#     4  11  26  50  82 122 156 215 291 340 410 499
#     4  12  29  49  81 123 170 214 277 350 426 499
#
# _framework density 25.886998999999999
#
# number of rings (size 3 to 8) (size 9 to 14) (size 15 to 20)
#    0.000    0.333    3.333    4.500    4.667    8.000 
#    0.000    1.667    0.000    0.000    0.000    0.000 
#    0.000    0.000    0.000    0.000    0.000    0.000 
#
# Total GULP energy -67185.663513 kJ/mol
# GULP energy per Si atom -5598.805293 kJ/mol
# Density = 2.582808 g / cm^3
# Si number density = 25.886999 Si / 1000 Ang^3
#
#
#
# Elastic Constant Matrix: (Units=GPa)
#
#
# Indices 1 2 3 4 5 6 
#
# 1 168.9274 62.8709 79.1440 -14.8699 -12.4720 -15.4264
# 2 62.8709 139.4919 59.4682 -10.4198 0.2649 10.8821
# 3 79.1440 59.4682 176.7466 -12.8417 8.4361 -13.2816
# 4 -14.8699 -10.4198 -12.8417 58.0829 -6.3361 4.6136
# 5 -12.4720 0.2649 8.4361 -6.3361 60.1224 -0.0879
# 6 -15.4264 10.8821 -13.2816 4.6136 -0.0879 39.3602
#
#
#
# Elastic Compliance Matrix: (Units=1/GPa)
#
#
# Indices 1 2 3 4 5 6 
#
# 1 0.008907 -0.003012 -0.002761 0.001129 0.002372 0.003265
# 2 -0.003012 0.009938 -0.002280 0.000860 -0.000265 -0.004799
# 3 -0.002761 -0.002280 0.007924 0.000284 -0.001641 0.002186
# 4 0.001129 0.000860 0.000284 0.018095 0.002095 -0.001816
# 5 0.002372 -0.000265 -0.001641 0.002095 0.017577 0.000243
# 6 0.003265 -0.004799 0.002186 -0.001816 0.000243 0.028964
#
#
# Mechanical properties :
#
#
# Convention : Reuss Voigt Hill
#
# Bulk Modulus (GPa) = 93.78711 98.68136 96.23424
# Shear Modulus (GPa) = 45.01798 50.42528 47.72163
#
# Velocity S-wave (km/s) = 4.17468 4.41829 4.29821
# Velocity P-wave (km/s) = 7.71656 8.01444 7.86691
#
# Compressibility (1/GPa) = 0.01066245
#
# Stress axis : x y z
#
# Youngs Moduli (GPa) = 112.27212 100.62515 126.19283
#
# Poissons Ratio (x) = 0.30313 0.34837
# Poissons Ratio (y) = 0.33822 0.28775
# Poissons Ratio (z) = 0.30994 0.22945
#
# Static dielectric constant tensor:
#      x y z
#    x 2.056200 0.058520 0.039250 
#    y 0.058520 2.279990 0.140550 
#    z 0.039250 0.140550 2.102080 
# 
# From -- ./inp_files/457760.got.cif
#   From: 2010.05.17/outbox.cif.g08.bks.cpg/sg2_229_cif.got.tgz:457760.got - 2010.06.03 11:33:40.
