data_PCOD9065916
_publ_section_title
;
Structure prediction by ZEFSAII (Michael W. Deem and Ramdas Pophale) SiO2 
 PCOD9065916
Probable space group: P -1
;
_chemical_formula_sum "Si O2"
_cell_formula_units_Z 16
_cell_length_a 11.895562
_cell_length_b 16.430467
_cell_length_c 10.377506
_cell_angle_alpha 53.803663
_cell_angle_beta 115.305314
_cell_angle_gamma 156.097968
_cell_volume 622.730692
_symmetry_space_group_name_H-M "P -1"
_symmetry_group_IT_number 2
_symmetry_cell_setting 'triclinic'
loop_
_space_group_symop_operation_xyz
x,y,z
-x,-y,-z
loop_
_atom_site_type_symbol
_atom_site_label
_atom_site_fract_x
_atom_site_fract_y
_atom_site_fract_z
Si Si1 0.630314 0.772712 0.752451
Si Si2 0.891046 0.822538 0.039655
Si Si3 0.820077 0.448165 0.629834
Si Si4 0.553389 0.105454 0.612535
Si Si5 0.735492 0.254601 0.017538
Si Si6 0.289533 0.318568 0.319969
Si Si7 0.986393 0.735647 0.982104
Si Si8 0.986945 0.772036 0.501029
O O1 0.717472 0.742434 0.909365
O O2 0.741072 0.818406 0.622637
O O3 0.282226 0.521635 0.837456
O O4 0.797417 0.991727 0.686441
O O5 0.640551 0.589753 0.221269
O O6 0.094944 0.891494 0.002449
O O7 0.000000 0.000000 0.000000
O O8 0.170198 0.693068 0.538662
O O9 0.793006 0.547741 0.542469
O O10 0.639183 0.261301 0.602644
O O11 0.712389 0.315179 0.831438
O O12 0.516250 0.972614 0.795673
O O13 0.234586 0.893643 0.592392
O O14 0.000000 0.500000 0.000000
O O15 0.820345 0.211147 0.030507
O O16 0.206475 0.298140 0.437885
O O17 0.123924 0.276977 0.181079
#
# Coordination Sequence:
#
# PCOD9065916 Si02
#       8
#     2   2   2   2   2   2   2   2
#     4   9  20  35  61  85 119 160 201 249 312 378
#     4   9  19  38  58  88 126 153 199 261 307 375
#     4  11  26  44  61  97 131 164 222 263 317 390
#     4  11  25  44  64  91 134 165 211 278 313 372
#     4  12  22  40  70  94 123 175 217 262 326 377
#     4   9  18  37  58  87 115 154 203 251 301 378
#     4   9  18  36  59  86 115 157 209 244 308 376
#     4  12  21  41  64  86 124 166 207 255 324 375
#
# _framework density 25.693290000000001
#
# number of rings (size 3 to 8) (size 9 to 14) (size 15 to 20)
#    0.000    1.750    2.500    3.375    1.750    1.000 
#    9.000    0.625    0.000    0.000    0.000    0.000 
#    0.000    0.000    0.000    0.000    0.000    0.000 
#
# Total GULP energy -89375.898217 kJ/mol
# GULP energy per Si atom -5585.993639 kJ/mol
# Density = 2.563481 g / cm^3
# Si number density = 25.693290 Si / 1000 Ang^3
#
#
#
# Elastic Constant Matrix: (Units=GPa)
#
#
# Indices 1 2 3 4 5 6 
#
# 1 92.5258 41.8605 42.3022 -14.5977 3.1628 -21.4955
# 2 41.8605 85.7946 21.2365 -14.4967 4.4033 -37.3467
# 3 42.3022 21.2365 118.6626 -15.3405 11.2875 -1.7832
# 4 -14.5977 -14.4967 -15.3405 31.2716 -1.1945 18.9446
# 5 3.1628 4.4033 11.2875 -1.1945 50.2193 -9.0581
# 6 -21.4955 -37.3467 -1.7832 18.9446 -9.0581 49.3906
#
#
#
# Elastic Compliance Matrix: (Units=1/GPa)
#
#
# Indices 1 2 3 4 5 6 
#
# 1 0.016163 -0.005536 -0.004660 0.001300 0.000971 0.002360
# 2 -0.005536 0.020580 -0.001984 -0.002673 0.001521 0.014385
# 3 -0.004660 -0.001984 0.011420 0.006013 -0.003035 -0.005979
# 4 0.001300 -0.002673 0.006013 0.045999 -0.003631 -0.019548
# 5 0.000971 0.001521 -0.003035 -0.003631 0.021542 0.006807
# 6 0.002360 0.014385 -0.005979 -0.019548 0.006807 0.040682
#
#
# Mechanical properties :
#
#
# Convention : Reuss Voigt Hill
#
# Bulk Modulus (GPa) = 42.01072 56.42016 49.21544
# Shear Modulus (GPa) = 26.50014 38.94855 32.72435
#
# Velocity S-wave (km/s) = 3.21503 3.89768 3.57270
# Velocity P-wave (km/s) = 5.49256 6.50098 6.01793
#
# Compressibility (1/GPa) = 0.02380345
#
# Stress axis : x y z
#
# Youngs Moduli (GPa) = 61.87000 48.59145 87.56729
#
# Poissons Ratio (x) = 0.26898 0.40807
# Poissons Ratio (y) = 0.34249 0.17372
# Poissons Ratio (z) = 0.28832 0.09640
#
# Static dielectric constant tensor:
#      x y z
#    x 2.047290 0.017880 -0.008780 
#    y 0.017880 2.119690 0.033920 
#    z -0.008780 0.033920 2.086390 
# 
# From -- ./inp_files/272348.got.cif
#   From: 2010.05.17/outbox.cif.g08.bks.cpg/sg2_137_cif.got.tgz:272348.got - 2010.06.03 11:33:40.
