data_PCOD9065622
_publ_section_title
;
Structure prediction by ZEFSAII (Michael W. Deem and Ramdas Pophale) SiO2 
 PCOD9065622
Probable space group: P -1
;
_chemical_formula_sum "Si O2"
_cell_formula_units_Z 12
_cell_length_a 17.004480
_cell_length_b 9.705961
_cell_length_c 5.100174
_cell_angle_alpha 46.442501
_cell_angle_beta 106.484288
_cell_angle_gamma 131.036525
_cell_volume 437.673651
_symmetry_space_group_name_H-M "P -1"
_symmetry_group_IT_number 2
_symmetry_cell_setting 'triclinic'
loop_
_space_group_symop_operation_xyz
x,y,z
-x,-y,-z
loop_
_atom_site_type_symbol
_atom_site_label
_atom_site_fract_x
_atom_site_fract_y
_atom_site_fract_z
Si Si1 0.387878 0.765431 0.071429
Si Si2 0.757771 0.098929 0.252059
Si Si3 0.084939 0.368380 0.115622
Si Si4 0.100096 0.798237 0.170568
Si Si5 0.179433 0.306964 0.784372
Si Si6 0.432776 0.471155 0.218348
O O1 0.302437 0.526422 0.499902
O O2 0.417137 0.669596 0.989790
O O3 0.326903 0.864690 0.809454
O O4 0.500000 0.000000 0.000000
O O5 0.688152 0.800896 0.583415
O O6 0.863899 0.338285 0.195921
O O7 0.798219 0.159484 0.909880
O O8 0.152642 0.358489 0.970958
O O9 0.893914 0.690650 0.503573
O O10 0.958974 0.175135 0.162884
O O11 0.000000 0.500000 0.500000
O O12 0.142705 0.031760 0.087991
O O13 0.500000 0.500000 0.500000
O O14 0.500000 0.500000 0.000000
#
# Coordination Sequence:
#
# PCOD9065622 Si02
#       6
#     2   2   2   2   2   2
#     4  11  24  49  78 109 153 191 250 310 378 444
#     4  11  26  48  74 115 150 198 252 308 377 450
#     4  11  26  47  76 106 153 200 254 306 378 443
#     4  12  25  48  76 112 156 201 255 314 374 451
#     4  11  26  49  75 113 149 204 250 313 374 452
#     4  12  28  49  77 109 149 198 250 309 377 446
#
# _framework density 27.417684999999999
#
# number of rings (size 3 to 8) (size 9 to 14) (size 15 to 20)
#    0.000    0.667    3.333    3.500    2.333    7.333 
#    0.000    0.000    0.000    0.000    0.000    0.000 
#    0.000    0.000    0.000    0.000    0.000    0.000 
#
# Total GULP energy -67284.604323 kJ/mol
# GULP energy per Si atom -5607.050360 kJ/mol
# Density = 2.735528 g / cm^3
# Si number density = 27.417685 Si / 1000 Ang^3
#
#
#
# Elastic Constant Matrix: (Units=GPa)
#
#
# Indices 1 2 3 4 5 6 
#
# 1 111.4918 51.9593 -2.0367 -7.3159 -14.5742 -34.0697
# 2 51.9593 206.7213 51.9163 -30.8402 3.3767 -25.2239
# 3 -2.0367 51.9163 99.1141 -24.5491 -11.0092 -22.6562
# 4 -7.3159 -30.8402 -24.5491 65.8701 -14.8921 2.6423
# 5 -14.5742 3.3767 -11.0092 -14.8921 41.9655 0.2576
# 6 -34.0697 -25.2239 -22.6562 2.6423 0.2576 85.2358
#
#
#
# Elastic Compliance Matrix: (Units=1/GPa)
#
#
# Indices 1 2 3 4 5 6 
#
# 1 0.013682 -0.003687 0.005110 0.003163 0.007477 0.005615
# 2 -0.003687 0.006832 -0.003855 0.000795 -0.002557 -0.000493
# 3 0.005110 -0.003855 0.015858 0.006395 0.008484 0.004893
# 4 0.003163 0.000795 0.006395 0.020435 0.009948 0.002536
# 5 0.007477 -0.002557 0.008484 0.009948 0.032362 0.004081
# 6 0.005615 -0.000493 0.004893 0.002536 0.004081 0.015040
#
#
# Mechanical properties :
#
#
# Convention : Reuss Voigt Hill
#
# Bulk Modulus (GPa) = 31.73731 69.00058 50.36894
# Shear Modulus (GPa) = 41.81389 59.64685 50.73037
#
# Velocity S-wave (km/s) = 3.90945 4.66927 4.30615
# Velocity P-wave (km/s) = 5.65500 7.36821 6.56771
#
# Compressibility (1/GPa) = 0.03150866
#
# Stress axis : x y z
#
# Youngs Moduli (GPa) = 73.08949 146.36168 63.05856
#
# Poissons Ratio (x) = 0.53969 -0.32223
# Poissons Ratio (y) = 0.26951 0.24306
# Poissons Ratio (z) = -0.37349 0.56416
#
# Static dielectric constant tensor:
#      x y z
#    x 2.187270 0.056490 0.089120 
#    y 0.056490 2.247300 0.219220 
#    z 0.089120 0.219220 2.437900 
# 
# From -- ./inp_files/104561.got.cif
#   From: 2010.05.17/outbox.cif.g08.bks.cpg/sg2_53_cif.got.tgz:104561.got - 2010.06.03 11:33:40.
