data_PCOD9065294
_publ_section_title
;
Structure prediction by ZEFSAII (Michael W. Deem and Ramdas Pophale) SiO2 
 PCOD9065294
Probable space group: P -1
;
_chemical_formula_sum "Si O2"
_cell_formula_units_Z 12
_cell_length_a 5.008784
_cell_length_b 19.295617
_cell_length_c 5.445380
_cell_angle_alpha 68.791861
_cell_angle_beta 95.306852
_cell_angle_gamma 76.369628
_cell_volume 467.555252
_symmetry_space_group_name_H-M "P -1"
_symmetry_group_IT_number 2
_symmetry_cell_setting 'triclinic'
loop_
_space_group_symop_operation_xyz
x,y,z
-x,-y,-z
loop_
_atom_site_type_symbol
_atom_site_label
_atom_site_fract_x
_atom_site_fract_y
_atom_site_fract_z
Si Si1 0.986348 0.338567 0.462350
Si Si2 0.710518 0.017469 0.304886
Si Si3 0.661548 0.871421 0.216287
Si Si4 0.695159 0.680862 0.002188
Si Si5 0.659276 0.507472 0.253659
Si Si6 0.287487 0.772427 0.527842
O O1 0.125702 0.316413 0.234053
O O2 0.923805 0.431089 0.365860
O O3 0.699563 0.312448 0.482552
O O4 0.172598 0.300537 0.759876
O O5 0.734601 0.951596 0.186671
O O6 0.500000 0.000000 0.500000
O O7 0.000000 0.000000 0.500000
O O8 0.541902 0.100983 0.072770
O O9 0.465936 0.831252 0.406850
O O10 0.972158 0.815061 0.364194
O O11 0.392130 0.741821 0.848232
O O12 0.694411 0.592473 0.136763
O O13 0.500000 0.500000 0.500000
O O14 0.500000 0.500000 0.000000
#
# Coordination Sequence:
#
# PCOD9065294 Si02
#       6
#     2   2   2   2   2   2
#     4  12  27  49  74 107 154 207 262 322 390 456
#     4  11  24  47  78 110 146 195 244 303 369 454
#     4  11  26  48  72 113 148 192 250 303 378 460
#     4  12  27  49  74 107 154 207 262 322 390 456
#     4  12  24  44  76 107 149 203 269 329 380 453
#     4  12  26  48  72 110 154 202 248 318 386 464
#
# _framework density 25.665417000000001
#
# number of rings (size 3 to 8) (size 9 to 14) (size 15 to 20)
#    0.000    0.333    3.333    5.000    0.000    6.667 
#    6.000    0.000    0.000    0.000    0.000    0.000 
#    0.000    0.000    0.000    0.000    0.000    0.000 
#
# Total GULP energy -66976.737074 kJ/mol
# GULP energy per Si atom -5581.394756 kJ/mol
# Density = 2.560700 g / cm^3
# Si number density = 25.665417 Si / 1000 Ang^3
#
#
#
# Elastic Constant Matrix: (Units=GPa)
#
#
# Indices 1 2 3 4 5 6 
#
# 1 151.1820 27.5831 75.7188 1.4450 36.5591 18.1374
# 2 27.5831 72.6213 41.2076 -4.9519 19.8521 18.5285
# 3 75.7188 41.2076 226.1998 -7.0868 41.8537 4.5242
# 4 1.4450 -4.9519 -7.0868 57.1808 -4.3746 5.6616
# 5 36.5591 19.8521 41.8537 -4.3746 64.3292 0.8665
# 6 18.1374 18.5285 4.5242 5.6616 0.8665 51.8894
#
#
#
# Elastic Compliance Matrix: (Units=1/GPa)
#
#
# Indices 1 2 3 4 5 6 
#
# 1 0.008999 -0.000566 -0.002228 -0.000559 -0.003493 -0.002630
# 2 -0.000566 0.017898 -0.002241 0.001620 -0.003551 -0.006115
# 3 -0.002228 -0.002241 0.005912 0.000347 -0.001880 0.001057
# 4 -0.000559 0.001620 0.000347 0.017987 0.000848 -0.002390
# 5 -0.003493 -0.003551 -0.001880 0.000848 0.019876 0.002228
# 6 -0.002630 -0.006115 0.001057 -0.002390 0.002228 0.022506
#
#
# Mechanical properties :
#
#
# Convention : Reuss Voigt Hill
#
# Bulk Modulus (GPa) = 43.97639 82.11357 63.04498
# Shear Modulus (GPa) = 45.11441 55.04613 50.08027
#
# Velocity S-wave (km/s) = 4.19715 4.63618 4.42212
# Velocity P-wave (km/s) = 6.37650 7.79244 7.11976
#
# Compressibility (1/GPa) = 0.02273947
#
# Stress axis : x y z
#
# Youngs Moduli (GPa) = 111.12163 55.87174 169.13624
#
# Poissons Ratio (x) = 0.03164 0.37682
# Poissons Ratio (y) = 0.06293 0.37901
# Poissons Ratio (z) = 0.24757 0.12520
#
# Static dielectric constant tensor:
#      x y z
#    x 2.114180 -0.080810 0.030310 
#    y -0.080810 2.039290 -0.065060 
#    z 0.030310 -0.065060 1.982810 
# 
# From -- ./inp_files/10253.got.cif
#   From: 2010.05.17/outbox.cif.g08.bks.cpg/sg2_6_cif.got.tgz:10253.got - 2010.06.03 11:33:40.
