data_PCOD9065800
_publ_section_title
;
Structure prediction by ZEFSAII (Michael W. Deem and Ramdas Pophale) SiO2 
 PCOD9065800
Probable space group: P -1
;
_chemical_formula_sum "Si O2"
_cell_formula_units_Z 16
_cell_length_a 8.732108
_cell_length_b 9.329224
_cell_length_c 11.510418
_cell_angle_alpha 76.359896
_cell_angle_beta 101.802473
_cell_angle_gamma 133.074997
_cell_volume 664.371912
_symmetry_space_group_name_H-M "P -1"
_symmetry_group_IT_number 2
_symmetry_cell_setting 'triclinic'
loop_
_space_group_symop_operation_xyz
x,y,z
-x,-y,-z
loop_
_atom_site_type_symbol
_atom_site_label
_atom_site_fract_x
_atom_site_fract_y
_atom_site_fract_z
Si Si1 0.617797 0.725268 0.018374
Si Si2 0.069658 0.659679 0.309542
Si Si3 0.334048 0.727307 0.559260
Si Si4 0.663833 0.298044 0.842165
Si Si5 0.341190 0.267908 0.496886
Si Si6 0.325325 0.971841 0.690827
Si Si7 0.886656 0.715584 0.717951
Si Si8 0.056112 0.968260 0.175628
O O1 0.438670 0.718316 0.048541
O O2 0.816174 0.809280 0.118709
O O3 0.500000 0.500000 0.000000
O O4 0.753173 0.903732 0.911761
O O5 0.232245 0.687145 0.422121
O O6 0.127344 0.652112 0.186212
O O7 0.085110 0.844785 0.283966
O O8 0.843251 0.468366 0.356448
O O9 0.539015 0.755832 0.575582
O O10 0.377054 0.904512 0.601323
O O11 0.701809 0.485257 0.757397
O O12 0.493082 0.087194 0.795072
O O13 0.500000 0.500000 0.500000
O O14 0.143019 0.225958 0.421788
O O15 0.299108 0.126495 0.619070
O O16 0.107228 0.773388 0.740762
O O17 0.911015 0.857137 0.788423
#
# Coordination Sequence:
#
# PCOD9065800 Si02
#       8
#     2   2   2   2   2   2   2   2
#     4  11  25  49  75 100 133 172 234 300 353 408
#     4  11  25  45  68 103 144 182 231 276 335 415
#     4  11  25  43  67 101 149 193 222 270 336 415
#     4  12  24  46  69 100 140 180 226 290 344 405
#     4  12  25  39  65 103 141 187 238 272 330 404
#     4  12  24  43  64  97 143 191 224 279 338 405
#     4  12  24  42  68 103 136 183 233 282 337 408
#     4  11  26  45  75 104 129 180 231 291 352 406
#
# _framework density 24.082898
#
# number of rings (size 3 to 8) (size 9 to 14) (size 15 to 20)
#    0.000    0.500    6.250    1.500    7.000    0.500 
#    0.000    0.625    0.000    0.000    0.000    0.000 
#    0.000    0.000    0.000    0.000    0.000    0.000 
#
# Total GULP energy -89322.700990 kJ/mol
# GULP energy per Si atom -5582.668812 kJ/mol
# Density = 2.402808 g / cm^3
# Si number density = 24.082898 Si / 1000 Ang^3
#
#
#
# Elastic Constant Matrix: (Units=GPa)
#
#
# Indices 1 2 3 4 5 6 
#
# 1 51.2498 24.5261 7.9572 -2.3509 -21.1590 -4.0950
# 2 24.5261 134.9836 14.1271 3.5325 3.7044 -1.5819
# 3 7.9572 14.1271 36.5278 -3.7396 -20.8925 -3.5957
# 4 -2.3509 3.5325 -3.7396 31.6455 -4.3384 -9.3238
# 5 -21.1590 3.7044 -20.8925 -4.3384 39.8034 2.0656
# 6 -4.0950 -1.5819 -3.5957 -9.3238 2.0656 45.2055
#
#
#
# Elastic Compliance Matrix: (Units=1/GPa)
#
#
# Indices 1 2 3 4 5 6 
#
# 1 0.032691 -0.008054 0.011752 0.009459 0.025098 0.004418
# 2 -0.008054 0.010154 -0.008610 -0.004598 -0.010167 -0.001543
# 3 0.011752 -0.008610 0.049939 0.014263 0.034499 0.006101
# 4 0.009459 -0.004598 0.014263 0.039516 0.016771 0.009214
# 5 0.025098 -0.010167 0.034499 0.016771 0.059066 0.005422
# 6 0.004418 -0.001543 0.006101 0.009214 0.005422 0.024605
#
#
# Mechanical properties :
#
#
# Convention : Reuss Voigt Hill
#
# Bulk Modulus (GPa) = 12.05416 35.10911 23.58164
# Shear Modulus (GPa) = 19.72773 35.07427 27.40100
#
# Velocity S-wave (km/s) = 2.86520 3.82042 3.37676
# Velocity P-wave (km/s) = 3.99524 5.83703 5.00164
#
# Compressibility (1/GPa) = 0.08295891
#
# Stress axis : x y z
#
# Youngs Moduli (GPa) = 30.58953 98.48193 20.02429
#
# Poissons Ratio (x) = 0.79320 -0.23532
# Poissons Ratio (y) = 0.24638 0.17242
# Poissons Ratio (z) = -0.35948 0.84796
#
# Static dielectric constant tensor:
#      x y z
#    x 1.974070 0.028710 -0.023790 
#    y 0.028710 1.894580 0.031180 
#    z -0.023790 0.031180 1.985850 
# 
# From -- ./inp_files/382005.got.cif
#   From: 2010.05.17/outbox.cif.g08.bks.cpg/sg2_192_cif.got.tgz:382005.got - 2010.06.03 11:33:40.
