data_PCOD9065936
_publ_section_title
;
Structure prediction by ZEFSAII (Michael W. Deem and Ramdas Pophale) SiO2 
 PCOD9065936
Probable space group: P -1
;
_chemical_formula_sum "Si O2"
_cell_formula_units_Z 16
_cell_length_a 22.791146
_cell_length_b 5.502089
_cell_length_c 12.511158
_cell_angle_alpha 103.753006
_cell_angle_beta 30.625483
_cell_angle_gamma 116.753235
_cell_volume 673.963274
_symmetry_space_group_name_H-M "P -1"
_symmetry_group_IT_number 2
_symmetry_cell_setting 'triclinic'
loop_
_space_group_symop_operation_xyz
x,y,z
-x,-y,-z
loop_
_atom_site_type_symbol
_atom_site_label
_atom_site_fract_x
_atom_site_fract_y
_atom_site_fract_z
Si Si1 0.393875 0.920513 0.843133
Si Si2 0.632096 0.521136 0.537842
Si Si3 0.086271 0.425733 0.437833
Si Si4 0.852790 0.303831 0.408936
Si Si5 0.186547 0.080589 0.130951
Si Si6 0.347422 0.401715 0.718487
Si Si7 0.915915 0.816909 0.216171
Si Si8 0.546222 0.900708 0.811714
O O1 0.343531 0.675158 0.805307
O O2 0.526272 0.208565 0.627096
O O3 0.453908 0.876444 0.854173
O O4 0.274973 0.989070 0.053328
O O5 0.683531 0.697710 0.365167
O O6 0.768359 0.590713 0.384084
O O7 0.552552 0.605324 0.757303
O O8 0.161215 0.625928 0.439739
O O9 0.185370 0.355155 0.211095
O O10 0.000000 0.500000 0.500000
O O11 0.967752 0.146796 0.652430
O O12 0.940119 0.597945 0.231722
O O13 0.703802 0.126331 0.576744
O O14 0.908365 0.080732 0.312105
O O15 0.252767 0.146925 0.918772
O O16 0.500000 0.500000 0.500000
O O17 0.000000 0.000000 0.000000
O O18 0.500000 0.000000 0.000000
#
# Coordination Sequence:
#
# PCOD9065936 Si02
#       8
#     2   2   2   2   2   2   2   2
#     4  12  23  45  70 107 143 188 247 305 378 440
#     4  11  25  44  68 105 148 187 248 300 373 450
#     4  11  28  50  71 104 147 196 256 310 372 454
#     4  11  27  48  75 109 145 196 254 306 378 452
#     4  11  27  44  73 104 142 192 243 310 375 442
#     4  12  24  42  70 107 147 187 238 308 376 446
#     4  11  26  49  73 107 149 197 248 312 375 454
#     4  11  26  44  71 105 146 195 236 308 374 448
#
# _framework density 23.740167
#
# number of rings (size 3 to 8) (size 9 to 14) (size 15 to 20)
#    0.000    0.750    3.750    1.500   10.500    2.500 
#    0.000    0.000    0.000    0.000    0.000    0.000 
#    0.000    0.000    0.000    0.000    0.000    0.000 
#
# Total GULP energy -89202.766189 kJ/mol
# GULP energy per Si atom -5575.172887 kJ/mol
# Density = 2.368613 g / cm^3
# Si number density = 23.740167 Si / 1000 Ang^3
#
#
#
# Elastic Constant Matrix: (Units=GPa)
#
#
# Indices 1 2 3 4 5 6 
#
# 1 55.6068 13.4941 -16.7583 13.6881 -1.7755 7.5124
# 2 13.4941 73.3745 11.8614 -1.5993 0.0704 0.9829
# 3 -16.7583 11.8614 76.0753 7.8707 7.5349 -0.6590
# 4 13.6881 -1.5993 7.8707 33.8710 -3.1082 9.2186
# 5 -1.7755 0.0704 7.5349 -3.1082 35.4686 5.2705
# 6 7.5124 0.9829 -0.6590 9.2186 5.2705 28.6162
#
#
#
# Elastic Compliance Matrix: (Units=1/GPa)
#
#
# Indices 1 2 3 4 5 6 
#
# 1 0.024910 -0.006053 0.007723 -0.011646 -0.001075 -0.002204
# 2 -0.006053 0.015548 -0.004333 0.004473 0.001080 -0.000685
# 3 0.007723 -0.004333 0.016791 -0.008125 -0.004165 0.001893
# 4 -0.011646 0.004473 -0.008125 0.039994 0.006323 -0.011332
# 5 -0.001075 0.001080 -0.004165 0.006323 0.030698 -0.007542
# 6 -0.002204 -0.000685 0.001893 -0.011332 -0.007542 0.040630
#
#
# Mechanical properties :
#
#
# Convention : Reuss Voigt Hill
#
# Bulk Modulus (GPa) = 19.25899 24.69454 21.97677
# Shear Modulus (GPa) = 26.14995 32.68845 29.41920
#
# Velocity S-wave (km/s) = 3.32250 3.71472 3.52407
# Velocity P-wave (km/s) = 4.78003 5.36875 5.08292
#
# Compressibility (1/GPa) = 0.05192381
#
# Stress axis : x y z
#
# Youngs Moduli (GPa) = 40.14435 64.31689 59.55438
#
# Poissons Ratio (x) = 0.38931 -0.45996
# Poissons Ratio (y) = 0.24299 0.25806
# Poissons Ratio (z) = -0.31005 0.27870
#
# Static dielectric constant tensor:
#      x y z
#    x 1.325030 -0.474570 0.134760 
#    y -0.474570 1.945040 0.044880 
#    z 0.134760 0.044880 1.944580 
# 
# From -- ./inp_files/473455.got.cif
#   From: 2010.05.17/outbox.cif.g08.bks.cpg/sg2_237_cif.got.tgz:473455.got - 2010.06.03 11:33:40.
