data_PCOD9065837
_publ_section_title
;
Structure prediction by ZEFSAII (Michael W. Deem and Ramdas Pophale) SiO2 
 PCOD9065837
Probable space group: P -1
;
_chemical_formula_sum "Si O2"
_cell_formula_units_Z 16
_cell_length_a 6.202658
_cell_length_b 14.430431
_cell_length_c 9.274908
_cell_angle_alpha 110.711457
_cell_angle_beta 96.949616
_cell_angle_gamma 109.820310
_cell_volume 702.607239
_symmetry_space_group_name_H-M "P -1"
_symmetry_group_IT_number 2
_symmetry_cell_setting 'triclinic'
loop_
_space_group_symop_operation_xyz
x,y,z
-x,-y,-z
loop_
_atom_site_type_symbol
_atom_site_label
_atom_site_fract_x
_atom_site_fract_y
_atom_site_fract_z
Si Si1 0.046659 0.628046 0.579368
Si Si2 0.750258 0.489318 0.052700
Si Si3 0.869511 0.172117 0.740859
Si Si4 0.857714 0.948741 0.740134
Si Si5 0.444718 0.756671 0.447413
Si Si6 0.769874 0.671656 0.352272
Si Si7 0.246235 0.720360 0.954941
Si Si8 0.337880 0.057906 0.965170
O O1 0.263801 0.700480 0.531264
O O2 0.109404 0.677022 0.770855
O O3 0.000000 0.500000 0.500000
O O4 0.833858 0.655249 0.512423
O O5 0.839168 0.582702 0.231621
O O6 0.665909 0.369698 0.040207
O O7 0.500000 0.500000 0.000000
O O8 0.000000 0.500000 0.000000
O O9 0.655216 0.182551 0.640000
O O10 0.081533 0.220211 0.668740
O O11 0.825582 0.054195 0.733151
O O12 0.914561 0.252536 0.925525
O O13 0.690776 0.844745 0.580256
O O14 0.779474 0.924583 0.887498
O O15 0.141422 0.985993 0.794410
O O16 0.502881 0.662989 0.324405
O O17 0.482259 0.829503 0.020946
O O18 0.500000 0.000000 0.000000
#
# Coordination Sequence:
#
# PCOD9065837 Si02
#       8
#     2   2   2   2   2   2   2   2
#     4  11  25  47  70 104 145 187 244 300 382 448
#     4  12  27  48  78 113 152 200 255 320 384 456
#     4  11  25  44  73 104 142 188 251 296 377 446
#     4  11  25  44  72 104 142 191 246 303 380 446
#     4  11  26  47  70 105 149 190 239 311 373 451
#     4  11  26  45  69 106 146 191 247 302 372 460
#     4  12  24  47  76 105 146 194 248 318 375 446
#     4  11  25  43  70 108 143 184 248 307 371 452
#
# _framework density 22.772324999999999
#
# number of rings (size 3 to 8) (size 9 to 14) (size 15 to 20)
#    0.000    0.750    5.000    1.125    7.000    1.000 
#    2.250    0.000    0.000    0.000    0.000    0.000 
#    0.000    0.000    0.000    0.000    0.000    0.000 
#
# Total GULP energy -89294.292369 kJ/mol
# GULP energy per Si atom -5580.893273 kJ/mol
# Density = 2.272049 g / cm^3
# Si number density = 22.772325 Si / 1000 Ang^3
#
#
#
# Elastic Constant Matrix: (Units=GPa)
#
#
# Indices 1 2 3 4 5 6 
#
# 1 99.4198 23.1574 33.8230 -8.9800 16.4372 -18.3625
# 2 23.1574 117.2905 8.7128 -11.1244 10.6595 -6.7552
# 3 33.8230 8.7128 113.2516 -8.2965 11.5261 0.0782
# 4 -8.9800 -11.1244 -8.2965 33.2959 -3.4680 4.9827
# 5 16.4372 10.6595 11.5261 -3.4680 31.8058 5.2464
# 6 -18.3625 -6.7552 0.0782 4.9827 5.2464 28.9679
#
#
#
# Elastic Compliance Matrix: (Units=1/GPa)
#
#
# Indices 1 2 3 4 5 6 
#
# 1 0.014766 -0.001337 -0.003519 0.000316 -0.007585 0.010377
# 2 -0.001337 0.009302 0.000100 0.002314 -0.002435 0.001364
# 3 -0.003519 0.000100 0.010142 0.001821 -0.001310 -0.002311
# 4 0.000316 0.002314 0.001821 0.032441 0.002822 -0.005356
# 5 -0.007585 -0.002435 -0.001310 0.002822 0.039094 -0.012938
# 6 0.010377 0.001364 -0.002311 -0.005356 -0.012938 0.044688
#
#
# Mechanical properties :
#
#
# Convention : Reuss Voigt Hill
#
# Bulk Modulus (GPa) = 40.48992 51.26091 45.87542
# Shear Modulus (GPa) = 29.73054 36.43183 33.08118
#
# Velocity S-wave (km/s) = 3.61717 4.00413 3.81555
# Velocity P-wave (km/s) = 5.93836 6.62845 6.29287
#
# Compressibility (1/GPa) = 0.02469750
#
# Stress axis : x y z
#
# Youngs Moduli (GPa) = 67.72197 107.50620 98.60428
#
# Poissons Ratio (x) = 0.14374 0.34701
# Poissons Ratio (y) = 0.09054 -0.00988
# Poissons Ratio (z) = 0.23833 -0.01077
#
# Static dielectric constant tensor:
#      x y z
#    x 1.960670 0.025440 0.001150 
#    y 0.025440 1.820100 0.003270 
#    z 0.001150 0.003270 1.923490 
# 
# From -- ./inp_files/135768.got.cif
#   From: 2010.05.17/outbox.cif.g08.bks.cpg/sg2_68_cif.got.tgz:135768.got - 2010.06.03 11:33:40.
