data_PCOD9065187
_publ_section_title
;
Structure prediction by ZEFSAII (Michael W. Deem and Ramdas Pophale) SiO2 
 PCOD9065187
Probable space group: P -1
;
_chemical_formula_sum "Si O2"
_cell_formula_units_Z 16
_cell_length_a 15.298951
_cell_length_b 8.637479
_cell_length_c 9.278803
_cell_angle_alpha 75.521369
_cell_angle_beta 91.808121
_cell_angle_gamma 139.452907
_cell_volume 746.918982
_symmetry_space_group_name_H-M "P -1"
_symmetry_group_IT_number 2
_symmetry_cell_setting 'triclinic'
loop_
_space_group_symop_operation_xyz
x,y,z
-x,-y,-z
loop_
_atom_site_type_symbol
_atom_site_label
_atom_site_fract_x
_atom_site_fract_y
_atom_site_fract_z
Si Si1 0.161399 0.919710 0.827325
Si Si2 0.975966 0.149062 0.429629
Si Si3 0.954720 0.098823 0.899831
Si Si4 0.777732 0.327289 0.270748
Si Si5 0.492611 0.041153 0.822056
Si Si6 0.524791 0.600364 0.315398
Si Si7 0.247208 0.737100 0.382225
Si Si8 0.246207 0.094835 0.291634
O O1 0.316903 0.212026 0.761857
O O2 0.174000 0.761861 0.794088
O O3 0.057128 0.870623 0.733496
O O4 0.102899 0.855619 0.998008
O O5 0.108007 0.439418 0.416384
O O6 0.000000 0.000000 0.500000
O O7 0.838451 0.008776 0.540048
O O8 0.091726 0.370863 0.774820
O O9 0.832676 0.902073 0.823605
O O10 0.000000 0.000000 0.000000
O O11 0.726957 0.213754 0.455776
O O12 0.651437 0.221544 0.196969
O O13 0.492213 0.232261 0.747144
O O14 0.623808 0.157625 0.717023
O O15 0.500000 0.000000 0.000000
O O16 0.500000 0.500000 0.500000
O O17 0.406795 0.355836 0.266509
O O18 0.226031 0.885335 0.288723
#
# Coordination Sequence:
#
# PCOD9065187 Si02
#       8
#     2   2   2   2   2   2   2   2
#     4  11  25  44  68 100 139 183 228 287 354 404
#     4  12  23  42  72 102 134 179 235 286 341 418
#     4  12  28  42  67 104 143 179 230 294 351 404
#     4  11  24  48  69  97 141 182 233 283 346 428
#     4  11  28  45  71 107 140 185 233 289 358 412
#     4  11  24  47  74 101 142 186 235 287 348 428
#     4  12  25  45  74 101 136 184 235 289 345 426
#     4  12  24  45  71 103 137 179 237 283 348 416
#
# _framework density 21.421333000000001
#
# number of rings (size 3 to 8) (size 9 to 14) (size 15 to 20)
#    0.000    0.500    3.750    4.125    7.000    1.500 
#    0.000    0.000    0.000    0.000    0.000    0.000 
#    0.000    0.000    0.000    0.000    0.000    0.000 
#
# Total GULP energy -89516.200322 kJ/mol
# GULP energy per Si atom -5594.762520 kJ/mol
# Density = 2.137258 g / cm^3
# Si number density = 21.421333 Si / 1000 Ang^3
#
#
#
# Elastic Constant Matrix: (Units=GPa)
#
#
# Indices 1 2 3 4 5 6 
#
# 1 68.1210 27.0072 28.6289 -6.0517 6.8359 1.7411
# 2 27.0072 122.9435 16.3560 5.5438 15.5585 17.5967
# 3 28.6289 16.3560 119.4852 15.8041 6.9540 12.5495
# 4 -6.0517 5.5438 15.8041 32.5203 6.5273 8.6609
# 5 6.8359 15.5585 6.9540 6.5273 43.0283 2.9215
# 6 1.7411 17.5967 12.5495 8.6609 2.9215 33.1903
#
#
#
# Elastic Compliance Matrix: (Units=1/GPa)
#
#
# Indices 1 2 3 4 5 6 
#
# 1 0.018993 -0.003753 -0.004935 0.006618 -0.001955 0.001305
# 2 -0.003753 0.009968 0.000286 -0.000740 -0.002618 -0.004773
# 3 -0.004935 0.000286 0.010486 -0.005407 -0.000028 -0.002445
# 4 0.006618 -0.000740 -0.005407 0.037709 -0.005135 -0.007298
# 5 -0.001955 -0.002618 -0.000028 -0.005135 0.025239 0.000619
# 6 0.001305 -0.004773 -0.002445 -0.007298 0.000619 0.035365
#
#
# Mechanical properties :
#
#
# Convention : Reuss Voigt Hill
#
# Bulk Modulus (GPa) = 44.16589 50.50377 47.33483
# Shear Modulus (GPa) = 30.84266 37.65162 34.24714
#
# Velocity S-wave (km/s) = 3.79860 4.19700 4.00276
# Velocity P-wave (km/s) = 6.31677 6.86397 6.59605
#
# Compressibility (1/GPa) = 0.02264191
#
# Stress axis : x y z
#
# Youngs Moduli (GPa) = 52.65168 100.32110 95.36443
#
# Poissons Ratio (x) = 0.37654 0.47067
# Poissons Ratio (y) = 0.19762 -0.02731
# Poissons Ratio (z) = 0.25986 -0.02873
#
# Static dielectric constant tensor:
#      x y z
#    x 1.780930 -0.023630 0.000850 
#    y -0.023630 1.772150 0.014350 
#    z 0.000850 0.014350 1.760830 
# 
# From -- ./inp_files/218873.got.cif
#   From: 2010.05.17/outbox.cif.g08.bks.cpg/sg2_110_cif.got.tgz:218873.got - 2010.06.03 11:33:40.
