data_PCOD9065527
_publ_section_title
;
Structure prediction by ZEFSAII (Michael W. Deem and Ramdas Pophale) SiO2 
 PCOD9065527
Probable space group: P -1
;
_chemical_formula_sum "Si O2"
_cell_formula_units_Z 12
_cell_length_a 13.980034
_cell_length_b 9.590083
_cell_length_c 5.767240
_cell_angle_alpha 50.999679
_cell_angle_beta 113.198283
_cell_angle_gamma 128.203687
_cell_volume 472.180272
_symmetry_space_group_name_H-M "P -1"
_symmetry_group_IT_number 2
_symmetry_cell_setting 'triclinic'
loop_
_space_group_symop_operation_xyz
x,y,z
-x,-y,-z
loop_
_atom_site_type_symbol
_atom_site_label
_atom_site_fract_x
_atom_site_fract_y
_atom_site_fract_z
Si Si1 0.993858 0.598516 0.142162
Si Si2 0.646802 0.134846 0.990835
Si Si3 0.780382 0.607721 0.731592
Si Si4 0.118145 0.064137 0.885706
Si Si5 0.356309 0.846509 0.528487
Si Si6 0.641198 0.584653 0.999391
O O1 0.000000 0.500000 0.500000
O O2 0.865336 0.584846 0.023405
O O3 0.000000 0.500000 0.000000
O O4 0.091560 0.844412 0.990208
O O5 0.699025 0.383422 0.772107
O O6 0.683612 0.102014 0.805673
O O7 0.689747 0.112814 0.312749
O O8 0.500000 0.000000 0.000000
O O9 0.876053 0.787176 0.469751
O O10 0.684466 0.658606 0.698960
O O11 0.251897 0.219820 0.962033
O O12 0.000000 0.000000 0.000000
O O13 0.500000 0.000000 0.500000
O O14 0.346500 0.620910 0.753926
O O15 0.500000 0.500000 0.000000
#
# Coordination Sequence:
#
# PCOD9065527 Si02
#       6
#     2   2   2   2   2   2
#     4  12  29  50  76 119 157 205 274 342 403 475
#     4   9  18  36  64  98 137 187 236 300 375 451
#     4  11  24  48  82 108 157 208 269 328 399 481
#     4  12  25  51  84 110 159 218 273 331 404 479
#     4   9  18  38  62  96 142 189 240 299 379 450
#     4  11  25  46  74 113 157 204 268 326 397 480
#
# _framework density 25.414021999999999
#
# number of rings (size 3 to 8) (size 9 to 14) (size 15 to 20)
#    0.000    1.333    3.333    1.500    2.333    0.667 
#   18.000    0.000    0.000    0.000    0.000    0.000 
#    0.000    0.000    0.000    0.000    0.000    0.000 
#
# Total GULP energy -66914.983054 kJ/mol
# GULP energy per Si atom -5576.248588 kJ/mol
# Density = 2.535618 g / cm^3
# Si number density = 25.414022 Si / 1000 Ang^3
#
#
#
# Elastic Constant Matrix: (Units=GPa)
#
#
# Indices 1 2 3 4 5 6 
#
# 1 154.3149 71.5133 68.9184 7.0988 -20.1943 31.1924
# 2 71.5133 239.9358 61.3351 -16.4833 -1.1758 14.5684
# 3 68.9184 61.3351 177.8699 12.9713 -45.8433 -2.2138
# 4 7.0988 -16.4833 12.9713 58.3824 -8.0080 -12.1198
# 5 -20.1943 -1.1758 -45.8433 -8.0080 34.5374 7.6313
# 6 31.1924 14.5684 -2.2138 -12.1198 7.6313 46.0373
#
#
#
# Elastic Compliance Matrix: (Units=1/GPa)
#
#
# Indices 1 2 3 4 5 6 
#
# 1 0.010917 -0.002370 -0.002111 -0.002585 0.004715 -0.008210
# 2 -0.002370 0.005457 -0.002035 0.001969 -0.003644 0.000904
# 3 -0.002111 -0.002035 0.010340 -0.000882 0.012145 0.000326
# 4 -0.002585 0.001969 -0.000882 0.019546 0.000561 0.006139
# 5 0.004715 -0.003644 0.012145 0.000561 0.049957 -0.009591
# 6 -0.008210 0.000904 0.000326 0.006139 -0.009591 0.030220
#
#
# Mechanical properties :
#
#
# Convention : Reuss Voigt Hill
#
# Bulk Modulus (GPa) = 73.08882 108.40601 90.74742
# Shear Modulus (GPa) = 34.71483 52.48168 43.59825
#
# Velocity S-wave (km/s) = 3.69991 4.54923 4.14638
# Velocity P-wave (km/s) = 6.86106 8.38705 7.66214
#
# Compressibility (1/GPa) = 0.01368198
#
# Stress axis : x y z
#
# Youngs Moduli (GPa) = 91.59961 183.25269 96.70844
#
# Poissons Ratio (x) = 0.43434 0.20416
# Poissons Ratio (y) = 0.21711 0.19680
# Poissons Ratio (z) = 0.19337 0.37292
#
# Static dielectric constant tensor:
#      x y z
#    x 2.050690 -0.053820 -0.102540 
#    y -0.053820 2.181860 0.372890 
#    z -0.102540 0.372890 2.688660 
# 
# From -- ./inp_files/107891.got.cif
#   From: 2010.05.17/outbox.cif.g08.bks.cpg/sg2_54_cif.got.tgz:107891.got - 2010.06.03 11:33:40.
