data_PCOD9065111
_publ_section_title
;
Structure prediction by ZEFSAII (Michael W. Deem and Ramdas Pophale) SiO2 
 PCOD9065111
Probable space group: P -1
;
_chemical_formula_sum "Si O2"
_cell_formula_units_Z 16
_cell_length_a 8.269726
_cell_length_b 5.654692
_cell_length_c 18.290746
_cell_angle_alpha 87.179094
_cell_angle_beta 94.276727
_cell_angle_gamma 125.821148
_cell_volume 691.591404
_symmetry_space_group_name_H-M "P -1"
_symmetry_group_IT_number 2
_symmetry_cell_setting 'triclinic'
loop_
_space_group_symop_operation_xyz
x,y,z
-x,-y,-z
loop_
_atom_site_type_symbol
_atom_site_label
_atom_site_fract_x
_atom_site_fract_y
_atom_site_fract_z
Si Si1 0.891150 0.660190 0.986335
Si Si2 0.618403 0.923166 0.453047
Si Si3 0.714338 0.717185 0.596130
Si Si4 0.767323 0.098389 0.719938
Si Si5 0.707110 0.716597 0.846677
Si Si6 0.557397 0.185128 0.072179
Si Si7 0.915253 0.264492 0.336172
Si Si8 0.582496 0.891966 0.214918
O O1 0.718863 0.507380 0.044071
O O2 0.812971 0.609492 0.900769
O O3 0.000000 0.500000 0.000000
O O4 0.000000 0.000000 0.000000
O O5 0.729174 0.840138 0.514078
O O6 0.459417 0.628128 0.407599
O O7 0.500000 0.000000 0.500000
O O8 0.770185 0.186389 0.401146
O O9 0.919131 0.777015 0.629151
O O10 0.669869 0.883461 0.650765
O O11 0.599240 0.120636 0.751327
O O12 0.957450 0.407239 0.694588
O O13 0.827130 0.952745 0.784367
O O14 0.631338 0.843397 0.900244
O O15 0.513257 0.439225 0.805577
O O16 0.634293 0.076652 0.139504
O O17 0.500000 0.000000 0.000000
O O18 0.771597 0.044300 0.271449
#
# Coordination Sequence:
#
# PCOD9065111 Si02
#       8
#     2   2   2   2   2   2   2   2
#     4  12  28  44  74 110 147 187 256 327 384 458
#     4  11  25  47  75 107 145 192 234 298 365 438
#     4  11  25  45  72 104 149 183 245 294 368 436
#     4  11  26  46  69 104 145 192 241 306 362 448
#     4  11  25  48  71  98 147 195 245 309 381 454
#     4  11  24  47  72 102 141 199 249 310 386 455
#     4  12  25  44  72 107 144 189 244 296 365 446
#     4  11  26  46  73  99 148 194 246 306 376 447
#
# _framework density 23.135048000000001
#
# number of rings (size 3 to 8) (size 9 to 14) (size 15 to 20)
#    0.000    0.750    1.250    5.250    5.250    8.000 
#    0.000    0.000    0.000    0.000    0.000    0.000 
#    0.000    0.000    0.000    0.000    0.000    0.000 
#
# Total GULP energy -89613.758109 kJ/mol
# GULP energy per Si atom -5600.859882 kJ/mol
# Density = 2.308239 g / cm^3
# Si number density = 23.135048 Si / 1000 Ang^3
#
#
#
# Elastic Constant Matrix: (Units=GPa)
#
#
# Indices 1 2 3 4 5 6 
#
# 1 85.2242 37.9857 63.0358 -2.1206 21.3096 4.1466
# 2 37.9857 166.3653 81.6988 -13.9509 -3.5786 12.0111
# 3 63.0358 81.6988 165.2990 -11.2684 12.4193 15.5916
# 4 -2.1206 -13.9509 -11.2684 53.8065 -9.7670 -8.9283
# 5 21.3096 -3.5786 12.4193 -9.7670 48.8820 -0.9810
# 6 4.1466 12.0111 15.5916 -8.9283 -0.9810 25.6759
#
#
#
# Elastic Compliance Matrix: (Units=1/GPa)
#
#
# Indices 1 2 3 4 5 6 
#
# 1 0.018561 -0.001715 -0.005874 -0.002186 -0.007155 0.000338
# 2 -0.001715 0.008370 -0.003481 0.001701 0.002568 -0.000835
# 3 -0.005874 -0.003481 0.010403 0.000383 -0.000333 -0.003619
# 4 -0.002186 0.001701 0.000383 0.021131 0.005340 0.006876
# 5 -0.007155 0.002568 -0.000333 0.005340 0.024976 0.002968
# 6 0.000338 -0.000835 -0.003619 0.006876 0.002968 0.043985
#
#
# Mechanical properties :
#
#
# Convention : Reuss Voigt Hill
#
# Bulk Modulus (GPa) = 65.81652 86.92546 76.37099
# Shear Modulus (GPa) = 32.33532 41.28409 36.80970
#
# Velocity S-wave (km/s) = 3.74261 4.22890 3.99316
# Velocity P-wave (km/s) = 6.86926 7.84215 7.37177
#
# Compressibility (1/GPa) = 0.01519375
#
# Stress axis : x y z
#
# Youngs Moduli (GPa) = 53.87704 119.47211 96.12916
#
# Poissons Ratio (x) = 0.20490 0.56464
# Poissons Ratio (y) = 0.09240 0.33464
# Poissons Ratio (z) = 0.31646 0.41590
#
# Static dielectric constant tensor:
#      x y z
#    x 1.911730 -0.004890 0.020800 
#    y -0.004890 1.867780 -0.006320 
#    z 0.020800 -0.006320 1.877190 
# 
# From -- ./inp_files/553537.got.cif
#   From: 2010.05.17/outbox.cif.g08.bks.cpg/sg2_277_cif.got.tgz:553537.got - 2010.06.03 11:33:40.
