data_PCOD9065955
_publ_section_title
;
Structure prediction by ZEFSAII (Michael W. Deem and Ramdas Pophale) SiO2 
 PCOD9065955
Probable space group: P -1
;
_chemical_formula_sum "Si O2"
_cell_formula_units_Z 16
_cell_length_a 10.272648
_cell_length_b 23.282151
_cell_length_c 13.606220
_cell_angle_alpha 27.107601
_cell_angle_beta 138.330778
_cell_angle_gamma 146.598170
_cell_volume 816.203132
_symmetry_space_group_name_H-M "P -1"
_symmetry_group_IT_number 2
_symmetry_cell_setting 'triclinic'
loop_
_space_group_symop_operation_xyz
x,y,z
-x,-y,-z
loop_
_atom_site_type_symbol
_atom_site_label
_atom_site_fract_x
_atom_site_fract_y
_atom_site_fract_z
Si Si1 0.233006 0.438035 0.467895
Si Si2 0.087897 0.119620 0.779752
Si Si3 0.468947 0.425981 0.989791
Si Si4 0.243633 0.908037 0.544044
Si Si5 0.002640 0.565759 0.006396
Si Si6 0.255101 0.549493 0.531739
Si Si7 0.912737 0.932894 0.660630
Si Si8 0.622627 0.910142 0.177929
O O1 0.500000 0.500000 0.500000
O O2 0.118759 0.265613 0.630324
O O3 0.223579 0.476904 0.516698
O O4 0.139014 0.522745 0.223314
O O5 0.285942 0.104170 0.857553
O O6 0.923991 0.102553 0.622045
O O7 0.000000 0.000000 0.000000
O O8 0.732015 0.480834 0.020007
O O9 0.371319 0.487824 0.760859
O O10 0.500000 0.500000 0.000000
O O11 0.262924 0.248317 0.156340
O O12 0.137201 0.745088 0.784405
O O13 0.500000 0.000000 0.500000
O O14 0.243237 0.010011 0.473616
O O15 0.000000 0.500000 0.000000
O O16 0.428963 0.731976 0.359096
O O17 0.000000 0.500000 0.500000
O O18 0.000000 0.000000 0.500000
O O19 0.144963 0.006808 0.747930
O O20 0.500000 0.000000 0.000000
#
# Coordination Sequence:
#
# PCOD9065955 Si02
#       8
#     2   2   2   2   2   2   2   2
#     4  12  26  46  72 103 144 188 239 295 359 422
#     4  11  26  45  70 104 142 188 232 292 356 421
#     4  12  25  47  72 103 139 186 239 295 353 427
#     4  11  25  44  69 106 141 183 235 285 354 423
#     4  12  24  45  72 102 142 185 238 292 349 424
#     4  12  26  44  73 107 143 188 242 290 358 425
#     4  11  25  44  70  98 138 181 227 290 352 414
#     4  11  25  47  68 100 141 182 232 290 349 425
#
# _framework density 19.602962000000002
#
# number of rings (size 3 to 8) (size 9 to 14) (size 15 to 20)
#    0.000    0.500    2.500    6.000    7.000    2.000 
#    0.000    0.000    0.000    0.000    0.000    0.000 
#    0.000    0.000    0.000    0.000    0.000    0.000 
#
# Total GULP energy -89214.911575 kJ/mol
# GULP energy per Si atom -5575.931973 kJ/mol
# Density = 1.955835 g / cm^3
# Si number density = 19.602962 Si / 1000 Ang^3
#
#
#
# Elastic Constant Matrix: (Units=GPa)
#
#
# Indices 1 2 3 4 5 6 
#
# 1 218.0725 90.7023 91.5212 -0.6850 -4.9799 0.9938
# 2 90.7023 127.2824 87.1604 -11.5958 -6.3811 -4.5752
# 3 91.5212 87.1604 194.0946 -8.0195 -8.4747 -1.5453
# 4 -0.6850 -11.5958 -8.0195 51.6417 1.5521 1.5604
# 5 -4.9799 -6.3811 -8.4747 1.5521 33.3688 -0.6731
# 6 0.9938 -4.5752 -1.5453 1.5604 -0.6731 53.4830
#
#
#
# Elastic Compliance Matrix: (Units=1/GPa)
#
#
# Indices 1 2 3 4 5 6 
#
# 1 0.006868 -0.003981 -0.001500 -0.001019 -0.000080 -0.000483
# 2 -0.003981 0.013873 -0.004207 0.002349 0.000903 0.001082
# 3 -0.001500 -0.004207 0.007798 0.000221 0.000940 -0.000101
# 4 -0.001019 0.002349 0.000221 0.019941 -0.000582 -0.000363
# 5 -0.000080 0.000903 0.000940 -0.000582 0.030405 0.000505
# 6 -0.000483 0.001082 -0.000101 -0.000363 0.000505 0.018813
#
#
# Mechanical properties :
#
#
# Convention : Reuss Voigt Hill
#
# Bulk Modulus (GPa) = 109.14961 119.80194 114.47578
# Shear Modulus (GPa) = 41.62155 45.70308 43.66231
#
# Velocity S-wave (km/s) = 4.61285 4.83373 4.72458
# Velocity P-wave (km/s) = 9.17454 9.61250 9.39607
#
# Compressibility (1/GPa) = 0.00916174
#
# Stress axis : x y z
#
# Youngs Moduli (GPa) = 145.59543 72.08268 128.23353
#
# Poissons Ratio (x) = 0.28698 0.19238
# Poissons Ratio (y) = 0.57966 0.53953
# Poissons Ratio (z) = 0.21842 0.30328
#
# Static dielectric constant tensor:
#      x y z
#    x 1.894930 -0.038520 0.011010 
#    y -0.038520 1.616830 0.050140 
#    z 0.011010 0.050140 1.597930 
# 
# From -- ./inp_files/383547.got.cif
#   From: 2010.05.17/outbox.cif.g08.bks.cpg/sg2_192_cif.got.tgz:383547.got - 2010.06.03 11:33:40.
