data_PCOD9065799
_publ_section_title
;
Structure prediction by ZEFSAII (Michael W. Deem and Ramdas Pophale) SiO2 
 PCOD9065799
Probable space group: P -1
;
_chemical_formula_sum "Si O2"
_cell_formula_units_Z 14
_cell_length_a 18.265697
_cell_length_b 9.404982
_cell_length_c 24.403697
_cell_angle_alpha 150.380924
_cell_angle_beta 20.095384
_cell_angle_gamma 141.266824
_cell_volume 695.398711
_symmetry_space_group_name_H-M "P -1"
_symmetry_group_IT_number 2
_symmetry_cell_setting 'triclinic'
loop_
_space_group_symop_operation_xyz
x,y,z
-x,-y,-z
loop_
_atom_site_type_symbol
_atom_site_label
_atom_site_fract_x
_atom_site_fract_y
_atom_site_fract_z
Si Si1 0.966308 0.759078 0.395918
Si Si2 0.520825 0.342839 0.278417
Si Si3 0.015017 0.659945 0.598829
Si Si4 0.500933 0.679358 0.293112
Si Si5 0.703770 0.653516 0.910963
Si Si6 0.359993 0.373714 0.600941
Si Si7 0.070082 0.718741 0.183670
O O1 0.733138 0.671151 0.538248
O O2 0.155450 0.470962 0.177133
O O3 0.998508 0.830555 0.333175
O O4 0.000000 0.000000 0.500000
O O5 0.547860 0.557829 0.281248
O O6 0.627252 0.451648 0.293647
O O7 0.631263 0.002871 0.076743
O O8 0.267149 0.605469 0.419607
O O9 0.000000 0.500000 0.500000
O O10 0.867355 0.555831 0.713129
O O11 0.921059 0.001487 0.766475
O O12 0.460182 0.029660 0.429156
O O13 0.698306 0.507857 0.059242
O O14 0.500000 0.500000 0.000000
O O15 0.500000 0.500000 0.500000
O O16 0.121892 0.407778 0.752625
#
# Coordination Sequence:
#
# PCOD9065799 Si02
#       7
#     2   2   2   2   2   2   2
#     4  12  25  43  70 103 141 181 227 282 348 412
#     4  12  25  47  69 100 145 180 228 287 348 406
#     4  11  25  43  67 101 143 179 230 284 341 416
#     4  11  26  46  70 101 138 184 231 284 351 407
#     4  12  26  42  70 105 136 184 230 277 344 416
#     4  11  26  47  72 102 136 179 237 294 335 410
#     4  11  26  45  70 102 137 184 232 282 349 411
#
# _framework density 20.132335000000001
#
# number of rings (size 3 to 8) (size 9 to 14) (size 15 to 20)
#    0.000    0.571    5.714    1.286    4.000    2.857 
#    0.000    0.000    0.000    0.000    0.000    0.000 
#    0.000    0.000    0.000    0.000    0.000    0.000 
#
# Total GULP energy -78209.168234 kJ/mol
# GULP energy per Si atom -5586.369160 kJ/mol
# Density = 2.008651 g / cm^3
# Si number density = 20.132335 Si / 1000 Ang^3
#
#
#
# Elastic Constant Matrix: (Units=GPa)
#
#
# Indices 1 2 3 4 5 6 
#
# 1 141.1335 57.4862 43.0704 -4.4235 11.3174 -0.6177
# 2 57.4862 115.2325 51.6629 -18.9384 7.1517 -5.9810
# 3 43.0704 51.6629 125.2340 -6.0761 -6.1283 7.8073
# 4 -4.4235 -18.9384 -6.0761 17.1895 -8.7698 -0.6797
# 5 11.3174 7.1517 -6.1283 -8.7698 30.7330 4.3467
# 6 -0.6177 -5.9810 7.8073 -0.6797 4.3467 39.1300
#
#
#
# Elastic Compliance Matrix: (Units=1/GPa)
#
#
# Indices 1 2 3 4 5 6 
#
# 1 0.009749 -0.004604 -0.001961 -0.005559 -0.004531 0.000248
# 2 -0.004604 0.015428 -0.004203 0.015012 0.001089 0.003264
# 3 -0.001961 -0.004203 0.010871 0.000924 0.004604 -0.003338
# 4 -0.005559 0.015012 0.000924 0.085364 0.022962 0.000955
# 5 -0.004531 0.001089 0.004604 0.022962 0.042146 -0.005106
# 6 0.000248 0.003264 -0.003338 0.000955 -0.005106 0.027308
#
#
# Mechanical properties :
#
#
# Convention : Reuss Voigt Hill
#
# Bulk Modulus (GPa) = 68.90007 76.22656 72.56331
# Shear Modulus (GPa) = 23.01596 32.70253 27.85924
#
# Velocity S-wave (km/s) = 3.38484 4.03473 3.72399
# Velocity P-wave (km/s) = 7.04089 7.72336 7.39001
#
# Compressibility (1/GPa) = 0.01451377
#
# Stress axis : x y z
#
# Youngs Moduli (GPa) = 102.57098 64.81523 91.98436
#
# Poissons Ratio (x) = 0.29842 0.18034
# Poissons Ratio (y) = 0.47225 0.38662
# Poissons Ratio (z) = 0.20109 0.27242
#
# Static dielectric constant tensor:
#      x y z
#    x 2.995900 -0.952020 0.294780 
#    y -0.952020 2.517600 -0.208220 
#    z 0.294780 -0.208220 1.777900 
# 
# From -- ./inp_files/44316.got.cif
#   From: 2010.05.17/outbox.cif.g08.bks.cpg/sg2_23_cif.got.tgz:44316.got - 2010.06.03 11:33:40.
