data_PCOD9065109
_publ_section_title
;
Structure prediction by ZEFSAII (Michael W. Deem and Ramdas Pophale) SiO2 
 PCOD9065109
Probable space group: P -1
;
_chemical_formula_sum "Si O2"
_cell_formula_units_Z 12
_cell_length_a 15.534032
_cell_length_b 8.410125
_cell_length_c 7.716695
_cell_angle_alpha 91.811529
_cell_angle_beta 38.191974
_cell_angle_gamma 115.405232
_cell_volume 471.301404
_symmetry_space_group_name_H-M "P -1"
_symmetry_group_IT_number 2
_symmetry_cell_setting 'triclinic'
loop_
_space_group_symop_operation_xyz
x,y,z
-x,-y,-z
loop_
_atom_site_type_symbol
_atom_site_label
_atom_site_fract_x
_atom_site_fract_y
_atom_site_fract_z
Si Si1 0.703667 0.872479 0.505979
Si Si2 0.923263 0.200627 0.690859
Si Si3 0.272013 0.256893 0.163086
Si Si4 0.000745 0.317233 0.958423
Si Si5 0.334865 0.460434 0.608703
Si Si6 0.383637 0.789996 0.802340
O O1 0.679761 0.753576 0.715411
O O2 0.743790 0.779571 0.278702
O O3 0.525453 0.838998 0.728430
O O4 0.877486 0.117682 0.273363
O O5 0.138341 0.307961 0.343576
O O6 0.908999 0.211377 0.918965
O O7 0.824784 0.973457 0.763124
O O8 0.799147 0.260036 0.831582
O O9 0.455985 0.412542 0.767755
O O10 0.213429 0.437016 0.643395
O O11 0.000000 0.500000 0.000000
O O12 0.328219 0.596281 0.764808
O O13 0.500000 0.000000 0.500000
#
# Coordination Sequence:
#
# PCOD9065109 Si02
#       6
#     2   2   2   2   2   2
#     4  12  26  44  73 111 138 188 242 290 354 425
#     4  11  24  47  72 100 149 191 228 294 361 413
#     4  11  26  47  73 106 150 184 230 298 360 418
#     4  12  24  46  76 101 139 190 244 291 345 423
#     4  12  24  46  76 105 142 189 238 293 351 421
#     4  12  23  47  73 102 142 190 240 288 345 424
#
# _framework density 25.461411999999999
#
# number of rings (size 3 to 8) (size 9 to 14) (size 15 to 20)
#    0.000    0.333    6.667    1.500    0.000    0.667 
#    3.000    1.667    0.000    0.000    0.000    0.000 
#    0.000    0.000    0.000    0.000    0.000    0.000 
#
# Total GULP energy -67038.524368 kJ/mol
# GULP energy per Si atom -5586.543697 kJ/mol
# Density = 2.540346 g / cm^3
# Si number density = 25.461412 Si / 1000 Ang^3
#
#
#
# Elastic Constant Matrix: (Units=GPa)
#
#
# Indices 1 2 3 4 5 6 
#
# 1 124.0032 62.2843 48.0634 13.7252 -36.8515 -3.5188
# 2 62.2843 170.2527 63.3348 17.4278 -1.5802 -18.0748
# 3 48.0634 63.3348 114.3636 22.3857 -42.6600 -25.5149
# 4 13.7252 17.4278 22.3857 40.7371 -16.5823 -15.0921
# 5 -36.8515 -1.5802 -42.6600 -16.5823 62.2851 10.3549
# 6 -3.5188 -18.0748 -25.5149 -15.0921 10.3549 41.9418
#
#
#
# Elastic Compliance Matrix: (Units=1/GPa)
#
#
# Indices 1 2 3 4 5 6 
#
# 1 0.012855 -0.004713 -0.000697 -0.000075 0.007532 -0.003263
# 2 -0.004713 0.009904 -0.005372 -0.001943 -0.007006 0.001635
# 3 -0.000697 -0.005372 0.017101 -0.000820 0.010074 0.005248
# 4 -0.000075 -0.001943 -0.000820 0.031568 0.006344 0.008451
# 5 0.007532 -0.007006 0.010074 0.006344 0.029116 -0.001164
# 6 -0.003263 0.001635 0.005248 0.008451 -0.001164 0.030794
#
#
# Mechanical properties :
#
#
# Convention : Reuss Voigt Hill
#
# Bulk Modulus (GPa) = 54.65402 83.99828 69.32615
# Shear Modulus (GPa) = 31.44673 44.65526 38.05099
#
# Velocity S-wave (km/s) = 3.51817 4.19243 3.87002
# Velocity P-wave (km/s) = 6.16567 7.51647 6.87433
#
# Compressibility (1/GPa) = 0.01829691
#
# Stress axis : x y z
#
# Youngs Moduli (GPa) = 77.78855 100.97365 58.47701
#
# Poissons Ratio (x) = 0.47585 0.04073
# Poissons Ratio (y) = 0.36658 0.31415
# Poissons Ratio (z) = 0.05419 0.54245
#
# Static dielectric constant tensor:
#      x y z
#    x 2.013290 -0.036410 0.019820 
#    y -0.036410 2.050640 0.011320 
#    z 0.019820 0.011320 2.041900 
# 
# From -- ./inp_files/153582.got.cif
#   From: 2010.05.17/outbox.cif.g08.bks.cpg/sg2_77_cif.got.tgz:153582.got - 2010.06.03 11:33:40.
