data_PCOD9065840
_publ_section_title
;
Structure prediction by ZEFSAII (Michael W. Deem and Ramdas Pophale) SiO2 
 PCOD9065840
Probable space group: P -1
;
_chemical_formula_sum "Si O2"
_cell_formula_units_Z 16
_cell_length_a 22.760163
_cell_length_b 6.933696
_cell_length_c 13.471676
_cell_angle_alpha 132.775431
_cell_angle_beta 142.435185
_cell_angle_gamma 33.178762
_cell_volume 708.525806
_symmetry_space_group_name_H-M "P -1"
_symmetry_group_IT_number 2
_symmetry_cell_setting 'triclinic'
loop_
_space_group_symop_operation_xyz
x,y,z
-x,-y,-z
loop_
_atom_site_type_symbol
_atom_site_label
_atom_site_fract_x
_atom_site_fract_y
_atom_site_fract_z
Si Si1 0.979886 0.549607 0.742430
Si Si2 0.215349 0.351497 0.109399
Si Si3 0.039150 0.870710 0.206125
Si Si4 0.360996 0.847113 0.971568
Si Si5 0.960199 0.308971 0.438857
Si Si6 0.404526 0.313253 0.103523
Si Si7 0.321143 0.377883 0.794682
Si Si8 0.802235 0.077896 0.838721
O O1 0.999032 0.287998 0.597065
O O2 0.102971 0.382294 0.918031
O O3 0.965806 0.842133 0.759362
O O4 0.855657 0.765790 0.724195
O O5 0.343917 0.983938 0.109515
O O6 0.168845 0.487711 0.206880
O O7 0.209240 0.644882 0.150605
O O8 0.017635 0.976422 0.329125
O O9 0.916455 0.934921 0.020430
O O10 0.284612 0.713796 0.806285
O O11 0.500000 0.500000 0.000000
O O12 0.334882 0.159708 0.983871
O O13 0.805273 0.555258 0.325475
O O14 0.000000 0.500000 0.500000
O O15 0.331154 0.673175 0.192006
O O16 0.557312 0.000811 0.221382
O O17 0.381390 0.376719 0.978006
#
# Coordination Sequence:
#
# PCOD9065840 Si02
#       8
#     2   2   2   2   2   2   2   2
#     4   8  15  24  43  69  97 130 161 193 242 299
#     4   8  14  26  46  67  93 125 164 198 245 289
#     4   8  13  24  43  68  94 126 161 201 239 286
#     4   9  18  31  50  76  99 123 163 214 247 280
#     4  10  18  28  45  71 106 131 159 203 243 290
#     4   9  17  31  54  71  99 128 161 211 253 276
#     4  10  19  31  48  78  97 127 171 203 239 300
#     4   8  12  25  46  69  90 125 164 198 245 285
#
# _framework density 22.582098999999999
#
# number of rings (size 3 to 8) (size 9 to 14) (size 15 to 20)
#    0.000    3.250    1.250    1.500    1.750    0.000 
#    0.000    1.875    0.000    0.000    0.000    0.875 
#    0.000    0.750    0.000    0.000    0.000    0.000 
#
# Total GULP energy -89139.682076 kJ/mol
# GULP energy per Si atom -5571.230130 kJ/mol
# Density = 2.253070 g / cm^3
# Si number density = 22.582099 Si / 1000 Ang^3
#
#
#
# Elastic Constant Matrix: (Units=GPa)
#
#
# Indices 1 2 3 4 5 6 
#
# 1 111.9645 47.0921 34.1036 13.6765 -14.5588 -23.9456
# 2 47.0921 122.7824 38.4737 30.7502 -7.7221 -44.2999
# 3 34.1036 38.4737 73.2214 23.6656 -23.7262 -23.6932
# 4 13.6765 30.7502 23.6656 28.7196 -14.1918 -9.4160
# 5 -14.5588 -7.7221 -23.7262 -14.1918 49.0598 16.0759
# 6 -23.9456 -44.2999 -23.6932 -9.4160 16.0759 54.7876
#
#
#
# Elastic Compliance Matrix: (Units=1/GPa)
#
#
# Indices 1 2 3 4 5 6 
#
# 1 0.011570 -0.003599 -0.003515 0.002222 0.001637 0.000528
# 2 -0.003599 0.017575 -0.000948 -0.016089 -0.007208 0.011578
# 3 -0.003515 -0.000948 0.022608 -0.012222 0.004918 0.003931
# 4 0.002222 -0.016089 -0.012222 0.064740 0.014355 -0.010409
# 5 0.001637 -0.007208 0.004918 0.014355 0.029247 -0.009101
# 6 0.000528 0.011578 0.003931 -0.010409 -0.009101 0.030426
#
#
# Mechanical properties :
#
#
# Convention : Reuss Voigt Hill
#
# Bulk Modulus (GPa) = 28.06586 60.81189 44.43888
# Shear Modulus (GPa) = 24.48983 39.06665 31.77824
#
# Velocity S-wave (km/s) = 3.29672 4.16382 3.75538
# Velocity P-wave (km/s) = 5.19100 7.07843 6.20688
#
# Compressibility (1/GPa) = 0.03563048
#
# Stress axis : x y z
#
# Youngs Moduli (GPa) = 86.42905 56.89811 44.23242
#
# Poissons Ratio (x) = 0.20480 0.15546
# Poissons Ratio (y) = 0.31109 0.04191
# Poissons Ratio (z) = 0.30376 0.05391
#
# Static dielectric constant tensor:
#      x y z
#    x 1.973390 0.024350 0.015080 
#    y 0.024350 1.916740 0.043470 
#    z 0.015080 0.043470 1.809930 
# 
# From -- ./inp_files/388021.got.cif
#   From: 2010.05.17/outbox.cif.g08.bks.cpg/sg2_195_cif.got.tgz:388021.got - 2010.06.03 11:33:40.
