data_PCOD9065726
_publ_section_title
;
Structure prediction by ZEFSAII (Michael W. Deem and Ramdas Pophale) SiO2 
 PCOD9065726
Probable space group: P -1
;
_chemical_formula_sum "Si O2"
_cell_formula_units_Z 13
_cell_length_a 16.046011
_cell_length_b 15.567115
_cell_length_c 8.500354
_cell_angle_alpha 72.036007
_cell_angle_beta 115.031589
_cell_angle_gamma 162.306825
_cell_volume 549.052371
_symmetry_space_group_name_H-M "P -1"
_symmetry_group_IT_number 2
_symmetry_cell_setting 'triclinic'
loop_
_space_group_symop_operation_xyz
x,y,z
-x,-y,-z
loop_
_atom_site_type_symbol
_atom_site_label
_atom_site_fract_x
_atom_site_fract_y
_atom_site_fract_z
Si Si1 0.448881 0.849167 0.087649
Si Si2 0.326527 0.586290 0.886776
Si Si3 0.067267 0.036062 0.216204
Si Si4 0.132185 0.445148 0.309044
Si Si5 0.689230 0.927175 0.688254
Si Si6 0.000000 0.000000 0.500000
Si Si7 0.618915 0.486197 0.738229
O O1 0.201872 0.595360 0.166669
O O2 0.345945 0.694623 0.942668
O O3 0.776207 0.113629 0.254450
O O4 0.500000 0.000000 0.000000
O O5 0.618892 0.856942 0.856412
O O6 0.339481 0.512401 0.054231
O O7 0.003588 0.274734 0.716850
O O8 0.261073 0.127304 0.300699
O O9 0.220214 0.266081 0.299459
O O10 0.826178 0.795610 0.302992
O O11 0.000000 0.000000 0.000000
O O12 0.387703 0.688294 0.509291
O O13 0.219971 0.437353 0.285439
O O14 0.737636 0.831997 0.396999
#
# Coordination Sequence:
#
# PCOD9065726 Si02
#       7
#     2   2   2   2   2   1   2
#     4  11  25  49  76 102 131 178 230 292 370 452
#     4  11  25  44  70  97 143 178 237 296 361 428
#     4  12  26  41  64  97 147 193 248 290 343 409
#     4  11  25  44  73 101 141 180 233 291 360 428
#     4  12  25  44  67 106 143 187 236 290 357 411
#     4  12  26  40  64  98 140 194 258 296 336 420
#     4  11  25  41  64  96 137 194 239 289 344 414
#
# _framework density 23.677157999999999
#
# number of rings (size 3 to 8) (size 9 to 14) (size 15 to 20)
#    0.000    0.615    3.077    4.615    6.462    1.231 
#    0.000    4.615    0.000    0.000    0.000    0.000 
#    0.000    0.000    0.000    0.000    0.000    0.000 
#
# Total GULP energy -72493.912384 kJ/mol
# GULP energy per Si atom -5576.454799 kJ/mol
# Density = 2.362327 g / cm^3
# Si number density = 23.677158 Si / 1000 Ang^3
#
#
#
# Elastic Constant Matrix: (Units=GPa)
#
#
# Indices 1 2 3 4 5 6 
#
# 1 56.1435 21.4501 24.4910 5.8675 15.7482 -21.2523
# 2 21.4501 90.2732 -0.5908 15.1758 2.6212 -7.6018
# 3 24.4910 -0.5908 86.6286 19.9557 -3.6862 2.7796
# 4 5.8675 15.1758 19.9557 28.9365 7.4049 -0.3947
# 5 15.7482 2.6212 -3.6862 7.4049 22.1529 -1.9593
# 6 -21.2523 -7.6018 2.7796 -0.3947 -1.9593 47.6331
#
#
#
# Elastic Compliance Matrix: (Units=1/GPa)
#
#
# Indices 1 2 3 4 5 6 
#
# 1 0.049431 -0.012864 -0.021865 0.023138 -0.043249 0.019690
# 2 -0.012864 0.015972 0.007750 -0.014512 0.013111 -0.003224
# 3 -0.021865 0.007750 0.024512 -0.023227 0.025666 -0.009086
# 4 0.023138 -0.014512 -0.023227 0.063623 -0.039131 0.008281
# 5 -0.043249 0.013111 0.025666 -0.039131 0.090331 -0.015310
# 6 0.019690 -0.003224 -0.009086 0.008281 -0.015310 0.029233
#
#
# Mechanical properties :
#
#
# Convention : Reuss Voigt Hill
#
# Bulk Modulus (GPa) = 27.81065 35.97176 31.89121
# Shear Modulus (GPa) = 14.74727 32.25748 23.50238
#
# Velocity S-wave (km/s) = 2.49840 3.69506 3.15400
# Velocity P-wave (km/s) = 4.48263 5.78188 5.17321
#
# Compressibility (1/GPa) = 0.03595745
#
# Stress axis : x y z
#
# Youngs Moduli (GPa) = 20.23038 62.60795 40.79626
#
# Poissons Ratio (x) = 0.80541 0.89199
# Poissons Ratio (y) = 0.26025 -0.31618
# Poissons Ratio (z) = 0.44233 -0.48522
#
# Static dielectric constant tensor:
#      x y z
#    x 1.864950 -0.006500 -0.048230 
#    y -0.006500 1.537720 0.126180 
#    z -0.048230 0.126180 2.000250 
# 
# From -- ./inp_files/32239.got.cif
#   From: 2010.05.17/outbox.cif.g08.bks.cpg/sg2_17_cif.got.tgz:32239.got - 2010.06.03 11:33:40.
