data_PCOD9065123
_publ_section_title
;
Structure prediction by ZEFSAII (Michael W. Deem and Ramdas Pophale) SiO2 
 PCOD9065123
Probable space group: P -1
;
_chemical_formula_sum "Si O2"
_cell_formula_units_Z 16
_cell_length_a 25.047289
_cell_length_b 14.883152
_cell_length_c 16.715582
_cell_angle_alpha 19.097063
_cell_angle_beta 20.123694
_cell_angle_gamma 19.812825
_cell_volume 617.022945
_symmetry_space_group_name_H-M "P -1"
_symmetry_group_IT_number 2
_symmetry_cell_setting 'triclinic'
loop_
_space_group_symop_operation_xyz
x,y,z
-x,-y,-z
loop_
_atom_site_type_symbol
_atom_site_label
_atom_site_fract_x
_atom_site_fract_y
_atom_site_fract_z
Si Si1 0.765934 0.429953 0.586605
Si Si2 0.008175 0.423193 0.462175
Si Si3 0.451901 0.713787 0.307215
Si Si4 0.689803 0.463597 0.040710
Si Si5 0.560105 0.119422 0.081819
Si Si6 0.674444 0.926539 0.424931
Si Si7 0.065014 0.910995 0.711139
Si Si8 0.064141 0.342519 0.128127
O O1 0.593261 0.399525 0.833595
O O2 0.703311 0.773055 0.424987
O O3 0.889554 0.153243 0.707311
O O4 0.898919 0.319577 0.416768
O O5 0.068882 0.066886 0.657545
O O6 0.000000 0.500000 0.500000
O O7 0.819218 0.623218 0.522487
O O8 0.150322 0.526567 0.146160
O O9 0.500000 0.500000 0.500000
O O10 0.553817 0.490627 0.277598
O O11 0.243147 0.863863 0.457520
O O12 0.500000 0.000000 0.000000
O O13 0.591689 0.765217 0.868152
O O14 0.730624 0.183638 0.157268
O O15 0.738556 0.911260 0.957193
O O16 0.508742 0.985650 0.344844
O O17 0.076143 0.578275 0.977091
O O18 0.000000 0.500000 0.000000
#
# Coordination Sequence:
#
# PCOD9065123 Si02
#       8
#     2   2   2   2   2   2   2   2
#     4  11  27  48  73 109 146 193 257 308 390 459
#     4  11  24  47  72 104 149 194 251 308 385 453
#     4  12  29  48  76 114 157 203 260 324 389 469
#     4  12  27  46  75 108 150 198 250 315 385 462
#     4  12  26  48  75 108 150 188 253 312 386 460
#     4  11  27  46  76 104 145 198 247 318 379 466
#     4  11  26  46  75 105 150 195 248 313 381 460
#     4  12  27  46  76 106 147 198 248 311 384 461
#
# _framework density 25.930963999999999
#
# number of rings (size 3 to 8) (size 9 to 14) (size 15 to 20)
#    0.000    0.500    3.750    2.625   12.250    0.500 
#    0.000    0.000    0.000    0.000    0.000    0.000 
#    0.000    0.000    0.000    0.000    0.000    0.000 
#
# Total GULP energy -89477.037611 kJ/mol
# GULP energy per Si atom -5592.314851 kJ/mol
# Density = 2.587194 g / cm^3
# Si number density = 25.930964 Si / 1000 Ang^3
#
#
#
# Elastic Constant Matrix: (Units=GPa)
#
#
# Indices 1 2 3 4 5 6 
#
# 1 79.3623 20.5177 6.2895 3.5650 7.3192 19.2048
# 2 20.5177 110.7446 15.4355 2.5444 -3.3536 30.5422
# 3 6.2895 15.4355 84.0174 7.2336 -8.5421 6.1824
# 4 3.5650 2.5444 7.2336 45.4101 6.2324 -7.8757
# 5 7.3192 -3.3536 -8.5421 6.2324 39.6441 -2.7527
# 6 19.2048 30.5422 6.1824 -7.8757 -2.7527 43.7506
#
#
#
# Elastic Compliance Matrix: (Units=1/GPa)
#
#
# Indices 1 2 3 4 5 6 
#
# 1 0.014768 -0.000996 -0.000643 -0.001646 -0.003120 -0.006189
# 2 -0.000996 0.011592 -0.001264 -0.001803 0.000637 -0.007761
# 3 -0.000643 -0.001264 0.012778 -0.002494 0.003095 -0.000896
# 4 -0.001646 -0.001803 -0.002494 0.024287 -0.003755 0.006470
# 5 -0.003120 0.000637 0.003095 -0.003755 0.027217 0.001524
# 6 -0.006189 -0.007761 -0.000896 0.006470 0.001524 0.032378
#
#
# Mechanical properties :
#
#
# Convention : Reuss Voigt Hill
#
# Bulk Modulus (GPa) = 30.00110 39.84554 34.92332
# Shear Modulus (GPa) = 35.73050 41.21973 38.47512
#
# Velocity S-wave (km/s) = 3.71605 3.99130 3.85613
# Velocity P-wave (km/s) = 5.47784 6.05310 5.77264
#
# Compressibility (1/GPa) = 0.03333212
#
# Stress axis : x y z
#
# Youngs Moduli (GPa) = 67.71236 86.26967 78.26006
#
# Poissons Ratio (x) = 0.08596 0.05029
# Poissons Ratio (y) = 0.06747 0.09891
# Poissons Ratio (z) = 0.04351 0.10904
#
# Static dielectric constant tensor:
#      x y z
#    x 2.049260 -0.015770 0.009770 
#    y -0.015770 2.124610 0.037050 
#    z 0.009770 0.037050 2.225220 
# 
# From -- ./inp_files/364727.got.cif
#   From: 2010.05.17/outbox.cif.g08.bks.cpg/sg2_183_cif.got.tgz:364727.got - 2010.06.03 11:33:40.
