data_PCOD9065659
_publ_section_title
;
Structure prediction by ZEFSAII (Michael W. Deem and Ramdas Pophale) SiO2 
 PCOD9065659
Probable space group: P -1
;
_chemical_formula_sum "Si O2"
_cell_formula_units_Z 16
_cell_length_a 14.125314
_cell_length_b 9.850121
_cell_length_c 9.377777
_cell_angle_alpha 36.227473
_cell_angle_beta 94.642416
_cell_angle_gamma 109.389787
_cell_volume 685.297137
_symmetry_space_group_name_H-M "P -1"
_symmetry_group_IT_number 2
_symmetry_cell_setting 'triclinic'
loop_
_space_group_symop_operation_xyz
x,y,z
-x,-y,-z
loop_
_atom_site_type_symbol
_atom_site_label
_atom_site_fract_x
_atom_site_fract_y
_atom_site_fract_z
Si Si1 0.232285 0.476347 0.457762
Si Si2 0.492599 0.566684 0.779958
Si Si3 0.728826 0.977097 0.462861
Si Si4 0.963101 0.031051 0.125989
Si Si5 0.122653 0.219748 0.203885
Si Si6 0.283999 0.638548 0.649577
Si Si7 0.112562 0.598901 0.092463
Si Si8 0.473174 0.698993 0.229806
O O1 0.249029 0.590056 0.522497
O O2 0.166278 0.565595 0.270278
O O3 0.345957 0.559113 0.332764
O O4 0.160526 0.170459 0.714861
O O5 0.608707 0.788719 0.561875
O O6 0.399591 0.646726 0.672585
O O7 0.472974 0.317188 0.897046
O O8 0.500000 0.500000 0.000000
O O9 0.802344 0.844772 0.628358
O O10 0.716124 0.112870 0.490038
O O11 0.793834 0.186075 0.174662
O O12 0.034340 0.991977 0.291343
O O13 0.970679 0.304503 0.942289
O O14 0.000000 0.000000 0.000000
O O15 0.071625 0.356036 0.186282
O O16 0.201647 0.408012 0.933909
O O17 0.500000 0.500000 0.500000
O O18 0.500000 0.000000 0.000000
#
# Coordination Sequence:
#
# PCOD9065659 Si02
#       8
#     2   2   2   2   2   2   2   2
#     4  12  28  47  74 114 153 202 255 320 396 475
#     4  12  25  46  76 112 147 202 261 323 389 468
#     4  11  26  47  76 107 151 198 259 316 394 471
#     4  12  27  47  78 108 152 195 261 322 395 467
#     4  11  24  50  72 108 143 197 256 320 387 463
#     4  11  25  44  73 110 150 196 255 321 390 459
#     4  11  27  46  75 105 151 196 256 316 390 474
#     4  12  30  50  79 116 162 211 259 324 404 472
#
# _framework density 23.347536999999999
#
# number of rings (size 3 to 8) (size 9 to 14) (size 15 to 20)
#    0.000    0.500    3.750    3.000    8.750    4.500 
#    0.000    0.000    0.000    0.000    0.000    0.000 
#    0.000    0.000    0.000    0.000    0.000    0.000 
#
# Total GULP energy -89492.535515 kJ/mol
# GULP energy per Si atom -5593.283470 kJ/mol
# Density = 2.329440 g / cm^3
# Si number density = 23.347537 Si / 1000 Ang^3
#
#
#
# Elastic Constant Matrix: (Units=GPa)
#
#
# Indices 1 2 3 4 5 6 
#
# 1 90.1396 52.1377 15.6593 -10.1926 8.0577 -1.5713
# 2 52.1377 170.4671 46.1189 21.2985 15.7067 -20.5652
# 3 15.6593 46.1189 71.5037 19.2365 4.4600 -4.7936
# 4 -10.1926 21.2985 19.2365 43.4489 5.6832 0.5827
# 5 8.0577 15.7067 4.4600 5.6832 38.2926 -3.1760
# 6 -1.5713 -20.5652 -4.7936 0.5827 -3.1760 51.6655
#
#
#
# Elastic Compliance Matrix: (Units=1/GPa)
#
#
# Indices 1 2 3 4 5 6 
#
# 1 0.015391 -0.005109 -0.002045 0.007329 -0.002156 -0.001970
# 2 -0.005109 0.009428 -0.003551 -0.004095 -0.001504 0.003222
# 3 -0.002045 -0.003551 0.018605 -0.007086 0.000803 0.000380
# 4 0.007329 -0.004095 -0.007086 0.030408 -0.003769 -0.002639
# 5 -0.002156 -0.001504 0.000803 -0.003769 0.027747 0.001159
# 6 -0.001970 0.003222 0.000380 -0.002639 0.001159 0.020714
#
#
# Mechanical properties :
#
#
# Convention : Reuss Voigt Hill
#
# Bulk Modulus (GPa) = 45.42238 62.21579 53.81908
# Shear Modulus (GPa) = 33.10349 41.22770 37.16559
#
# Velocity S-wave (km/s) = 3.76953 4.20673 3.99412
# Velocity P-wave (km/s) = 6.20024 7.09232 6.66123
#
# Compressibility (1/GPa) = 0.02201558
#
# Stress axis : x y z
#
# Youngs Moduli (GPa) = 64.97177 106.06332 53.74843
#
# Poissons Ratio (x) = 0.54188 0.10990
# Poissons Ratio (y) = 0.33194 0.19086
# Poissons Ratio (z) = 0.13285 0.37662
#
# Static dielectric constant tensor:
#      x y z
#    x 1.844150 0.000490 0.013330 
#    y 0.000490 1.913190 -0.045810 
#    z 0.013330 -0.045810 1.934110 
# 
# From -- ./inp_files/297302.got.cif
#   From: 2010.05.17/outbox.cif.g08.bks.cpg/sg2_149_cif.got.tgz:297302.got - 2010.06.03 11:33:40.
