data_PCOD9065967
_publ_section_title
;
Structure prediction by ZEFSAII (Michael W. Deem and Ramdas Pophale) SiO2 
 PCOD9065967
Probable space group: P -1
;
_chemical_formula_sum "Si O2"
_cell_formula_units_Z 16
_cell_length_a 19.447424
_cell_length_b 14.010952
_cell_length_c 5.338371
_cell_angle_alpha 89.997621
_cell_angle_beta 102.010807
_cell_angle_gamma 27.660699
_cell_volume 603.598367
_symmetry_space_group_name_H-M "P -1"
_symmetry_group_IT_number 2
_symmetry_cell_setting 'triclinic'
loop_
_space_group_symop_operation_xyz
x,y,z
-x,-y,-z
loop_
_atom_site_type_symbol
_atom_site_label
_atom_site_fract_x
_atom_site_fract_y
_atom_site_fract_z
Si Si1 0.836968 0.996716 0.909209
Si Si2 0.688632 0.300315 0.420212
Si Si3 0.393609 0.353875 0.292057
Si Si4 0.585818 0.240239 0.037291
Si Si5 0.386975 0.053339 0.295949
Si Si6 0.176683 0.333595 0.620715
Si Si7 0.891284 0.213086 0.616207
Si Si8 0.134544 0.588109 0.775249
O O1 0.960543 0.803932 0.791389
O O2 0.693936 0.242046 0.691325
O O3 0.746350 0.022896 0.987545
O O4 0.949807 0.931146 0.148859
O O5 0.565895 0.534473 0.243266
O O6 0.869070 0.129247 0.536496
O O7 0.652322 0.254394 0.222320
O O8 0.247875 0.603413 0.268968
O O9 0.492959 0.186489 0.598841
O O10 0.518968 0.250049 0.194114
O O11 0.289067 0.397600 0.081799
O O12 0.255210 0.204174 0.419495
O O13 0.500000 0.000000 0.500000
O O14 0.298255 0.170005 0.956999
O O15 0.144602 0.486885 0.598259
O O16 0.000000 0.500000 0.500000
O O17 0.841484 0.343702 0.354872
#
# Coordination Sequence:
#
# PCOD9065967 Si02
#       8
#     2   2   2   2   2   2   2   2
#     4  11  26  44  71 104 144 200 249 311 376 459
#     4  11  25  44  70 102 146 197 249 308 379 443
#     4  11  26  46  76 112 142 200 254 317 380 457
#     4  11  26  45  70 105 148 191 252 316 369 449
#     4  12  26  52  88 115 153 207 262 319 392 483
#     4  12  29  53  80 119 161 201 254 329 398 469
#     4  11  25  46  72 102 152 194 251 309 376 460
#     4  11  25  50  74 106 151 197 250 313 388 463
#
# _framework density 26.507691999999999
#
# number of rings (size 3 to 8) (size 9 to 14) (size 15 to 20)
#    0.000    0.750    2.500    3.000    8.750    4.000 
#    4.500    1.250    0.000    0.000    0.000    0.000 
#    0.000    0.000    0.000    0.000    0.000    0.000 
#
# Total GULP energy -89595.716297 kJ/mol
# GULP energy per Si atom -5599.732269 kJ/mol
# Density = 2.644736 g / cm^3
# Si number density = 26.507692 Si / 1000 Ang^3
#
#
#
# Elastic Constant Matrix: (Units=GPa)
#
#
# Indices 1 2 3 4 5 6 
#
# 1 92.2352 30.1422 3.4047 -11.8896 4.9493 -20.7254
# 2 30.1422 100.9121 13.3215 6.1839 -15.5484 -17.0881
# 3 3.4047 13.3215 107.8711 -8.7926 -0.0861 -5.0892
# 4 -11.8896 6.1839 -8.7926 35.5397 -2.4917 -3.4022
# 5 4.9493 -15.5484 -0.0861 -2.4917 51.8020 6.0049
# 6 -20.7254 -17.0881 -5.0892 -3.4022 6.0049 55.7791
#
#
#
# Elastic Compliance Matrix: (Units=1/GPa)
#
#
# Indices 1 2 3 4 5 6 
#
# 1 0.014223 -0.004375 0.000796 0.005961 -0.002928 0.004696
# 2 -0.004375 0.012483 -0.001630 -0.003635 0.003823 0.001417
# 3 0.000796 -0.001630 0.009735 0.003011 -0.000511 0.000923
# 4 0.005961 -0.003635 0.003011 0.031796 -0.000517 0.003371
# 5 -0.002928 0.003823 -0.000511 -0.000517 0.020967 -0.002252
# 6 0.004696 0.001417 0.000923 0.003371 -0.002252 0.020639
#
#
# Mechanical properties :
#
#
# Convention : Reuss Voigt Hill
#
# Bulk Modulus (GPa) = 38.42524 43.86169 41.14347
# Shear Modulus (GPa) = 38.77960 45.56751 42.17355
#
# Velocity S-wave (km/s) = 3.82901 4.15062 3.99305
# Velocity P-wave (km/s) = 5.83745 6.28911 6.06748
#
# Compressibility (1/GPa) = 0.02602456
#
# Stress axis : x y z
#
# Youngs Moduli (GPa) = 70.30998 80.10757 102.72138
#
# Poissons Ratio (x) = 0.35045 -0.08181
# Poissons Ratio (y) = 0.30758 0.16743
# Poissons Ratio (z) = -0.05600 0.13057
#
# Static dielectric constant tensor:
#      x y z
#    x 2.042780 -0.020080 0.012520 
#    y -0.020080 2.179580 0.046280 
#    z 0.012520 0.046280 2.185250 
# 
# From -- ./inp_files/110788.got.cif
#   From: 2010.05.17/outbox.cif.g08.bks.cpg/sg2_56_cif.got.tgz:110788.got - 2010.06.03 11:33:40.
