data_PCOD9065028
_publ_section_title
;
Structure prediction by ZEFSAII (Michael W. Deem and Ramdas Pophale) SiO2 
 PCOD9065028
Probable space group: P -1
;
_chemical_formula_sum "Si O2"
_cell_formula_units_Z 16
_cell_length_a 9.917595
_cell_length_b 16.008951
_cell_length_c 8.749243
_cell_angle_alpha 108.584409
_cell_angle_beta 68.232782
_cell_angle_gamma 144.856389
_cell_volume 742.291187
_symmetry_space_group_name_H-M "P -1"
_symmetry_group_IT_number 2
_symmetry_cell_setting 'triclinic'
loop_
_space_group_symop_operation_xyz
x,y,z
-x,-y,-z
loop_
_atom_site_type_symbol
_atom_site_label
_atom_site_fract_x
_atom_site_fract_y
_atom_site_fract_z
Si Si1 0.034655 0.806465 0.763573
Si Si2 0.691256 0.242998 0.392455
Si Si3 0.166937 0.009355 0.348302
Si Si4 0.931254 0.983472 0.189973
Si Si5 0.590227 0.339522 0.708254
Si Si6 0.018242 0.436200 0.085525
Si Si7 0.557774 0.499027 0.648056
Si Si8 0.941572 0.737789 0.118572
O O1 0.210571 0.808772 0.666467
O O2 0.784225 0.661459 0.707198
O O3 0.121092 0.938291 0.727897
O O4 0.987402 0.793295 0.958266
O O5 0.712631 0.309638 0.576807
O O6 0.837181 0.357217 0.257950
O O7 0.415081 0.114320 0.386335
O O8 0.169218 0.064165 0.222006
O O9 0.054894 0.860895 0.263453
O O10 0.000000 0.000000 0.500000
O O11 0.690903 0.814667 0.236821
O O12 0.000000 0.000000 0.000000
O O13 0.614712 0.423493 0.611848
O O14 0.725056 0.438454 0.861089
O O15 0.000000 0.500000 0.000000
O O16 0.961978 0.315153 0.960051
O O17 0.500000 0.500000 0.500000
O O18 0.332400 0.404805 0.799054
#
# Coordination Sequence:
#
# PCOD9065028 Si02
#       8
#     2   2   2   2   2   2   2   2
#     4  11  26  45  71 107 143 197 234 302 369 423
#     4  11  26  47  71  99 154 188 238 302 364 429
#     4  12  25  47  73 102 143 190 244 298 369 427
#     4  12  26  44  75 106 141 189 247 299 363 431
#     4  12  25  49  70 104 151 185 238 305 355 434
#     4  11  28  44  73 106 140 197 238 296 369 432
#     4  12  26  42  75 104 141 192 244 294 362 430
#     4  11  24  47  69 102 147 185 244 302 353 434
#
# _framework density 21.554883
#
# number of rings (size 3 to 8) (size 9 to 14) (size 15 to 20)
#    0.000    0.500    6.250    0.750    8.750    3.500 
#    0.000    0.000    0.000    0.000    0.000    0.000 
#    0.000    0.000    0.000    0.000    0.000    0.000 
#
# Total GULP energy -89372.894042 kJ/mol
# GULP energy per Si atom -5585.805878 kJ/mol
# Density = 2.150582 g / cm^3
# Si number density = 21.554883 Si / 1000 Ang^3
#
#
#
# Elastic Constant Matrix: (Units=GPa)
#
#
# Indices 1 2 3 4 5 6 
#
# 1 80.8521 34.5312 16.7188 6.6013 14.6990 -20.0651
# 2 34.5312 105.1837 21.6696 15.5201 8.5931 -9.9840
# 3 16.7188 21.6696 66.7889 23.0462 -14.5943 -3.8577
# 4 6.6013 15.5201 23.0462 27.8159 2.5804 -1.1034
# 5 14.6990 8.5931 -14.5943 2.5804 35.5744 -0.4268
# 6 -20.0651 -9.9840 -3.8577 -1.1034 -0.4268 42.8895
#
#
#
# Elastic Compliance Matrix: (Units=1/GPa)
#
#
# Indices 1 2 3 4 5 6 
#
# 1 0.018600 -0.003923 -0.006616 0.004441 -0.009688 0.007211
# 2 -0.003923 0.011976 -0.001854 -0.004028 -0.001732 0.000665
# 3 -0.006616 -0.001854 0.028586 -0.022669 0.016537 -0.001374
# 4 0.004441 -0.004028 -0.022669 0.057271 -0.014311 0.000432
# 5 -0.009688 -0.001732 0.016537 -0.014311 0.040313 -0.003415
# 6 0.007211 0.000665 -0.001374 0.000432 -0.003415 0.026698
#
#
# Mechanical properties :
#
#
# Convention : Reuss Voigt Hill
#
# Bulk Modulus (GPa) = 29.08896 44.29599 36.69248
# Shear Modulus (GPa) = 22.75964 33.24963 28.00464
#
# Velocity S-wave (km/s) = 3.25298 3.93180 3.60839
# Velocity P-wave (km/s) = 5.25678 6.41927 5.86689
#
# Compressibility (1/GPa) = 0.03437730
#
# Stress axis : x y z
#
# Youngs Moduli (GPa) = 53.76382 83.50129 34.98164
#
# Poissons Ratio (x) = 0.32754 0.23144
# Poissons Ratio (y) = 0.21089 0.06485
# Poissons Ratio (z) = 0.35570 0.15480
#
# Static dielectric constant tensor:
#      x y z
#    x 1.792660 -0.043460 -0.100490 
#    y -0.043460 1.796590 -0.004400 
#    z -0.100490 -0.004400 1.657820 
# 
# From -- ./inp_files/208249.got.cif
#   From: 2010.05.17/outbox.cif.g08.bks.cpg/sg2_105_cif.got.tgz:208249.got - 2010.06.03 11:33:40.
