data_PCOD9065660
_publ_section_title
;
Structure prediction by ZEFSAII (Michael W. Deem and Ramdas Pophale) SiO2 
 PCOD9065660
Probable space group: P -1
;
_chemical_formula_sum "Si O2"
_cell_formula_units_Z 16
_cell_length_a 8.945802
_cell_length_b 27.891655
_cell_length_c 5.948490
_cell_angle_alpha 121.599370
_cell_angle_beta 77.950322
_cell_angle_gamma 144.310040
_cell_volume 663.607854
_symmetry_space_group_name_H-M "P -1"
_symmetry_group_IT_number 2
_symmetry_cell_setting 'triclinic'
loop_
_space_group_symop_operation_xyz
x,y,z
-x,-y,-z
loop_
_atom_site_type_symbol
_atom_site_label
_atom_site_fract_x
_atom_site_fract_y
_atom_site_fract_z
Si Si1 0.799363 0.389212 0.892610
Si Si2 0.616082 0.115875 0.015361
Si Si3 0.059806 0.290665 0.040221
Si Si4 0.854498 0.948074 0.168841
Si Si5 0.676671 0.085995 0.383820
Si Si6 0.757753 0.793637 0.687710
Si Si7 0.222273 0.441928 0.055240
Si Si8 0.535641 0.377545 0.308296
O O1 0.501836 0.289509 0.611969
O O2 0.727077 0.389366 0.164785
O O3 0.000000 0.500000 0.000000
O O4 0.978701 0.387655 0.830692
O O5 0.390849 0.081617 0.858105
O O6 0.912755 0.242819 0.212667
O O7 0.575147 0.035975 0.777027
O O8 0.562824 0.092500 0.241535
O O9 0.842253 0.179214 0.724213
O O10 0.087014 0.357146 0.068421
O O11 0.368895 0.358819 0.119125
O O12 0.753556 0.852334 0.953775
O O13 0.000000 0.000000 0.500000
O O14 0.000000 0.000000 0.000000
O O15 0.937804 0.126718 0.320168
O O16 0.691229 0.724999 0.720139
O O17 0.318480 0.528920 0.362796
O O18 0.500000 0.500000 0.000000
#
# Coordination Sequence:
#
# PCOD9065660 Si02
#       8
#     2   2   2   2   2   2   2   2
#     4  12  27  49  77 108 153 204 263 320 401 482
#     4  11  27  45  77 109 152 199 260 320 397 466
#     4  12  26  43  78 106 150 196 256 322 393 466
#     4  12  31  50  77 117 161 206 268 335 398 478
#     4  11  24  50  72 110 149 201 257 319 389 482
#     4  12  26  47  80 106 154 205 253 321 402 478
#     4  12  28  49  75 110 157 196 264 329 396 477
#     4  12  26  49  75 112 148 206 255 323 401 482
#
# _framework density 24.110623
#
# number of rings (size 3 to 8) (size 9 to 14) (size 15 to 20)
#    0.000    0.250    5.000    2.625    8.750    0.000 
#    0.000    0.000    0.000    0.000    0.000    0.000 
#    0.000    0.000    0.000    0.000    0.000    0.000 
#
# Total GULP energy -89368.942033 kJ/mol
# GULP energy per Si atom -5585.558877 kJ/mol
# Density = 2.405575 g / cm^3
# Si number density = 24.110623 Si / 1000 Ang^3
#
#
#
# Elastic Constant Matrix: (Units=GPa)
#
#
# Indices 1 2 3 4 5 6 
#
# 1 162.0429 33.9698 29.0264 2.6229 20.7691 -11.4792
# 2 33.9698 110.7704 13.0817 17.8338 -4.0606 -25.1785
# 3 29.0264 13.0817 103.4104 12.0011 -3.2754 2.8549
# 4 2.6229 17.8338 12.0011 27.7990 -3.2575 -8.6168
# 5 20.7691 -4.0606 -3.2754 -3.2575 40.5408 7.0745
# 6 -11.4792 -25.1785 2.8549 -8.6168 7.0745 52.1006
#
#
#
# Elastic Compliance Matrix: (Units=1/GPa)
#
#
# Indices 1 2 3 4 5 6 
#
# 1 0.007694 -0.002138 -0.002264 0.001612 -0.004499 0.001663
# 2 -0.002138 0.011601 -0.000280 -0.005738 0.001066 0.004057
# 3 -0.002264 -0.000280 0.011033 -0.004849 0.002038 -0.002317
# 4 0.001612 -0.005738 -0.004849 0.043205 0.000828 0.004881
# 5 -0.004499 0.001066 0.002038 0.000828 0.028053 -0.004260
# 6 0.001663 0.004057 -0.002317 0.004881 -0.004260 0.023034
#
#
# Mechanical properties :
#
#
# Convention : Reuss Voigt Hill
#
# Bulk Modulus (GPa) = 47.70448 58.70882 53.20665
# Shear Modulus (GPa) = 35.46820 44.09779 39.78299
#
# Velocity S-wave (km/s) = 3.83960 4.28129 4.06645
# Velocity P-wave (km/s) = 6.28374 6.98870 6.64557
#
# Compressibility (1/GPa) = 0.02096239
#
# Stress axis : x y z
#
# Youngs Moduli (GPa) = 129.97967 86.19581 90.64105
#
# Poissons Ratio (x) = 0.18431 0.20526
# Poissons Ratio (y) = 0.27793 0.02536
# Poissons Ratio (z) = 0.29434 0.02412
#
# Static dielectric constant tensor:
#      x y z
#    x 1.918560 0.110800 0.006160 
#    y 0.110800 2.147060 -0.185850 
#    z 0.006160 -0.185850 2.063520 
# 
# From -- ./inp_files/47954.got.cif
#   From: 2010.05.17/outbox.cif.g08.bks.cpg/sg2_24_cif.got.tgz:47954.got - 2010.06.03 11:33:40.
