data_PCOD9065551
_publ_section_title
;
Structure prediction by ZEFSAII (Michael W. Deem and Ramdas Pophale) SiO2 
 PCOD9065551
Probable space group: P -1
;
_chemical_formula_sum "Si O2"
_cell_formula_units_Z 10
_cell_length_a 13.400141
_cell_length_b 16.238223
_cell_length_c 11.218219
_cell_angle_alpha 22.239220
_cell_angle_beta 33.199993
_cell_angle_gamma 25.882466
_cell_volume 403.173224
_symmetry_space_group_name_H-M "P -1"
_symmetry_group_IT_number 2
_symmetry_cell_setting 'triclinic'
loop_
_space_group_symop_operation_xyz
x,y,z
-x,-y,-z
loop_
_atom_site_type_symbol
_atom_site_label
_atom_site_fract_x
_atom_site_fract_y
_atom_site_fract_z
Si Si1 0.857629 0.215366 0.102922
Si Si2 0.733510 0.800306 0.192080
Si Si3 0.467036 0.347373 0.841717
Si Si4 0.651756 0.347360 0.897844
Si Si5 0.960650 0.732485 0.814244
O O1 0.607204 0.493767 0.007551
O O2 0.826522 0.139870 0.101753
O O3 0.913171 0.979027 0.453689
O O4 0.050503 0.258152 0.872781
O O5 0.703666 0.566020 0.542823
O O6 0.777930 0.832951 0.966588
O O7 0.517093 0.079173 0.091616
O O8 0.500000 0.500000 0.500000
O O9 0.639841 0.258291 0.897208
O O10 0.209899 0.568334 0.846405
O O11 0.000000 0.500000 0.000000
#
# Coordination Sequence:
#
# PCOD9065551 Si02
#       5
#     2   2   2   2   2
#     4  11  24  49  71 104 148 183 234 295 347 421
#     4  12  25  47  76 103 141 188 237 287 352 417
#     4  12  24  45  73 105 140 185 237 286 347 422
#     4  11  26  47  73 105 144 187 234 290 353 416
#     4  12  25  47  75 106 141 187 237 292 350 417
#
# _framework density 24.803232999999999
#
# number of rings (size 3 to 8) (size 9 to 14) (size 15 to 20)
#    0.000    0.400    4.000    4.800    0.000    3.200 
#    3.600    3.000    0.000    0.000    0.000    0.000 
#    0.000    0.000    0.000    0.000    0.000    0.000 
#
# Total GULP energy -56070.189878 kJ/mol
# GULP energy per Si atom -5607.018988 kJ/mol
# Density = 2.474678 g / cm^3
# Si number density = 24.803233 Si / 1000 Ang^3
#
#
#
# Elastic Constant Matrix: (Units=GPa)
#
#
# Indices 1 2 3 4 5 6 
#
# 1 165.3135 33.3215 24.3031 -3.4613 30.2540 11.2617
# 2 33.3215 101.6892 20.7595 -2.7061 10.6286 -0.9324
# 3 24.3031 20.7595 74.5726 0.1804 10.8280 8.5327
# 4 -3.4613 -2.7061 0.1804 28.0670 2.6992 -0.9627
# 5 30.2540 10.6286 10.8280 2.6992 47.9941 -1.4807
# 6 11.2617 -0.9324 8.5327 -0.9627 -1.4807 49.6430
#
#
#
# Elastic Compliance Matrix: (Units=1/GPa)
#
#
# Indices 1 2 3 4 5 6 
#
# 1 0.007472 -0.001762 -0.001155 0.001104 -0.004172 -0.001633
# 2 -0.001762 0.011041 -0.002505 0.000975 -0.000792 0.001033
# 3 -0.001155 -0.002505 0.015080 -0.000356 -0.002175 -0.002449
# 4 0.001104 0.000975 -0.000356 0.036151 -0.002851 0.000445
# 5 -0.004172 -0.000792 -0.002175 -0.002851 0.024353 0.001976
# 6 -0.001633 0.001033 -0.002449 0.000445 0.001976 0.021022
#
#
# Mechanical properties :
#
#
# Convention : Reuss Voigt Hill
#
# Bulk Modulus (GPa) = 43.95657 55.37150 49.66404
# Shear Modulus (GPa) = 37.44037 42.68690 40.06364
#
# Velocity S-wave (km/s) = 3.88944 4.15302 4.02339
# Velocity P-wave (km/s) = 6.15881 6.73569 6.45370
#
# Compressibility (1/GPa) = 0.02274973
#
# Stress axis : x y z
#
# Youngs Moduli (GPa) = 133.83519 90.57245 66.31188
#
# Poissons Ratio (x) = 0.15961 0.07656
# Poissons Ratio (y) = 0.23585 0.16610
# Poissons Ratio (z) = 0.15453 0.22687
#
# Static dielectric constant tensor:
#      x y z
#    x 2.045690 -0.007440 0.048310 
#    y -0.007440 1.994230 0.039790 
#    z 0.048310 0.039790 1.887210 
# 
# From -- ./inp_files/143901.got.cif
#   From: 2010.05.17/outbox.cif.g08.bks.cpg/sg2_72_cif.got.tgz:143901.got - 2010.06.03 11:33:40.
