data_PCOD9065989
_publ_section_title
;
Structure prediction by ZEFSAII (Michael W. Deem and Ramdas Pophale) SiO2 
 PCOD9065989
Probable space group: P -1
;
_chemical_formula_sum "Si O2"
_cell_formula_units_Z 14
_cell_length_a 9.515554
_cell_length_b 8.968273
_cell_length_c 19.295347
_cell_angle_alpha 142.686776
_cell_angle_beta 44.245099
_cell_angle_gamma 138.310201
_cell_volume 632.504379
_symmetry_space_group_name_H-M "P -1"
_symmetry_group_IT_number 2
_symmetry_cell_setting 'triclinic'
loop_
_space_group_symop_operation_xyz
x,y,z
-x,-y,-z
loop_
_atom_site_type_symbol
_atom_site_label
_atom_site_fract_x
_atom_site_fract_y
_atom_site_fract_z
Si Si1 0.353990 0.834406 0.926475
Si Si2 0.529540 0.945593 0.283558
Si Si3 0.901113 0.805015 0.028439
Si Si4 0.710676 0.335494 0.472190
Si Si5 0.468632 0.575855 0.296820
Si Si6 0.286777 0.811264 0.179639
Si Si7 0.041828 0.143811 0.346050
O O1 0.346428 0.534719 0.821803
O O2 0.494869 0.987425 0.865371
O O3 0.111199 0.825163 0.006592
O O4 0.500000 0.000000 0.000000
O O5 0.733175 0.894611 0.161341
O O6 0.444592 0.755068 0.310188
O O7 0.348587 0.871007 0.260165
O O8 0.619232 0.245709 0.395200
O O9 0.772080 0.496035 0.933785
O O10 0.000000 0.000000 0.000000
O O11 0.526458 0.313435 0.586079
O O12 0.895346 0.640754 0.532414
O O13 0.823258 0.138416 0.386070
O O14 0.237558 0.305298 0.281979
O O15 0.085214 0.889837 0.259960
#
# Coordination Sequence:
#
# PCOD9065989 Si02
#       7
#     2   2   2   2   2   2   2
#     4  11  25  44  70  97 129 177 223 277 326 397
#     4  12  24  39  71  95 136 181 215 273 336 395
#     4  12  28  44  66 100 138 171 221 283 333 391
#     4   9  20  41  69  97 131 174 223 265 333 386
#     4   9  21  40  66  97 132 165 223 270 321 391
#     4  11  25  46  63 101 135 171 223 274 334 390
#     4   8  20  42  66  93 137 164 225 274 314 398
#
# _framework density 22.134232999999998
#
# number of rings (size 3 to 8) (size 9 to 14) (size 15 to 20)
#    0.857    0.857    1.429    1.714    8.000    1.714 
#    0.000    0.714    0.000    0.000    0.000    0.000 
#    0.000    0.000    0.000    0.000    0.000    0.000 
#
# Total GULP energy -78186.753573 kJ/mol
# GULP energy per Si atom -5584.768112 kJ/mol
# Density = 2.208385 g / cm^3
# Si number density = 22.134233 Si / 1000 Ang^3
#
#
#
# Elastic Constant Matrix: (Units=GPa)
#
#
# Indices 1 2 3 4 5 6 
#
# 1 81.6777 -1.2548 22.3281 -1.5940 16.2391 13.5441
# 2 -1.2548 32.9065 -7.0945 7.7242 11.2810 -7.4464
# 3 22.3281 -7.0945 90.4743 -2.1326 11.1822 -3.5879
# 4 -1.5940 7.7242 -2.1326 15.1641 4.0789 -2.2346
# 5 16.2391 11.2810 11.1822 4.0789 48.8798 -0.4155
# 6 13.5441 -7.4464 -3.5879 -2.2346 -0.4155 24.9156
#
#
#
# Elastic Compliance Matrix: (Units=1/GPa)
#
#
# Indices 1 2 3 4 5 6 
#
# 1 0.015690 -0.001228 -0.003777 0.001511 -0.004271 -0.009376
# 2 -0.001228 0.040803 0.004661 -0.016179 -0.008623 0.011938
# 3 -0.003777 0.004661 0.012918 0.000576 -0.002779 0.005311
# 4 0.001511 -0.016179 0.000576 0.075451 -0.003186 0.001140
# 5 -0.004271 -0.008623 -0.002779 -0.003186 0.024765 -0.000529
# 6 -0.009376 0.011938 0.005311 0.001140 -0.000529 0.049658
#
#
# Mechanical properties :
#
#
# Convention : Reuss Voigt Hill
#
# Bulk Modulus (GPa) = 14.55135 25.89068 20.22102
# Shear Modulus (GPa) = 20.58620 30.53056 25.55838
#
# Velocity S-wave (km/s) = 3.05300 3.71797 3.40177
# Velocity P-wave (km/s) = 4.36075 5.49123 4.95831
#
# Compressibility (1/GPa) = 0.06872215
#
# Stress axis : x y z
#
# Youngs Moduli (GPa) = 63.73402 24.50824 77.41091
#
# Poissons Ratio (x) = 0.03010 0.29237
# Poissons Ratio (y) = 0.07827 -0.36077
# Poissons Ratio (z) = 0.24071 -0.11422
#
# Static dielectric constant tensor:
#      x y z
#    x 1.803960 0.016410 -0.007180 
#    y 0.016410 1.849420 0.027840 
#    z -0.007180 0.027840 1.834640 
# 
# From -- ./inp_files/555677.got.cif
#   From: 2010.05.17/outbox.cif.g08.bks.cpg/sg2_278_cif.got.tgz:555677.got - 2010.06.03 11:33:40.
