data_PCOD9065399
_publ_section_title
;
Structure prediction by ZEFSAII (Michael W. Deem and Ramdas Pophale) SiO2 
 PCOD9065399
Probable space group: P -1
;
_chemical_formula_sum "Si O2"
_cell_formula_units_Z 16
_cell_length_a 8.963947
_cell_length_b 8.774524
_cell_length_c 25.050439
_cell_angle_alpha 40.361882
_cell_angle_beta 145.241324
_cell_angle_gamma 144.175489
_cell_volume 629.787778
_symmetry_space_group_name_H-M "P -1"
_symmetry_group_IT_number 2
_symmetry_cell_setting 'triclinic'
loop_
_space_group_symop_operation_xyz
x,y,z
-x,-y,-z
loop_
_atom_site_type_symbol
_atom_site_label
_atom_site_fract_x
_atom_site_fract_y
_atom_site_fract_z
Si Si1 0.380579 0.978393 0.071626
Si Si2 0.841681 0.669954 0.923942
Si Si3 0.199470 0.632836 0.375576
Si Si4 0.755113 0.042175 0.354206
Si Si5 0.214359 0.430651 0.547093
Si Si6 0.632972 0.347327 0.146785
Si Si7 0.236832 0.502196 0.238810
Si Si8 0.973376 0.036592 0.202973
O O1 0.328875 0.720151 0.160797
O O2 0.481247 0.219531 0.079491
O O3 0.652559 0.016477 0.103337
O O4 0.078104 0.900226 0.971988
O O5 0.532503 0.519458 0.906025
O O6 0.806589 0.794010 0.825797
O O7 0.000000 0.500000 0.000000
O O8 0.300948 0.602125 0.472489
O O9 0.994037 0.331132 0.372221
O O10 0.487785 0.834675 0.370486
O O11 0.982585 0.762553 0.282664
O O12 0.608862 0.110632 0.242161
O O13 0.925795 0.883617 0.427403
O O14 0.497782 0.478028 0.652872
O O15 0.000000 0.500000 0.500000
O O16 0.986811 0.527808 0.192580
O O17 0.079477 0.207575 0.242931
#
# Coordination Sequence:
#
# PCOD9065399 Si02
#       8
#     2   2   2   2   2   2   2   2
#     4  11  24  48  72 108 153 200 261 320 397 471
#     4  12  25  47  79 112 150 202 266 327 396 474
#     4  12  29  50  82 112 165 207 269 325 404 470
#     4  12  27  54  76 117 160 215 259 330 401 476
#     4  12  28  51  83 118 154 210 268 328 388 480
#     4  11  26  47  76 108 156 206 254 323 399 471
#     4  11  25  50  76 109 159 201 264 317 407 465
#     4  11  26  48  76 115 153 210 257 341 389 475
#
# _framework density 25.405384000000002
#
# number of rings (size 3 to 8) (size 9 to 14) (size 15 to 20)
#    0.000    0.500    3.750    3.000    7.000    2.000 
#    2.250    0.000    0.000    0.000    0.000    0.000 
#    0.000    0.000    0.000    0.000    0.000    0.000 
#
# Total GULP energy -89780.440224 kJ/mol
# GULP energy per Si atom -5611.277514 kJ/mol
# Density = 2.534756 g / cm^3
# Si number density = 25.405384 Si / 1000 Ang^3
#
#
#
# Elastic Constant Matrix: (Units=GPa)
#
#
# Indices 1 2 3 4 5 6 
#
# 1 165.4623 58.3134 47.9446 -8.4636 21.5353 2.4345
# 2 58.3134 121.4192 41.3926 -3.9507 10.1043 1.7507
# 3 47.9446 41.3926 97.6058 -5.1653 3.6382 -15.2569
# 4 -8.4636 -3.9507 -5.1653 44.3523 -5.2844 7.7207
# 5 21.5353 10.1043 3.6382 -5.2844 55.2754 -11.6919
# 6 2.4345 1.7507 -15.2569 7.7207 -11.6919 33.8513
#
#
#
# Elastic Compliance Matrix: (Units=1/GPa)
#
#
# Indices 1 2 3 4 5 6 
#
# 1 0.008462 -0.002540 -0.003429 0.001199 -0.003212 -0.003406
# 2 -0.002540 0.010869 -0.003697 0.000348 -0.001263 -0.002561
# 3 -0.003429 -0.003697 0.014636 -0.000357 0.002718 0.008054
# 4 0.001199 0.000348 -0.000357 0.023792 0.000608 -0.005482
# 5 -0.003212 -0.001263 0.002718 0.000608 0.021301 0.008740
# 6 -0.003406 -0.002561 0.008054 -0.005482 0.008740 0.037817
#
#
# Mechanical properties :
#
#
# Convention : Reuss Voigt Hill
#
# Bulk Modulus (GPa) = 68.32017 75.53205 71.92611
# Shear Modulus (GPa) = 35.43928 42.48491 38.96210
#
# Velocity S-wave (km/s) = 3.73896 4.09379 3.92039
# Velocity P-wave (km/s) = 6.75205 7.22085 6.99038
#
# Compressibility (1/GPa) = 0.01463697
#
# Stress axis : x y z
#
# Youngs Moduli (GPa) = 118.17920 92.00316 68.32493
#
# Poissons Ratio (x) = 0.23365 0.23426
# Poissons Ratio (y) = 0.30013 0.25258
# Poissons Ratio (z) = 0.40519 0.34012
#
# Static dielectric constant tensor:
#      x y z
#    x 1.985860 0.003710 0.000910 
#    y 0.003710 2.030900 -0.009520 
#    z 0.000910 -0.009520 1.983140 
# 
# From -- ./inp_files/606639.got.cif
#   From: 2010.05.17/outbox.cif.g08.bks.cpg/sg2_304_cif.got.tgz:606639.got - 2010.06.03 11:33:40.
