data_PCOD9065468
_publ_section_title
;
Structure prediction by ZEFSAII (Michael W. Deem and Ramdas Pophale) SiO2 
 PCOD9065468
Probable space group: P -1
;
_chemical_formula_sum "Si O2"
_cell_formula_units_Z 16
_cell_length_a 9.223497
_cell_length_b 15.228021
_cell_length_c 17.870386
_cell_angle_alpha 28.791950
_cell_angle_beta 34.484251
_cell_angle_gamma 39.410590
_cell_volume 672.734127
_symmetry_space_group_name_H-M "P -1"
_symmetry_group_IT_number 2
_symmetry_cell_setting 'triclinic'
loop_
_space_group_symop_operation_xyz
x,y,z
-x,-y,-z
loop_
_atom_site_type_symbol
_atom_site_label
_atom_site_fract_x
_atom_site_fract_y
_atom_site_fract_z
Si Si1 0.170399 0.946759 0.894218
Si Si2 0.575596 0.657250 0.900107
Si Si3 0.329819 0.181153 0.402956
Si Si4 0.977884 0.407058 0.496768
Si Si5 0.870115 0.014645 0.672960
Si Si6 0.069336 0.626486 0.805582
Si Si7 0.549286 0.728803 0.437108
Si Si8 0.198229 0.991062 0.129640
O O1 0.309853 0.124886 0.686977
O O2 0.971285 0.913887 0.937847
O O3 0.377668 0.761559 0.966736
O O4 0.000000 0.000000 0.000000
O O5 0.520658 0.808639 0.745241
O O6 0.862835 0.593462 0.855547
O O7 0.500000 0.500000 0.000000
O O8 0.241803 0.340207 0.384620
O O9 0.500000 0.000000 0.500000
O O10 0.057892 0.158974 0.498613
O O11 0.767372 0.569556 0.427287
O O12 0.852913 0.220889 0.694279
O O13 0.000000 0.500000 0.500000
O O14 0.979534 0.844359 0.700719
O O15 0.612720 0.136478 0.656737
O O16 0.886286 0.926391 0.814717
O O17 0.355773 0.627645 0.646587
O O18 0.000000 0.500000 0.000000
O O19 0.500000 0.000000 0.000000
#
# Coordination Sequence:
#
# PCOD9065468 Si02
#       8
#     2   2   2   2   2   2   2   2
#     4  12  27  49  80 111 157 211 256 328 403 479
#     4  12  28  48  73 114 156 200 268 324 392 471
#     4  11  26  48  77 112 153 204 259 321 398 474
#     4  11  26  45  78 114 152 202 265 321 398 476
#     4  11  24  48  75 105 149 207 258 323 395 465
#     4  12  29  47  76 114 158 210 262 328 398 475
#     4  12  25  50  80 110 155 205 268 324 401 475
#     4  11  26  46  72 112 154 198 262 323 401 469
#
# _framework density 23.783542000000001
#
# number of rings (size 3 to 8) (size 9 to 14) (size 15 to 20)
#    0.000    0.500    3.750    3.375    8.750    2.000 
#    0.000    0.000    0.000    0.000    0.000    0.000 
#    0.000    0.000    0.000    0.000    0.000    0.000 
#
# Total GULP energy -89151.478914 kJ/mol
# GULP energy per Si atom -5571.967432 kJ/mol
# Density = 2.372941 g / cm^3
# Si number density = 23.783542 Si / 1000 Ang^3
#
#
#
# Elastic Constant Matrix: (Units=GPa)
#
#
# Indices 1 2 3 4 5 6 
#
# 1 132.7380 13.9981 21.9754 6.9938 -6.6943 -8.0007
# 2 13.9981 135.4684 1.9130 -6.8362 -6.5719 -2.2181
# 3 21.9754 1.9130 51.8555 2.3952 -1.8708 -2.5674
# 4 6.9938 -6.8362 2.3952 26.5466 -3.8714 -2.2927
# 5 -6.6943 -6.5719 -1.8708 -3.8714 42.3141 -9.2248
# 6 -8.0007 -2.2181 -2.5674 -2.2927 -9.2248 37.4916
#
#
#
# Elastic Compliance Matrix: (Units=1/GPa)
#
#
# Indices 1 2 3 4 5 6 
#
# 1 0.008435 -0.000826 -0.003330 -0.001800 0.001271 0.001726
# 2 -0.000826 0.007675 0.000044 0.002472 0.001462 0.000792
# 3 -0.003330 0.000044 0.020790 -0.000847 0.000493 0.000785
# 4 -0.001800 0.002472 -0.000847 0.039777 0.004403 0.003220
# 5 0.001271 0.001462 0.000493 0.004403 0.026026 0.007064
# 6 0.001726 0.000792 0.000785 0.003220 0.007064 0.029077
#
#
# Mechanical properties :
#
#
# Convention : Reuss Voigt Hill
#
# Bulk Modulus (GPa) = 34.86974 43.98166 39.42570
# Shear Modulus (GPa) = 33.43156 40.08215 36.75686
#
# Velocity S-wave (km/s) = 3.75328 4.10968 3.93552
# Velocity P-wave (km/s) = 5.78584 6.40718 6.10442
#
# Compressibility (1/GPa) = 0.02867816
#
# Stress axis : x y z
#
# Youngs Moduli (GPa) = 118.55551 130.29160 48.10103
#
# Poissons Ratio (x) = 0.10756 0.16016
# Poissons Ratio (y) = 0.09787 -0.00214
# Poissons Ratio (z) = 0.39475 -0.00580
#
# Static dielectric constant tensor:
#      x y z
#    x 1.915110 -0.384990 -0.031730 
#    y -0.384990 17.478840 3.597540 
#    z -0.031730 3.597540 2.903710 
# 
# From -- ./inp_files/561322.got.cif
#   From: 2010.05.17/outbox.cif.g08.bks.cpg/sg2_281_cif.got.tgz:561322.got - 2010.06.03 11:33:40.
