data_PCOD9065364
_publ_section_title
;
Structure prediction by ZEFSAII (Michael W. Deem and Ramdas Pophale) SiO2 
 PCOD9065364
Probable space group: P -1
;
_chemical_formula_sum "Si O2"
_cell_formula_units_Z 14
_cell_length_a 11.858785
_cell_length_b 20.645363
_cell_length_c 19.580554
_cell_angle_alpha 19.108583
_cell_angle_beta 22.915067
_cell_angle_gamma 31.115468
_cell_volume 607.235979
_symmetry_space_group_name_H-M "P -1"
_symmetry_group_IT_number 2
_symmetry_cell_setting 'triclinic'
loop_
_space_group_symop_operation_xyz
x,y,z
-x,-y,-z
loop_
_atom_site_type_symbol
_atom_site_label
_atom_site_fract_x
_atom_site_fract_y
_atom_site_fract_z
Si Si1 0.457005 0.159825 0.780261
Si Si2 0.931791 0.185286 0.595278
Si Si3 0.161928 0.141067 0.211012
Si Si4 0.174692 0.475261 0.290216
Si Si5 0.476546 0.898290 0.688942
Si Si6 0.400649 0.476861 0.378252
Si Si7 0.425931 0.747420 0.628447
O O1 0.653126 0.239672 0.655434
O O2 0.417559 0.338884 0.573208
O O3 0.637055 0.996871 0.804999
O O4 0.171725 0.026105 0.100271
O O5 0.048132 0.345646 0.426559
O O6 0.199362 0.161658 0.419631
O O7 0.912422 0.226229 0.219400
O O8 0.362122 0.330126 0.942275
O O9 0.000000 0.000000 0.500000
O O10 0.475682 0.400822 0.221530
O O11 0.920529 0.452258 0.511576
O O12 0.250734 0.705440 0.003450
O O13 0.500000 0.000000 0.500000
O O14 0.415659 0.043937 0.639380
O O15 0.463192 0.337810 0.418753
#
# Coordination Sequence:
#
# PCOD9065364 Si02
#       7
#     2   2   2   2   2   2   2
#     4  11  25  47  76 105 148 189 249 300 357 432
#     4  11  24  48  71 109 144 193 242 299 357 429
#     4  12  26  49  74 106 146 190 246 300 358 436
#     4  12  28  47  73 110 150 188 245 300 364 438
#     4  12  26  46  72 104 150 194 237 295 362 433
#     4  12  28  48  75 107 147 192 243 300 368 428
#     4  12  28  45  76 108 144 192 240 304 367 425
#
# _framework density 23.055285999999999
#
# number of rings (size 3 to 8) (size 9 to 14) (size 15 to 20)
#    0.000    0.286    5.714    2.143    4.000    1.143 
#    0.000    0.000    0.000    0.000    0.000    0.000 
#    0.000    0.000    0.000    0.000    0.000    0.000 
#
# Total GULP energy -78372.387763 kJ/mol
# GULP energy per Si atom -5598.027697 kJ/mol
# Density = 2.300281 g / cm^3
# Si number density = 23.055286 Si / 1000 Ang^3
#
#
#
# Elastic Constant Matrix: (Units=GPa)
#
#
# Indices 1 2 3 4 5 6 
#
# 1 90.7241 21.0820 60.6150 -18.2060 -18.4152 -0.6025
# 2 21.0820 94.1012 31.6322 2.5779 -9.9976 -2.8821
# 3 60.6150 31.6322 167.6272 -16.6304 -10.8196 -2.3842
# 4 -18.2060 2.5779 -16.6304 28.4842 -1.3372 1.5844
# 5 -18.4152 -9.9976 -10.8196 -1.3372 17.7959 4.1463
# 6 -0.6025 -2.8821 -2.3842 1.5844 4.1463 34.8404
#
#
#
# Elastic Compliance Matrix: (Units=1/GPa)
#
#
# Indices 1 2 3 4 5 6 
#
# 1 0.020901 -0.001372 -0.004928 0.011681 0.019422 -0.002932
# 2 -0.001372 0.012051 -0.001802 -0.002864 0.003920 0.000514
# 3 -0.004928 -0.001802 0.008194 0.001725 -0.001088 0.000378
# 4 0.011681 -0.002864 0.001725 0.044794 0.015786 -0.003833
# 5 0.019422 0.003920 -0.001088 0.015786 0.081302 -0.009808
# 6 -0.002932 0.000514 0.000378 -0.003833 -0.009808 0.030061
#
#
# Mechanical properties :
#
#
# Convention : Reuss Voigt Hill
#
# Bulk Modulus (GPa) = 40.09446 64.34566 52.22006
# Shear Modulus (GPa) = 22.54078 32.16566 27.35322
#
# Velocity S-wave (km/s) = 3.13019 3.73923 3.44818
# Velocity P-wave (km/s) = 5.52199 6.82732 6.20905
#
# Compressibility (1/GPa) = 0.02494110
#
# Stress axis : x y z
#
# Youngs Moduli (GPa) = 47.84519 82.98382 122.04196
#
# Poissons Ratio (x) = 0.11388 0.60144
# Poissons Ratio (y) = 0.06566 0.21988
# Poissons Ratio (z) = 0.23579 0.14951
#
# Static dielectric constant tensor:
#      x y z
#    x 1.873970 -0.035400 -0.002110 
#    y -0.035400 1.900110 0.016460 
#    z -0.002110 0.016460 1.815190 
# 
# From -- ./inp_files/118061.got.cif
#   From: 2010.05.17/outbox.cif.g08.bks.cpg/sg2_60_cif.got.tgz:118061.got - 2010.06.03 11:33:40.
