data_PCOD9065110
_publ_section_title
;
Structure prediction by ZEFSAII (Michael W. Deem and Ramdas Pophale) SiO2 
 PCOD9065110
Probable space group: P -1
;
_chemical_formula_sum "Si O2"
_cell_formula_units_Z 15
_cell_length_a 9.352024
_cell_length_b 11.864001
_cell_length_c 8.763581
_cell_angle_alpha 117.287010
_cell_angle_beta 51.835268
_cell_angle_gamma 106.590636
_cell_volume 679.415400
_symmetry_space_group_name_H-M "P -1"
_symmetry_group_IT_number 2
_symmetry_cell_setting 'triclinic'
loop_
_space_group_symop_operation_xyz
x,y,z
-x,-y,-z
loop_
_atom_site_type_symbol
_atom_site_label
_atom_site_fract_x
_atom_site_fract_y
_atom_site_fract_z
Si Si1 0.190199 0.048555 0.467546
Si Si2 0.525238 0.154748 0.815841
Si Si3 0.149708 0.088651 0.878732
Si Si4 0.000000 0.500000 0.000000
Si Si5 0.378364 0.405249 0.214179
Si Si6 0.375869 0.677896 0.422737
Si Si7 0.028043 0.365685 0.214362
Si Si8 0.314350 0.326502 0.544066
O O1 0.185437 0.054295 0.658552
O O2 0.227871 0.190611 0.473936
O O3 0.344330 0.947843 0.258820
O O4 0.000000 0.000000 0.500000
O O5 0.334960 0.090131 0.854928
O O6 0.609555 0.209216 0.636946
O O7 0.492146 0.281961 0.014285
O O8 0.077756 0.232048 0.021003
O O9 0.000000 0.000000 0.000000
O O10 0.175731 0.407977 0.786717
O O11 0.976804 0.530104 0.849700
O O12 0.449481 0.546470 0.219353
O O13 0.182683 0.391777 0.253679
O O14 0.363466 0.399701 0.403142
O O15 0.505351 0.703897 0.496577
O O16 0.169544 0.652624 0.591943
#
# Coordination Sequence:
#
# PCOD9065110 Si02
#       8
#     2   2   2   1   2   2   2   2
#     4  12  28  45  69 105 140 187 236 293 348 416
#     4  11  26  47  72  99 146 184 235 293 346 422
#     4  11  24  47  72 101 138 189 235 283 358 421
#     4  12  24  48  72  98 148 180 228 294 350 410
#     4  11  26  46  70 109 139 186 235 288 352 420
#     4  12  24  47  73 104 139 186 232 292 352 421
#     4  11  25  44  75 105 138 188 234 287 355 419
#     4  12  27  46  71 103 144 177 242 284 358 419
#
# _framework density 22.077804
#
# number of rings (size 3 to 8) (size 9 to 14) (size 15 to 20)
#    0.000    0.533    4.000    3.200    7.467    2.667 
#    0.000    0.000    0.000    0.000    0.000    0.000 
#    0.000    0.000    0.000    0.000    0.000    0.000 
#
# Total GULP energy -83735.495024 kJ/mol
# GULP energy per Si atom -5582.366335 kJ/mol
# Density = 2.202755 g / cm^3
# Si number density = 22.077804 Si / 1000 Ang^3
#
#
#
# Elastic Constant Matrix: (Units=GPa)
#
#
# Indices 1 2 3 4 5 6 
#
# 1 34.3567 -1.8080 16.8316 17.9525 -9.1936 1.5599
# 2 -1.8080 41.9524 -7.6550 3.8089 -4.4318 5.9839
# 3 16.8316 -7.6550 69.8962 11.8087 -10.4838 -5.2918
# 4 17.9525 3.8089 11.8087 33.6632 -11.7120 10.2196
# 5 -9.1936 -4.4318 -10.4838 -11.7120 30.2855 6.1738
# 6 1.5599 5.9839 -5.2918 10.2196 6.1738 31.9608
#
#
#
# Elastic Compliance Matrix: (Units=1/GPa)
#
#
# Indices 1 2 3 4 5 6 
#
# 1 0.044096 0.002661 -0.006066 -0.021532 0.002801 0.002689
# 2 0.002661 0.026027 0.003028 -0.001790 0.006010 -0.005090
# 3 -0.006066 0.003028 0.017274 -0.003144 0.002741 0.003065
# 4 -0.021532 -0.001790 -0.003144 0.054546 0.017267 -0.019911
# 5 0.002801 0.006010 0.002741 0.017267 0.045455 -0.015110
# 6 0.002689 -0.005090 0.003065 -0.019911 -0.015110 0.041903
#
#
# Mechanical properties :
#
#
# Convention : Reuss Voigt Hill
#
# Bulk Modulus (GPa) = 11.54161 17.88251 14.71206
# Shear Modulus (GPa) = 19.30971 28.43767 23.87369
#
# Velocity S-wave (km/s) = 2.96061 3.59286 3.29195
# Velocity P-wave (km/s) = 4.11412 5.03278 4.59646
#
# Compressibility (1/GPa) = 0.08664305
#
# Stress axis : x y z
#
# Youngs Moduli (GPa) = 22.67756 38.42131 57.89167
#
# Poissons Ratio (x) = -0.10223 0.35117
# Poissons Ratio (y) = -0.06034 -0.17531
# Poissons Ratio (z) = 0.13756 -0.11635
#
# Static dielectric constant tensor:
#      x y z
#    x 1.758370 -0.001300 -0.002070 
#    y -0.001300 1.814970 0.018030 
#    z -0.002070 0.018030 1.838500 
# 
# From -- ./inp_files/186249.got.cif
#   From: 2010.05.17/outbox.cif.g08.bks.cpg/sg2_94_cif.got.tgz:186249.got - 2010.06.03 11:33:40.
