data_PCOD9065896
_publ_section_title
;
Structure prediction by ZEFSAII (Michael W. Deem and Ramdas Pophale) SiO2 
 PCOD9065896
Probable space group: P -1
;
_chemical_formula_sum "Si O2"
_cell_formula_units_Z 14
_cell_length_a 4.899073
_cell_length_b 11.570250
_cell_length_c 15.723810
_cell_angle_alpha 142.139955
_cell_angle_beta 85.321492
_cell_angle_gamma 98.590000
_cell_volume 539.902119
_symmetry_space_group_name_H-M "P -1"
_symmetry_group_IT_number 2
_symmetry_cell_setting 'triclinic'
loop_
_space_group_symop_operation_xyz
x,y,z
-x,-y,-z
loop_
_atom_site_type_symbol
_atom_site_label
_atom_site_fract_x
_atom_site_fract_y
_atom_site_fract_z
Si Si1 0.945085 0.726201 0.973251
Si Si2 0.607371 0.499199 0.094135
Si Si3 0.121903 0.346381 0.254904
Si Si4 0.665448 0.146351 0.667534
Si Si5 0.785192 0.209515 0.523616
Si Si6 0.430069 0.695650 0.657437
Si Si7 0.840734 0.989127 0.728285
O O1 0.105927 0.567689 0.923184
O O2 0.003740 0.742584 0.881248
O O3 0.620342 0.655231 0.945586
O O4 0.018150 0.915690 0.136088
O O5 0.554125 0.705917 0.247871
O O6 0.500000 0.500000 0.000000
O O7 0.887931 0.324321 0.320811
O O8 0.218028 0.569977 0.364588
O O9 0.389154 0.270726 0.241794
O O10 0.870383 0.186330 0.606371
O O11 0.502932 0.932331 0.549355
O O12 0.803097 0.160688 0.764773
O O13 0.978946 0.136631 0.405281
O O14 0.500000 0.500000 0.500000
O O15 0.554453 0.865215 0.690949
#
# Coordination Sequence:
#
# PCOD9065896 Si02
#       7
#     2   2   2   2   2   2   2
#     4  12  28  46  74 109 151 196 242 307 368 441
#     4  12  24  45  71 107 152 197 244 288 375 444
#     4  12  27  50  75 110 147 196 250 302 370 434
#     4  11  25  43  74 111 145 196 243 309 364 447
#     4  11  25  44  74 107 149 187 248 305 368 435
#     4  12  27  49  81 105 145 195 250 309 364 435
#     4  12  27  45  75 107 149 192 249 305 372 436
#
# _framework density 25.930624000000002
#
# number of rings (size 3 to 8) (size 9 to 14) (size 15 to 20)
#    0.000    0.286    4.286    3.857    4.000    2.286 
#    0.000    0.000    0.000    0.000    0.000    0.000 
#    0.000    0.000    0.000    0.000    0.000    0.000 
#
# Total GULP energy -78487.064276 kJ/mol
# GULP energy per Si atom -5606.218877 kJ/mol
# Density = 2.587161 g / cm^3
# Si number density = 25.930624 Si / 1000 Ang^3
#
#
#
# Elastic Constant Matrix: (Units=GPa)
#
#
# Indices 1 2 3 4 5 6 
#
# 1 68.0390 14.7540 5.9335 -1.3690 8.5799 6.8101
# 2 14.7540 146.3062 35.8284 -10.2649 0.3366 14.1916
# 3 5.9335 35.8284 127.4898 -17.7298 6.3335 0.2437
# 4 -1.3690 -10.2649 -17.7298 42.1334 -1.4832 3.6723
# 5 8.5799 0.3366 6.3335 -1.4832 30.2039 -3.6771
# 6 6.8101 14.1916 0.2437 3.6723 -3.6771 51.1963
#
#
#
# Elastic Compliance Matrix: (Units=1/GPa)
#
#
# Indices 1 2 3 4 5 6 
#
# 1 0.015801 -0.001346 -0.000097 0.000160 -0.004698 -0.002077
# 2 -0.001346 0.007729 -0.001964 0.001206 0.000523 -0.002003
# 3 -0.000097 -0.001964 0.008927 0.003202 -0.001645 0.000167
# 4 0.000160 0.001206 0.003202 0.025580 0.000259 -0.002187
# 5 -0.004698 0.000523 -0.001645 0.000259 0.035159 0.002994
# 6 -0.002077 -0.002003 0.000167 -0.002187 0.002994 0.020735
#
#
# Mechanical properties :
#
#
# Convention : Reuss Voigt Hill
#
# Bulk Modulus (GPa) = 38.99749 50.54075 44.76912
# Shear Modulus (GPa) = 38.67111 43.72800 41.19955
#
# Velocity S-wave (km/s) = 3.86596 4.11097 3.99035
# Velocity P-wave (km/s) = 5.91603 6.48587 6.20749
#
# Compressibility (1/GPa) = 0.02564268
#
# Stress axis : x y z
#
# Youngs Moduli (GPa) = 63.28542 129.37647 112.01988
#
# Poissons Ratio (x) = 0.17415 0.01092
# Poissons Ratio (y) = 0.08519 0.22001
# Poissons Ratio (z) = 0.00617 0.25410
#
# Static dielectric constant tensor:
#      x y z
#    x 2.014410 -0.057510 0.032330 
#    y -0.057510 2.032530 -0.061140 
#    z 0.032330 -0.061140 2.099090 
# 
# From -- ./inp_files/101032.got.cif
#   From: 2010.05.17/outbox.cif.g08.bks.cpg/sg2_51_cif.got.tgz:101032.got - 2010.06.03 11:33:40.
