data_PCOD9065981
_publ_section_title
;
Structure prediction by ZEFSAII (Michael W. Deem and Ramdas Pophale) SiO2 
 PCOD9065981
Probable space group: P -1
;
_chemical_formula_sum "Si O2"
_cell_formula_units_Z 16
_cell_length_a 8.404496
_cell_length_b 8.475378
_cell_length_c 11.170622
_cell_angle_alpha 57.884906
_cell_angle_beta 84.618544
_cell_angle_gamma 83.925919
_cell_volume 669.492213
_symmetry_space_group_name_H-M "P -1"
_symmetry_group_IT_number 2
_symmetry_cell_setting 'triclinic'
loop_
_space_group_symop_operation_xyz
x,y,z
-x,-y,-z
loop_
_atom_site_type_symbol
_atom_site_label
_atom_site_fract_x
_atom_site_fract_y
_atom_site_fract_z
Si Si1 0.436311 0.688739 0.492215
Si Si2 0.932923 0.295863 0.561042
Si Si3 0.359444 0.075480 0.780052
Si Si4 0.938041 0.695282 0.700969
Si Si5 0.847033 0.685695 0.113363
Si Si6 0.027603 0.935662 0.826563
Si Si7 0.534054 0.735228 0.979090
Si Si8 0.426691 0.403519 0.228908
O O1 0.500000 0.500000 0.500000
O O2 0.252612 0.708911 0.457962
O O3 0.548229 0.843714 0.370550
O O4 0.465076 0.666112 0.640089
O O5 0.023362 0.222652 0.464426
O O6 0.000000 0.500000 0.500000
O O7 0.965204 0.151720 0.725215
O O8 0.218694 0.941643 0.812962
O O9 0.493552 0.954800 0.893453
O O10 0.264813 0.235589 0.801306
O O11 0.753278 0.652405 0.724631
O O12 0.971465 0.825091 0.758643
O O13 0.051042 0.504261 0.786522
O O14 0.714911 0.665481 0.027220
O O15 0.960342 0.835542 0.987995
O O16 0.505748 0.677205 0.868003
O O17 0.427431 0.626327 0.122711
#
# Coordination Sequence:
#
# PCOD9065981 Si02
#       8
#     2   2   2   2   2   2   2   2
#     4  12  26  47  72 104 142 189 235 291 360 424
#     4  12  27  48  74 103 145 189 238 293 358 430
#     4  12  27  45  73 105 146 186 241 295 355 424
#     4  12  25  46  74 104 147 191 240 294 354 425
#     4  12  25  47  73 106 145 192 239 297 356 421
#     4  12  26  45  70 109 142 188 243 293 359 422
#     4  11  25  44  70 107 143 189 239 293 359 418
#     4  11  25  44  72 104 147 187 236 293 356 423
#
# _framework density 23.898709
#
# number of rings (size 3 to 8) (size 9 to 14) (size 15 to 20)
#    0.000    0.250    1.250    8.250    5.250    2.500 
#    0.000    0.000    0.000    0.000    0.000    0.000 
#    0.000    0.000    0.000    0.000    0.000    0.000 
#
# Total GULP energy -89621.617024 kJ/mol
# GULP energy per Si atom -5601.351064 kJ/mol
# Density = 2.384431 g / cm^3
# Si number density = 23.898709 Si / 1000 Ang^3
#
#
#
# Elastic Constant Matrix: (Units=GPa)
#
#
# Indices 1 2 3 4 5 6 
#
# 1 116.9089 10.0524 40.1902 -0.1294 -6.9043 5.1158
# 2 10.0524 58.6143 12.2143 0.9650 6.2105 8.5254
# 3 40.1902 12.2143 144.9622 -0.2836 -5.4738 5.0741
# 4 -0.1294 0.9650 -0.2836 38.0738 1.7337 9.0567
# 5 -6.9043 6.2105 -5.4738 1.7337 51.7362 -4.5114
# 6 5.1158 8.5254 5.0741 9.0567 -4.5114 32.3260
#
#
#
# Elastic Compliance Matrix: (Units=1/GPa)
#
#
# Indices 1 2 3 4 5 6 
#
# 1 0.009607 -0.001139 -0.002501 0.000165 0.001086 -0.000722
# 2 -0.001139 0.018559 -0.001177 0.000889 -0.002987 -0.005195
# 3 -0.002501 -0.001177 0.007730 0.000165 0.000579 -0.000473
# 4 0.000165 0.000889 0.000165 0.028339 -0.001756 -0.008471
# 5 0.001086 -0.002987 0.000579 -0.001756 0.020288 0.003848
# 6 -0.000722 -0.005195 -0.000473 -0.008471 0.003848 0.035404
#
#
# Mechanical properties :
#
#
# Convention : Reuss Voigt Hill
#
# Bulk Modulus (GPa) = 38.07897 49.48878 43.78388
# Shear Modulus (GPa) = 36.14934 41.62910 38.88922
#
# Velocity S-wave (km/s) = 3.89344 4.17813 4.03830
# Velocity P-wave (km/s) = 6.01498 6.63539 6.33279
#
# Compressibility (1/GPa) = 0.02626121
#
# Stress axis : x y z
#
# Youngs Moduli (GPa) = 104.08741 53.88250 129.37223
#
# Poissons Ratio (x) = 0.06138 0.32356
# Poissons Ratio (y) = 0.11858 0.15228
# Poissons Ratio (z) = 0.26032 0.06343
#
# Static dielectric constant tensor:
#      x y z
#    x 1.811560 -0.010670 0.028490 
#    y -0.010670 1.951810 -0.020010 
#    z 0.028490 -0.020010 1.901160 
# 
# From -- ./inp_files/381018.got.cif
#   From: 2010.05.17/outbox.cif.g08.bks.cpg/sg2_191_cif.got.tgz:381018.got - 2010.06.03 11:33:40.
