data_PCOD9065737
_publ_section_title
;
Structure prediction by ZEFSAII (Michael W. Deem and Ramdas Pophale) SiO2 
 PCOD9065737
Probable space group: P -1
;
_chemical_formula_sum "Si O2"
_cell_formula_units_Z 16
_cell_length_a 15.628436
_cell_length_b 25.665647
_cell_length_c 5.341299
_cell_angle_alpha 97.567738
_cell_angle_beta 85.078871
_cell_angle_gamma 162.112398
_cell_volume 646.803062
_symmetry_space_group_name_H-M "P -1"
_symmetry_group_IT_number 2
_symmetry_cell_setting 'triclinic'
loop_
_space_group_symop_operation_xyz
x,y,z
-x,-y,-z
loop_
_atom_site_type_symbol
_atom_site_label
_atom_site_fract_x
_atom_site_fract_y
_atom_site_fract_z
Si Si1 0.783327 0.960553 0.985514
Si Si2 0.839079 0.088051 0.368662
Si Si3 0.969294 0.639305 0.051137
Si Si4 0.774378 0.769325 0.351409
Si Si5 0.437986 0.257404 0.808760
Si Si6 0.681194 0.184076 0.432594
Si Si7 0.712700 0.586536 0.854215
Si Si8 0.674991 0.304328 0.483619
O O1 0.544629 0.808311 0.746434
O O2 0.800810 0.917127 0.111014
O O3 0.091913 0.150743 0.911448
O O4 0.691090 0.963845 0.121143
O O5 0.990435 0.128570 0.507610
O O6 0.077697 0.260119 0.277560
O O7 0.642845 0.014745 0.524372
O O8 0.176718 0.748165 0.826865
O O9 0.678217 0.435443 0.981195
O O10 0.881995 0.648790 0.042874
O O11 0.121217 0.717796 0.325203
O O12 0.694842 0.784199 0.405517
O O13 0.489230 0.571484 0.340520
O O14 0.613624 0.308933 0.719407
O O15 0.644856 0.225406 0.476127
O O16 0.500000 0.500000 0.000000
O O17 0.000000 0.500000 0.500000
#
# Coordination Sequence:
#
# PCOD9065737 Si02
#       8
#     2   2   2   2   2   2   2   2
#     4  12  23  43  67 107 143 199 245 307 374 446
#     4  12  26  44  76 104 149 199 252 314 379 444
#     4  11  28  48  77 113 151 196 253 315 371 456
#     4  11  25  46  69 105 146 191 258 307 375 449
#     4  11  25  41  69 108 146 199 246 308 372 446
#     4  12  25  47  73 111 154 193 255 306 379 445
#     4  11  26  52  78 107 143 200 250 316 381 445
#     4  12  24  41  69 101 150 198 239 299 372 449
#
# _framework density 24.737048999999999
#
# number of rings (size 3 to 8) (size 9 to 14) (size 15 to 20)
#    0.000    0.500    5.000    2.250    0.000    8.000 
#    0.000    0.000    0.000    0.000    0.000    0.000 
#    0.000    0.000    0.000    0.000    0.000    0.000 
#
# Total GULP energy -89251.699790 kJ/mol
# GULP energy per Si atom -5578.231237 kJ/mol
# Density = 2.468075 g / cm^3
# Si number density = 24.737049 Si / 1000 Ang^3
#
#
#
# Elastic Constant Matrix: (Units=GPa)
#
#
# Indices 1 2 3 4 5 6 
#
# 1 137.8660 3.3541 22.3032 8.1999 19.4171 0.0171
# 2 3.3541 95.6757 30.2164 22.0405 7.7729 -16.4718
# 3 22.3032 30.2164 36.5100 -16.6982 13.9346 -13.3160
# 4 8.1999 22.0405 -16.6982 -1.8107 8.5075 7.0551
# 5 19.4171 7.7729 13.9346 8.5075 40.8729 -3.5101
# 6 0.0171 -16.4718 -13.3160 7.0551 -3.5101 40.6848
#
#
#
# Elastic Compliance Matrix: (Units=1/GPa)
#
#
# Indices 1 2 3 4 5 6 
#
# 1 0.007764 -0.000981 -0.000927 0.004474 -0.004276 -0.001848
# 2 -0.000981 0.006410 0.004239 0.014461 -0.005120 0.001034
# 3 -0.000927 0.004239 0.014341 -0.029831 0.001963 0.011753
# 4 0.004474 0.014461 -0.029831 -0.025282 0.010677 0.001395
# 5 -0.004276 -0.005120 0.001963 0.010677 0.024479 -0.001168
# 6 -0.001848 0.001034 0.011753 0.001395 -0.001168 0.028503
#
#
# Mechanical properties :
#
#
# Convention : Reuss Voigt Hill
#
# Bulk Modulus (GPa) = 30.14094 42.42213 36.28153
# Shear Modulus (GPa) = 79.85964 30.22794 55.04379
#
# Velocity S-wave (km/s) = 5.68801 3.49946 4.72227
# Velocity P-wave (km/s) = 7.43969 5.78919 6.66572
#
# Compressibility (1/GPa) = 0.03317747
#
# Stress axis : x y z
#
# Youngs Moduli (GPa) = 128.80734 156.00721 69.72946
#
# Poissons Ratio (x) = 0.15304 0.06463
# Poissons Ratio (y) = 0.12636 -0.29560
# Poissons Ratio (z) = 0.11939 -0.66135
#
# Static dielectric constant tensor:
#      x y z
#    x 1.946860 0.034360 -0.015900 
#    y 0.034360 2.009940 -0.062890 
#    z -0.015900 -0.062890 2.093010 
# 
# From -- ./inp_files/101157.got.cif
#   From: 2010.05.17/outbox.cif.g08.bks.cpg/sg2_51_cif.got.tgz:101157.got - 2010.06.03 11:33:40.
