data_PCOD9065025
_publ_section_title
;
Structure prediction by ZEFSAII (Michael W. Deem and Ramdas Pophale) SiO2 
 PCOD9065025
Probable space group: P -1
;
_chemical_formula_sum "Si O2"
_cell_formula_units_Z 14
_cell_length_a 14.810502
_cell_length_b 8.961582
_cell_length_c 9.258076
_cell_angle_alpha 98.979517
_cell_angle_beta 48.331399
_cell_angle_gamma 65.035853
_cell_volume 636.048279
_symmetry_space_group_name_H-M "P -1"
_symmetry_group_IT_number 2
_symmetry_cell_setting 'triclinic'
loop_
_space_group_symop_operation_xyz
x,y,z
-x,-y,-z
loop_
_atom_site_type_symbol
_atom_site_label
_atom_site_fract_x
_atom_site_fract_y
_atom_site_fract_z
Si Si1 0.578030 0.786027 0.808496
Si Si2 0.926096 0.395684 0.549619
Si Si3 0.433651 0.016751 0.726190
Si Si4 0.270442 0.478728 0.959479
Si Si5 0.504825 0.538741 0.829936
Si Si6 0.875656 0.940521 0.958998
Si Si7 0.200554 0.666221 0.762950
O O1 0.747224 0.575423 0.676849
O O2 0.444519 0.765929 0.938901
O O3 0.586992 0.832300 0.641399
O O4 0.500000 0.000000 0.000000
O O5 0.000000 0.500000 0.500000
O O6 0.038316 0.178846 0.303773
O O7 0.896561 0.357609 0.736090
O O8 0.344032 0.253294 0.904272
O O9 0.500000 0.000000 0.500000
O O10 0.293509 0.011164 0.851495
O O11 0.393879 0.506818 0.872353
O O12 0.250303 0.505660 0.813008
O O13 0.667146 0.413808 0.523320
O O14 0.500000 0.500000 0.000000
O O15 0.023503 0.769761 0.893226
O O16 0.829174 0.152813 0.085611
#
# Coordination Sequence:
#
# PCOD9065025 Si02
#       7
#     2   2   2   2   2   2   2
#     4  12  23  44  68 101 137 184 231 289 346 418
#     4  12  24  46  71 101 143 186 239 291 349 420
#     4  12  25  42  68 100 138 184 237 285 353 418
#     4  12  24  42  69 104 139 187 236 293 353 411
#     4  12  22  43  71 101 143 181 235 291 349 420
#     4  11  24  47  68  99 145 187 233 294 354 423
#     4  11  25  43  71 104 144 183 235 294 356 420
#
# _framework density 22.010909000000002
#
# number of rings (size 3 to 8) (size 9 to 14) (size 15 to 20)
#    0.000    0.286    5.714    3.000    0.000    2.286 
#    0.000    4.286    0.000    0.000    0.000    0.000 
#    0.000    0.000    0.000    0.000    0.000    0.000 
#
# Total GULP energy -78040.279780 kJ/mol
# GULP energy per Si atom -5574.305699 kJ/mol
# Density = 2.196081 g / cm^3
# Si number density = 22.010909 Si / 1000 Ang^3
#
#
#
# Elastic Constant Matrix: (Units=GPa)
#
#
# Indices 1 2 3 4 5 6 
#
# 1 119.0971 27.9265 32.9834 -5.3653 11.5270 3.5704
# 2 27.9265 79.7979 22.4388 -17.7111 14.8783 -13.7693
# 3 32.9834 22.4388 126.8207 -19.3027 33.1949 -17.9780
# 4 -5.3653 -17.7111 -19.3027 33.7077 1.2607 20.6228
# 5 11.5270 14.8783 33.1949 1.2607 48.7868 -0.0424
# 6 3.5704 -13.7693 -17.9780 20.6228 -0.0424 47.2237
#
#
#
# Elastic Compliance Matrix: (Units=1/GPa)
#
#
# Indices 1 2 3 4 5 6 
#
# 1 0.009894 -0.003280 -0.002444 0.000071 0.000321 -0.002665
# 2 -0.003280 0.016397 0.000634 0.007391 -0.004846 0.002038
# 3 -0.002444 0.000634 0.011564 0.005371 -0.007621 0.002420
# 4 0.000071 0.007391 0.005371 0.046863 -0.007150 -0.016278
# 5 0.000321 -0.004846 -0.007621 -0.007150 0.027268 -0.001192
# 6 -0.002665 0.002038 0.002420 -0.016278 -0.001192 0.030000
#
#
# Mechanical properties :
#
#
# Convention : Reuss Voigt Hill
#
# Bulk Modulus (GPa) = 36.13276 54.71256 45.42266
# Shear Modulus (GPa) = 30.98066 42.10145 36.54105
#
# Velocity S-wave (km/s) = 3.75575 4.37825 4.07889
# Velocity P-wave (km/s) = 5.93793 7.10421 6.54709
#
# Compressibility (1/GPa) = 0.02767572
#
# Stress axis : x y z
#
# Youngs Moduli (GPa) = 101.06701 60.98786 86.47678
#
# Poissons Ratio (x) = 0.20001 0.21137
# Poissons Ratio (y) = 0.33145 -0.05484
# Poissons Ratio (z) = 0.24703 -0.03868
#
# Static dielectric constant tensor:
#      x y z
#    x 1.805550 -0.065050 0.033200 
#    y -0.065050 1.723080 0.041020 
#    z 0.033200 0.041020 1.911260 
# 
# From -- ./inp_files/244578.got.cif
#   From: 2010.05.17/outbox.cif.g08.bks.cpg/sg2_123_cif.got.tgz:244578.got - 2010.06.03 11:33:40.
