data_PCOD9065915
_publ_section_title
;
Structure prediction by ZEFSAII (Michael W. Deem and Ramdas Pophale) SiO2 
 PCOD9065915
Probable space group: P -1
;
_chemical_formula_sum "Si O2"
_cell_formula_units_Z 14
_cell_length_a 4.800354
_cell_length_b 7.521194
_cell_length_c 17.067917
_cell_angle_alpha 101.609938
_cell_angle_beta 80.164523
_cell_angle_gamma 65.979911
_cell_volume 528.892698
_symmetry_space_group_name_H-M "P -1"
_symmetry_group_IT_number 2
_symmetry_cell_setting 'triclinic'
loop_
_space_group_symop_operation_xyz
x,y,z
-x,-y,-z
loop_
_atom_site_type_symbol
_atom_site_label
_atom_site_fract_x
_atom_site_fract_y
_atom_site_fract_z
Si Si1 0.025053 0.628403 0.826587
Si Si2 0.422635 0.400675 0.285410
Si Si3 0.026114 0.278714 0.882506
Si Si4 0.360888 0.991427 0.403498
Si Si5 0.761671 0.342566 0.532751
Si Si6 0.656938 0.069988 0.929900
Si Si7 0.931487 0.976119 0.294688
O O1 0.794749 0.644168 0.767859
O O2 0.953588 0.855786 0.873370
O O3 0.382218 0.509095 0.766861
O O4 0.955746 0.509901 0.890045
O O5 0.230962 0.539293 0.378841
O O6 0.698642 0.197274 0.291459
O O7 0.383244 0.158325 0.885889
O O8 0.000495 0.185935 0.791553
O O9 0.795251 0.232001 0.946790
O O10 0.718072 0.951874 0.371575
O O11 0.103157 0.214367 0.464506
O O12 0.235598 0.970784 0.321562
O O13 0.344792 0.824554 0.446481
O O14 0.500000 0.500000 0.500000
O O15 0.500000 0.000000 0.000000
#
# Coordination Sequence:
#
# PCOD9065915 Si02
#       7
#     2   2   2   2   2   2   2
#     4  12  25  47  71 102 135 178 229 277 333 400
#     4  12  24  43  71  96 134 178 229 281 333 397
#     4  12  25  44  74 101 137 183 223 273 336 397
#     4  11  26  43  63  94 134 171 228 284 331 394
#     4  11  25  44  63  96 130 180 222 280 343 395
#     4  12  26  46  71 106 142 174 219 274 334 408
#     4  12  22  45  69  94 131 178 224 281 331 388
#
# _framework density 26.470402
#
# number of rings (size 3 to 8) (size 9 to 14) (size 15 to 20)
#    0.000    0.286    4.286    4.714    0.000    5.143 
#    0.000    0.000    0.000    0.000    0.000    0.000 
#    0.000    0.000    0.000    0.000    0.000    0.000 
#
# Total GULP energy -78630.015965 kJ/mol
# GULP energy per Si atom -5616.429712 kJ/mol
# Density = 2.641015 g / cm^3
# Si number density = 26.470402 Si / 1000 Ang^3
#
#
#
# Elastic Constant Matrix: (Units=GPa)
#
#
# Indices 1 2 3 4 5 6 
#
# 1 90.7400 17.1672 6.8827 -22.7106 -9.7859 9.7392
# 2 17.1672 147.7317 9.8893 -23.5293 -1.1241 -1.0987
# 3 6.8827 9.8893 46.3373 -17.4260 -17.9650 -5.6001
# 4 -22.7106 -23.5293 -17.4260 32.5649 0.4398 -4.8059
# 5 -9.7859 -1.1241 -17.9650 0.4398 43.2004 -17.8777
# 6 9.7392 -1.0987 -5.6001 -4.8059 -17.8777 37.0610
#
#
#
# Elastic Compliance Matrix: (Units=1/GPa)
#
#
# Indices 1 2 3 4 5 6 
#
# 1 0.014339 0.000119 0.005266 0.013060 0.005973 0.001606
# 2 0.000119 0.007789 0.002093 0.007161 0.002030 0.002424
# 3 0.005266 0.002093 0.049049 0.034848 0.032085 0.026086
# 4 0.013060 0.007161 0.034848 0.066759 0.026720 0.023592
# 5 0.005973 0.002030 0.032085 0.026720 0.050526 0.031177
# 6 0.001606 0.002424 0.026086 0.023592 0.031177 0.048673
#
#
# Mechanical properties :
#
#
# Convention : Reuss Voigt Hill
#
# Bulk Modulus (GPa) = 11.60996 39.18750 25.39873
# Shear Modulus (GPa) = 19.92896 39.28992 29.60944
#
# Velocity S-wave (km/s) = 2.74684 3.85684 3.34816
# Velocity P-wave (km/s) = 3.80206 5.88812 4.95609
#
# Compressibility (1/GPa) = 0.08613293
#
# Stress axis : x y z
#
# Youngs Moduli (GPa) = 69.73956 128.38374 20.38762
#
# Poissons Ratio (x) = -0.01524 -0.10736
# Poissons Ratio (y) = -0.00828 -0.04267
# Poissons Ratio (z) = -0.36724 -0.26872
#
# Static dielectric constant tensor:
#      x y z
#    x 2.003160 0.067850 -0.050770 
#    y 0.067850 2.056480 -0.029230 
#    z -0.050770 -0.029230 2.110720 
# 
# From -- ./inp_files/547219.got.cif
#   From: 2010.05.17/outbox.cif.g08.bks.cpg/sg2_274_cif.got.tgz:547219.got - 2010.06.03 11:33:40.
