data_PCOD9065921
_publ_section_title
;
Structure prediction by ZEFSAII (Michael W. Deem and Ramdas Pophale) SiO2 
 PCOD9065921
Probable space group: P -1
;
_chemical_formula_sum "Si O2"
_cell_formula_units_Z 15
_cell_length_a 8.967801
_cell_length_b 12.598188
_cell_length_c 8.103886
_cell_angle_alpha 86.040956
_cell_angle_beta 96.171398
_cell_angle_gamma 132.341438
_cell_volume 672.802818
_symmetry_space_group_name_H-M "P -1"
_symmetry_group_IT_number 2
_symmetry_cell_setting 'triclinic'
loop_
_space_group_symop_operation_xyz
x,y,z
-x,-y,-z
loop_
_atom_site_type_symbol
_atom_site_label
_atom_site_fract_x
_atom_site_fract_y
_atom_site_fract_z
Si Si1 0.503177 0.251267 0.105952
Si Si2 0.916281 0.472888 0.308733
Si Si3 0.123699 0.383697 0.191442
Si Si4 0.907935 0.013136 0.739350
Si Si5 0.892247 0.095692 0.359606
Si Si6 0.039705 0.745044 0.160102
Si Si7 0.500000 0.500000 0.000000
Si Si8 0.523703 0.095184 0.846046
O O1 0.697972 0.324634 0.240714
O O2 0.477079 0.364329 0.067592
O O3 0.303899 0.107337 0.182599
O O4 0.530952 0.209117 0.935302
O O5 0.000000 0.500000 0.500000
O O6 0.079439 0.484590 0.219723
O O7 0.906758 0.593193 0.249938
O O8 0.343563 0.462795 0.138641
O O9 0.040836 0.267600 0.339149
O O10 0.977630 0.286208 0.031151
O O11 0.885743 0.047161 0.548025
O O12 0.024063 0.164490 0.827763
O O13 0.023271 0.957093 0.744096
O O14 0.665953 0.008584 0.283542
O O15 0.268784 0.832210 0.230409
O O16 0.500000 0.000000 0.000000
#
# Coordination Sequence:
#
# PCOD9065921 Si02
#       8
#     2   2   2   2   2   2   1   2
#     4  12  24  46  68 102 132 177 231 275 338 406
#     4  12  27  46  69 100 142 182 220 284 348 406
#     4  12  23  47  68 102 136 179 235 276 339 405
#     4  11  26  44  67 101 141 178 223 276 344 404
#     4  11  25  44  67 100 141 180 219 283 339 403
#     4  12  24  43  68 101 133 179 227 281 330 401
#     4  12  26  42  74  98 134 180 230 286 330 404
#     4  12  23  40  70 100 129 172 228 281 328 394
#
# _framework density 22.294792999999999
#
# number of rings (size 3 to 8) (size 9 to 14) (size 15 to 20)
#    0.000    0.267    6.667    2.000    3.733    1.600 
#    0.000    0.667    0.000    0.000    0.000    0.000 
#    0.000    0.000    0.000    0.000    0.000    0.000 
#
# Total GULP energy -83637.605188 kJ/mol
# GULP energy per Si atom -5575.840346 kJ/mol
# Density = 2.224405 g / cm^3
# Si number density = 22.294793 Si / 1000 Ang^3
#
#
#
# Elastic Constant Matrix: (Units=GPa)
#
#
# Indices 1 2 3 4 5 6 
#
# 1 56.8582 16.4741 -2.4202 2.9841 -18.0592 -6.8099
# 2 16.4741 82.5666 9.9669 -13.0918 -1.6312 -19.2299
# 3 -2.4202 9.9669 38.6528 4.6008 1.4497 -5.6922
# 4 2.9841 -13.0918 4.6008 30.3180 -7.9324 -1.2209
# 5 -18.0592 -1.6312 1.4497 -7.9324 31.2344 4.0458
# 6 -6.8099 -19.2299 -5.6922 -1.2209 4.0458 45.0979
#
#
#
# Elastic Compliance Matrix: (Units=1/GPa)
#
#
# Indices 1 2 3 4 5 6 
#
# 1 0.023232 -0.004758 0.002463 -0.001384 0.012638 0.000619
# 2 -0.004758 0.016315 -0.004618 0.008367 -0.000325 0.005911
# 3 0.002463 -0.004618 0.028431 -0.007042 -0.002184 0.001996
# 4 -0.001384 0.008367 -0.007042 0.040500 0.009903 0.002678
# 5 0.012638 -0.000325 -0.002184 0.009903 0.042184 -0.002022
# 6 0.000619 0.005911 0.001996 0.002678 -0.002022 0.025294
#
#
# Mechanical properties :
#
#
# Convention : Reuss Voigt Hill
#
# Bulk Modulus (GPa) = 18.46669 25.12436 21.79553
# Shear Modulus (GPa) = 24.05779 31.60051 27.82915
#
# Velocity S-wave (km/s) = 3.28849 3.76891 3.53687
# Velocity P-wave (km/s) = 4.76654 5.49848 5.14554
#
# Compressibility (1/GPa) = 0.05415155
#
# Stress axis : x y z
#
# Youngs Moduli (GPa) = 43.04432 61.29219 35.17348
#
# Poissons Ratio (x) = 0.29165 -0.08665
# Poissons Ratio (y) = 0.20482 0.16244
# Poissons Ratio (z) = -0.10603 0.28306
#
# Static dielectric constant tensor:
#      x y z
#    x 1.845450 -0.009280 0.004230 
#    y -0.009280 1.874370 0.018920 
#    z 0.004230 0.018920 1.805650 
# 
# From -- ./inp_files/154042.got.cif
#   From: 2010.05.17/outbox.cif.g08.bks.cpg/sg2_78_cif.got.tgz:154042.got - 2010.06.03 11:33:40.
