data_PCOD9065288
_publ_section_title
;
Structure prediction by ZEFSAII (Michael W. Deem and Ramdas Pophale) SiO2 
 PCOD9065288
Probable space group: P -1
;
_chemical_formula_sum "Si O2"
_cell_formula_units_Z 16
_cell_length_a 5.895895
_cell_length_b 11.129551
_cell_length_c 11.506812
_cell_angle_alpha 102.282242
_cell_angle_beta 105.125231
_cell_angle_gamma 67.697180
_cell_volume 668.888774
_symmetry_space_group_name_H-M "P -1"
_symmetry_group_IT_number 2
_symmetry_cell_setting 'triclinic'
loop_
_space_group_symop_operation_xyz
x,y,z
-x,-y,-z
loop_
_atom_site_type_symbol
_atom_site_label
_atom_site_fract_x
_atom_site_fract_y
_atom_site_fract_z
Si Si1 0.078682 0.111059 0.970167
Si Si2 0.378987 0.278234 0.147832
Si Si3 0.201229 0.770217 0.411871
Si Si4 0.301624 0.099354 0.758483
Si Si5 0.059804 0.625767 0.581051
Si Si6 0.457035 0.520606 0.235705
Si Si7 0.458497 0.702545 0.087571
Si Si8 0.553765 0.842222 0.638019
O O1 0.826589 0.212640 0.905193
O O2 0.265685 0.055435 0.876075
O O3 0.193032 0.197830 0.083863
O O4 0.000000 0.000000 0.000000
O O5 0.276428 0.433698 0.193927
O O6 0.538798 0.209080 0.266739
O O7 0.511982 0.279549 0.042416
O O8 0.344863 0.654012 0.319684
O O9 0.384175 0.838833 0.504817
O O10 0.953588 0.869339 0.340567
O O11 0.129440 0.695758 0.494427
O O12 0.363084 0.230736 0.812217
O O13 0.522076 0.989858 0.697872
O O14 0.824165 0.735819 0.630344
O O15 0.000000 0.500000 0.500000
O O16 0.288538 0.568028 0.687923
O O17 0.510090 0.563018 0.123814
#
# Coordination Sequence:
#
# PCOD9065288 Si02
#       8
#     2   2   2   2   2   2   2   2
#     4  11  24  47  78 104 148 197 241 308 370 429
#     4  11  26  45  73 113 144 192 251 298 364 444
#     4  12  25  48  71 107 147 193 240 306 364 431
#     4  11  26  47  74 109 147 187 251 302 367 436
#     4  12  25  44  72 102 147 199 241 291 367 432
#     4  12  24  49  72 106 155 191 246 300 365 435
#     4  11  25  48  73 108 148 195 241 307 366 428
#     4  12  26  46  72 109 145 191 247 301 362 442
#
# _framework density 23.920269999999999
#
# number of rings (size 3 to 8) (size 9 to 14) (size 15 to 20)
#    0.000    0.500    3.750    4.125    1.750    5.000 
#    0.000    0.000    0.000    0.000    0.000    0.000 
#    0.000    0.000    0.000    0.000    0.000    0.000 
#
# Total GULP energy -89553.739794 kJ/mol
# GULP energy per Si atom -5597.108737 kJ/mol
# Density = 2.386583 g / cm^3
# Si number density = 23.920270 Si / 1000 Ang^3
#
#
#
# Elastic Constant Matrix: (Units=GPa)
#
#
# Indices 1 2 3 4 5 6 
#
# 1 62.4036 29.2842 36.6038 3.6894 3.9679 0.8115
# 2 29.2842 84.1478 53.2509 -7.4226 5.5545 6.6002
# 3 36.6038 53.2509 136.1973 -1.5153 -5.0112 1.3316
# 4 3.6894 -7.4226 -1.5153 41.0362 -2.9701 1.0160
# 5 3.9679 5.5545 -5.0112 -2.9701 29.6907 0.2704
# 6 0.8115 6.6002 1.3316 1.0160 0.2704 50.6243
#
#
#
# Elastic Compliance Matrix: (Units=1/GPa)
#
#
# Indices 1 2 3 4 5 6 
#
# 1 0.020979 -0.005012 -0.003823 -0.003151 -0.002831 0.000496
# 2 -0.005012 0.017930 -0.005727 0.003297 -0.003302 -0.002155
# 3 -0.003823 -0.005727 0.010728 -0.000064 0.003382 0.000509
# 4 -0.003151 0.003297 -0.000064 0.025438 0.002346 -0.000901
# 5 -0.002831 -0.003302 0.003382 0.002346 0.035481 0.000150
# 6 0.000496 -0.002155 0.000509 -0.000901 0.000150 0.020030
#
#
# Mechanical properties :
#
#
# Convention : Reuss Voigt Hill
#
# Bulk Modulus (GPa) = 48.74895 57.89185 53.32040
# Shear Modulus (GPa) = 30.02169 35.17758 32.59963
#
# Velocity S-wave (km/s) = 3.54654 3.83902 3.69568
# Velocity P-wave (km/s) = 6.09874 6.62611 6.36789
#
# Compressibility (1/GPa) = 0.02051326
#
# Stress axis : x y z
#
# Youngs Moduli (GPa) = 47.66753 55.77232 93.21706
#
# Poissons Ratio (x) = 0.27951 0.35634
# Poissons Ratio (y) = 0.23889 0.53387
# Poissons Ratio (z) = 0.18222 0.31942
#
# Static dielectric constant tensor:
#      x y z
#    x 1.921180 0.011650 -0.025930 
#    y 0.011650 1.897330 0.041460 
#    z -0.025930 0.041460 1.946320 
# 
# From -- ./inp_files/365085.got.cif
#   From: 2010.05.17/outbox.cif.g08.bks.cpg/sg2_183_cif.got.tgz:365085.got - 2010.06.03 11:33:40.
