data_PCOD9065196
_publ_section_title
;
Structure prediction by ZEFSAII (Michael W. Deem and Ramdas Pophale) SiO2 
 PCOD9065196
Probable space group: P -1
;
_chemical_formula_sum "Si O2"
_cell_formula_units_Z 15
_cell_length_a 11.664612
_cell_length_b 9.636047
_cell_length_c 5.861900
_cell_angle_alpha 98.316467
_cell_angle_beta 91.721175
_cell_angle_gamma 104.095851
_cell_volume 630.859016
_symmetry_space_group_name_H-M "P -1"
_symmetry_group_IT_number 2
_symmetry_cell_setting 'triclinic'
loop_
_space_group_symop_operation_xyz
x,y,z
-x,-y,-z
loop_
_atom_site_type_symbol
_atom_site_label
_atom_site_fract_x
_atom_site_fract_y
_atom_site_fract_z
Si Si1 0.500000 0.000000 0.000000
Si Si2 0.300029 0.350114 0.429951
Si Si3 0.464221 0.587194 0.229500
Si Si4 0.951105 0.134657 0.963244
Si Si5 0.389159 0.826539 0.526651
Si Si6 0.291190 0.023111 0.255903
Si Si7 0.137775 0.681103 0.652539
Si Si8 0.922715 0.618391 0.280652
O O1 0.528602 0.127187 0.237249
O O2 0.359051 0.986495 0.028542
O O3 0.342236 0.476180 0.276994
O O4 0.417394 0.388151 0.604281
O O5 0.286728 0.188794 0.299428
O O6 0.180926 0.353209 0.556412
O O7 0.439184 0.748087 0.296362
O O8 0.500000 0.500000 0.000000
O O9 0.049598 0.267517 0.894511
O O10 0.841953 0.077213 0.772129
O O11 0.896304 0.187067 0.195698
O O12 0.000000 0.000000 0.000000
O O13 0.270124 0.717263 0.578733
O O14 0.356362 0.968621 0.460019
O O15 0.119417 0.552702 0.808929
O O16 0.044762 0.636810 0.431644
#
# Coordination Sequence:
#
# PCOD9065196 Si02
#       8
#     1   2   2   2   2   2   2   2
#     4  12  26  46  78 104 150 188 252 306 376 442
#     4  11  26  46  68 107 143 194 248 305 374 443
#     4  11  27  47  72 106 150 192 248 309 374 447
#     4  12  27  45  72 110 148 199 247 309 377 441
#     4  12  25  49  77 111 143 197 248 312 370 452
#     4  12  27  44  74 107 146 190 250 306 377 445
#     4  11  24  47  74 104 145 194 254 306 373 447
#     4  11  25  47  72 101 148 197 253 310 367 452
#
# _framework density 23.777104000000001
#
# number of rings (size 3 to 8) (size 9 to 14) (size 15 to 20)
#    0.000    0.533    5.333    1.600    3.733    4.267 
#    0.000    0.000    0.000    0.000    0.000    0.000 
#    0.000    0.000    0.000    0.000    0.000    0.000 
#
# Total GULP energy -83599.613521 kJ/mol
# GULP energy per Si atom -5573.307568 kJ/mol
# Density = 2.372299 g / cm^3
# Si number density = 23.777104 Si / 1000 Ang^3
#
#
#
# Elastic Constant Matrix: (Units=GPa)
#
#
# Indices 1 2 3 4 5 6 
#
# 1 94.4420 18.9352 10.3535 -3.2069 -26.5853 13.9424
# 2 18.9352 103.8828 14.6293 16.3318 -17.9587 -8.9318
# 3 10.3535 14.6293 60.0123 22.5034 -24.8182 -3.9581
# 4 -3.2069 16.3318 22.5034 36.8404 -3.7549 -9.1455
# 5 -26.5853 -17.9587 -24.8182 -3.7549 36.2739 1.9870
# 6 13.9424 -8.9318 -3.9581 -9.1455 1.9870 42.9473
#
#
#
# Elastic Compliance Matrix: (Units=1/GPa)
#
#
# Indices 1 2 3 4 5 6 
#
# 1 0.014829 -0.001477 0.002239 0.000469 0.012012 -0.005371
# 2 -0.001477 0.011526 0.001670 -0.005324 0.005124 0.001660
# 3 0.002239 0.001670 0.031902 -0.018328 0.022528 -0.002385
# 4 0.000469 -0.005324 -0.018328 0.041200 -0.010914 0.006330
# 5 0.012012 0.005124 0.022528 -0.010914 0.053497 -0.005557
# 6 -0.005371 0.001660 -0.002385 0.006330 -0.005557 0.026758
#
#
# Mechanical properties :
#
#
# Convention : Reuss Voigt Hill
#
# Bulk Modulus (GPa) = 15.84255 38.46368 27.15312
# Shear Modulus (GPa) = 25.52482 37.50694 31.51588
#
# Velocity S-wave (km/s) = 3.27999 3.97601 3.64465
# Velocity P-wave (km/s) = 4.58496 6.10656 5.39963
#
# Compressibility (1/GPa) = 0.06312114
#
# Stress axis : x y z
#
# Youngs Moduli (GPa) = 67.43365 86.76120 31.34625
#
# Poissons Ratio (x) = 0.12817 -0.07019
# Poissons Ratio (y) = 0.09962 -0.05236
# Poissons Ratio (z) = -0.15099 -0.14491
#
# Static dielectric constant tensor:
#      x y z
#    x 1.936770 0.016670 -0.007390 
#    y 0.016670 1.971830 -0.060830 
#    z -0.007390 -0.060830 2.016970 
# 
# From -- ./inp_files/60949.got.cif
#   From: 2010.05.17/outbox.cif.g08.bks.cpg/sg2_31_cif.got.tgz:60949.got - 2010.06.03 11:33:40.
