data_PCOD9065816
_publ_section_title
;
Structure prediction by ZEFSAII (Michael W. Deem and Ramdas Pophale) SiO2 
 PCOD9065816
Probable space group: P -1
;
_chemical_formula_sum "Si O2"
_cell_formula_units_Z 12
_cell_length_a 16.616371
_cell_length_b 17.852269
_cell_length_c 5.285674
_cell_angle_alpha 109.787565
_cell_angle_beta 121.354369
_cell_angle_gamma 23.493758
_cell_volume 487.494010
_symmetry_space_group_name_H-M "P -1"
_symmetry_group_IT_number 2
_symmetry_cell_setting 'triclinic'
loop_
_space_group_symop_operation_xyz
x,y,z
-x,-y,-z
loop_
_atom_site_type_symbol
_atom_site_label
_atom_site_fract_x
_atom_site_fract_y
_atom_site_fract_z
Si Si1 0.393607 0.399221 0.686614
Si Si2 0.059414 0.064684 0.852147
Si Si3 0.958910 0.318914 0.957807
Si Si4 0.576288 0.989568 0.868889
Si Si5 0.226069 0.695374 0.860228
Si Si6 0.199328 0.412569 0.668666
O O1 0.311102 0.487248 0.370927
O O2 0.248561 0.581789 0.807232
O O3 0.300138 0.381057 0.550600
O O4 0.678361 0.179723 0.964594
O O5 0.091140 0.134602 0.033826
O O6 0.949788 0.145409 0.481894
O O7 0.869766 0.189821 0.907692
O O8 0.921408 0.419315 0.199371
O O9 0.138601 0.215285 0.918955
O O10 0.500000 0.000000 0.500000
O O11 0.440570 0.179579 0.887542
O O12 0.500000 0.000000 0.000000
O O13 0.500000 0.500000 0.000000
O O14 0.000000 0.500000 0.500000
#
# Coordination Sequence:
#
# PCOD9065816 Si02
#       6
#     2   2   2   2   2   2
#     4  11  26  43  71 103 141 188 235 287 352 417
#     4  11  25  45  74 104 144 182 229 291 352 421
#     4  11  25  43  68  98 143 183 240 290 348 410
#     4  12  27  43  65  97 136 184 242 293 342 402
#     4  11  26  48  75 108 142 179 230 291 355 426
#     4  12  24  42  69  97 141 190 237 287 344 406
#
# _framework density 24.615687000000001
#
# number of rings (size 3 to 8) (size 9 to 14) (size 15 to 20)
#    0.000    0.667    5.000    1.500    4.667    2.667 
#    0.000    0.000    0.000    0.000    0.000    0.000 
#    0.000    0.000    0.000    0.000    0.000    0.000 
#
# Total GULP energy -66949.775152 kJ/mol
# GULP energy per Si atom -5579.147929 kJ/mol
# Density = 2.455966 g / cm^3
# Si number density = 24.615687 Si / 1000 Ang^3
#
#
#
# Elastic Constant Matrix: (Units=GPa)
#
#
# Indices 1 2 3 4 5 6 
#
# 1 86.2168 20.8362 17.8069 -3.3967 -6.2367 -4.0704
# 2 20.8362 86.5446 50.7632 -25.6439 -16.1171 -10.2227
# 3 17.8069 50.7632 74.7983 -30.0975 -11.1187 -4.0048
# 4 -3.3967 -25.6439 -30.0975 50.8045 -0.6288 2.9884
# 5 -6.2367 -16.1171 -11.1187 -0.6288 37.8984 1.8490
# 6 -4.0704 -10.2227 -4.0048 2.9884 1.8490 43.6325
#
#
#
# Elastic Compliance Matrix: (Units=1/GPa)
#
#
# Indices 1 2 3 4 5 6 
#
# 1 0.012532 -0.002082 -0.002046 -0.001452 0.000525 0.000571
# 2 -0.002082 0.021238 -0.011504 0.003639 0.005216 0.003255
# 3 -0.002046 -0.011504 0.025768 0.009429 0.002550 -0.001275
# 4 -0.001452 0.003639 0.009429 0.027092 0.004547 -0.000466
# 5 0.000525 0.005216 0.002550 0.004547 0.029517 -0.000057
# 6 0.000571 0.003255 -0.001275 -0.000466 -0.000057 0.023652
#
#
# Mechanical properties :
#
#
# Convention : Reuss Voigt Hill
#
# Bulk Modulus (GPa) = 35.36879 47.37469 41.37174
# Shear Modulus (GPa) = 27.70254 37.01064 32.35659
#
# Velocity S-wave (km/s) = 3.35834 3.88176 3.62950
# Velocity P-wave (km/s) = 5.42564 6.27521 5.86582
#
# Compressibility (1/GPa) = 0.02827352
#
# Stress axis : x y z
#
# Youngs Moduli (GPa) = 79.79461 47.08597 38.80713
#
# Poissons Ratio (x) = 0.09805 0.07941
# Poissons Ratio (y) = 0.16615 0.44644
# Poissons Ratio (z) = 0.16328 0.54167
#
# Static dielectric constant tensor:
#      x y z
#    x 2.147850 -0.080120 0.017100 
#    y -0.080120 1.886740 0.035570 
#    z 0.017100 0.035570 2.088030 
# 
# From -- ./inp_files/4511.got.cif
#   From: 2010.05.17/outbox.cif.g08.bks.cpg/sg2_3_cif.got.tgz:4511.got - 2010.06.03 11:33:40.
