data_PCOD9065926
_publ_section_title
;
Structure prediction by ZEFSAII (Michael W. Deem and Ramdas Pophale) SiO2 
 PCOD9065926
Probable space group: P -1
;
_chemical_formula_sum "Si O2"
_cell_formula_units_Z 12
_cell_length_a 11.611477
_cell_length_b 10.342053
_cell_length_c 18.689810
_cell_angle_alpha 139.609987
_cell_angle_beta 26.795609
_cell_angle_gamma 125.447360
_cell_volume 616.089597
_symmetry_space_group_name_H-M "P -1"
_symmetry_group_IT_number 2
_symmetry_cell_setting 'triclinic'
loop_
_space_group_symop_operation_xyz
x,y,z
-x,-y,-z
loop_
_atom_site_type_symbol
_atom_site_label
_atom_site_fract_x
_atom_site_fract_y
_atom_site_fract_z
Si Si1 0.432521 0.829944 0.915450
Si Si2 0.420277 0.918014 0.397967
Si Si3 0.899167 0.542934 0.435516
Si Si4 0.487505 0.537438 0.891180
Si Si5 0.843992 0.100168 0.310217
Si Si6 0.001966 0.191844 0.631381
O O1 0.683160 0.718372 0.677709
O O2 0.398847 0.652895 0.913062
O O3 0.156356 0.947814 0.076193
O O4 0.500000 0.000000 0.000000
O O5 0.529306 0.696396 0.201820
O O6 0.659404 0.999810 0.324734
O O7 0.269087 0.878956 0.536837
O O8 0.204029 0.089881 0.541204
O O9 0.905438 0.644146 0.397510
O O10 0.199795 0.489311 0.279417
O O11 0.828101 0.329159 0.386821
O O12 0.705655 0.317038 0.880434
O O13 0.000000 0.000000 0.500000
#
# Coordination Sequence:
#
# PCOD9065926 Si02
#       6
#     2   2   2   2   2   2
#     4  12  22  39  70 100 126 172 229 273 315 384
#     4  11  25  45  67  99 136 175 218 272 332 393
#     4  12  25  40  69 102 130 171 224 275 325 386
#     4  12  23  42  71  97 130 178 223 267 326 394
#     4  11  25  44  68 100 135 172 222 275 325 389
#     4  12  26  43  69 100 135 174 219 272 334 391
#
# _framework density 19.477685999999999
#
# number of rings (size 3 to 8) (size 9 to 14) (size 15 to 20)
#    0.000    0.333    6.667    3.000    0.000    2.667 
#    0.000    1.667    0.000    0.000    0.000    0.000 
#    0.000    0.000    0.000    0.000    0.000    0.000 
#
# Total GULP energy -67165.608403 kJ/mol
# GULP energy per Si atom -5597.134034 kJ/mol
# Density = 1.943335 g / cm^3
# Si number density = 19.477686 Si / 1000 Ang^3
#
#
#
# Elastic Constant Matrix: (Units=GPa)
#
#
# Indices 1 2 3 4 5 6 
#
# 1 57.9993 40.8693 31.6975 -4.7304 -12.3061 6.8608
# 2 40.8693 117.8456 47.3232 3.3407 -11.2386 -1.4197
# 3 31.6975 47.3232 166.4550 -19.5622 -1.3678 15.7815
# 4 -4.7304 3.3407 -19.5622 31.7503 -9.4972 -1.2581
# 5 -12.3061 -11.2386 -1.3678 -9.4972 28.3623 1.5914
# 6 6.8608 -1.4197 15.7815 -1.2581 1.5914 35.5934
#
#
#
# Elastic Compliance Matrix: (Units=1/GPa)
#
#
# Indices 1 2 3 4 5 6 
#
# 1 0.027334 -0.008074 -0.001482 0.007179 0.011284 -0.005185
# 2 -0.008074 0.012556 -0.002831 -0.004219 -0.000255 0.003175
# 3 -0.001482 -0.002831 0.007993 0.005019 0.000482 -0.003216
# 4 0.007179 -0.004219 0.005019 0.040603 0.015451 -0.003033
# 5 0.011284 -0.000255 0.000482 0.015451 0.045468 -0.003886
# 6 -0.005185 0.003175 -0.003216 -0.003033 -0.003886 0.030713
#
#
# Mechanical properties :
#
#
# Convention : Reuss Voigt Hill
#
# Bulk Modulus (GPa) = 43.27264 64.67554 53.97409
# Shear Modulus (GPa) = 25.36202 33.96853 29.66527
#
# Velocity S-wave (km/s) = 3.61239 4.18062 3.90685
# Velocity P-wave (km/s) = 6.29793 7.52200 6.93701
#
# Compressibility (1/GPa) = 0.02310929
#
# Stress axis : x y z
#
# Youngs Moduli (GPa) = 36.58460 79.64143 125.10503
#
# Poissons Ratio (x) = 0.64306 0.18535
# Poissons Ratio (y) = 0.29540 0.35418
# Poissons Ratio (z) = 0.05420 0.22547
#
# Static dielectric constant tensor:
#      x y z
#    x 1.661950 -0.026370 0.001670 
#    y -0.026370 1.679530 0.005060 
#    z 0.001670 0.005060 1.671400 
# 
# From -- ./inp_files/63987.got.cif
#   From: 2010.05.17/outbox.cif.g08.bks.cpg/sg2_32_cif.got.tgz:63987.got - 2010.06.03 11:33:40.
