data_PCOD9065868
_publ_section_title
;
Structure prediction by ZEFSAII (Michael W. Deem and Ramdas Pophale) SiO2 
 PCOD9065868
Probable space group: P -1
;
_chemical_formula_sum "Si O2"
_cell_formula_units_Z 16
_cell_length_a 8.448681
_cell_length_b 14.084885
_cell_length_c 8.003731
_cell_angle_alpha 75.579487
_cell_angle_beta 124.944176
_cell_angle_gamma 75.552932
_cell_volume 657.447227
_symmetry_space_group_name_H-M "P -1"
_symmetry_group_IT_number 2
_symmetry_cell_setting 'triclinic'
loop_
_space_group_symop_operation_xyz
x,y,z
-x,-y,-z
loop_
_atom_site_type_symbol
_atom_site_label
_atom_site_fract_x
_atom_site_fract_y
_atom_site_fract_z
Si Si1 0.312284 0.514506 0.678814
Si Si2 0.396967 0.114747 0.778791
Si Si3 0.849134 0.643705 0.495823
Si Si4 0.234302 0.944074 0.259154
Si Si5 0.726381 0.308291 0.911879
Si Si6 0.107421 0.366595 0.101471
Si Si7 0.574445 0.299310 0.454569
Si Si8 0.046388 0.087103 0.387255
O O1 0.203490 0.457471 0.521068
O O2 0.354674 0.610915 0.592710
O O3 0.113777 0.580869 0.658477
O O4 0.558690 0.407437 0.891327
O O5 0.310882 0.240328 0.752322
O O6 0.574265 0.086972 0.748322
O O7 0.166193 0.129787 0.565719
O O8 0.500000 0.000000 0.000000
O O9 0.815477 0.684758 0.646044
O O10 0.265695 0.831885 0.417252
O O11 0.214433 0.026253 0.360479
O O12 0.000000 0.000000 0.000000
O O13 0.923468 0.332734 0.955512
O O14 0.835441 0.190881 0.127418
O O15 0.593010 0.306666 0.667107
O O16 0.353527 0.327085 0.199501
O O17 0.000000 0.500000 0.000000
O O18 0.000000 0.000000 0.500000
#
# Coordination Sequence:
#
# PCOD9065868 Si02
#       8
#     2   2   2   2   2   2   2   2
#     4  11  25  43  72 106 141 192 232 293 371 434
#     4  12  27  49  76 104 150 192 242 312 367 426
#     4  11  25  47  68 104 147 184 242 294 361 437
#     4  12  25  47  76 106 142 192 247 302 370 436
#     4  12  23  45  75 102 147 186 238 303 358 442
#     4  12  23  43  69 102 139 188 234 288 358 431
#     4  12  24  46  76 104 147 185 241 302 371 427
#     4  12  28  47  74 109 143 193 251 297 368 443
#
# _framework density 24.336555000000001
#
# number of rings (size 3 to 8) (size 9 to 14) (size 15 to 20)
#    0.000    0.250    6.250    2.250    5.250    0.500 
#    2.250    0.000    0.000    0.000    0.000    0.000 
#    0.000    0.000    0.000    0.000    0.000    0.000 
#
# Total GULP energy -89256.480730 kJ/mol
# GULP energy per Si atom -5578.530046 kJ/mol
# Density = 2.428116 g / cm^3
# Si number density = 24.336555 Si / 1000 Ang^3
#
#
#
# Elastic Constant Matrix: (Units=GPa)
#
#
# Indices 1 2 3 4 5 6 
#
# 1 101.1659 29.1390 29.1807 -10.4430 16.9241 20.3803
# 2 29.1390 74.6988 18.2051 -25.9176 6.9570 22.2581
# 3 29.1807 18.2051 66.6273 -14.1426 27.3725 14.3354
# 4 -10.4430 -25.9176 -14.1426 52.3012 8.2512 -0.4793
# 5 16.9241 6.9570 27.3725 8.2512 36.2745 -6.2017
# 6 20.3803 22.2581 14.3354 -0.4793 -6.2017 37.4323
#
#
#
# Elastic Compliance Matrix: (Units=1/GPa)
#
#
# Indices 1 2 3 4 5 6 
#
# 1 0.013558 -0.000647 0.000691 0.003931 -0.009108 -0.008721
# 2 -0.000647 0.026195 0.010405 0.018719 -0.020659 -0.022392
# 3 0.000691 0.010405 0.040694 0.022845 -0.043182 -0.029010
# 4 0.003931 0.018719 0.022845 0.040892 -0.036678 -0.027573
# 5 -0.009108 -0.020659 -0.043182 -0.036678 0.084804 0.047361
# 6 -0.008721 -0.022392 -0.029010 -0.027573 0.047361 0.063381
#
#
# Mechanical properties :
#
#
# Convention : Reuss Voigt Hill
#
# Bulk Modulus (GPa) = 9.86728 43.94907 26.90817
# Shear Modulus (GPa) = 17.70494 36.26609 26.98551
#
# Velocity S-wave (km/s) = 2.70015 3.86449 3.33355
# Velocity P-wave (km/s) = 3.71274 6.16526 5.08895
#
# Compressibility (1/GPa) = 0.10134509
#
# Stress axis : x y z
#
# Youngs Moduli (GPa) = 73.75784 38.17579 24.57353
#
# Poissons Ratio (x) = 0.02469 -0.01699
# Poissons Ratio (y) = 0.04770 -0.25568
# Poissons Ratio (z) = -0.05099 -0.39720
#
# Static dielectric constant tensor:
#      x y z
#    x 1.912190 0.056270 -0.054460 
#    y 0.056270 1.963700 -0.016240 
#    z -0.054460 -0.016240 1.982010 
# 
# From -- ./inp_files/206537.got.cif
#   From: 2010.05.17/outbox.cif.g08.bks.cpg/sg2_104_cif.got.tgz:206537.got - 2010.06.03 11:33:40.
