data_PCOD9065504
_publ_section_title
;
Structure prediction by ZEFSAII (Michael W. Deem and Ramdas Pophale) SiO2 
 PCOD9065504
Probable space group: P -1
;
_chemical_formula_sum "Si O2"
_cell_formula_units_Z 9
_cell_length_a 5.785081
_cell_length_b 11.429907
_cell_length_c 5.635524
_cell_angle_alpha 89.919737
_cell_angle_beta 81.473818
_cell_angle_gamma 63.085965
_cell_volume 327.690003
_symmetry_space_group_name_H-M "P -1"
_symmetry_group_IT_number 2
_symmetry_cell_setting 'triclinic'
loop_
_space_group_symop_operation_xyz
x,y,z
-x,-y,-z
loop_
_atom_site_type_symbol
_atom_site_label
_atom_site_fract_x
_atom_site_fract_y
_atom_site_fract_z
Si Si1 0.710808 0.259139 0.822145
Si Si2 0.000000 0.000000 0.500000
Si Si3 0.428074 0.915098 0.822800
Si Si4 0.793596 0.508019 0.233149
Si Si5 0.105413 0.289295 0.513346
O O1 0.498388 0.409649 0.816776
O O2 0.981124 0.269097 0.774488
O O3 0.769853 0.150910 0.604226
O O4 0.601765 0.202828 0.044989
O O5 0.156431 0.992927 0.724990
O O6 0.685131 0.850129 0.617299
O O7 0.500000 0.000000 0.000000
O O8 0.783484 0.610217 0.439704
O O9 0.888532 0.367251 0.344076
O O10 0.000000 0.500000 0.000000
#
# Coordination Sequence:
#
# PCOD9065504 Si02
#       5
#     2   1   2   2   2
#     4  12  26  47  78 115 156 212 265 323 405 474
#     4  12  28  50  78 118 160 212 268 326 396 472
#     4  12  28  52  81 117 164 210 268 331 397 475
#     4  11  24  48  77 115 158 207 263 332 400 472
#     4  11  26  48  78 114 160 205 265 335 394 477
#
# _framework density 27.464981999999999
#
# number of rings (size 3 to 8) (size 9 to 14) (size 15 to 20)
#    0.000    0.444    4.444    2.667    3.111    4.444 
#    0.000    1.111    0.000    0.000    0.000    0.000 
#    0.000    0.000    0.000    0.000    0.000    0.000 
#
# Total GULP energy -50165.890196 kJ/mol
# GULP energy per Si atom -5573.987800 kJ/mol
# Density = 2.740247 g / cm^3
# Si number density = 27.464982 Si / 1000 Ang^3
#
#
#
# Elastic Constant Matrix: (Units=GPa)
#
#
# Indices 1 2 3 4 5 6 
#
# 1 74.4473 30.8295 50.7752 -1.9561 11.9351 -18.7556
# 2 30.8295 109.8473 19.2721 17.6083 33.3007 -21.1368
# 3 50.7752 19.2721 95.8271 11.2189 -3.3891 -3.7886
# 4 -1.9561 17.6083 11.2189 57.9662 0.9077 -5.6526
# 5 11.9351 33.3007 -3.3891 0.9077 58.9190 3.5597
# 6 -18.7556 -21.1368 -3.7886 -5.6526 3.5597 47.7457
#
#
#
# Elastic Compliance Matrix: (Units=1/GPa)
#
#
# Indices 1 2 3 4 5 6 
#
# 1 0.028247 -0.002548 -0.014934 0.005673 -0.005826 0.009889
# 2 -0.002548 0.013896 -0.001103 -0.003464 -0.007664 0.005224
# 3 -0.014934 -0.001103 0.019052 -0.004499 0.005162 -0.005761
# 4 0.005673 -0.003464 -0.004499 0.019623 0.000087 0.002655
# 5 -0.005826 -0.007664 0.005162 0.000087 0.023202 -0.006991
# 6 0.009889 0.005224 -0.005761 0.002655 -0.006991 0.027520
#
#
# Mechanical properties :
#
#
# Convention : Reuss Voigt Hill
#
# Bulk Modulus (GPa) = 41.62489 53.54171 47.58330
# Shear Modulus (GPa) = 28.29331 44.87584 36.58458
#
# Velocity S-wave (km/s) = 3.21309 4.04657 3.65368
# Velocity P-wave (km/s) = 5.38087 6.43194 5.92974
#
# Compressibility (1/GPa) = 0.02402409
#
# Stress axis : x y z
#
# Youngs Moduli (GPa) = 35.40150 71.96237 52.48834
#
# Poissons Ratio (x) = 0.18338 0.78386
# Poissons Ratio (y) = 0.09021 0.05792
# Poissons Ratio (z) = 0.52869 0.07940
#
# Static dielectric constant tensor:
#      x y z
#    x 2.621240 -0.053250 0.203960 
#    y -0.053250 2.132260 -0.095860 
#    z 0.203960 -0.095860 2.272910 
# 
# From -- ./inp_files/1646.got.cif
#   From: 2010.05.17/outbox.cif.g08.bks.cpg/sg2_1_cif.got.tgz:1646.got - 2010.06.03 11:33:40.
