data_PCOD9065930
_publ_section_title
;
Structure prediction by ZEFSAII (Michael W. Deem and Ramdas Pophale) SiO2 
 PCOD9065930
Probable space group: P -1
;
_chemical_formula_sum "Si O2"
_cell_formula_units_Z 14
_cell_length_a 19.333885
_cell_length_b 11.082486
_cell_length_c 8.257851
_cell_angle_alpha 69.786782
_cell_angle_beta 133.470097
_cell_angle_gamma 145.433376
_cell_volume 614.710802
_symmetry_space_group_name_H-M "P -1"
_symmetry_group_IT_number 2
_symmetry_cell_setting 'triclinic'
loop_
_space_group_symop_operation_xyz
x,y,z
-x,-y,-z
loop_
_atom_site_type_symbol
_atom_site_label
_atom_site_fract_x
_atom_site_fract_y
_atom_site_fract_z
Si Si1 0.127736 0.262569 0.149929
Si Si2 0.063324 0.475760 0.890092
Si Si3 0.292801 0.874185 0.362648
Si Si4 0.516391 0.672664 0.439118
Si Si5 0.417708 0.230165 0.869294
Si Si6 0.599458 0.081371 0.953973
Si Si7 0.198697 0.220319 0.627873
O O1 0.036887 0.296817 0.981097
O O2 0.308030 0.478576 0.226007
O O3 0.187938 0.291893 0.413545
O O4 0.000000 0.000000 0.000000
O O5 0.193060 0.696811 0.130299
O O6 0.186076 0.625112 0.856766
O O7 0.863170 0.309388 0.661087
O O8 0.471233 0.001796 0.649840
O O9 0.358462 0.098680 0.341756
O O10 0.500000 0.500000 0.500000
O O11 0.591589 0.793749 0.327581
O O12 0.259805 0.146675 0.711576
O O13 0.401196 0.072414 0.995006
O O14 0.624473 0.525299 0.102216
O O15 0.500000 0.000000 0.000000
O O16 0.000000 0.000000 0.500000
#
# Coordination Sequence:
#
# PCOD9065930 Si02
#       7
#     2   2   2   2   2   2   2
#     4  12  24  43  74 103 138 183 236 287 343 418
#     4  11  26  44  70 102 137 188 236 283 344 413
#     4  11  25  45  69 101 138 185 237 283 345 410
#     4  12  23  44  72  99 139 179 234 290 345 415
#     4  11  25  44  68 103 137 185 228 283 359 409
#     4  12  24  43  69 100 143 182 226 284 346 416
#     4  11  26  45  69 102 142 178 229 291 353 416
#
# _framework density 22.774936
#
# number of rings (size 3 to 8) (size 9 to 14) (size 15 to 20)
#    0.000    0.571    4.286    3.000    2.000    4.000 
#    0.000    0.000    0.000    0.000    0.000    0.000 
#    0.000    0.000    0.000    0.000    0.000    0.000 
#
# Total GULP energy -78336.092763 kJ/mol
# GULP energy per Si atom -5595.435197 kJ/mol
# Density = 2.272310 g / cm^3
# Si number density = 22.774936 Si / 1000 Ang^3
#
#
#
# Elastic Constant Matrix: (Units=GPa)
#
#
# Indices 1 2 3 4 5 6 
#
# 1 110.4336 55.2531 36.1611 6.4896 20.6005 5.7144
# 2 55.2531 109.8780 23.0596 8.7783 19.4577 -16.9010
# 3 36.1611 23.0596 57.1223 10.2618 19.0076 3.2844
# 4 6.4896 8.7783 10.2618 39.7078 -0.0930 10.7566
# 5 20.6005 19.4577 19.0076 -0.0930 55.8758 12.6495
# 6 5.7144 -16.9010 3.2844 10.7566 12.6495 45.4192
#
#
#
# Elastic Compliance Matrix: (Units=1/GPa)
#
#
# Indices 1 2 3 4 5 6 
#
# 1 0.014804 -0.006937 -0.006786 0.002096 0.000295 -0.004532
# 2 -0.006937 0.015153 0.000211 -0.004708 -0.004826 0.008956
# 3 -0.006786 0.000211 0.024850 -0.006024 -0.006577 0.002394
# 4 0.002096 -0.004708 -0.006024 0.030216 0.005276 -0.010206
# 5 0.000295 -0.004826 -0.006577 0.005276 0.023806 -0.009237
# 6 -0.004532 0.008956 0.002394 -0.010206 -0.009237 0.030736
#
#
# Mechanical properties :
#
#
# Convention : Reuss Voigt Hill
#
# Bulk Modulus (GPa) = 35.99196 56.26461 46.12829
# Shear Modulus (GPa) = 28.43330 39.06457 33.74894
#
# Velocity S-wave (km/s) = 3.53717 4.14604 3.85365
# Velocity P-wave (km/s) = 5.70261 6.90491 6.33236
#
# Compressibility (1/GPa) = 0.02778398
#
# Stress axis : x y z
#
# Youngs Moduli (GPa) = 67.54798 65.99144 40.24212
#
# Poissons Ratio (x) = 0.45780 0.27307
# Poissons Ratio (y) = 0.46860 -0.00850
# Poissons Ratio (z) = 0.45835 -0.01394
#
# Static dielectric constant tensor:
#      x y z
#    x 1.877380 -0.013450 -0.011060 
#    y -0.013450 1.858620 -0.006260 
#    z -0.011060 -0.006260 1.820150 
# 
# From -- ./inp_files/277295.got.cif
#   From: 2010.05.17/outbox.cif.g08.bks.cpg/sg2_139_cif.got.tgz:277295.got - 2010.06.03 11:33:40.
