data_PCOD9065452
_publ_section_title
;
Structure prediction by ZEFSAII (Michael W. Deem and Ramdas Pophale) SiO2 
 PCOD9065452
Probable space group: P -1
;
_chemical_formula_sum "Si O2"
_cell_formula_units_Z 14
_cell_length_a 9.197592
_cell_length_b 5.820638
_cell_length_c 13.416937
_cell_angle_alpha 118.074262
_cell_angle_beta 73.308747
_cell_angle_gamma 80.076436
_cell_volume 565.462136
_symmetry_space_group_name_H-M "P -1"
_symmetry_group_IT_number 2
_symmetry_cell_setting 'triclinic'
loop_
_space_group_symop_operation_xyz
x,y,z
-x,-y,-z
loop_
_atom_site_type_symbol
_atom_site_label
_atom_site_fract_x
_atom_site_fract_y
_atom_site_fract_z
Si Si1 0.505576 0.208629 0.397177
Si Si2 0.923079 0.343369 0.065273
Si Si3 0.383301 0.702534 0.984607
Si Si4 0.230295 0.021507 0.440647
Si Si5 0.636312 0.614614 0.752701
Si Si6 0.126623 0.135698 0.699212
Si Si7 0.881893 0.848927 0.733264
O O1 0.500000 0.500000 0.500000
O O2 0.447178 0.228963 0.298821
O O3 0.361796 0.155215 0.472193
O O4 0.686892 0.992811 0.328224
O O5 0.739153 0.399609 0.077070
O O6 0.929689 0.532472 0.198084
O O7 0.000000 0.500000 0.000000
O O8 0.000000 0.000000 0.000000
O O9 0.509795 0.752563 0.893166
O O10 0.500000 0.500000 0.000000
O O11 0.260165 0.933445 0.127425
O O12 0.341549 0.705424 0.328858
O O13 0.141055 0.144612 0.380793
O O14 0.124001 0.063029 0.568524
O O15 0.824170 0.592324 0.719915
O O16 0.029837 0.961461 0.739029
#
# Coordination Sequence:
#
# PCOD9065452 Si02
#       7
#     2   2   2   2   2   2   2
#     4  11  25  45  75 116 152 207 266 326 413 488
#     4  12  31  55  82 121 168 215 282 347 422 490
#     4  12  26  50  81 113 159 216 277 338 405 492
#     4  11  24  48  74 111 152 202 261 325 401 496
#     4  11  25  46  76 110 155 205 265 329 400 491
#     4  12  26  50  79 113 162 206 267 341 411 488
#     4  11  26  47  71 114 154 204 267 319 419 473
#
# _framework density 24.758512
#
# number of rings (size 3 to 8) (size 9 to 14) (size 15 to 20)
#    0.000    0.571    4.286    2.143    6.000    2.857 
#    2.571    0.000    0.000    0.000    0.000    0.000 
#    0.000    0.000    0.000    0.000    0.000    0.000 
#
# Total GULP energy -78139.468923 kJ/mol
# GULP energy per Si atom -5581.390637 kJ/mol
# Density = 2.470216 g / cm^3
# Si number density = 24.758512 Si / 1000 Ang^3
#
#
#
# Elastic Constant Matrix: (Units=GPa)
#
#
# Indices 1 2 3 4 5 6 
#
# 1 150.3956 57.1717 27.8320 -11.9281 5.0958 17.6403
# 2 57.1717 80.3769 39.1641 -5.1693 -9.4995 32.4789
# 3 27.8320 39.1641 129.0969 -7.8869 -0.6832 4.5574
# 4 -11.9281 -5.1693 -7.8869 46.8667 10.9990 2.7955
# 5 5.0958 -9.4995 -0.6832 10.9990 43.1047 -8.8173
# 6 17.6403 32.4789 4.5574 2.7955 -8.8173 52.0288
#
#
#
# Elastic Compliance Matrix: (Units=1/GPa)
#
#
# Indices 1 2 3 4 5 6 
#
# 1 0.009684 -0.007567 0.000312 0.002407 -0.003273 0.000729
# 2 -0.007567 0.026247 -0.005878 -0.000222 0.004064 -0.012603
# 3 0.000312 -0.005878 0.009435 0.001090 -0.000946 0.002518
# 4 0.002407 -0.000222 0.001090 0.023970 -0.007100 -0.003264
# 5 -0.003273 0.004064 -0.000946 -0.007100 0.027018 0.003616
# 6 0.000729 -0.012603 0.002518 -0.003264 0.003616 0.027408
#
#
# Mechanical properties :
#
#
# Convention : Reuss Voigt Hill
#
# Bulk Modulus (GPa) = 52.35815 67.57832 59.96824
# Shear Modulus (GPa) = 31.97038 44.11347 38.04193
#
# Velocity S-wave (km/s) = 3.59735 4.22566 3.92410
# Velocity P-wave (km/s) = 6.20065 7.15280 6.69367
#
# Compressibility (1/GPa) = 0.01909922
#
# Stress axis : x y z
#
# Youngs Moduli (GPa) = 103.26136 38.10026 105.98937
#
# Poissons Ratio (x) = 0.28829 -0.03304
# Poissons Ratio (y) = 0.78134 0.62303
# Poissons Ratio (z) = -0.03219 0.22396
#
# Static dielectric constant tensor:
#      x y z
#    x 1.969520 0.041990 0.042830 
#    y 0.041990 1.853130 0.102520 
#    z 0.042830 0.102520 1.989760 
# 
# From -- ./inp_files/69524.got.cif
#   From: 2010.05.17/outbox.cif.g08.bks.cpg/sg2_35_cif.got.tgz:69524.got - 2010.06.03 11:33:40.
