data_PCOD9065642
_publ_section_title
;
Structure prediction by ZEFSAII (Michael W. Deem and Ramdas Pophale) SiO2 
 PCOD9065642
Probable space group: P -1
;
_chemical_formula_sum "Si O2"
_cell_formula_units_Z 16
_cell_length_a 23.024058
_cell_length_b 6.282531
_cell_length_c 5.532997
_cell_angle_alpha 73.146470
_cell_angle_beta 65.843801
_cell_angle_gamma 104.704620
_cell_volume 632.126102
_symmetry_space_group_name_H-M "P -1"
_symmetry_group_IT_number 2
_symmetry_cell_setting 'triclinic'
loop_
_space_group_symop_operation_xyz
x,y,z
-x,-y,-z
loop_
_atom_site_type_symbol
_atom_site_label
_atom_site_fract_x
_atom_site_fract_y
_atom_site_fract_z
Si Si1 0.591503 0.231154 0.323691
Si Si2 0.827888 0.422972 0.769608
Si Si3 0.057360 0.773893 0.363913
Si Si4 0.769408 0.070407 0.349039
Si Si5 0.460433 0.272005 0.316483
Si Si6 0.325896 0.355487 0.657364
Si Si7 0.097794 0.023013 0.704025
Si Si8 0.314608 0.780188 0.224340
O O1 0.657398 0.492009 0.173054
O O2 0.571812 0.013363 0.626992
O O3 0.522804 0.274628 0.381406
O O4 0.617116 0.117697 0.094337
O O5 0.871076 0.260567 0.720742
O O6 0.756780 0.334892 0.771614
O O7 0.877533 0.696110 0.510596
O O8 0.803236 0.357445 0.112459
O O9 0.049814 0.871198 0.609721
O O10 0.000000 0.500000 0.500000
O O11 0.064255 0.938584 0.057092
O O12 0.829990 0.014892 0.385960
O O13 0.702874 0.033506 0.640052
O O14 0.738401 0.896471 0.224642
O O15 0.396013 0.319830 0.506627
O O16 0.500000 0.500000 0.000000
O O17 0.320128 0.557085 0.426269
#
# Coordination Sequence:
#
# PCOD9065642 Si02
#       8
#     2   2   2   2   2   2   2   2
#     4  11  27  47  72  99 137 180 239 296 366 443
#     4  11  25  44  73 105 145 191 243 292 360 436
#     4  11  26  47  75 111 152 197 248 302 361 431
#     4  11  26  46  70 105 148 187 240 302 363 442
#     4  11  24  50  68  99 133 184 233 300 362 447
#     4  12  24  45  71 102 137 185 232 298 372 433
#     4  11  25  46  76 107 149 198 244 303 366 430
#     4  12  23  44  71 103 137 185 236 295 363 435
#
# _framework density 25.311404
#
# number of rings (size 3 to 8) (size 9 to 14) (size 15 to 20)
#    0.000    0.750    3.750    3.000    1.750    5.500 
#   11.250    0.000    0.000    0.000    0.000    0.000 
#    0.000    0.000    0.000    0.000    0.000    0.000 
#
# Total GULP energy -89403.291562 kJ/mol
# GULP energy per Si atom -5587.705723 kJ/mol
# Density = 2.525379 g / cm^3
# Si number density = 25.311404 Si / 1000 Ang^3
#
#
#
# Elastic Constant Matrix: (Units=GPa)
#
#
# Indices 1 2 3 4 5 6 
#
# 1 96.3358 40.2125 30.1259 11.7578 -5.4403 -7.9894
# 2 40.2125 108.0487 61.9208 -13.3160 10.7892 11.4133
# 3 30.1259 61.9208 116.3764 -18.5185 11.1305 -11.9875
# 4 11.7578 -13.3160 -18.5185 42.4256 -7.1447 2.5963
# 5 -5.4403 10.7892 11.1305 -7.1447 38.0796 -10.0663
# 6 -7.9894 11.4133 -11.9875 2.5963 -10.0663 46.6059
#
#
#
# Elastic Compliance Matrix: (Units=1/GPa)
#
#
# Indices 1 2 3 4 5 6 
#
# 1 0.015023 -0.006667 -0.001252 -0.006349 0.004593 0.005232
# 2 -0.006667 0.018115 -0.007707 0.003793 -0.005489 -0.008958
# 3 -0.001252 -0.007707 0.014150 0.003780 -0.000078 0.005085
# 4 -0.006349 0.003793 0.003780 0.028593 0.001676 -0.002276
# 5 0.004593 -0.005489 -0.000078 0.001676 0.031120 0.008740
# 6 0.005232 -0.008958 0.005085 -0.002276 0.008740 0.027869
#
#
# Mechanical properties :
#
#
# Convention : Reuss Voigt Hill
#
# Bulk Modulus (GPa) = 62.36015 65.03104 63.69560
# Shear Modulus (GPa) = 29.15998 37.98901 33.57449
#
# Velocity S-wave (km/s) = 3.39787 3.87830 3.64601
# Velocity P-wave (km/s) = 6.33124 6.76780 6.55316
#
# Compressibility (1/GPa) = 0.01603588
#
# Stress axis : x y z
#
# Youngs Moduli (GPa) = 66.56331 55.20328 70.67026
#
# Poissons Ratio (x) = 0.36806 0.08850
# Poissons Ratio (y) = 0.44380 0.54463
# Poissons Ratio (z) = 0.08335 0.42543
#
# Static dielectric constant tensor:
#      x y z
#    x 1.983930 0.077620 -0.005570 
#    y 0.077620 2.089290 0.032460 
#    z -0.005570 0.032460 2.104490 
# 
# From -- ./inp_files/125740.got.cif
#   From: 2010.05.17/outbox.cif.g08.bks.cpg/sg2_63_cif.got.tgz:125740.got - 2010.06.03 11:33:40.
