data_PCOD9065797
_publ_section_title
;
Structure prediction by ZEFSAII (Michael W. Deem and Ramdas Pophale) SiO2 
 PCOD9065797
Probable space group: P -1
;
_chemical_formula_sum "Si O2"
_cell_formula_units_Z 12
_cell_length_a 7.764930
_cell_length_b 9.552589
_cell_length_c 13.369015
_cell_angle_alpha 131.957452
_cell_angle_beta 45.531612
_cell_angle_gamma 105.131770
_cell_volume 484.443326
_symmetry_space_group_name_H-M "P -1"
_symmetry_group_IT_number 2
_symmetry_cell_setting 'triclinic'
loop_
_space_group_symop_operation_xyz
x,y,z
-x,-y,-z
loop_
_atom_site_type_symbol
_atom_site_label
_atom_site_fract_x
_atom_site_fract_y
_atom_site_fract_z
Si Si1 0.151167 0.473018 0.530964
Si Si2 0.534077 0.051611 0.233761
Si Si3 0.671041 0.205595 0.450167
Si Si4 0.253129 0.406592 0.083544
Si Si5 0.260460 0.923808 0.039837
Si Si6 0.390089 0.476169 0.865267
O O1 0.271771 0.237566 0.397737
O O2 0.356454 0.576367 0.480537
O O3 0.000000 0.500000 0.500000
O O4 0.978163 0.590705 0.750356
O O5 0.584283 0.087904 0.345020
O O6 0.741488 0.071226 0.077903
O O7 0.540264 0.826531 0.114042
O O8 0.496421 0.281406 0.656325
O O9 0.983785 0.073908 0.270372
O O10 0.373046 0.541029 0.163084
O O11 0.175704 0.477186 0.034940
O O12 0.321463 0.694625 0.944229
O O13 0.500000 0.000000 0.000000
#
# Coordination Sequence:
#
# PCOD9065797 Si02
#       6
#     2   2   2   2   2   2
#     4  12  23  42  72 100 128 176 226 274 322 395
#     4  12  25  41  69 101 133 171 223 278 333 389
#     4  12  25  41  69 101 133 171 223 278 333 389
#     4  11  25  43  66  99 135 173 222 275 331 394
#     4  12  23  42  72 100 128 176 226 274 322 395
#     4  11  25  43  66  99 135 173 222 275 331 394
#
# _framework density 24.770699
#
# number of rings (size 3 to 8) (size 9 to 14) (size 15 to 20)
#    0.000    0.333    6.667    2.000    0.000    2.000 
#    0.000    5.000    0.000    0.000    0.000    0.000 
#    0.000    0.000    0.000    0.000    0.000    0.000 
#
# Total GULP energy -67102.623173 kJ/mol
# GULP energy per Si atom -5591.885264 kJ/mol
# Density = 2.471432 g / cm^3
# Si number density = 24.770699 Si / 1000 Ang^3
#
#
#
# Elastic Constant Matrix: (Units=GPa)
#
#
# Indices 1 2 3 4 5 6 
#
# 1 71.4835 9.1152 50.6943 -1.2581 12.9984 -14.7969
# 2 9.1152 129.1275 58.4717 -1.9760 4.7433 -19.7140
# 3 50.6943 58.4717 173.7445 2.4775 30.0762 -22.9119
# 4 -1.2581 -1.9760 2.4775 50.9834 -16.5818 3.6065
# 5 12.9984 4.7433 30.0762 -16.5818 36.1490 3.2608
# 6 -14.7969 -19.7140 -22.9119 3.6065 3.2608 19.5571
#
#
#
# Elastic Compliance Matrix: (Units=1/GPa)
#
#
# Indices 1 2 3 4 5 6 
#
# 1 0.020862 0.002856 -0.003501 -0.002890 -0.007767 0.016389
# 2 0.002856 0.010318 -0.002883 -0.000384 -0.001008 0.009423
# 3 -0.003501 -0.002883 0.010976 -0.004899 -0.010642 0.009981
# 4 -0.002890 -0.000384 -0.004899 0.027148 0.019107 -0.016505
# 5 -0.007767 -0.001008 -0.010642 0.019107 0.051039 -0.031394
# 6 0.016389 0.009423 0.009981 -0.016505 -0.031394 0.093001
#
#
# Mechanical properties :
#
#
# Convention : Reuss Voigt Hill
#
# Bulk Modulus (GPa) = 28.49075 67.87978 48.18526
# Shear Modulus (GPa) = 21.54241 38.40952 29.97597
#
# Velocity S-wave (km/s) = 2.95222 3.94204 3.48248
# Velocity P-wave (km/s) = 4.81119 6.94135 5.97201
#
# Compressibility (1/GPa) = 0.03509911
#
# Stress axis : x y z
#
# Youngs Moduli (GPa) = 47.93398 96.91852 91.11104
#
# Poissons Ratio (x) = -0.27680 0.31899
# Poissons Ratio (y) = -0.13690 0.26268
# Poissons Ratio (z) = 0.16782 0.27943
#
# Static dielectric constant tensor:
#      x y z
#    x 2.064930 0.012340 -0.001170 
#    y 0.012340 2.030410 -0.109620 
#    z -0.001170 -0.109620 2.088880 
# 
# From -- ./inp_files/380203.got.cif
#   From: 2010.05.17/outbox.cif.g08.bks.cpg/sg2_191_cif.got.tgz:380203.got - 2010.06.03 11:33:40.
