data_PCOD9065158
_publ_section_title
;
Structure prediction by ZEFSAII (Michael W. Deem and Ramdas Pophale) SiO2 
 PCOD9065158
Probable space group: P -1
;
_chemical_formula_sum "Si O2"
_cell_formula_units_Z 16
_cell_length_a 8.833714
_cell_length_b 9.166416
_cell_length_c 10.600905
_cell_angle_alpha 103.291436
_cell_angle_beta 104.294898
_cell_angle_gamma 56.328731
_cell_volume 687.643637
_symmetry_space_group_name_H-M "P -1"
_symmetry_group_IT_number 2
_symmetry_cell_setting 'triclinic'
loop_
_space_group_symop_operation_xyz
x,y,z
-x,-y,-z
loop_
_atom_site_type_symbol
_atom_site_label
_atom_site_fract_x
_atom_site_fract_y
_atom_site_fract_z
Si Si1 0.821938 0.655683 0.428787
Si Si2 0.413635 0.258841 0.839906
Si Si3 0.477439 0.498998 0.169484
Si Si4 0.835276 0.104476 0.162275
Si Si5 0.517718 0.333581 0.539167
Si Si6 0.792833 0.936773 0.859806
Si Si7 0.794489 0.635657 0.938669
Si Si8 0.165309 0.013091 0.588827
O O1 0.752724 0.637185 0.272437
O O2 0.661061 0.678115 0.489290
O O3 0.000000 0.500000 0.500000
O O4 0.841181 0.821325 0.441620
O O5 0.491388 0.386386 0.905912
O O6 0.587723 0.073950 0.792897
O O7 0.329192 0.237638 0.946541
O O8 0.666646 0.307759 0.185822
O O9 0.436177 0.633227 0.304426
O O10 0.309228 0.467632 0.131344
O O11 0.838807 0.993544 0.261798
O O12 0.031202 0.092465 0.187894
O O13 0.805546 0.023538 0.012277
O O14 0.500000 0.500000 0.500000
O O15 0.659145 0.161991 0.460057
O O16 0.803899 0.755225 0.856115
O O17 0.000000 0.500000 0.000000
O O18 0.000000 0.000000 0.500000
#
# Coordination Sequence:
#
# PCOD9065158 Si02
#       8
#     2   2   2   2   2   2   2   2
#     4  11  27  49  73 107 150 194 251 310 372 447
#     4  11  25  46  74 104 147 191 244 303 374 443
#     4  11  25  45  70 102 149 191 239 298 369 441
#     4  11  25  47  76 103 150 191 242 303 374 443
#     4  11  24  47  73 103 142 194 246 302 367 432
#     4  11  26  45  77 110 144 189 245 305 371 445
#     4  12  26  43  71 112 148 188 243 299 377 436
#     4  12  27  47  75 109 147 196 252 303 375 440
#
# _framework density 23.267869000000001
#
# number of rings (size 3 to 8) (size 9 to 14) (size 15 to 20)
#    0.000    0.750    2.500    3.375   10.500    2.000 
#    2.250    0.000    0.000    0.000    0.000    0.000 
#    0.000    0.000    0.000    0.000    0.000    0.000 
#
# Total GULP energy -89486.167521 kJ/mol
# GULP energy per Si atom -5592.885470 kJ/mol
# Density = 2.321491 g / cm^3
# Si number density = 23.267869 Si / 1000 Ang^3
#
#
#
# Elastic Constant Matrix: (Units=GPa)
#
#
# Indices 1 2 3 4 5 6 
#
# 1 206.0891 86.4212 43.6698 -7.7149 -6.9017 12.1886
# 2 86.4212 145.8377 32.6612 -28.2690 -4.9293 22.3211
# 3 43.6698 32.6612 56.4370 -3.0304 0.0739 -7.9585
# 4 -7.7149 -28.2690 -3.0304 29.2312 1.9784 1.2086
# 5 -6.9017 -4.9293 0.0739 1.9784 36.6754 -1.5597
# 6 12.1886 22.3211 -7.9585 1.2086 -1.5597 53.1337
#
#
#
# Elastic Compliance Matrix: (Units=1/GPa)
#
#
# Indices 1 2 3 4 5 6 
#
# 1 0.007162 -0.003751 -0.003562 -0.002149 0.000944 -0.000524
# 2 -0.003751 0.013340 -0.005005 0.011614 0.000226 -0.005751
# 3 -0.003562 -0.005005 0.024114 -0.003490 -0.000923 0.006584
# 4 -0.002149 0.011614 -0.003490 0.044862 -0.001510 -0.005974
# 5 0.000944 0.000226 -0.000923 -0.001510 0.027574 0.000394
# 6 -0.000524 -0.005751 0.006584 -0.005974 0.000394 0.022490
#
#
# Mechanical properties :
#
#
# Convention : Reuss Voigt Hill
#
# Bulk Modulus (GPa) = 50.05030 81.54090 65.79560
# Shear Modulus (GPa) = 29.26756 40.18216 34.72486
#
# Velocity S-wave (km/s) = 3.55047 4.16015 3.86734
# Velocity P-wave (km/s) = 6.19395 7.62865 6.94843
#
# Compressibility (1/GPa) = 0.01997990
#
# Stress axis : x y z
#
# Youngs Moduli (GPa) = 139.62524 74.96449 41.47024
#
# Poissons Ratio (x) = 0.28118 0.14770
# Poissons Ratio (y) = 0.52370 0.20757
# Poissons Ratio (z) = 0.49730 0.37522
#
# Static dielectric constant tensor:
#      x y z
#    x 1.858390 0.013110 -0.031980 
#    y 0.013110 1.832860 -0.015750 
#    z -0.031980 -0.015750 2.075480 
# 
# From -- ./inp_files/382679.got.cif
#   From: 2010.05.17/outbox.cif.g08.bks.cpg/sg2_192_cif.got.tgz:382679.got - 2010.06.03 11:33:40.
