data_PCOD9065592
_publ_section_title
;
Structure prediction by ZEFSAII (Michael W. Deem and Ramdas Pophale) SiO2 
 PCOD9065592
Probable space group: P -1
;
_chemical_formula_sum "Si O2"
_cell_formula_units_Z 16
_cell_length_a 23.070077
_cell_length_b 28.307608
_cell_length_c 11.467893
_cell_angle_alpha 32.167640
_cell_angle_beta 147.502467
_cell_angle_gamma 169.137057
_cell_volume 745.962460
_symmetry_space_group_name_H-M "P -1"
_symmetry_group_IT_number 2
_symmetry_cell_setting 'triclinic'
loop_
_space_group_symop_operation_xyz
x,y,z
-x,-y,-z
loop_
_atom_site_type_symbol
_atom_site_label
_atom_site_fract_x
_atom_site_fract_y
_atom_site_fract_z
Si Si1 0.694556 0.277021 0.523446
Si Si2 0.289146 0.108087 0.254716
Si Si3 0.170409 0.656882 0.120694
Si Si4 0.071565 0.333465 0.312355
Si Si5 0.229605 0.924233 0.893358
Si Si6 0.244987 0.229713 0.104145
Si Si7 0.423490 0.926862 0.657815
Si Si8 0.770885 0.874884 0.458007
O O1 0.735834 0.267441 0.742004
O O2 0.000000 0.500000 0.500000
O O3 0.602656 0.307562 0.322244
O O4 0.419005 0.017128 0.527671
O O5 0.121243 0.898183 0.478902
O O6 0.352119 0.238914 0.172820
O O7 0.059155 0.961327 0.069418
O O8 0.456403 0.842198 0.141851
O O9 0.884981 0.368742 0.232256
O O10 0.061009 0.671200 0.869737
O O11 0.419368 0.592809 0.406105
O O12 0.039118 0.304282 0.177720
O O13 0.179072 0.981622 0.741947
O O14 0.301795 0.913126 0.143739
O O15 0.183474 0.131522 0.324170
O O16 0.500000 0.500000 0.000000
O O17 0.500000 0.000000 0.500000
O O18 0.000000 0.000000 0.500000
#
# Coordination Sequence:
#
# PCOD9065592 Si02
#       8
#     2   2   2   2   2   2   2   2
#     4  12  25  44  66 106 152 178 224 289 355 426
#     4  11  25  44  75 105 134 189 237 287 351 410
#     4  12  24  42  74 108 136 186 237 277 350 428
#     4  12  23  44  76 100 137 186 236 286 344 418
#     4  12  25  46  72 103 139 187 238 283 343 430
#     4  11  24  49  75 102 134 182 247 294 341 410
#     4  12  26  42  67 106 149 183 222 285 358 415
#     4  12  28  47  68 105 141 184 239 293 350 405
#
# _framework density 21.448799999999999
#
# number of rings (size 3 to 8) (size 9 to 14) (size 15 to 20)
#    0.000    0.250    7.500    1.500    1.750    3.500 
#    2.250    0.000    0.000    0.000    0.000    0.000 
#    0.000    0.000    0.000    0.000    0.000    0.000 
#
# Total GULP energy -89568.431303 kJ/mol
# GULP energy per Si atom -5598.026956 kJ/mol
# Density = 2.139998 g / cm^3
# Si number density = 21.448800 Si / 1000 Ang^3
#
#
#
# Elastic Constant Matrix: (Units=GPa)
#
#
# Indices 1 2 3 4 5 6 
#
# 1 133.5398 58.0077 57.7097 23.8287 -1.5212 -0.0381
# 2 58.0077 87.7905 31.5809 10.2464 8.9161 -7.0394
# 3 57.7097 31.5809 119.2237 25.8617 -6.0364 5.8426
# 4 23.8287 10.2464 25.8617 33.3030 -8.5992 7.3216
# 5 -1.5212 8.9161 -6.0364 -8.5992 52.4053 10.2441
# 6 -0.0381 -7.0394 5.8426 7.3216 10.2441 42.2018
#
#
#
# Elastic Compliance Matrix: (Units=1/GPa)
#
#
# Indices 1 2 3 4 5 6 
#
# 1 0.012609 -0.006655 -0.003403 -0.004226 0.000412 0.000006
# 2 -0.006655 0.017299 -0.001469 -0.001534 -0.004422 0.004422
# 3 -0.003403 -0.001469 0.011779 -0.005834 0.000756 -0.001050
# 4 -0.004226 -0.001534 -0.005834 0.042051 0.008068 -0.008706
# 5 0.000412 -0.004422 0.000756 0.008068 0.022776 -0.007770
# 6 0.000006 0.004422 -0.001050 -0.008706 -0.007770 0.027975
#
#
# Mechanical properties :
#
#
# Convention : Reuss Voigt Hill
#
# Bulk Modulus (GPa) = 53.66739 70.57230 62.11984
# Shear Modulus (GPa) = 30.53337 38.46573 34.49955
#
# Velocity S-wave (km/s) = 3.77709 4.23942 4.01491
# Velocity P-wave (km/s) = 6.64058 7.54571 7.10757
#
# Compressibility (1/GPa) = 0.01863329
#
# Stress axis : x y z
#
# Youngs Moduli (GPa) = 79.30980 57.80585 84.89559
#
# Poissons Ratio (x) = 0.38471 0.28890
# Poissons Ratio (y) = 0.52782 0.12470
# Poissons Ratio (z) = 0.26989 0.08491
#
# Static dielectric constant tensor:
#      x y z
#    x 1.792710 -0.022910 0.020920 
#    y -0.022910 1.792570 -0.030330 
#    z 0.020920 -0.030330 1.812280 
# 
# From -- ./inp_files/475780.got.cif
#   From: 2010.05.17/outbox.cif.g08.bks.cpg/sg2_238_cif.got.tgz:475780.got - 2010.06.03 11:33:40.
