data_PCOD9065496
_publ_section_title
;
Structure prediction by ZEFSAII (Michael W. Deem and Ramdas Pophale) SiO2 
 PCOD9065496
Probable space group: P -1
;
_chemical_formula_sum "Si O2"
_cell_formula_units_Z 14
_cell_length_a 12.630134
_cell_length_b 8.325804
_cell_length_c 8.467606
_cell_angle_alpha 56.343913
_cell_angle_beta 60.427826
_cell_angle_gamma 65.264257
_cell_volume 631.570534
_symmetry_space_group_name_H-M "P -1"
_symmetry_group_IT_number 2
_symmetry_cell_setting 'triclinic'
loop_
_space_group_symop_operation_xyz
x,y,z
-x,-y,-z
loop_
_atom_site_type_symbol
_atom_site_label
_atom_site_fract_x
_atom_site_fract_y
_atom_site_fract_z
Si Si1 0.987006 0.947186 0.856597
Si Si2 0.894423 0.389805 0.571039
Si Si3 0.370051 0.892504 0.238035
Si Si4 0.186620 0.662997 0.675888
Si Si5 0.399890 0.539769 0.193635
Si Si6 0.752099 0.767900 0.072451
Si Si7 0.554823 0.838152 0.419775
O O1 0.112121 0.816237 0.768907
O O2 0.941326 0.157323 0.692505
O O3 0.887742 0.813930 0.961411
O O4 0.000000 0.000000 0.000000
O O5 0.887698 0.412882 0.373371
O O6 0.751912 0.452413 0.714158
O O7 0.000000 0.500000 0.500000
O O8 0.272342 0.785527 0.454367
O O9 0.410758 0.752211 0.135889
O O10 0.474173 0.880855 0.298273
O O11 0.313023 0.104858 0.095349
O O12 0.253173 0.460559 0.818158
O O13 0.441871 0.373000 0.387295
O O14 0.500000 0.500000 0.000000
O O15 0.690083 0.837904 0.249632
O O16 0.500000 0.000000 0.500000
#
# Coordination Sequence:
#
# PCOD9065496 Si02
#       7
#     2   2   2   2   2   2   2
#     4  12  27  46  74 106 152 189 250 310 372 446
#     4  11  24  48  77 108 152 195 246 308 374 444
#     4  11  25  49  74 104 150 195 246 310 370 447
#     4  11  25  49  74 104 150 195 246 310 370 447
#     4  11  24  48  77 108 152 195 246 308 374 444
#     4  12  24  48  72 112 142 192 254 298 380 444
#     4  12  27  46  74 106 152 189 250 310 372 446
#
# _framework density 22.166961000000001
#
# number of rings (size 3 to 8) (size 9 to 14) (size 15 to 20)
#    0.000    0.571    5.714    3.429    2.000    0.000 
#    5.143    0.000    0.000    0.000    0.000    0.000 
#    0.000    0.000    0.000    0.000    0.000    0.000 
#
# Total GULP energy -78237.553310 kJ/mol
# GULP energy per Si atom -5588.396665 kJ/mol
# Density = 2.211651 g / cm^3
# Si number density = 22.166961 Si / 1000 Ang^3
#
#
#
# Elastic Constant Matrix: (Units=GPa)
#
#
# Indices 1 2 3 4 5 6 
#
# 1 74.2155 31.6644 28.9871 1.7304 0.3284 3.5069
# 2 31.6644 158.0267 77.9092 9.0984 0.4736 -24.4985
# 3 28.9871 77.9092 129.8421 -29.9142 1.5881 -12.0000
# 4 1.7304 9.0984 -29.9142 54.6977 -14.8396 12.9227
# 5 0.3284 0.4736 1.5881 -14.8396 25.5767 -8.9686
# 6 3.5069 -24.4985 -12.0000 12.9227 -8.9686 17.9917
#
#
#
# Elastic Compliance Matrix: (Units=1/GPa)
#
#
# Indices 1 2 3 4 5 6 
#
# 1 0.016850 -0.004700 -0.001855 0.001429 -0.004089 -0.013986
# 2 -0.004700 0.018028 -0.010471 -0.015167 0.002275 0.030508
# 3 -0.001855 -0.010471 0.016660 0.014607 0.003639 -0.011462
# 4 0.001429 -0.015167 0.014607 0.039705 0.010263 -0.034592
# 5 -0.004089 0.002275 0.003639 0.010263 0.053888 0.025813
# 6 -0.013986 0.030508 -0.011462 -0.034592 0.025813 0.129917
#
#
# Mechanical properties :
#
#
# Convention : Reuss Voigt Hill
#
# Bulk Modulus (GPa) = 57.18686 71.02286 64.10486
# Shear Modulus (GPa) = 15.87660 34.55480 25.21570
#
# Velocity S-wave (km/s) = 2.67915 3.95250 3.37640
# Velocity P-wave (km/s) = 5.95186 7.27593 6.64695
#
# Compressibility (1/GPa) = 0.01748654
#
# Stress axis : x y z
#
# Youngs Moduli (GPa) = 59.34822 55.46885 60.02418
#
# Poissons Ratio (x) = 0.26071 0.11133
# Poissons Ratio (y) = 0.27895 0.62850
# Poissons Ratio (z) = 0.11008 0.58080
#
# Static dielectric constant tensor:
#      x y z
#    x 1.771910 0.002470 0.102780 
#    y 0.002470 1.791540 -0.046550 
#    z 0.102780 -0.046550 1.717870 
# 
# From -- ./inp_files/241847.got.cif
#   From: 2010.05.17/outbox.cif.g08.bks.cpg/sg2_121_cif.got.tgz:241847.got - 2010.06.03 11:33:40.
