data_PCOD9065500
_publ_section_title
;
Structure prediction by ZEFSAII (Michael W. Deem and Ramdas Pophale) SiO2 
 PCOD9065500
Probable space group: P -1
;
_chemical_formula_sum "Si O2"
_cell_formula_units_Z 12
_cell_length_a 18.279033
_cell_length_b 13.494778
_cell_length_c 7.367366
_cell_angle_alpha 116.713592
_cell_angle_beta 50.505967
_cell_angle_gamma 158.401949
_cell_volume 447.281116
_symmetry_space_group_name_H-M "P -1"
_symmetry_group_IT_number 2
_symmetry_cell_setting 'triclinic'
loop_
_space_group_symop_operation_xyz
x,y,z
-x,-y,-z
loop_
_atom_site_type_symbol
_atom_site_label
_atom_site_fract_x
_atom_site_fract_y
_atom_site_fract_z
Si Si1 0.418557 0.787090 0.002435
Si Si2 0.128403 0.157259 0.730359
Si Si3 0.364248 0.189820 0.349492
Si Si4 0.780293 0.348315 0.421386
Si Si5 0.678183 0.803559 0.968026
Si Si6 0.045964 0.706704 0.925591
O O1 0.297908 0.664289 0.293164
O O2 0.659870 0.967992 0.716596
O O3 0.177414 0.486109 0.007817
O O4 0.500000 0.000000 0.000000
O O5 0.147927 0.049913 0.552210
O O6 0.420906 0.526086 0.615472
O O7 0.963784 0.056344 0.772963
O O8 0.000000 0.000000 0.000000
O O9 0.446253 0.277317 0.081828
O O10 0.942707 0.584545 0.196989
O O11 0.500000 0.000000 0.500000
O O12 0.917348 0.379288 0.269026
O O13 0.500000 0.500000 0.000000
O O14 0.703231 0.936958 0.172847
#
# Coordination Sequence:
#
# PCOD9065500 Si02
#       6
#     2   2   2   2   2   2
#     4  12  25  49  77 117 155 204 257 328 402 462
#     4  11  24  49  73 107 145 201 258 316 386 460
#     4  11  26  47  73 108 153 196 261 321 385 468
#     4  11  24  48  77 112 153 204 261 321 400 464
#     4  12  25  49  77 111 156 207 258 319 394 461
#     4  11  26  48  75 114 158 203 263 326 389 474
#
# _framework density 26.828765000000001
#
# number of rings (size 3 to 8) (size 9 to 14) (size 15 to 20)
#    0.000    0.667    5.000    2.000    2.333    2.667 
#   12.000    0.000    0.000    0.000    0.000    0.000 
#    0.000    0.000    0.000    0.000    0.000    0.000 
#
# Total GULP energy -66996.260486 kJ/mol
# GULP energy per Si atom -5583.021707 kJ/mol
# Density = 2.676770 g / cm^3
# Si number density = 26.828765 Si / 1000 Ang^3
#
#
#
# Elastic Constant Matrix: (Units=GPa)
#
#
# Indices 1 2 3 4 5 6 
#
# 1 98.9486 30.8437 46.9348 19.3630 -16.4810 -1.8782
# 2 30.8437 147.7326 14.4879 24.5174 5.8818 1.1978
# 3 46.9348 14.4879 117.6241 33.8192 -14.3338 -18.3375
# 4 19.3630 24.5174 33.8192 43.9221 -12.0951 -12.8405
# 5 -16.4810 5.8818 -14.3338 -12.0951 49.2504 5.7598
# 6 -1.8782 1.1978 -18.3375 -12.8405 5.7598 52.3068
#
#
#
# Elastic Compliance Matrix: (Units=1/GPa)
#
#
# Indices 1 2 3 4 5 6 
#
# 1 0.013864 -0.002467 -0.004924 -0.000445 0.003587 -0.001676
# 2 -0.002467 0.008173 0.001022 -0.005270 -0.002691 -0.000915
# 3 -0.004924 0.001022 0.012907 -0.007669 -0.000185 0.002462
# 4 -0.000445 -0.005270 -0.007669 0.035092 0.006242 0.005343
# 5 0.003587 -0.002691 -0.000185 0.006242 0.023413 -0.000920
# 6 -0.001676 -0.000915 0.002462 0.005343 -0.000920 0.021355
#
#
# Mechanical properties :
#
#
# Convention : Reuss Voigt Hill
#
# Bulk Modulus (GPa) = 45.03205 60.98202 53.00703
# Shear Modulus (GPa) = 37.05265 47.23181 42.14223
#
# Velocity S-wave (km/s) = 3.72032 4.20037 3.96761
# Velocity P-wave (km/s) = 5.93934 6.80468 6.38668
#
# Compressibility (1/GPa) = 0.02220640
#
# Stress axis : x y z
#
# Youngs Moduli (GPa) = 72.13007 122.35398 77.47755
#
# Poissons Ratio (x) = 0.30184 0.38152
# Poissons Ratio (y) = 0.17794 -0.07922
# Poissons Ratio (z) = 0.35519 -0.12510
#
# Static dielectric constant tensor:
#      x y z
#    x 2.342020 0.052790 0.038680 
#    y 0.052790 2.159620 -0.113670 
#    z 0.038680 -0.113670 2.027740 
# 
# From -- ./inp_files/200037.got.cif
#   From: 2010.05.17/outbox.cif.g08.bks.cpg/sg2_101_cif.got.tgz:200037.got - 2010.06.03 11:33:40.
