data_PCOD9065882
_publ_section_title
;
Structure prediction by ZEFSAII (Michael W. Deem and Ramdas Pophale) SiO2 
 PCOD9065882
Probable space group: P -1
;
_chemical_formula_sum "Si O2"
_cell_formula_units_Z 14
_cell_length_a 15.921964
_cell_length_b 12.473375
_cell_length_c 9.169909
_cell_angle_alpha 55.850723
_cell_angle_beta 29.497454
_cell_angle_gamma 46.210410
_cell_volume 643.007407
_symmetry_space_group_name_H-M "P -1"
_symmetry_group_IT_number 2
_symmetry_cell_setting 'triclinic'
loop_
_space_group_symop_operation_xyz
x,y,z
-x,-y,-z
loop_
_atom_site_type_symbol
_atom_site_label
_atom_site_fract_x
_atom_site_fract_y
_atom_site_fract_z
Si Si1 0.634817 0.760785 0.054642
Si Si2 0.592664 0.368619 0.077932
Si Si3 0.845584 0.452852 0.836356
Si Si4 0.901018 0.040014 0.778826
Si Si5 0.771572 0.957463 0.520677
Si Si6 0.228139 0.366003 0.748242
Si Si7 0.131609 0.196322 0.808947
O O1 0.676836 0.606542 0.039841
O O2 0.729823 0.838433 0.755971
O O3 0.729168 0.727808 0.097057
O O4 0.406239 0.877320 0.314691
O O5 0.408204 0.398226 0.436362
O O6 0.500000 0.500000 0.000000
O O7 0.756383 0.388738 0.902911
O O8 0.702244 0.202010 0.967632
O O9 0.000000 0.500000 0.500000
O O10 0.944110 0.332770 0.909019
O O11 0.040316 0.051273 0.682733
O O12 0.000000 0.000000 0.500000
O O13 0.887611 0.896630 0.959379
O O14 0.777372 0.920473 0.370597
O O15 0.246524 0.272839 0.645941
O O16 0.000000 0.500000 0.000000
#
# Coordination Sequence:
#
# PCOD9065882 Si02
#       7
#     2   2   2   2   2   2   2
#     4  11  25  43  73 104 145 192 252 298 378 435
#     4  12  30  47  78 111 154 199 253 307 384 447
#     4  12  24  47  77 108 148 199 249 310 371 448
#     4  12  28  47  73 110 152 192 255 316 373 444
#     4  11  25  45  73 104 145 195 248 310 369 445
#     4  12  28  47  73 112 153 194 251 312 368 444
#     4  12  25  46  79  98 151 198 242 307 382 429
#
# _framework density 21.772689
#
# number of rings (size 3 to 8) (size 9 to 14) (size 15 to 20)
#    0.000    0.286    4.286    3.000    8.000    4.000 
#    0.000    0.000    0.000    0.000    0.000    0.000 
#    0.000    0.000    0.000    0.000    0.000    0.000 
#
# Total GULP energy -78260.915076 kJ/mol
# GULP energy per Si atom -5590.065363 kJ/mol
# Density = 2.172313 g / cm^3
# Si number density = 21.772689 Si / 1000 Ang^3
#
#
#
# Elastic Constant Matrix: (Units=GPa)
#
#
# Indices 1 2 3 4 5 6 
#
# 1 64.6132 -25.5477 11.2055 -67.8988 -17.0623 6.0665
# 2 -25.5477 90.7856 23.0447 -54.5690 -26.6695 -6.2651
# 3 11.2055 23.0447 97.1468 -22.0546 -5.1812 -2.6243
# 4 -67.8988 -54.5690 -22.0546 -53.4996 -34.8113 20.9713
# 5 -17.0623 -26.6695 -5.1812 -34.8113 27.9440 -0.7309
# 6 6.0665 -6.2651 -2.6243 20.9713 -0.7309 48.0285
#
#
#
# Elastic Compliance Matrix: (Units=1/GPa)
#
#
# Indices 1 2 3 4 5 6 
#
# 1 0.008366 -0.001452 -0.002048 -0.005570 -0.003570 0.001020
# 2 -0.001452 0.008766 -0.002927 -0.005047 0.000738 0.003382
# 3 -0.002048 -0.002927 0.011463 0.001162 -0.000472 -0.000011
# 4 -0.005570 -0.005047 0.001162 -0.000891 -0.009102 0.000359
# 5 -0.003570 0.000738 -0.000472 -0.009102 0.023011 0.004846
# 6 0.001020 0.003382 -0.000011 0.000359 0.004846 0.021050
#
#
# Mechanical properties :
#
#
# Convention : Reuss Voigt Hill
#
# Bulk Modulus (GPa) = 63.52908 29.99453 46.76180
# Shear Modulus (GPa) = 55.63828 20.75080 38.19454
#
# Velocity S-wave (km/s) = 5.06060 3.09053 4.19291
# Velocity P-wave (km/s) = 7.96165 5.15182 6.70556
#
# Compressibility (1/GPa) = 0.01574082
#
# Stress axis : x y z
#
# Youngs Moduli (GPa) = 119.53014 114.07509 87.24093
#
# Poissons Ratio (x) = 0.16565 0.17866
# Poissons Ratio (y) = 0.17357 0.25535
# Poissons Ratio (z) = 0.24478 0.33389
#
# Static dielectric constant tensor:
#      x y z
#    x 1.763660 -0.002700 0.018910 
#    y -0.002700 1.837390 -0.033870 
#    z 0.018910 -0.033870 1.875960 
# 
# From -- ./inp_files/166519.got.cif
#   From: 2010.05.17/outbox.cif.g08.bks.cpg/sg2_84_cif.got.tgz:166519.got - 2010.06.03 11:33:40.
