data_PCOD9065457
_publ_section_title
;
Structure prediction by ZEFSAII (Michael W. Deem and Ramdas Pophale) SiO2 
 PCOD9065457
Probable space group: P -1
;
_chemical_formula_sum "Si O2"
_cell_formula_units_Z 16
_cell_length_a 9.171115
_cell_length_b 8.735053
_cell_length_c 14.491733
_cell_angle_alpha 82.309278
_cell_angle_beta 77.695373
_cell_angle_gamma 133.877740
_cell_volume 749.430483
_symmetry_space_group_name_H-M "P -1"
_symmetry_group_IT_number 2
_symmetry_cell_setting 'triclinic'
loop_
_space_group_symop_operation_xyz
x,y,z
-x,-y,-z
loop_
_atom_site_type_symbol
_atom_site_label
_atom_site_fract_x
_atom_site_fract_y
_atom_site_fract_z
Si Si1 0.531408 0.906854 0.680439
Si Si2 0.765123 0.200910 0.954951
Si Si3 0.066685 0.783724 0.257657
Si Si4 0.741233 0.293794 0.435435
Si Si5 0.185645 0.086041 0.701130
Si Si6 0.118915 0.729588 0.856476
Si Si7 0.634955 0.503744 0.555926
Si Si8 0.871838 0.065660 0.489184
O O1 0.436729 0.913152 0.598651
O O2 0.315886 0.767467 0.787492
O O3 0.731060 0.098601 0.708793
O O4 0.668762 0.878469 0.605259
O O5 0.855560 0.168138 0.861658
O O6 0.885129 0.458817 0.902913
O O7 0.833531 0.202237 0.047994
O O8 0.500000 0.000000 0.000000
O O9 0.885556 0.514271 0.329137
O O10 0.961810 0.872669 0.277565
O O11 0.678851 0.372441 0.513695
O O12 0.874063 0.255804 0.464980
O O13 0.444070 0.327792 0.672085
O O14 0.116284 0.887042 0.788200
O O15 0.169703 0.017473 0.602883
O O16 0.500000 0.500000 0.500000
O O17 0.872497 0.765484 0.526879
#
# Coordination Sequence:
#
# PCOD9065457 Si02
#       8
#     2   2   2   2   2   2   2   2
#     4  12  22  40  69  95 132 176 221 271 311 394
#     4  11  24  48  74  96 119 167 223 284 329 400
#     4  12  26  41  68  96 133 172 219 268 341 378
#     4  12  23  41  62  96 134 179 224 262 313 390
#     4  12  26  43  62 102 140 175 212 273 322 390
#     4  11  25  44  73  96 127 166 225 275 336 379
#     4  12  25  40  63  98 142 184 219 261 316 383
#     4  12  25  38  65  96 139 180 225 256 314 389
#
# _framework density 21.349546
#
# number of rings (size 3 to 8) (size 9 to 14) (size 15 to 20)
#    0.000    0.250    7.500    1.500    3.500    2.500 
#    0.000    0.625    0.000    0.000    0.000    0.000 
#    0.000    0.000    0.000    0.000    0.000    0.000 
#
# Total GULP energy -89180.616979 kJ/mol
# GULP energy per Si atom -5573.788561 kJ/mol
# Density = 2.130095 g / cm^3
# Si number density = 21.349546 Si / 1000 Ang^3
#
#
#
# Elastic Constant Matrix: (Units=GPa)
#
#
# Indices 1 2 3 4 5 6 
#
# 1 69.1615 7.6001 30.1479 -8.2903 -7.3652 13.1628
# 2 7.6001 77.0593 29.9288 -1.9930 0.6929 24.6440
# 3 30.1479 29.9288 114.7486 6.0136 -1.7429 1.6507
# 4 -8.2903 -1.9930 6.0136 36.6348 -2.4725 3.7370
# 5 -7.3652 0.6929 -1.7429 -2.4725 38.6543 0.3449
# 6 13.1628 24.6440 1.6507 3.7370 0.3449 34.0129
#
#
#
# Elastic Compliance Matrix: (Units=1/GPa)
#
#
# Indices 1 2 3 4 5 6 
#
# 1 0.020438 0.004479 -0.006697 0.007436 0.004092 -0.011688
# 2 0.004479 0.020612 -0.006561 0.004980 0.000658 -0.016903
# 3 -0.006697 -0.006561 0.012312 -0.004701 -0.000969 0.007274
# 4 0.007436 0.004980 -0.004701 0.031230 0.003200 -0.009722
# 5 0.004092 0.000658 -0.000969 0.003200 0.026823 -0.002636
# 6 -0.011688 -0.016903 0.007274 -0.009722 -0.002636 0.046913
#
#
# Mechanical properties :
#
#
# Convention : Reuss Voigt Hill
#
# Bulk Modulus (GPa) = 27.92982 44.03588 35.98285
# Shear Modulus (GPa) = 26.62128 34.74660 30.68394
#
# Velocity S-wave (km/s) = 3.53501 4.03862 3.79518
# Velocity P-wave (km/s) = 5.45640 6.51292 6.00793
#
# Compressibility (1/GPa) = 0.03580403
#
# Stress axis : x y z
#
# Youngs Moduli (GPa) = 48.92924 48.51557 81.21892
#
# Poissons Ratio (x) = -0.21729 0.54394
# Poissons Ratio (y) = -0.21914 0.53285
# Poissons Ratio (z) = 0.32769 0.31829
#
# Static dielectric constant tensor:
#      x y z
#    x 1.839090 -0.002300 -0.050900 
#    y -0.002300 1.873270 -0.057170 
#    z -0.050900 -0.057170 1.819370 
# 
# From -- ./inp_files/492971.got.cif
#   From: 2010.05.17/outbox.cif.g08.bks.cpg/sg2_247_cif.got.tgz:492971.got - 2010.06.03 11:33:40.
