data_PCOD9065413
_publ_section_title
;
Structure prediction by ZEFSAII (Michael W. Deem and Ramdas Pophale) SiO2 
 PCOD9065413
Probable space group: P -1
;
_chemical_formula_sum "Si O2"
_cell_formula_units_Z 16
_cell_length_a 19.310339
_cell_length_b 13.097844
_cell_length_c 9.152934
_cell_angle_alpha 135.170092
_cell_angle_beta 107.139692
_cell_angle_gamma 35.768705
_cell_volume 698.359353
_symmetry_space_group_name_H-M "P -1"
_symmetry_group_IT_number 2
_symmetry_cell_setting 'triclinic'
loop_
_space_group_symop_operation_xyz
x,y,z
-x,-y,-z
loop_
_atom_site_type_symbol
_atom_site_label
_atom_site_fract_x
_atom_site_fract_y
_atom_site_fract_z
Si Si1 0.560219 0.553047 0.617303
Si Si2 0.253626 0.088614 0.115490
Si Si3 0.970265 0.501523 0.147937
Si Si4 0.119520 0.663214 0.032281
Si Si5 0.753455 0.105974 0.825444
Si Si6 0.662847 0.477888 0.897181
Si Si7 0.313815 0.246967 0.463817
Si Si8 0.806818 0.242352 0.228675
O O1 0.500000 0.500000 0.500000
O O2 0.662734 0.432480 0.428682
O O3 0.664836 0.378909 0.651821
O O4 0.385318 0.931438 0.933119
O O5 0.126913 0.234574 0.081505
O O6 0.196471 0.326270 0.417368
O O7 0.318328 0.865603 0.058184
O O8 0.920518 0.422912 0.016817
O O9 0.847598 0.826866 0.492308
O O10 0.000000 0.500000 0.000000
O O11 0.181980 0.693055 0.186043
O O12 0.273188 0.353983 0.712758
O O13 0.966323 0.976937 0.155103
O O14 0.654154 0.387316 0.939670
O O15 0.843727 0.067966 0.940077
O O16 0.498438 0.865285 0.181227
O O17 0.264309 0.479007 0.584847
#
# Coordination Sequence:
#
# PCOD9065413 Si02
#       8
#     2   2   2   2   2   2   2   2
#     4  11  25  48  71 104 150 187 245 304 366 423
#     4  11  24  48  73 104 147 199 246 295 362 443
#     4  12  28  46  75 113 146 188 243 309 369 426
#     4  12  24  47  71 108 147 189 242 308 359 436
#     4  12  24  46  77 110 137 196 254 288 365 441
#     4  11  29  45  73 112 145 192 250 301 361 439
#     4  11  25  48  71 107 150 195 245 297 364 434
#     4  12  26  44  80 104 145 204 240 296 371 432
#
# _framework density 22.910841000000001
#
# number of rings (size 3 to 8) (size 9 to 14) (size 15 to 20)
#    0.000    0.500    5.000    1.875    5.250    6.500 
#    0.000    0.000    0.000    0.000    0.000    0.000 
#    0.000    0.000    0.000    0.000    0.000    0.000 
#
# Total GULP energy -89266.844268 kJ/mol
# GULP energy per Si atom -5579.177767 kJ/mol
# Density = 2.285869 g / cm^3
# Si number density = 22.910841 Si / 1000 Ang^3
#
#
#
# Elastic Constant Matrix: (Units=GPa)
#
#
# Indices 1 2 3 4 5 6 
#
# 1 202.1582 93.5457 42.2895 12.6019 36.9196 20.7568
# 2 93.5457 107.5968 40.0193 -11.2657 20.2468 3.2184
# 3 42.2895 40.0193 70.8650 5.7720 8.1506 9.9500
# 4 12.6019 -11.2657 5.7720 54.0560 10.2434 20.3993
# 5 36.9196 20.2468 8.1506 10.2434 42.1876 3.9301
# 6 20.7568 3.2184 9.9500 20.3993 3.9301 53.8568
#
#
#
# Elastic Compliance Matrix: (Units=1/GPa)
#
#
# Indices 1 2 3 4 5 6 
#
# 1 0.009662 -0.007639 -0.000529 -0.002279 -0.003946 -0.002019
# 2 -0.007639 0.019850 -0.006934 0.007048 -0.003269 0.000608
# 3 -0.000529 -0.006934 0.018713 -0.002819 0.001032 -0.001847
# 4 -0.002279 0.007048 -0.002819 0.025004 -0.006166 -0.008043
# 5 -0.003946 -0.003269 0.001032 -0.006166 0.029867 0.001681
# 6 -0.002019 0.000608 -0.001847 -0.008043 0.001681 0.022574
#
#
# Mechanical properties :
#
#
# Convention : Reuss Voigt Hill
#
# Bulk Modulus (GPa) = 55.49430 81.36989 68.43209
# Shear Modulus (GPa) = 30.88662 43.67112 37.27887
#
# Velocity S-wave (km/s) = 3.67566 4.37067 4.03814
# Velocity P-wave (km/s) = 6.50295 7.81430 7.18859
#
# Compressibility (1/GPa) = 0.01801987
#
# Stress axis : x y z
#
# Youngs Moduli (GPa) = 103.49595 50.37839 53.43826
#
# Poissons Ratio (x) = 0.38486 0.02827
# Poissons Ratio (y) = 0.79064 0.37056
# Poissons Ratio (z) = 0.05475 0.34934
#
# Static dielectric constant tensor:
#      x y z
#    x 1.989660 -0.098460 0.065810 
#    y -0.098460 1.891310 -0.077870 
#    z 0.065810 -0.077870 2.189670 
# 
# From -- ./inp_files/333785.got.cif
#   From: 2010.05.17/outbox.cif.g08.bks.cpg/sg2_167_cif.got.tgz:333785.got - 2010.06.03 11:33:40.
