data_PCOD9065239
_publ_section_title
;
Structure prediction by ZEFSAII (Michael W. Deem and Ramdas Pophale) SiO2 
 PCOD9065239
Probable space group: P -1
;
_chemical_formula_sum "Si O2"
_cell_formula_units_Z 13
_cell_length_a 8.624362
_cell_length_b 8.970536
_cell_length_c 10.356774
_cell_angle_alpha 74.302680
_cell_angle_beta 126.287058
_cell_angle_gamma 127.923146
_cell_volume 503.976462
_symmetry_space_group_name_H-M "P -1"
_symmetry_group_IT_number 2
_symmetry_cell_setting 'triclinic'
loop_
_space_group_symop_operation_xyz
x,y,z
-x,-y,-z
loop_
_atom_site_type_symbol
_atom_site_label
_atom_site_fract_x
_atom_site_fract_y
_atom_site_fract_z
Si Si1 0.475985 0.015070 0.177161
Si Si2 0.944265 0.743719 0.295954
Si Si3 0.723031 0.510586 0.757158
Si Si4 0.261091 0.175183 0.630680
Si Si5 0.500000 0.000000 0.500000
Si Si6 0.795761 0.418179 0.103167
Si Si7 0.992933 0.086335 0.112220
O O1 0.607780 0.224024 0.131526
O O2 0.630708 0.937432 0.241508
O O3 0.435075 0.003070 0.313366
O O4 0.216283 0.887920 0.014496
O O5 0.782425 0.677409 0.357676
O O6 0.835635 0.590551 0.166658
O O7 0.217132 0.835210 0.431743
O O8 0.929527 0.919275 0.215795
O O9 0.484365 0.334490 0.613255
O O10 0.950869 0.548515 0.788099
O O11 0.779785 0.716467 0.767955
O O12 0.720132 0.435510 0.918649
O O13 0.000000 0.000000 0.500000
O O14 0.000000 0.000000 0.000000
#
# Coordination Sequence:
#
# PCOD9065239 Si02
#       7
#     2   2   2   2   1   2   2
#     4  12  26  49  74 109 152 196 252 312 377 447
#     4  12  26  46  76 111 152 199 255 310 375 454
#     4  11  24  47  75 111 154 194 249 320 371 446
#     4  12  27  48  73 107 152 202 248 310 381 452
#     4  12  24  46  72 100 158 198 240 314 370 446
#     4  11  25  45  78 114 146 199 252 312 381 440
#     4  12  24  45  78 110 143 198 254 310 372 440
#
# _framework density 25.794854999999998
#
# number of rings (size 3 to 8) (size 9 to 14) (size 15 to 20)
#    0.000    0.308    4.615    4.615    2.154    3.692 
#    2.769    1.538    0.000    0.000    0.000    0.000 
#    0.000    0.000    0.000    0.000    0.000    0.000 
#
# Total GULP energy -72488.286199 kJ/mol
# GULP energy per Si atom -5576.022015 kJ/mol
# Density = 2.573615 g / cm^3
# Si number density = 25.794855 Si / 1000 Ang^3
#
#
#
# Elastic Constant Matrix: (Units=GPa)
#
#
# Indices 1 2 3 4 5 6 
#
# 1 79.8115 22.2916 15.8503 4.4995 2.0956 -6.1616
# 2 22.2916 151.2749 29.4331 21.2771 8.8633 -9.1576
# 3 15.8503 29.4331 105.6349 29.4558 4.9832 3.9515
# 4 4.4995 21.2771 29.4558 27.3410 17.5613 2.2863
# 5 2.0956 8.8633 4.9832 17.5613 37.8048 4.6783
# 6 -6.1616 -9.1576 3.9515 2.2863 4.6783 44.6772
#
#
#
# Elastic Compliance Matrix: (Units=1/GPa)
#
#
# Indices 1 2 3 4 5 6 
#
# 1 0.013472 -0.001680 -0.002124 0.002021 -0.001225 0.001726
# 2 -0.001680 0.007839 -0.000279 -0.006317 0.001027 0.001615
# 3 -0.002124 -0.000279 0.015445 -0.021203 0.008181 -0.001488
# 4 0.002021 -0.006317 -0.021203 0.087406 -0.036464 0.000205
# 5 -0.001225 0.001027 0.008181 -0.036464 0.042544 -0.003271
# 6 0.001726 0.001615 -0.001488 0.000205 -0.003271 0.023416
#
#
# Mechanical properties :
#
#
# Convention : Reuss Voigt Hill
#
# Bulk Modulus (GPa) = 34.97733 52.43014 43.70374
# Shear Modulus (GPa) = 24.05964 39.90771 31.98367
#
# Velocity S-wave (km/s) = 3.05738 3.93761 3.52508
# Velocity P-wave (km/s) = 5.10418 6.40648 5.79205
#
# Compressibility (1/GPa) = 0.02858994
#
# Stress axis : x y z
#
# Youngs Moduli (GPa) = 74.22798 127.57460 64.74486
#
# Poissons Ratio (x) = 0.21432 0.13750
# Poissons Ratio (y) = 0.12470 0.01808
# Poissons Ratio (z) = 0.15764 0.03563
#
# Static dielectric constant tensor:
#      x y z
#    x 2.283100 0.036630 -0.200750 
#    y 0.036630 2.035830 -0.041050 
#    z -0.200750 -0.041050 2.186170 
# 
# From -- ./inp_files/378498.got.cif
#   From: 2010.05.17/outbox.cif.g08.bks.cpg/sg2_190_cif.got.tgz:378498.got - 2010.06.03 11:33:40.
