data_PCOD9065588
_publ_section_title
;
Structure prediction by ZEFSAII (Michael W. Deem and Ramdas Pophale) SiO2 
 PCOD9065588
Probable space group: P -1
;
_chemical_formula_sum "Si O2"
_cell_formula_units_Z 15
_cell_length_a 20.869698
_cell_length_b 8.556116
_cell_length_c 13.781717
_cell_angle_alpha 147.234044
_cell_angle_beta 29.247306
_cell_angle_gamma 142.370980
_cell_volume 634.716531
_symmetry_space_group_name_H-M "P -1"
_symmetry_group_IT_number 2
_symmetry_cell_setting 'triclinic'
loop_
_space_group_symop_operation_xyz
x,y,z
-x,-y,-z
loop_
_atom_site_type_symbol
_atom_site_label
_atom_site_fract_x
_atom_site_fract_y
_atom_site_fract_z
Si Si1 0.068718 0.194908 0.599912
Si Si2 0.327083 0.706533 0.496538
Si Si3 0.699933 0.653192 0.160460
Si Si4 0.500000 0.500000 0.000000
Si Si5 0.372510 0.793682 0.156335
Si Si6 0.591303 0.525390 0.536218
Si Si7 0.867190 0.604509 0.091677
Si Si8 0.908959 0.180029 0.435825
O O1 0.202467 0.423856 0.508930
O O2 0.102417 0.991590 0.535826
O O3 0.000000 0.000000 0.500000
O O4 0.961241 0.381246 0.874391
O O5 0.400287 0.670352 0.482167
O O6 0.272493 0.005167 0.726434
O O7 0.424442 0.701160 0.274713
O O8 0.556077 0.595027 0.376402
O O9 0.816345 0.583019 0.037275
O O10 0.671645 0.437119 0.993012
O O11 0.519769 0.300283 0.965947
O O12 0.233481 0.769510 0.386235
O O13 0.408076 0.136092 0.258025
O O14 0.727868 0.532424 0.299935
O O15 0.944107 0.939296 0.190296
O O16 0.000000 0.500000 0.500000
#
# Coordination Sequence:
#
# PCOD9065588 Si02
#       8
#     2   2   2   1   2   2   2   2
#     4  12  28  48  75 109 150 198 246 307 367 442
#     4  12  27  48  72 108 150 188 256 299 368 442
#     4  12  26  46  73 111 147 194 243 310 364 443
#     4  12  28  46  76 102 150 194 248 304 366 430
#     4  11  25  48  73 108 147 195 244 308 368 438
#     4  11  24  49  74 107 150 192 247 300 378 438
#     4  11  26  47  78 107 151 194 242 310 371 444
#     4  11  26  49  74 109 147 195 247 303 374 444
#
# _framework density 23.632598000000002
#
# number of rings (size 3 to 8) (size 9 to 14) (size 15 to 20)
#    0.000    0.533    4.000    4.000    5.600    1.600 
#    0.000    0.000    0.000    0.000    0.000    0.000 
#    0.000    0.000    0.000    0.000    0.000    0.000 
#
# Total GULP energy -83713.015351 kJ/mol
# GULP energy per Si atom -5580.867690 kJ/mol
# Density = 2.357881 g / cm^3
# Si number density = 23.632598 Si / 1000 Ang^3
#
#
#
# Elastic Constant Matrix: (Units=GPa)
#
#
# Indices 1 2 3 4 5 6 
#
# 1 93.6451 9.6050 0.2272 14.3974 -0.3719 -15.3667
# 2 9.6050 87.5380 9.4389 29.8150 6.2471 9.9254
# 3 0.2272 9.4389 105.8243 15.3867 1.5528 -6.4922
# 4 14.3974 29.8150 15.3867 29.2846 -0.5171 -4.1382
# 5 -0.3719 6.2471 1.5528 -0.5171 38.3122 -1.8344
# 6 -15.3667 9.9254 -6.4922 -4.1382 -1.8344 34.6383
#
#
#
# Elastic Compliance Matrix: (Units=1/GPa)
#
#
# Indices 1 2 3 4 5 6 
#
# 1 0.012423 -0.000054 0.001148 -0.005939 0.000244 0.005045
# 2 -0.000054 0.020169 0.000981 -0.022295 -0.004037 -0.008497
# 3 0.001148 0.000981 0.010450 -0.006876 -0.000601 0.001333
# 4 -0.005939 -0.022295 -0.006876 0.064956 0.005236 0.010503
# 5 0.000244 -0.004037 -0.000601 0.005236 0.027011 0.003208
# 6 0.005045 -0.008497 0.001333 0.010503 0.003208 0.035217
#
#
# Mechanical properties :
#
#
# Convention : Reuss Voigt Hill
#
# Bulk Modulus (GPa) = 21.19021 36.17217 28.68119
# Shear Modulus (GPa) = 27.50180 38.29610 32.89895
#
# Velocity S-wave (km/s) = 3.41504 4.02988 3.73513
# Velocity P-wave (km/s) = 4.95338 6.08215 5.54655
#
# Compressibility (1/GPa) = 0.04719161
#
# Stress axis : x y z
#
# Youngs Moduli (GPa) = 80.49419 49.58161 95.69364
#
# Poissons Ratio (x) = 0.00266 -0.10981
# Poissons Ratio (y) = 0.00431 -0.09386
# Poissons Ratio (z) = -0.09237 -0.04863
#
# Static dielectric constant tensor:
#      x y z
#    x 1.866530 0.014870 0.035070 
#    y 0.014870 1.912250 -0.061590 
#    z 0.035070 -0.061590 1.908570 
# 
# From -- ./inp_files/540350.got.cif
#   From: 2010.05.17/outbox.cif.g08.bks.cpg/sg2_271_cif.got.tgz:540350.got - 2010.06.03 11:33:40.
