data_PCOD9065090
_publ_section_title
;
Structure prediction by ZEFSAII (Michael W. Deem and Ramdas Pophale) SiO2 
 PCOD9065090
Probable space group: P -1
;
_chemical_formula_sum "Si O2"
_cell_formula_units_Z 16
_cell_length_a 21.248200
_cell_length_b 12.039974
_cell_length_c 9.056947
_cell_angle_alpha 42.862897
_cell_angle_beta 149.589442
_cell_angle_gamma 142.595264
_cell_volume 703.742025
_symmetry_space_group_name_H-M "P -1"
_symmetry_group_IT_number 2
_symmetry_cell_setting 'triclinic'
loop_
_space_group_symop_operation_xyz
x,y,z
-x,-y,-z
loop_
_atom_site_type_symbol
_atom_site_label
_atom_site_fract_x
_atom_site_fract_y
_atom_site_fract_z
Si Si1 0.633383 0.483063 0.725830
Si Si2 0.066562 0.205254 0.870422
Si Si3 0.918620 0.270536 0.253090
Si Si4 0.378268 0.399183 0.729163
Si Si5 0.059878 0.201182 0.357981
Si Si6 0.342014 0.850494 0.733767
Si Si7 0.962016 0.326956 0.788095
Si Si8 0.368080 0.040241 0.897198
O O1 0.500000 0.500000 0.500000
O O2 0.623903 0.475766 0.535271
O O3 0.772086 0.666651 0.882942
O O4 0.641802 0.307841 0.985313
O O5 0.026847 0.215641 0.611506
O O6 0.986471 0.306839 0.686659
O O7 0.000000 0.000000 0.000000
O O8 0.970671 0.285635 0.177254
O O9 0.944736 0.468110 0.167476
O O10 0.760269 0.118007 0.117517
O O11 0.228098 0.313961 0.591830
O O12 0.386970 0.231204 0.821161
O O13 0.500000 0.500000 0.000000
O O14 0.000000 0.000000 0.500000
O O15 0.017159 0.199774 0.104078
O O16 0.202857 0.749091 0.454265
O O17 0.328993 0.989336 0.692602
O O18 0.478403 0.949220 0.809246
#
# Coordination Sequence:
#
# PCOD9065090 Si02
#       8
#     2   2   2   2   2   2   2   2
#     4  12  25  46  75 104 143 189 242 301 355 426
#     4  12  24  41  73 106 139 184 248 297 354 415
#     4  12  24  45  70 105 147 187 238 295 360 431
#     4  12  28  50  70 104 149 193 243 294 366 432
#     4  12  27  50  72 104 146 193 241 295 357 439
#     4  11  25  46  75 111 146 182 242 302 366 421
#     4  12  25  46  73 107 142 192 238 300 363 424
#     4  11  24  47  71 105 150 183 236 304 356 428
#
# _framework density 22.735605
#
# number of rings (size 3 to 8) (size 9 to 14) (size 15 to 20)
#    0.000    0.250    6.250    3.000    3.500    0.000 
#    4.500    1.250    0.000    0.000    0.000    0.000 
#    0.000    0.000    0.000    0.000    0.000    0.000 
#
# Total GULP energy -89421.922837 kJ/mol
# GULP energy per Si atom -5588.870177 kJ/mol
# Density = 2.268386 g / cm^3
# Si number density = 22.735605 Si / 1000 Ang^3
#
#
#
# Elastic Constant Matrix: (Units=GPa)
#
#
# Indices 1 2 3 4 5 6 
#
# 1 112.3446 41.2432 25.0936 24.7728 18.9735 3.9013
# 2 41.2432 133.2818 60.3852 11.9841 1.5952 -1.3723
# 3 25.0936 60.3852 126.8941 28.8251 5.5198 26.7623
# 4 24.7728 11.9841 28.8251 42.0794 13.7110 14.0421
# 5 18.9735 1.5952 5.5198 13.7110 40.6156 5.6625
# 6 3.9013 -1.3723 26.7623 14.0421 5.6625 45.4411
#
#
#
# Elastic Compliance Matrix: (Units=1/GPa)
#
#
# Indices 1 2 3 4 5 6 
#
# 1 0.011806 -0.003337 0.000479 -0.005349 -0.003744 0.000723
# 2 -0.003337 0.010993 -0.005611 0.001208 0.001005 0.003425
# 3 0.000479 -0.005611 0.013062 -0.005912 0.001083 -0.006212
# 4 -0.005349 0.001208 -0.005912 0.035126 -0.007779 -0.005908
# 5 -0.003744 0.001005 0.001083 -0.007779 0.029018 -0.001498
# 6 0.000723 0.003425 -0.006212 -0.005908 -0.001498 0.027718
#
#
# Mechanical properties :
#
#
# Convention : Reuss Voigt Hill
#
# Bulk Modulus (GPa) = 52.85052 69.55160 61.20106
# Shear Modulus (GPa) = 33.11925 42.01380 37.56653
#
# Velocity S-wave (km/s) = 3.82083 4.30342 4.06929
# Velocity P-wave (km/s) = 6.53920 7.43979 7.00399
#
# Compressibility (1/GPa) = 0.01892129
#
# Stress axis : x y z
#
# Youngs Moduli (GPa) = 84.70200 90.97096 76.55789
#
# Poissons Ratio (x) = 0.30357 -0.03665
# Poissons Ratio (y) = 0.28265 0.42960
# Poissons Ratio (z) = -0.04055 0.51048
#
# Static dielectric constant tensor:
#      x y z
#    x 1.827610 -0.012770 0.032060 
#    y -0.012770 1.888260 -0.010970 
#    z 0.032060 -0.010970 1.844640 
# 
# From -- ./inp_files/280219.got.cif
#   From: 2010.05.17/outbox.cif.g08.bks.cpg/sg2_141_cif.got.tgz:280219.got - 2010.06.03 11:33:40.
