data_PCOD9065359
_publ_section_title
;
Structure prediction by ZEFSAII (Michael W. Deem and Ramdas Pophale) SiO2 
 PCOD9065359
Probable space group: P -1
;
_chemical_formula_sum "Si O2"
_cell_formula_units_Z 12
_cell_length_a 12.475729
_cell_length_b 13.104898
_cell_length_c 5.698975
_cell_angle_alpha 63.045293
_cell_angle_beta 84.975428
_cell_angle_gamma 41.223499
_cell_volume 493.788729
_symmetry_space_group_name_H-M "P -1"
_symmetry_group_IT_number 2
_symmetry_cell_setting 'triclinic'
loop_
_space_group_symop_operation_xyz
x,y,z
-x,-y,-z
loop_
_atom_site_type_symbol
_atom_site_label
_atom_site_fract_x
_atom_site_fract_y
_atom_site_fract_z
Si Si1 0.604865 0.422106 0.809438
Si Si2 0.879126 0.016357 0.358493
Si Si3 0.337591 0.364652 0.482955
Si Si4 0.985298 0.714515 0.382022
Si Si5 0.713652 0.982515 0.771381
Si Si6 0.796699 0.705659 0.748928
O O1 0.500000 0.500000 0.500000
O O2 0.676707 0.489964 0.724948
O O3 0.500000 0.500000 0.000000
O O4 0.761794 0.193129 0.020779
O O5 0.002505 0.814133 0.426855
O O6 0.739177 0.061042 0.493444
O O7 0.000000 0.000000 0.500000
O O8 0.307004 0.314277 0.310524
O O9 0.169565 0.488172 0.557433
O O10 0.533050 0.167872 0.751412
O O11 0.833864 0.762362 0.470720
O O12 0.901312 0.822723 0.039189
O O13 0.698441 0.868318 0.787832
O O14 0.000000 0.500000 0.000000
#
# Coordination Sequence:
#
# PCOD9065359 Si02
#       6
#     2   2   2   2   2   2
#     4  12  28  50  76 114 156 197 263 321 379 468
#     4  11  26  47  74 105 154 198 252 315 389 451
#     4  12  25  45  78 105 143 200 247 309 383 448
#     4  11  26  47  71 106 147 194 248 320 376 459
#     4  11  24  48  71 106 147 189 251 309 378 460
#     4  11  25  47  70 106 150 188 248 312 382 455
#
# _framework density 24.301891999999999
#
# number of rings (size 3 to 8) (size 9 to 14) (size 15 to 20)
#    0.000    0.667    3.333    3.000    4.667    2.000 
#    6.000    0.000    0.000    0.000    0.000    0.000 
#    0.000    0.000    0.000    0.000    0.000    0.000 
#
# Total GULP energy -67169.093554 kJ/mol
# GULP energy per Si atom -5597.424463 kJ/mol
# Density = 2.424658 g / cm^3
# Si number density = 24.301892 Si / 1000 Ang^3
#
#
#
# Elastic Constant Matrix: (Units=GPa)
#
#
# Indices 1 2 3 4 5 6 
#
# 1 105.9766 23.8398 26.6788 0.2983 12.0587 37.9956
# 2 23.8398 121.4927 20.9065 -19.4314 20.2929 2.9280
# 3 26.6788 20.9065 103.4062 -16.4023 8.2823 9.8508
# 4 0.2983 -19.4314 -16.4023 39.8943 -1.1502 5.2447
# 5 12.0587 20.2929 8.2823 -1.1502 34.1290 -3.3350
# 6 37.9956 2.9280 9.8508 5.2447 -3.3350 52.7132
#
#
#
# Elastic Compliance Matrix: (Units=1/GPa)
#
#
# Indices 1 2 3 4 5 6 
#
# 1 0.014533 -0.001530 -0.002173 -0.000539 -0.004715 -0.010229
# 2 -0.001530 0.010252 -0.000497 0.004671 -0.005294 -0.000174
# 3 -0.002173 -0.000497 0.011278 0.004504 -0.001626 -0.001064
# 4 -0.000539 0.004671 0.004504 0.029616 -0.003059 -0.003853
# 5 -0.004715 -0.005294 -0.001626 -0.003059 0.035043 0.006518
# 6 -0.010229 -0.000174 -0.001064 -0.003853 0.006518 0.027348
#
#
# Mechanical properties :
#
#
# Convention : Reuss Voigt Hill
#
# Bulk Modulus (GPa) = 36.14904 52.63617 44.39261
# Shear Modulus (GPa) = 34.31952 42.64401 38.48176
#
# Velocity S-wave (km/s) = 3.76202 4.19353 3.98362
# Velocity P-wave (km/s) = 5.81186 6.71967 6.28218
#
# Compressibility (1/GPa) = 0.02766325
#
# Stress axis : x y z
#
# Youngs Moduli (GPa) = 68.81044 97.54052 88.66953
#
# Poissons Ratio (x) = 0.14920 0.19272
# Poissons Ratio (y) = 0.10526 0.04403
# Poissons Ratio (z) = 0.14956 0.04844
#
# Static dielectric constant tensor:
#      x y z
#    x 1.921820 -0.054610 -0.012060 
#    y -0.054610 1.975080 0.056370 
#    z -0.012060 0.056370 1.959100 
# 
# From -- ./inp_files/22260.got.cif
#   From: 2010.05.17/outbox.cif.g08.bks.cpg/sg2_12_cif.got.tgz:22260.got - 2010.06.03 11:33:40.
