data_PCOD9065191
_publ_section_title
;
Structure prediction by ZEFSAII (Michael W. Deem and Ramdas Pophale) SiO2 
 PCOD9065191
Probable space group: P -1
;
_chemical_formula_sum "Si O2"
_cell_formula_units_Z 16
_cell_length_a 11.960485
_cell_length_b 26.580173
_cell_length_c 5.855530
_cell_angle_alpha 46.447094
_cell_angle_beta 121.821240
_cell_angle_gamma 150.785338
_cell_volume 643.874974
_symmetry_space_group_name_H-M "P -1"
_symmetry_group_IT_number 2
_symmetry_cell_setting 'triclinic'
loop_
_space_group_symop_operation_xyz
x,y,z
-x,-y,-z
loop_
_atom_site_type_symbol
_atom_site_label
_atom_site_fract_x
_atom_site_fract_y
_atom_site_fract_z
Si Si1 0.336218 0.722703 0.135680
Si Si2 0.960583 0.313198 0.751339
Si Si3 0.786305 0.440888 0.817432
Si Si4 0.579539 0.113720 0.581783
Si Si5 0.836237 0.095276 0.895957
Si Si6 0.704160 0.751236 0.900231
Si Si7 0.815645 0.929736 0.222951
Si Si8 0.400613 0.427240 0.874993
O O1 0.449723 0.824493 0.757008
O O2 0.150367 0.692481 0.145402
O O3 0.218491 0.603444 0.282849
O O4 0.547407 0.793769 0.300959
O O5 0.754908 0.206469 0.689864
O O6 0.151658 0.451739 0.435132
O O7 0.122847 0.319110 0.947762
O O8 0.517759 0.317296 0.989146
O O9 0.000000 0.500000 0.000000
O O10 0.326593 0.979513 0.817911
O O11 0.716402 0.111284 0.602501
O O12 0.113532 0.218323 0.858123
O O13 0.801281 0.005450 0.021894
O O14 0.862708 0.887024 0.582184
O O15 0.591221 0.652598 0.892882
O O16 0.000000 0.000000 0.000000
O O17 0.500000 0.500000 0.500000
O O18 0.500000 0.500000 0.000000
#
# Coordination Sequence:
#
# PCOD9065191 Si02
#       8
#     2   2   2   2   2   2   2   2
#     4  12  26  44  73 108 144 194 253 311 389 463
#     4  12  25  47  73 108 146 192 251 312 386 463
#     4  12  25  44  73 101 151 192 248 310 388 465
#     4  11  24  47  74 103 145 191 245 319 380 460
#     4  11  24  48  71 101 146 190 254 310 387 453
#     4  12  26  47  77 106 153 203 251 322 390 466
#     4  12  26  44  69 108 148 198 256 316 385 461
#     4  12  30  51  79 117 160 205 260 323 396 473
#
# _framework density 24.849547000000001
#
# number of rings (size 3 to 8) (size 9 to 14) (size 15 to 20)
#    0.000    0.250    5.000    3.750    5.250    2.500 
#    0.000    0.000    0.000    0.000    0.000    0.000 
#    0.000    0.000    0.000    0.000    0.000    0.000 
#
# Total GULP energy -89288.136630 kJ/mol
# GULP energy per Si atom -5580.508539 kJ/mol
# Density = 2.479299 g / cm^3
# Si number density = 24.849547 Si / 1000 Ang^3
#
#
#
# Elastic Constant Matrix: (Units=GPa)
#
#
# Indices 1 2 3 4 5 6 
#
# 1 174.8787 25.2915 22.7356 -11.2475 10.0051 -5.8431
# 2 25.2915 92.0168 13.2008 -4.5328 -5.4053 -8.6220
# 3 22.7356 13.2008 32.8960 -25.4105 3.5893 0.8991
# 4 -11.2475 -4.5328 -25.4105 35.8416 2.4009 4.8493
# 5 10.0051 -5.4053 3.5893 2.4009 36.6323 -16.8976
# 6 -5.8431 -8.6220 0.8991 4.8493 -16.8976 64.9676
#
#
#
# Elastic Compliance Matrix: (Units=1/GPa)
#
#
# Indices 1 2 3 4 5 6 
#
# 1 0.006543 -0.001148 -0.005421 -0.001908 -0.001135 0.000358
# 2 -0.001148 0.013028 -0.010633 -0.007121 0.005463 0.003725
# 3 -0.005421 -0.010633 0.090248 0.063956 -0.019064 -0.012880
# 4 -0.001908 -0.007121 0.063956 0.074529 -0.017239 -0.012048
# 5 -0.001135 0.005463 -0.019064 -0.017239 0.036834 0.011754
# 6 0.000358 0.003725 -0.012880 -0.012048 0.011754 0.020053
#
#
# Mechanical properties :
#
#
# Convention : Reuss Voigt Hill
#
# Bulk Modulus (GPa) = 13.26007 46.91636 30.08822
# Shear Modulus (GPa) = 16.62356 43.39254 30.00805
#
# Velocity S-wave (km/s) = 2.58925 4.18330 3.47881
# Velocity P-wave (km/s) = 3.77977 6.50035 5.31701
#
# Compressibility (1/GPa) = 0.07541436
#
# Stress axis : x y z
#
# Youngs Moduli (GPa) = 152.82892 76.75988 11.08058
#
# Poissons Ratio (x) = 0.08810 0.06007
# Poissons Ratio (y) = 0.17541 0.11782
# Poissons Ratio (z) = 0.82855 0.81619
#
# Static dielectric constant tensor:
#      x y z
#    x 1.812400 -0.001250 -0.131440 
#    y -0.001250 2.003140 -0.002480 
#    z -0.131440 -0.002480 2.044070 
# 
# From -- ./inp_files/84995.got.cif
#   From: 2010.05.17/outbox.cif.g08.bks.cpg/sg2_43_cif.got.tgz:84995.got - 2010.06.03 11:33:40.
