data_PCOD9065959
_publ_section_title
;
Structure prediction by ZEFSAII (Michael W. Deem and Ramdas Pophale) SiO2 
 PCOD9065959
Probable space group: P -1
;
_chemical_formula_sum "Si O2"
_cell_formula_units_Z 12
_cell_length_a 8.814681
_cell_length_b 8.870346
_cell_length_c 9.236842
_cell_angle_alpha 65.440348
_cell_angle_beta 128.613949
_cell_angle_gamma 105.737639
_cell_volume 513.195515
_symmetry_space_group_name_H-M "P -1"
_symmetry_group_IT_number 2
_symmetry_cell_setting 'triclinic'
loop_
_space_group_symop_operation_xyz
x,y,z
-x,-y,-z
loop_
_atom_site_type_symbol
_atom_site_label
_atom_site_fract_x
_atom_site_fract_y
_atom_site_fract_z
Si Si1 0.868116 0.837072 0.463511
Si Si2 0.473685 0.420946 0.185256
Si Si3 0.769162 0.675230 0.168644
Si Si4 0.489630 0.155928 0.539647
Si Si5 0.099162 0.634470 0.899270
Si Si6 0.916088 0.179310 0.906320
O O1 0.812543 0.794072 0.282201
O O2 0.674055 0.863016 0.429922
O O3 0.985425 0.685492 0.667321
O O4 0.000000 0.000000 0.500000
O O5 0.686579 0.502721 0.258392
O O6 0.448378 0.318157 0.355698
O O7 0.406192 0.299298 0.062165
O O8 0.315405 0.567382 0.031931
O O9 0.953550 0.692947 0.163990
O O10 0.697564 0.184159 0.722338
O O11 0.500000 0.000000 0.500000
O O12 0.086192 0.791205 0.935554
O O13 0.000000 0.500000 0.000000
O O14 0.000000 0.000000 0.000000
#
# Coordination Sequence:
#
# PCOD9065959 Si02
#       6
#     2   2   2   2   2   2
#     4  12  27  46  74 108 143 188 246 302 358 428
#     4  11  26  46  72 104 146 189 240 301 360 435
#     4  11  25  44  69 108 140 181 243 301 355 415
#     4  12  26  47  71 102 144 197 239 289 369 437
#     4  12  24  47  73 102 144 192 237 290 361 431
#     4  12  26  47  74 102 147 192 237 295 364 437
#
# _framework density 23.382901
#
# number of rings (size 3 to 8) (size 9 to 14) (size 15 to 20)
#    0.000    0.333    3.333    5.000    2.333    9.333 
#    0.000    5.833    0.000    0.000    0.000    0.000 
#    0.000    0.000    0.000    0.000    0.000    0.000 
#
# Total GULP energy -67108.002723 kJ/mol
# GULP energy per Si atom -5592.333560 kJ/mol
# Density = 2.332968 g / cm^3
# Si number density = 23.382901 Si / 1000 Ang^3
#
#
#
# Elastic Constant Matrix: (Units=GPa)
#
#
# Indices 1 2 3 4 5 6 
#
# 1 190.0137 51.4465 54.3891 11.4961 2.6901 19.4167
# 2 51.4465 97.2593 41.6972 16.9825 3.3458 9.4828
# 3 54.3891 41.6972 92.6927 19.7131 -3.6113 -1.4360
# 4 11.4961 16.9825 19.7131 46.3043 -9.7235 3.1066
# 5 2.6901 3.3458 -3.6113 -9.7235 40.9324 7.7863
# 6 19.4167 9.4828 -1.4360 3.1066 7.7863 58.3066
#
#
#
# Elastic Compliance Matrix: (Units=1/GPa)
#
#
# Indices 1 2 3 4 5 6 
#
# 1 0.006965 -0.002186 -0.003263 0.000594 -0.000032 -0.002072
# 2 -0.002186 0.014083 -0.004504 -0.003015 -0.001881 -0.001262
# 3 -0.003263 -0.004504 0.015694 -0.004273 0.000502 0.002366
# 4 0.000594 -0.003015 -0.004273 0.025846 0.006358 -0.002039
# 5 -0.000032 -0.001881 0.000502 0.006358 0.026824 -0.003592
# 6 -0.002072 -0.001262 0.002366 -0.002039 -0.003592 0.018692
#
#
# Mechanical properties :
#
#
# Convention : Reuss Voigt Hill
#
# Bulk Modulus (GPa) = 59.39711 75.00347 67.20029
# Shear Modulus (GPa) = 37.41875 44.60419 41.01147
#
# Velocity S-wave (km/s) = 4.00467 4.37230 4.19251
# Velocity P-wave (km/s) = 6.84399 7.59178 7.22756
#
# Compressibility (1/GPa) = 0.01683583
#
# Stress axis : x y z
#
# Youngs Moduli (GPa) = 143.57874 71.00608 63.71797
#
# Poissons Ratio (x) = 0.15520 0.20792
# Poissons Ratio (y) = 0.31383 0.28700
# Poissons Ratio (z) = 0.46852 0.31983
#
# Static dielectric constant tensor:
#      x y z
#    x 1.848650 -0.004830 -0.009530 
#    y -0.004830 1.976680 0.013940 
#    z -0.009530 0.013940 1.862860 
# 
# From -- ./inp_files/157786.got.cif
#   From: 2010.05.17/outbox.cif.g08.bks.cpg/sg2_79_cif.got.tgz:157786.got - 2010.06.03 11:33:40.
