data_PCOD9065610
_publ_section_title
;
Structure prediction by ZEFSAII (Michael W. Deem and Ramdas Pophale) SiO2 
 PCOD9065610
Probable space group: P -1
;
_chemical_formula_sum "Si O2"
_cell_formula_units_Z 15
_cell_length_a 9.271808
_cell_length_b 9.209932
_cell_length_c 18.517007
_cell_angle_alpha 150.307604
_cell_angle_beta 58.236347
_cell_angle_gamma 107.220710
_cell_volume 615.196250
_symmetry_space_group_name_H-M "P -1"
_symmetry_group_IT_number 2
_symmetry_cell_setting 'triclinic'
loop_
_space_group_symop_operation_xyz
x,y,z
-x,-y,-z
loop_
_atom_site_type_symbol
_atom_site_label
_atom_site_fract_x
_atom_site_fract_y
_atom_site_fract_z
Si Si1 0.237788 0.538459 0.615951
Si Si2 0.169084 0.998959 0.699389
Si Si3 0.493301 0.102685 0.702486
Si Si4 0.608460 0.334370 0.642794
Si Si5 0.107596 0.500674 0.269142
Si Si6 0.500000 0.500000 0.000000
Si Si7 0.097269 0.538438 0.131903
Si Si8 0.203886 0.761042 0.887067
O O1 0.175724 0.786593 0.674674
O O2 0.231433 0.688035 0.762012
O O3 0.083633 0.387769 0.590621
O O4 0.429578 0.240521 0.427895
O O5 0.296066 0.786487 0.510534
O O6 0.279295 0.211251 0.788554
O O7 0.978950 0.201929 0.799071
O O8 0.596825 0.059762 0.579523
O O9 0.539950 0.352805 0.845343
O O10 0.732096 0.482479 0.717030
O O11 0.399499 0.569649 0.788860
O O12 0.066233 0.685759 0.284247
O O13 0.155707 0.130708 0.075361
O O14 0.681876 0.612603 0.997274
O O15 0.957308 0.349853 0.088435
#
# Coordination Sequence:
#
# PCOD9065610 Si02
#       8
#     2   2   2   2   2   1   2   2
#     4  11  26  47  73 107 150 196 242 308 363 433
#     4  12  27  46  78 109 147 197 250 298 368 443
#     4  12  26  49  74 107 147 193 246 305 370 435
#     4  12  24  47  76 112 142 202 245 300 361 446
#     4  11  26  46  74 108 152 194 246 305 363 429
#     4  12  30  46  78 112 140 188 248 312 364 428
#     4  11  25  50  74 105 147 193 243 303 367 440
#     4  11  24  49  77 108 148 196 246 297 373 438
#
# _framework density 24.382463999999999
#
# number of rings (size 3 to 8) (size 9 to 14) (size 15 to 20)
#    0.000    0.533    4.000    4.400    5.600    3.200 
#    4.800    0.000    0.000    0.000    0.000    0.000 
#    0.000    0.000    0.000    0.000    0.000    0.000 
#
# Total GULP energy -83648.147454 kJ/mol
# GULP energy per Si atom -5576.543164 kJ/mol
# Density = 2.432697 g / cm^3
# Si number density = 24.382464 Si / 1000 Ang^3
#
#
#
# Elastic Constant Matrix: (Units=GPa)
#
#
# Indices 1 2 3 4 5 6 
#
# 1 188.6105 47.6488 42.2789 12.0321 11.5287 -0.4608
# 2 47.6488 122.3092 6.6807 -7.8430 5.5786 -19.8681
# 3 42.2789 6.6807 55.0829 1.4578 4.4382 -9.7111
# 4 12.0321 -7.8430 1.4578 29.0902 -1.2365 -6.3222
# 5 11.5287 5.5786 4.4382 -1.2365 44.6299 -1.7814
# 6 -0.4608 -19.8681 -9.7111 -6.3222 -1.7814 47.1891
#
#
#
# Elastic Compliance Matrix: (Units=1/GPa)
#
#
# Indices 1 2 3 4 5 6 
#
# 1 0.007910 -0.003538 -0.006002 -0.004701 -0.001267 -0.003325
# 2 -0.003538 0.010712 0.002293 0.005457 -0.000276 0.005668
# 3 -0.006002 0.002293 0.023543 0.003227 -0.000742 0.006156
# 4 -0.004701 0.005457 0.003227 0.039496 0.001636 0.008269
# 5 -0.001267 -0.000276 -0.000742 0.001636 0.022920 0.000803
# 6 -0.003325 0.005668 0.006156 0.008269 0.000803 0.025950
#
#
# Mechanical properties :
#
#
# Convention : Reuss Voigt Hill
#
# Bulk Modulus (GPa) = 36.13727 62.13548 49.13638
# Shear Modulus (GPa) = 32.41503 42.14144 37.27824
#
# Velocity S-wave (km/s) = 3.65010 4.16185 3.91435
# Velocity P-wave (km/s) = 5.71118 6.97379 6.37382
#
# Compressibility (1/GPa) = 0.02767226
#
# Stress axis : x y z
#
# Youngs Moduli (GPa) = 126.41651 93.35191 42.47534
#
# Poissons Ratio (x) = 0.33025 0.25495
# Poissons Ratio (y) = 0.44722 -0.09741
# Poissons Ratio (z) = 0.75878 -0.21408
#
# Static dielectric constant tensor:
#      x y z
#    x 1.908310 0.033180 -0.039970 
#    y 0.033180 1.991640 -0.009620 
#    z -0.039970 -0.009620 2.002140 
# 
# From -- ./inp_files/557710.got.cif
#   From: 2010.05.17/outbox.cif.g08.bks.cpg/sg2_279_cif.got.tgz:557710.got - 2010.06.03 11:33:40.
