data_PCOD9065697
_publ_section_title
;
Structure prediction by ZEFSAII (Michael W. Deem and Ramdas Pophale) SiO2 
 PCOD9065697
Probable space group: P -1
;
_chemical_formula_sum "Si O2"
_cell_formula_units_Z 16
_cell_length_a 9.947591
_cell_length_b 12.505516
_cell_length_c 9.325927
_cell_angle_alpha 71.913414
_cell_angle_beta 46.590737
_cell_angle_gamma 99.706787
_cell_volume 667.457417
_symmetry_space_group_name_H-M "P -1"
_symmetry_group_IT_number 2
_symmetry_cell_setting 'triclinic'
loop_
_space_group_symop_operation_xyz
x,y,z
-x,-y,-z
loop_
_atom_site_type_symbol
_atom_site_label
_atom_site_fract_x
_atom_site_fract_y
_atom_site_fract_z
Si Si1 0.381008 0.371420 0.538209
Si Si2 0.253572 0.197104 0.974569
Si Si3 0.229855 0.943198 0.560494
Si Si4 0.366826 0.851404 0.230283
Si Si5 0.181347 0.559879 0.968162
Si Si6 0.717143 0.164334 0.131887
Si Si7 0.721096 0.622828 0.861682
Si Si8 0.991316 0.739239 0.355990
O O1 0.500000 0.500000 0.500000
O O2 0.252798 0.247692 0.794387
O O3 0.575454 0.373244 0.309713
O O4 0.209598 0.368859 0.553263
O O5 0.448872 0.174107 0.847908
O O6 0.312765 0.312747 0.000388
O O7 0.005918 0.074352 0.250622
O O8 0.239680 0.858822 0.457803
O O9 0.255191 0.883486 0.714889
O O10 0.457091 0.088616 0.318995
O O11 0.190003 0.740987 0.292628
O O12 0.500000 0.000000 0.000000
O O13 0.179271 0.677314 0.001345
O O14 0.152851 0.445752 0.143269
O O15 0.000000 0.500000 0.000000
O O16 0.853635 0.141755 0.920502
O O17 0.853953 0.736707 0.594954
O O18 0.500000 0.500000 0.000000
#
# Coordination Sequence:
#
# PCOD9065697 Si02
#       8
#     2   2   2   2   2   2   2   2
#     4  12  24  48  73 105 144 196 248 300 365 448
#     4  12  26  48  78 104 150 203 241 306 377 440
#     4  11  24  51  75 107 152 193 256 300 372 445
#     4  12  28  48  73 112 149 193 248 311 372 437
#     4  12  26  44  75 107 148 194 249 301 372 443
#     4  11  25  46  75 109 143 201 248 308 365 445
#     4  12  26  46  68 108 149 192 242 305 376 444
#     4  12  25  46  72 104 152 185 250 310 366 435
#
# _framework density 23.971568000000001
#
# number of rings (size 3 to 8) (size 9 to 14) (size 15 to 20)
#    0.000    0.250    6.250    2.250    3.500    2.000 
#    0.000    2.500    0.000    0.000    0.000    0.000 
#    0.000    0.000    0.000    0.000    0.000    0.000 
#
# Total GULP energy -89402.364995 kJ/mol
# GULP energy per Si atom -5587.647812 kJ/mol
# Density = 2.391701 g / cm^3
# Si number density = 23.971568 Si / 1000 Ang^3
#
#
#
# Elastic Constant Matrix: (Units=GPa)
#
#
# Indices 1 2 3 4 5 6 
#
# 1 149.5389 40.7942 41.6683 0.0137 -21.3034 38.4149
# 2 40.7942 59.3897 14.2992 0.3257 -2.8833 14.1262
# 3 41.6683 14.2992 166.7302 17.7242 0.1839 12.8238
# 4 0.0137 0.3257 17.7242 32.7597 7.5067 -3.6634
# 5 -21.3034 -2.8833 0.1839 7.5067 56.4720 -5.1662
# 6 38.4149 14.1262 12.8238 -3.6634 -5.1662 37.4303
#
#
#
# Elastic Compliance Matrix: (Units=1/GPa)
#
#
# Indices 1 2 3 4 5 6 
#
# 1 0.011223 -0.005094 -0.001620 -0.000801 0.003293 -0.008665
# 2 -0.005094 0.021014 -0.000305 -0.000101 -0.001087 -0.002758
# 3 -0.001620 -0.000305 0.006908 -0.003791 -0.000236 -0.000993
# 4 -0.000801 -0.000101 -0.003791 0.034130 -0.004384 0.004894
# 5 0.003293 -0.001087 -0.000236 -0.004384 0.019420 -0.000637
# 6 -0.008665 -0.002758 -0.000993 0.004894 -0.000637 0.037381
#
#
# Mechanical properties :
#
#
# Convention : Reuss Voigt Hill
#
# Bulk Modulus (GPa) = 39.82808 63.24244 51.53526
# Shear Modulus (GPa) = 32.79030 43.92552 38.35791
#
# Velocity S-wave (km/s) = 3.70250 4.28530 4.00452
# Velocity P-wave (km/s) = 5.91006 7.13615 6.55185
#
# Compressibility (1/GPa) = 0.02510791
#
# Stress axis : x y z
#
# Youngs Moduli (GPa) = 89.09966 47.58686 144.75246
#
# Poissons Ratio (x) = 0.24240 0.23450
# Poissons Ratio (y) = 0.45386 0.04416
# Poissons Ratio (z) = 0.14434 0.01452
#
# Static dielectric constant tensor:
#      x y z
#    x 1.929020 -0.006530 -0.044760 
#    y -0.006530 1.991930 0.026320 
#    z -0.044760 0.026320 1.997740 
# 
# From -- ./inp_files/206223.got.cif
#   From: 2010.05.17/outbox.cif.g08.bks.cpg/sg2_104_cif.got.tgz:206223.got - 2010.06.03 11:33:40.
