data_PCOD9065672
_publ_section_title
;
Structure prediction by ZEFSAII (Michael W. Deem and Ramdas Pophale) SiO2 
 PCOD9065672
Probable space group: P -1
;
_chemical_formula_sum "Si O2"
_cell_formula_units_Z 15
_cell_length_a 9.261229
_cell_length_b 12.721759
_cell_length_c 9.725785
_cell_angle_alpha 96.271884
_cell_angle_beta 32.841385
_cell_angle_gamma 98.179745
_cell_volume 614.994889
_symmetry_space_group_name_H-M "P -1"
_symmetry_group_IT_number 2
_symmetry_cell_setting 'triclinic'
loop_
_space_group_symop_operation_xyz
x,y,z
-x,-y,-z
loop_
_atom_site_type_symbol
_atom_site_label
_atom_site_fract_x
_atom_site_fract_y
_atom_site_fract_z
Si Si1 0.000000 0.000000 0.500000
Si Si2 0.265204 0.077303 0.826672
Si Si3 0.005735 0.409072 0.699002
Si Si4 0.351169 0.104306 0.464543
Si Si5 0.731515 0.360721 0.457969
Si Si6 0.892138 0.801094 0.763527
Si Si7 0.585405 0.325677 0.253655
Si Si8 0.529836 0.384101 0.900237
O O1 0.906027 0.930388 0.425364
O O2 0.953455 0.890719 0.614261
O O3 0.302399 0.141750 0.664210
O O4 0.500140 0.002239 0.653854
O O5 0.229779 0.144681 0.998715
O O6 0.000000 0.000000 0.000000
O O7 0.833280 0.367098 0.699141
O O8 0.056641 0.536569 0.676348
O O9 0.297203 0.367965 0.463120
O O10 0.819500 0.371986 0.972005
O O11 0.540367 0.198142 0.257553
O O12 0.655407 0.355783 0.359502
O O13 0.504980 0.379060 0.754643
O O14 0.853331 0.253527 0.391725
O O15 0.669726 0.706855 0.886364
O O16 0.500000 0.500000 0.000000
#
# Coordination Sequence:
#
# PCOD9065672 Si02
#       8
#     1   2   2   2   2   2   2   2
#     4  12  28  48  72 116 150 200 262 330 398 466
#     4  11  24  50  76 106 147 213 265 326 394 484
#     4  12  28  49  80 119 165 204 272 334 400 478
#     4  11  27  47  77 111 156 200 272 326 404 475
#     4  12  28  50  81 113 159 213 269 325 410 484
#     4  12  28  48  82 110 162 207 272 329 407 478
#     4  12  29  49  81 120 161 214 267 339 399 476
#     4  12  27  51  81 116 159 217 266 328 410 489
#
# _framework density 24.390443999999999
#
# number of rings (size 3 to 8) (size 9 to 14) (size 15 to 20)
#    0.000    0.267    2.667    4.400   13.067    0.533 
#    0.000    0.000    0.000    0.000    0.000    0.000 
#    0.000    0.000    0.000    0.000    0.000    0.000 
#
# Total GULP energy -83838.233381 kJ/mol
# GULP energy per Si atom -5589.215559 kJ/mol
# Density = 2.433493 g / cm^3
# Si number density = 24.390444 Si / 1000 Ang^3
#
#
#
# Elastic Constant Matrix: (Units=GPa)
#
#
# Indices 1 2 3 4 5 6 
#
# 1 118.5740 31.8168 38.0934 2.2967 23.0936 -1.6002
# 2 31.8168 137.4316 47.6628 -34.8914 16.1997 -5.2772
# 3 38.0934 47.6628 114.9913 -10.1483 21.9829 -21.4584
# 4 2.2967 -34.8914 -10.1483 53.7070 4.6402 2.6489
# 5 23.0936 16.1997 21.9829 4.6402 41.8594 -10.7837
# 6 -1.6002 -5.2772 -21.4584 2.6489 -10.7837 28.8202
#
#
#
# Elastic Compliance Matrix: (Units=1/GPa)
#
#
# Indices 1 2 3 4 5 6 
#
# 1 0.010572 -0.001416 -0.002788 -0.001344 -0.004526 -0.003318
# 2 -0.001416 0.010710 -0.003219 0.006782 -0.003008 -0.002263
# 3 -0.002788 -0.003219 0.012847 0.000221 -0.001904 0.008088
# 4 -0.001344 0.006782 0.000221 0.023729 -0.005366 -0.002857
# 5 -0.004526 -0.003008 -0.001904 -0.005366 0.031762 0.010158
# 6 -0.003318 -0.002263 0.008088 -0.002857 0.010158 0.044185
#
#
# Mechanical properties :
#
#
# Convention : Reuss Voigt Hill
#
# Bulk Modulus (GPa) = 51.85743 67.34920 59.60331
# Shear Modulus (GPa) = 32.24193 41.77226 37.00709
#
# Velocity S-wave (km/s) = 3.63975 4.14291 3.89945
# Velocity P-wave (km/s) = 6.24269 7.11040 6.69063
#
# Compressibility (1/GPa) = 0.01928364
#
# Stress axis : x y z
#
# Youngs Moduli (GPa) = 94.59075 93.37200 77.83997
#
# Poissons Ratio (x) = 0.13219 0.21701
# Poissons Ratio (y) = 0.13391 0.25056
# Poissons Ratio (z) = 0.26371 0.30056
#
# Static dielectric constant tensor:
#      x y z
#    x 1.941470 -0.016720 -0.034860 
#    y -0.016720 1.929900 0.028290 
#    z -0.034860 0.028290 1.981860 
# 
# From -- ./inp_files/187185.got.cif
#   From: 2010.05.17/outbox.cif.g08.bks.cpg/sg2_94_cif.got.tgz:187185.got - 2010.06.03 11:33:40.
