data_PCOD9065786
_publ_section_title
;
Structure prediction by ZEFSAII (Michael W. Deem and Ramdas Pophale) SiO2 
 PCOD9065786
Probable space group: P -1
;
_chemical_formula_sum "Si O2"
_cell_formula_units_Z 12
_cell_length_a 6.717427
_cell_length_b 13.977273
_cell_length_c 13.777113
_cell_angle_alpha 137.621353
_cell_angle_beta 54.466394
_cell_angle_gamma 137.904795
_cell_volume 582.918839
_symmetry_space_group_name_H-M "P -1"
_symmetry_group_IT_number 2
_symmetry_cell_setting 'triclinic'
loop_
_space_group_symop_operation_xyz
x,y,z
-x,-y,-z
loop_
_atom_site_type_symbol
_atom_site_label
_atom_site_fract_x
_atom_site_fract_y
_atom_site_fract_z
Si Si1 0.398692 0.386823 0.345460
Si Si2 0.303465 0.486311 0.241975
Si Si3 0.255232 0.793457 0.917352
Si Si4 0.173155 0.777507 0.510408
Si Si5 0.064721 0.358714 0.901192
Si Si6 0.159941 0.905984 0.406935
O O1 0.500000 0.500000 0.500000
O O2 0.422521 0.483736 0.312619
O O3 0.570025 0.296477 0.216040
O O4 0.049553 0.252487 0.364303
O O5 0.206272 0.618826 0.371018
O O6 0.581741 0.556296 0.142844
O O7 0.017020 0.297901 0.151487
O O8 0.085827 0.731208 0.021881
O O9 0.500000 0.000000 0.000000
O O10 0.061073 0.804273 0.460295
O O11 0.492968 0.947657 0.570183
O O12 0.910318 0.218667 0.755168
O O13 0.000000 0.500000 0.000000
O O14 0.000000 0.000000 0.500000
#
# Coordination Sequence:
#
# PCOD9065786 Si02
#       6
#     2   2   2   2   2   2
#     4  12  26  45  74 103 142 186 244 292 357 431
#     4  12  25  48  76 102 142 196 242 294 360 432
#     4  12  30  45  71 110 146 190 238 302 368 419
#     4  11  25  42  75 109 136 186 247 296 354 424
#     4  12  25  49  74 100 148 190 240 294 361 437
#     4  11  25  44  73 107 141 186 241 298 356 419
#
# _framework density 20.586057
#
# number of rings (size 3 to 8) (size 9 to 14) (size 15 to 20)
#    0.000    0.333    5.000    3.000    4.667    2.000 
#    0.000    0.000    0.000    0.000    0.000    0.000 
#    0.000    0.000    0.000    0.000    0.000    0.000 
#
# Total GULP energy -67137.343674 kJ/mol
# GULP energy per Si atom -5594.778639 kJ/mol
# Density = 2.053920 g / cm^3
# Si number density = 20.586057 Si / 1000 Ang^3
#
#
#
# Elastic Constant Matrix: (Units=GPa)
#
#
# Indices 1 2 3 4 5 6 
#
# 1 121.1585 60.1620 66.7786 3.0275 -2.2760 -2.2907
# 2 60.1620 135.0714 64.1145 -12.6093 3.4458 9.4809
# 3 66.7786 64.1145 144.3556 2.1236 -1.3826 -5.3419
# 4 3.0275 -12.6093 2.1236 50.0158 11.5108 -2.3376
# 5 -2.2760 3.4458 -1.3826 11.5108 40.7553 -0.1525
# 6 -2.2907 9.4809 -5.3419 -2.3376 -0.1525 44.8012
#
#
#
# Elastic Compliance Matrix: (Units=1/GPa)
#
#
# Indices 1 2 3 4 5 6 
#
# 1 0.012486 -0.003968 -0.003938 -0.001876 0.001432 0.000915
# 2 -0.003968 0.011387 -0.003403 0.003662 -0.002345 -0.002835
# 3 -0.003938 -0.003403 0.010348 -0.001152 0.000751 0.001695
# 4 -0.001876 0.003662 -0.001152 0.022664 -0.006854 0.000151
# 5 0.001432 -0.002345 0.000751 -0.006854 0.026778 0.000392
# 6 0.000915 -0.002835 0.001695 0.000151 0.000392 0.023179
#
#
# Mechanical properties :
#
#
# Convention : Reuss Voigt Hill
#
# Bulk Modulus (GPa) = 86.19564 86.96620 86.58092
# Shear Modulus (GPa) = 37.50192 41.08315 39.29253
#
# Velocity S-wave (km/s) = 4.27279 4.47215 4.37360
# Velocity P-wave (km/s) = 8.14273 8.30685 8.22520
#
# Compressibility (1/GPa) = 0.01160152
#
# Stress axis : x y z
#
# Youngs Moduli (GPa) = 80.09206 87.82046 96.64037
#
# Poissons Ratio (x) = 0.34844 0.38061
# Poissons Ratio (y) = 0.31778 0.32889
# Poissons Ratio (z) = 0.31544 0.29887
#
# Static dielectric constant tensor:
#      x y z
#    x 1.741070 0.025650 0.021640 
#    y 0.025650 1.778370 -0.015550 
#    z 0.021640 -0.015550 1.687930 
# 
# From -- ./inp_files/28966.got.cif
#   From: 2010.05.17/outbox.cif.g08.bks.cpg/sg2_15_cif.got.tgz:28966.got - 2010.06.03 11:33:40.
