data_PCOD9065052
_publ_section_title
;
Structure prediction by ZEFSAII (Michael W. Deem and Ramdas Pophale) SiO2 
 PCOD9065052
Probable space group: P -1
;
_chemical_formula_sum "Si O2"
_cell_formula_units_Z 16
_cell_length_a 9.553756
_cell_length_b 11.850920
_cell_length_c 7.763820
_cell_angle_alpha 81.868384
_cell_angle_beta 77.949604
_cell_angle_gamma 50.266443
_cell_volume 661.059841
_symmetry_space_group_name_H-M "P -1"
_symmetry_group_IT_number 2
_symmetry_cell_setting 'triclinic'
loop_
_space_group_symop_operation_xyz
x,y,z
-x,-y,-z
loop_
_atom_site_type_symbol
_atom_site_label
_atom_site_fract_x
_atom_site_fract_y
_atom_site_fract_z
Si Si1 0.959338 0.392244 0.479489
Si Si2 0.214372 0.911132 0.479178
Si Si3 0.562310 0.628619 0.032523
Si Si4 0.676023 0.899551 0.595376
Si Si5 0.632534 0.399758 0.638880
Si Si6 0.928609 0.344866 0.093479
Si Si7 0.819167 0.139148 0.122504
Si Si8 0.651908 0.826243 0.978659
O O1 0.787485 0.416996 0.607225
O O2 0.924040 0.395913 0.280683
O O3 0.000000 0.500000 0.500000
O O4 0.139135 0.229784 0.520063
O O5 0.295673 0.760871 0.396385
O O6 0.236484 0.901717 0.682085
O O7 0.280428 0.996764 0.364485
O O8 0.000000 0.000000 0.500000
O O9 0.489819 0.556870 0.173017
O O10 0.777946 0.484124 0.982242
O O11 0.377677 0.750604 0.945705
O O12 0.595073 0.734723 0.092471
O O13 0.658243 0.815822 0.769929
O O14 0.500000 0.000000 0.500000
O O15 0.500000 0.500000 0.500000
O O16 0.879970 0.235980 0.139481
O O17 0.140812 0.248851 0.000208
O O18 0.000000 0.000000 0.000000
O O19 0.500000 0.000000 0.000000
#
# Coordination Sequence:
#
# PCOD9065052 Si02
#       8
#     2   2   2   2   2   2   2   2
#     4  11  25  48  73 106 145 188 248 302 367 436
#     4  12  22  45  74 101 148 191 247 299 361 427
#     4  12  25  45  72 110 146 195 242 305 371 437
#     4  11  25  43  69 104 140 188 239 301 357 434
#     4  12  24  46  76 108 143 193 247 306 364 442
#     4  11  24  50  70 104 147 193 241 307 362 440
#     4  12  25  44  72 112 148 191 243 301 368 438
#     4  11  24  47  70 101 145 191 242 295 366 431
#
# _framework density 24.203558000000001
#
# number of rings (size 3 to 8) (size 9 to 14) (size 15 to 20)
#    0.000    0.500    3.750    4.500    1.750    1.000 
#   11.250    0.000    0.000    0.000    0.000    0.000 
#    0.000    0.000    0.000    0.000    0.000    0.000 
#
# Total GULP energy -89420.377159 kJ/mol
# GULP energy per Si atom -5588.773572 kJ/mol
# Density = 2.414847 g / cm^3
# Si number density = 24.203558 Si / 1000 Ang^3
#
#
#
# Elastic Constant Matrix: (Units=GPa)
#
#
# Indices 1 2 3 4 5 6 
#
# 1 183.2709 78.4422 20.8320 3.2378 -13.0604 -13.9900
# 2 78.4422 160.5948 16.6532 1.5949 10.0959 -16.2716
# 3 20.8320 16.6532 63.2169 -0.4276 1.5267 -16.4037
# 4 3.2378 1.5949 -0.4276 32.8628 -2.1391 11.8791
# 5 -13.0604 10.0959 1.5267 -2.1391 35.3724 -9.7268
# 6 -13.9900 -16.2716 -16.4037 11.8791 -9.7268 71.3659
#
#
#
# Elastic Compliance Matrix: (Units=1/GPa)
#
#
# Indices 1 2 3 4 5 6 
#
# 1 0.007588 -0.003717 -0.001365 -0.000678 0.004157 0.001005
# 2 -0.003717 0.008414 -0.000749 -0.000507 -0.003604 0.000611
# 3 -0.001365 -0.000749 0.017425 -0.000950 -0.000078 0.003714
# 4 -0.000678 -0.000507 -0.000950 0.032646 0.000298 -0.005860
# 5 0.004157 -0.003604 -0.000078 0.000298 0.032036 0.004292
# 6 0.001005 0.000611 0.003714 -0.005860 0.004292 0.016763
#
#
# Mechanical properties :
#
#
# Convention : Reuss Voigt Hill
#
# Bulk Modulus (GPa) = 45.95032 70.99303 58.47167
# Shear Modulus (GPa) = 37.37218 47.33058 42.35138
#
# Velocity S-wave (km/s) = 3.93374 4.42693 4.18760
# Velocity P-wave (km/s) = 6.29750 7.45155 6.89870
#
# Compressibility (1/GPa) = 0.02176263
#
# Stress axis : x y z
#
# Youngs Moduli (GPa) = 131.79412 118.85295 57.38854
#
# Poissons Ratio (x) = 0.44181 0.07835
# Poissons Ratio (y) = 0.48992 0.04301
# Poissons Ratio (z) = 0.17992 0.08907
#
# Static dielectric constant tensor:
#      x y z
#    x 1.894680 -0.034900 0.003400 
#    y -0.034900 1.911040 0.053330 
#    z 0.003400 0.053330 2.002550 
# 
# From -- ./inp_files/186613.got.cif
#   From: 2010.05.17/outbox.cif.g08.bks.cpg/sg2_94_cif.got.tgz:186613.got - 2010.06.03 11:33:40.
