data_PCOD9065567
_publ_section_title
;
Structure prediction by ZEFSAII (Michael W. Deem and Ramdas Pophale) SiO2 
 PCOD9065567
Probable space group: P -1
;
_chemical_formula_sum "Si O2"
_cell_formula_units_Z 12
_cell_length_a 15.279006
_cell_length_b 8.401529
_cell_length_c 4.867006
_cell_angle_alpha 64.422422
_cell_angle_beta 85.785971
_cell_angle_gamma 54.694339
_cell_volume 446.547986
_symmetry_space_group_name_H-M "P -1"
_symmetry_group_IT_number 2
_symmetry_cell_setting 'triclinic'
loop_
_space_group_symop_operation_xyz
x,y,z
-x,-y,-z
loop_
_atom_site_type_symbol
_atom_site_label
_atom_site_fract_x
_atom_site_fract_y
_atom_site_fract_z
Si Si1 0.917304 0.504447 0.292405
Si Si2 0.196356 0.860361 0.781830
Si Si3 0.281148 0.433604 0.417267
Si Si4 0.376003 0.946532 0.574168
Si Si5 0.489275 0.315117 0.756436
Si Si6 0.917393 0.868643 0.883638
O O1 0.833126 0.488115 0.483047
O O2 0.000000 0.500000 0.500000
O O3 0.974438 0.325955 0.164569
O O4 0.857322 0.749968 0.995321
O O5 0.283714 0.913528 0.696148
O O6 0.143969 0.917150 0.452716
O O7 0.254403 0.618983 0.068068
O O8 0.096203 0.037451 0.879462
O O9 0.368059 0.400296 0.642310
O O10 0.334268 0.191363 0.466912
O O11 0.581063 0.105107 0.707806
O O12 0.478694 0.760318 0.881907
O O13 0.500000 0.500000 0.500000
#
# Coordination Sequence:
#
# PCOD9065567 Si02
#       6
#     2   2   2   2   2   2
#     4  11  24  51  79 109 154 199 256 312 384 446
#     4  12  26  47  78 112 152 197 252 308 378 451
#     4  12  28  48  81 116 146 212 255 308 385 456
#     4  12  26  51  76 110 163 193 254 317 375 449
#     4  12  27  51  77 113 154 200 252 316 377 450
#     4  11  24  49  72 110 153 195 242 323 369 440
#
# _framework density 26.872810999999999
#
# number of rings (size 3 to 8) (size 9 to 14) (size 15 to 20)
#    0.000    0.333    5.000    2.500    0.000    2.667 
#   12.000    0.000    0.000    0.000    0.000    0.000 
#    0.000    0.000    0.000    0.000    0.000    0.000 
#
# Total GULP energy -67361.210497 kJ/mol
# GULP energy per Si atom -5613.434208 kJ/mol
# Density = 2.681165 g / cm^3
# Si number density = 26.872811 Si / 1000 Ang^3
#
#
#
# Elastic Constant Matrix: (Units=GPa)
#
#
# Indices 1 2 3 4 5 6 
#
# 1 142.4151 31.5493 12.3432 4.3387 -11.1665 -3.3720
# 2 31.5493 109.5324 30.5898 -5.9878 -6.4198 -7.0493
# 3 12.3432 30.5898 121.3635 -12.9928 -13.7011 6.2200
# 4 4.3387 -5.9878 -12.9928 59.8083 6.8003 -15.3586
# 5 -11.1665 -6.4198 -13.7011 6.8003 27.1129 -6.5255
# 6 -3.3720 -7.0493 6.2200 -15.3586 -6.5255 33.2496
#
#
#
# Elastic Compliance Matrix: (Units=1/GPa)
#
#
# Indices 1 2 3 4 5 6 
#
# 1 0.007766 -0.002065 -0.000058 -0.001002 0.003051 0.000497
# 2 -0.002065 0.010749 -0.002412 0.001465 0.000922 0.003378
# 3 -0.000058 -0.002412 0.009439 0.001131 0.003640 -0.001046
# 4 -0.001002 0.001465 0.001131 0.019666 -0.002352 0.008620
# 5 0.003051 0.000922 0.003640 -0.002352 0.042490 0.007076
# 6 0.000497 0.003378 -0.001046 0.008620 0.007076 0.036408
#
#
# Mechanical properties :
#
#
# Convention : Reuss Voigt Hill
#
# Bulk Modulus (GPa) = 52.94905 58.03064 55.48984
# Shear Modulus (GPa) = 35.24054 43.95608 39.59831
#
# Velocity S-wave (km/s) = 3.62523 4.04878 3.84284
# Velocity P-wave (km/s) = 6.10487 6.59532 6.35483
#
# Compressibility (1/GPa) = 0.01888608
#
# Stress axis : x y z
#
# Youngs Moduli (GPa) = 128.77265 93.02782 105.94329
#
# Poissons Ratio (x) = 0.19207 0.00611
# Poissons Ratio (y) = 0.26587 0.25550
# Poissons Ratio (z) = 0.00743 0.22435
#
# Static dielectric constant tensor:
#      x y z
#    x 2.092670 -0.006760 0.044760 
#    y -0.006760 2.106010 -0.022850 
#    z 0.044760 -0.022850 2.082020 
# 
# From -- ./inp_files/103653.got.cif
#   From: 2010.05.17/outbox.cif.g08.bks.cpg/sg2_52_cif.got.tgz:103653.got - 2010.06.03 11:33:40.
