data_PCOD9065478
_publ_section_title
;
Structure prediction by ZEFSAII (Michael W. Deem and Ramdas Pophale) SiO2 
 PCOD9065478
Probable space group: P -1
;
_chemical_formula_sum "Si O2"
_cell_formula_units_Z 14
_cell_length_a 5.495952
_cell_length_b 11.607702
_cell_length_c 15.051527
_cell_angle_alpha 45.028637
_cell_angle_beta 113.003046
_cell_angle_gamma 93.176481
_cell_volume 588.268037
_symmetry_space_group_name_H-M "P -1"
_symmetry_group_IT_number 2
_symmetry_cell_setting 'triclinic'
loop_
_space_group_symop_operation_xyz
x,y,z
-x,-y,-z
loop_
_atom_site_type_symbol
_atom_site_label
_atom_site_fract_x
_atom_site_fract_y
_atom_site_fract_z
Si Si1 0.726152 0.375896 0.033916
Si Si2 0.665607 0.067035 0.914579
Si Si3 0.264983 0.068732 0.504102
Si Si4 0.318330 0.000835 0.749332
Si Si5 0.131564 0.434947 0.202200
Si Si6 0.713435 0.404211 0.714366
Si Si7 0.138073 0.651615 0.434286
O O1 0.719874 0.182107 0.134448
O O2 0.998973 0.371430 0.132007
O O3 0.500000 0.500000 0.000000
O O4 0.684231 0.475624 0.879459
O O5 0.573226 0.271420 0.803999
O O6 0.569130 0.019049 0.832819
O O7 0.500000 0.000000 0.000000
O O8 0.000000 0.000000 0.000000
O O9 0.176248 0.271269 0.361897
O O10 0.500000 0.000000 0.500000
O O11 0.384052 0.011560 0.649651
O O12 0.000000 0.000000 0.500000
O O13 0.050749 0.170520 0.643718
O O14 0.055518 0.577601 0.193393
O O15 0.450319 0.579379 0.561247
O O16 0.832550 0.326916 0.678290
O O17 0.000000 0.500000 0.500000
#
# Coordination Sequence:
#
# PCOD9065478 Si02
#       7
#     2   2   2   2   2   2   2
#     4  11  26  49  74 110 159 219 274 333 419 488
#     4  12  28  49  76 118 160 213 273 327 411 491
#     4  12  28  50  78 118 157 208 276 335 407 479
#     4  12  26  51  83 116 163 216 275 349 400 504
#     4  11  26  46  74 111 156 211 268 337 405 492
#     4  11  26  45  75 114 159 212 262 344 405 497
#     4  11  24  48  75 115 158 206 272 331 422 473
#
# _framework density 23.798673999999998
#
# number of rings (size 3 to 8) (size 9 to 14) (size 15 to 20)
#    0.000    0.571    2.857    3.429    6.000    2.286 
#    2.571    0.000    0.000    0.000    0.000    0.000 
#    0.000    0.000    0.000    0.000    0.000    0.000 
#
# Total GULP energy -78095.461722 kJ/mol
# GULP energy per Si atom -5578.247266 kJ/mol
# Density = 2.374451 g / cm^3
# Si number density = 23.798674 Si / 1000 Ang^3
#
#
#
# Elastic Constant Matrix: (Units=GPa)
#
#
# Indices 1 2 3 4 5 6 
#
# 1 106.6446 46.5981 47.0643 1.5093 -14.1007 -13.8190
# 2 46.5981 160.2051 50.9216 -6.5846 -10.0228 11.7115
# 3 47.0643 50.9216 128.8067 -15.9612 -34.5324 6.0436
# 4 1.5093 -6.5846 -15.9612 58.0914 3.7319 3.4869
# 5 -14.1007 -10.0228 -34.5324 3.7319 43.2215 -0.2940
# 6 -13.8190 11.7115 6.0436 3.4869 -0.2940 34.4298
#
#
#
# Elastic Compliance Matrix: (Units=1/GPa)
#
#
# Indices 1 2 3 4 5 6 
#
# 1 0.013782 -0.003283 -0.004227 -0.002390 0.000616 0.007638
# 2 -0.003283 0.008072 -0.001947 0.000748 -0.000845 -0.003805
# 3 -0.004227 -0.001947 0.012800 0.003097 0.008105 -0.003526
# 4 -0.002390 0.000748 0.003097 0.018413 0.000254 -0.003620
# 5 0.000616 -0.000845 0.008105 0.000254 0.029590 -0.000661
# 6 0.007638 -0.003805 -0.003526 -0.003620 -0.000661 0.034384
#
#
# Mechanical properties :
#
#
# Convention : Reuss Voigt Hill
#
# Bulk Modulus (GPa) = 63.53550 76.09160 69.81355
# Shear Modulus (GPa) = 35.41032 43.88670 39.64851
#
# Velocity S-wave (km/s) = 3.86153 4.29894 4.08609
# Velocity P-wave (km/s) = 6.82912 7.52885 7.18751
#
# Compressibility (1/GPa) = 0.01573923
#
# Stress axis : x y z
#
# Youngs Moduli (GPa) = 72.55861 123.88916 78.12628
#
# Poissons Ratio (x) = 0.40674 0.33026
# Poissons Ratio (y) = 0.23822 0.15210
# Poissons Ratio (z) = 0.30672 0.24119
#
# Static dielectric constant tensor:
#      x y z
#    x 1.598010 0.126270 -0.351930 
#    y 0.126270 1.924820 0.032440 
#    z -0.351930 0.032440 1.665220 
# 
# From -- ./inp_files/111562.got.cif
#   From: 2010.05.17/outbox.cif.g08.bks.cpg/sg2_56_cif.got.tgz:111562.got - 2010.06.03 11:33:40.
