data_PCOD9065088
_publ_section_title
;
Structure prediction by ZEFSAII (Michael W. Deem and Ramdas Pophale) SiO2 
 PCOD9065088
Probable space group: P -1
;
_chemical_formula_sum "Si O2"
_cell_formula_units_Z 14
_cell_length_a 11.958081
_cell_length_b 6.705854
_cell_length_c 12.390572
_cell_angle_alpha 67.508001
_cell_angle_beta 68.579418
_cell_angle_gamma 44.961430
_cell_volume 641.859452
_symmetry_space_group_name_H-M "P -1"
_symmetry_group_IT_number 2
_symmetry_cell_setting 'triclinic'
loop_
_space_group_symop_operation_xyz
x,y,z
-x,-y,-z
loop_
_atom_site_type_symbol
_atom_site_label
_atom_site_fract_x
_atom_site_fract_y
_atom_site_fract_z
Si Si1 0.742682 0.354176 0.338802
Si Si2 0.970567 0.390122 0.363265
Si Si3 0.383180 0.300507 0.041394
Si Si4 0.983008 0.396340 0.915725
Si Si5 0.272790 0.807084 0.849731
Si Si6 0.513119 0.039488 0.283257
Si Si7 0.746125 0.890948 0.514115
O O1 0.886042 0.267111 0.383222
O O2 0.792388 0.243913 0.220887
O O3 0.616723 0.698404 0.304031
O O4 0.678219 0.203971 0.438163
O O5 0.853812 0.659604 0.429497
O O6 0.991735 0.484887 0.222617
O O7 0.138222 0.192882 0.407796
O O8 0.196816 0.473380 0.053660
O O9 0.423174 0.216132 0.169317
O O10 0.395976 0.518612 0.935668
O O11 0.500000 0.000000 0.000000
O O12 0.125552 0.055285 0.924230
O O13 0.000000 0.500000 0.000000
O O14 0.366750 0.905226 0.752699
O O15 0.385024 0.128623 0.400569
#
# Coordination Sequence:
#
# PCOD9065088 Si02
#       7
#     2   2   2   2   2   2   2
#     4  12  23  45  73 102 148 187 249 293 368 427
#     4  11  24  47  71 105 145 188 250 301 359 437
#     4  12  25  47  72 108 145 189 248 305 367 432
#     4  12  24  48  77 105 145 194 247 301 367 437
#     4  12  26  48  74 108 147 197 240 307 365 435
#     4  12  25  44  72 106 149 193 243 297 369 436
#     4  11  25  46  72 106 147 192 243 302 359 432
#
# _framework density 21.811627000000001
#
# number of rings (size 3 to 8) (size 9 to 14) (size 15 to 20)
#    0.000    0.286    5.714    3.429    0.000    3.429 
#    0.000    4.286    0.000    0.000    0.000    0.000 
#    0.000    0.000    0.000    0.000    0.000    0.000 
#
# Total GULP energy -78293.625350 kJ/mol
# GULP energy per Si atom -5592.401811 kJ/mol
# Density = 2.176198 g / cm^3
# Si number density = 21.811627 Si / 1000 Ang^3
#
#
#
# Elastic Constant Matrix: (Units=GPa)
#
#
# Indices 1 2 3 4 5 6 
#
# 1 116.0789 37.2003 43.4865 1.7590 7.6324 1.4033
# 2 37.2003 128.0221 54.8765 -7.9181 -1.8752 -3.1474
# 3 43.4865 54.8765 132.5255 -4.6524 4.4625 8.8692
# 4 1.7590 -7.9181 -4.6524 37.9717 4.8143 0.8294
# 5 7.6324 -1.8752 4.4625 4.8143 57.4184 -0.5385
# 6 1.4033 -3.1474 8.8692 0.8294 -0.5385 26.9737
#
#
#
# Elastic Compliance Matrix: (Units=1/GPa)
#
#
# Indices 1 2 3 4 5 6 
#
# 1 0.010299 -0.001972 -0.002567 -0.001060 -0.001144 0.000088
# 2 -0.001972 0.010134 -0.003684 0.001602 0.000768 0.002462
# 3 -0.002567 -0.003684 0.010210 0.000768 -0.000672 -0.003690
# 4 -0.001060 0.001602 0.000768 0.027104 -0.002147 -0.000887
# 5 -0.001144 0.000768 -0.000672 -0.002147 0.017833 0.000792
# 6 0.000088 0.002462 -0.003690 -0.000887 0.000792 0.038612
#
#
# Mechanical properties :
#
#
# Convention : Reuss Voigt Hill
#
# Bulk Modulus (GPa) = 70.43941 71.97257 71.20599
# Shear Modulus (GPa) = 36.93551 40.54364 38.73958
#
# Velocity S-wave (km/s) = 4.11954 4.31607 4.21895
# Velocity P-wave (km/s) = 7.41566 7.60966 7.51329
#
# Compressibility (1/GPa) = 0.01419660
#
# Stress axis : x y z
#
# Youngs Moduli (GPa) = 97.09747 98.67683 97.94325
#
# Poissons Ratio (x) = 0.19462 0.25145
# Poissons Ratio (y) = 0.19151 0.36078
# Poissons Ratio (z) = 0.24928 0.36348
#
# Static dielectric constant tensor:
#      x y z
#    x 1.821670 0.013380 -0.026310 
#    y 0.013380 1.773500 -0.040170 
#    z -0.026310 -0.040170 1.818510 
# 
# From -- ./inp_files/27112.got.cif
#   From: 2010.05.17/outbox.cif.g08.bks.cpg/sg2_14_cif.got.tgz:27112.got - 2010.06.03 11:33:40.
