data_PCOD9065292
_publ_section_title
;
Structure prediction by ZEFSAII (Michael W. Deem and Ramdas Pophale) SiO2 
 PCOD9065292
Probable space group: P -1
;
_chemical_formula_sum "Si O2"
_cell_formula_units_Z 10
_cell_length_a 12.331522
_cell_length_b 14.458821
_cell_length_c 9.798071
_cell_angle_alpha 153.247536
_cell_angle_beta 35.910519
_cell_angle_gamma 149.651227
_cell_volume 391.341196
_symmetry_space_group_name_H-M "P -1"
_symmetry_group_IT_number 2
_symmetry_cell_setting 'triclinic'
loop_
_space_group_symop_operation_xyz
x,y,z
-x,-y,-z
loop_
_atom_site_type_symbol
_atom_site_label
_atom_site_fract_x
_atom_site_fract_y
_atom_site_fract_z
Si Si1 0.004212 0.744503 0.018066
Si Si2 0.515683 0.120567 0.334407
Si Si3 0.600519 0.505202 0.550686
Si Si4 0.577330 0.279315 0.766932
Si Si5 0.947057 0.183534 0.615234
O O1 0.833367 0.476762 0.786013
O O2 0.254042 0.857661 0.869751
O O3 0.993801 0.741410 0.188955
O O4 0.934615 0.928854 0.280050
O O5 0.503269 0.240758 0.365116
O O6 0.522677 0.279558 0.664280
O O7 0.290146 0.865089 0.239549
O O8 0.500000 0.500000 0.500000
O O9 0.858516 0.630826 0.434354
O O10 0.544952 0.649535 0.905918
O O11 0.500000 0.000000 0.500000
#
# Coordination Sequence:
#
# PCOD9065292 Si02
#       5
#     2   2   2   2   2
#     4  11  24  49  74 109 152 196 245 308 365 448
#     4  12  27  46  78 113 147 194 251 304 375 435
#     4  12  25  49  79 106 153 196 246 306 366 444
#     4  12  27  49  75 112 155 194 245 308 374 437
#     4  11  24  47  78 106 151 193 251 304 366 439
#
# _framework density 25.553149000000001
#
# number of rings (size 3 to 8) (size 9 to 14) (size 15 to 20)
#    0.000    0.400    4.000    4.200    2.800    3.200 
#    0.000    0.000    0.000    0.000    0.000    0.000 
#    0.000    0.000    0.000    0.000    0.000    0.000 
#
# Total GULP energy -56138.979172 kJ/mol
# GULP energy per Si atom -5613.897917 kJ/mol
# Density = 2.549499 g / cm^3
# Si number density = 25.553149 Si / 1000 Ang^3
#
#
#
# Elastic Constant Matrix: (Units=GPa)
#
#
# Indices 1 2 3 4 5 6 
#
# 1 102.6547 46.0856 33.4131 -1.9659 14.4312 11.4026
# 2 46.0856 201.3195 48.5510 -14.4380 -7.1738 32.7791
# 3 33.4131 48.5510 117.0438 -5.1398 0.6713 5.9136
# 4 -1.9659 -14.4380 -5.1398 60.2848 -4.4285 2.1428
# 5 14.4312 -7.1738 0.6713 -4.4285 48.2211 3.5481
# 6 11.4026 32.7791 5.9136 2.1428 3.5481 41.9053
#
#
#
# Elastic Compliance Matrix: (Units=1/GPa)
#
#
# Indices 1 2 3 4 5 6 
#
# 1 0.012200 -0.002230 -0.002519 -0.000610 -0.003941 -0.000855
# 2 -0.002230 0.006936 -0.001932 0.001760 0.002243 -0.004825
# 3 -0.002519 -0.001932 0.010039 0.000307 0.000300 0.000739
# 4 -0.000610 0.001760 0.000307 0.017260 0.002196 -0.002322
# 5 -0.003941 0.002243 0.000300 0.002196 0.022651 -0.002755
# 6 -0.000855 -0.004825 0.000739 -0.002322 -0.002755 0.028118
#
#
# Mechanical properties :
#
#
# Convention : Reuss Voigt Hill
#
# Bulk Modulus (GPa) = 63.24288 75.23528 69.23908
# Shear Modulus (GPa) = 43.16478 49.61348 46.38913
#
# Velocity S-wave (km/s) = 4.11447 4.41112 4.26537
# Velocity P-wave (km/s) = 6.88295 7.44651 7.17027
#
# Compressibility (1/GPa) = 0.01581206
#
# Stress axis : x y z
#
# Youngs Moduli (GPa) = 81.96902 144.18458 99.61523
#
# Poissons Ratio (x) = 0.32159 0.25088
# Poissons Ratio (y) = 0.18282 0.19246
# Poissons Ratio (z) = 0.20644 0.27856
#
# Static dielectric constant tensor:
#      x y z
#    x 2.009630 -0.013900 -0.023960 
#    y -0.013900 1.967510 -0.012310 
#    z -0.023960 -0.012310 2.001890 
# 
# From -- ./inp_files/144041.got.cif
#   From: 2010.05.17/outbox.cif.g08.bks.cpg/sg2_73_cif.got.tgz:144041.got - 2010.06.03 11:33:40.
