data_PCOD9065846
_publ_section_title
;
Structure prediction by ZEFSAII (Michael W. Deem and Ramdas Pophale) SiO2 
 PCOD9065846
Probable space group: P -1
;
_chemical_formula_sum "Si O2"
_cell_formula_units_Z 16
_cell_length_a 6.569853
_cell_length_b 17.528170
_cell_length_c 8.466050
_cell_angle_alpha 131.658808
_cell_angle_beta 87.310291
_cell_angle_gamma 101.019823
_cell_volume 710.674139
_symmetry_space_group_name_H-M "P -1"
_symmetry_group_IT_number 2
_symmetry_cell_setting 'triclinic'
loop_
_space_group_symop_operation_xyz
x,y,z
-x,-y,-z
loop_
_atom_site_type_symbol
_atom_site_label
_atom_site_fract_x
_atom_site_fract_y
_atom_site_fract_z
Si Si1 0.339050 0.552413 0.478412
Si Si2 0.235087 0.023520 0.363687
Si Si3 0.943248 0.788750 0.510511
Si Si4 0.595253 0.923801 0.242899
Si Si5 0.077451 0.163361 0.056160
Si Si6 0.695276 0.246715 0.758439
Si Si7 0.965984 0.360201 0.170772
Si Si8 0.560384 0.615524 0.233902
O O1 0.500000 0.500000 0.500000
O O2 0.224600 0.623381 0.688816
O O3 0.458346 0.609525 0.402746
O O4 0.147346 0.462735 0.301599
O O5 0.175859 0.128967 0.452403
O O6 0.237293 0.025969 0.558993
O O7 0.468490 0.006972 0.299061
O O8 0.091368 0.928454 0.145494
O O9 0.960487 0.817515 0.733719
O O10 0.801984 0.672430 0.327975
O O11 0.167580 0.798702 0.436804
O O12 0.430574 0.836498 0.226551
O O13 0.705043 0.870328 0.030869
O O14 0.066961 0.268279 0.108025
O O15 0.539962 0.308689 0.767767
O O16 0.865638 0.327702 0.962358
O O17 0.500000 0.500000 0.000000
#
# Coordination Sequence:
#
# PCOD9065846 Si02
#       8
#     2   2   2   2   2   2   2   2
#     4  11  25  45  71  99 141 181 236 288 351 409
#     4  11  25  47  71 106 139 183 235 285 348 415
#     4  12  28  45  69 105 145 180 229 294 347 414
#     4  11  26  44  75 101 135 190 233 281 342 423
#     4  12  26  44  73 102 144 181 233 285 351 411
#     4  12  26  46  72 100 142 181 232 288 350 406
#     4  11  25  43  71 103 134 184 235 288 341 419
#     4  12  27  45  71 101 141 187 232 285 350 413
#
# _framework density 22.513835
#
# number of rings (size 3 to 8) (size 9 to 14) (size 15 to 20)
#    0.000    0.500    2.500    4.500    8.750    5.500 
#    0.000    0.000    0.000    0.000    0.000    0.000 
#    0.000    0.000    0.000    0.000    0.000    0.000 
#
# Total GULP energy -89593.880203 kJ/mol
# GULP energy per Si atom -5599.617513 kJ/mol
# Density = 2.246259 g / cm^3
# Si number density = 22.513835 Si / 1000 Ang^3
#
#
#
# Elastic Constant Matrix: (Units=GPa)
#
#
# Indices 1 2 3 4 5 6 
#
# 1 89.6946 6.2729 38.4645 1.8719 -4.1688 17.1378
# 2 6.2729 38.2716 15.3291 8.8373 13.7837 17.0741
# 3 38.4645 15.3291 124.3389 -3.2101 -2.2471 21.3303
# 4 1.8719 8.8373 -3.2101 36.0067 -6.3426 -4.9083
# 5 -4.1688 13.7837 -2.2471 -6.3426 25.1097 -4.0554
# 6 17.1378 17.0741 21.3303 -4.9083 -4.0554 41.5198
#
#
#
# Elastic Compliance Matrix: (Units=1/GPa)
#
#
# Indices 1 2 3 4 5 6 
#
# 1 0.013543 0.002355 -0.003695 -0.002438 -0.000803 -0.005027
# 2 0.002355 0.070134 -0.004942 -0.031949 -0.052463 -0.036175
# 3 -0.003695 -0.004942 0.010094 0.002802 0.003557 -0.000950
# 4 -0.002438 -0.031949 0.002802 0.044509 0.032034 0.021096
# 5 -0.000803 -0.052463 0.003557 0.032034 0.082050 0.031879
# 6 -0.005027 -0.036175 -0.000950 0.021096 0.031879 0.047131
#
#
# Mechanical properties :
#
#
# Convention : Reuss Voigt Hill
#
# Bulk Modulus (GPa) = 12.31433 41.38203 26.84818
# Shear Modulus (GPa) = 16.28164 33.34315 24.81240
#
# Velocity S-wave (km/s) = 2.69213 3.85256 3.32338
# Velocity P-wave (km/s) = 3.89165 6.18144 5.16503
#
# Compressibility (1/GPa) = 0.08120624
#
# Stress axis : x y z
#
# Youngs Moduli (GPa) = 73.83997 14.25852 99.06467
#
# Poissons Ratio (x) = -0.03357 0.36604
# Poissons Ratio (y) = -0.17387 0.48958
# Poissons Ratio (z) = 0.27283 0.07047
#
# Static dielectric constant tensor:
#      x y z
#    x 1.857200 0.026780 0.011690 
#    y 0.026780 1.800080 0.023440 
#    z 0.011690 0.023440 1.833510 
# 
# From -- ./inp_files/139584.got.cif
#   From: 2010.05.17/outbox.cif.g08.bks.cpg/sg2_70_cif.got.tgz:139584.got - 2010.06.03 11:33:40.
