data_PCOD9065097
_publ_section_title
;
Structure prediction by ZEFSAII (Michael W. Deem and Ramdas Pophale) SiO2 
 PCOD9065097
Probable space group: P -1
;
_chemical_formula_sum "Si O2"
_cell_formula_units_Z 15
_cell_length_a 9.653984
_cell_length_b 12.206877
_cell_length_c 10.594149
_cell_angle_alpha 74.347935
_cell_angle_beta 142.860797
_cell_angle_gamma 117.394807
_cell_volume 658.189254
_symmetry_space_group_name_H-M "P -1"
_symmetry_group_IT_number 2
_symmetry_cell_setting 'triclinic'
loop_
_space_group_symop_operation_xyz
x,y,z
-x,-y,-z
loop_
_atom_site_type_symbol
_atom_site_label
_atom_site_fract_x
_atom_site_fract_y
_atom_site_fract_z
Si Si1 0.678243 0.004127 0.010645
Si Si2 0.972510 0.722913 0.751716
Si Si3 0.582749 0.416690 0.253174
Si Si4 0.429568 0.660839 0.445801
Si Si5 0.000000 0.500000 0.000000
Si Si6 0.353030 0.911550 0.307574
Si Si7 0.133729 0.203322 0.860523
Si Si8 0.997071 0.321984 0.499859
O O1 0.926743 0.134385 0.170881
O O2 0.735746 0.882836 0.072188
O O3 0.573428 0.021777 0.794001
O O4 0.500000 0.000000 0.000000
O O5 0.668869 0.662536 0.545068
O O6 0.054751 0.724866 0.666056
O O7 0.063207 0.642533 0.937846
O O8 0.531704 0.372393 0.373513
O O9 0.718037 0.567183 0.312186
O O10 0.795072 0.376855 0.366516
O O11 0.331885 0.338596 0.015453
O O12 0.171713 0.562968 0.228488
O O13 0.419469 0.793455 0.394446
O O14 0.056391 0.864553 0.141901
O O15 0.500000 0.000000 0.500000
O O16 0.978427 0.224474 0.625277
#
# Coordination Sequence:
#
# PCOD9065097 Si02
#       8
#     2   2   2   2   1   2   2   2
#     4  12  28  48  74 107 146 192 245 303 362 427
#     4  12  27  48  75 107 146 187 245 293 366 427
#     4  11  24  47  71 108 145 180 243 293 360 434
#     4  12  25  46  76 105 141 190 239 296 358 433
#     4  12  26  48  74 106 146 186 240 296 362 424
#     4  12  26  48  74 104 143 193 245 296 359 436
#     4  12  26  47  76 102 146 195 238 297 366 428
#     4  11  26  44  72 111 142 188 231 304 357 434
#
# _framework density 22.789798000000001
#
# number of rings (size 3 to 8) (size 9 to 14) (size 15 to 20)
#    0.000    0.267    4.000    4.400    3.733    1.600 
#    0.000    0.000    0.000    0.000    0.000    0.000 
#    0.000    0.000    0.000    0.000    0.000    0.000 
#
# Total GULP energy -83714.225520 kJ/mol
# GULP energy per Si atom -5580.948368 kJ/mol
# Density = 2.273793 g / cm^3
# Si number density = 22.789798 Si / 1000 Ang^3
#
#
#
# Elastic Constant Matrix: (Units=GPa)
#
#
# Indices 1 2 3 4 5 6 
#
# 1 102.9321 -4.6963 15.2869 -13.6144 -21.2944 8.8550
# 2 -4.6963 69.5783 8.6584 1.4238 -5.7568 7.6998
# 3 15.2869 8.6584 96.5231 13.2249 -33.9888 -5.7074
# 4 -13.6144 1.4238 13.2249 41.6392 5.9123 -9.8367
# 5 -21.2944 -5.7568 -33.9888 5.9123 35.5894 4.6405
# 6 8.8550 7.6998 -5.7074 -9.8367 4.6405 30.4889
#
#
#
# Elastic Compliance Matrix: (Units=1/GPa)
#
#
# Indices 1 2 3 4 5 6 
#
# 1 0.012054 0.001941 0.000319 0.001501 0.008193 -0.004694
# 2 0.001941 0.015589 -0.000182 -0.001870 0.004581 -0.005835
# 3 0.000319 -0.000182 0.018256 -0.009037 0.019423 -0.002501
# 4 0.001501 -0.001870 -0.009037 0.032133 -0.014802 0.010964
# 5 0.008193 0.004581 0.019423 -0.014802 0.056481 -0.013272
# 6 -0.004694 -0.005835 -0.002501 0.010964 -0.013272 0.040725
#
#
# Mechanical properties :
#
#
# Convention : Reuss Voigt Hill
#
# Bulk Modulus (GPa) = 19.97852 34.17020 27.07436
# Shear Modulus (GPa) = 26.62886 38.19578 32.41232
#
# Velocity S-wave (km/s) = 3.42198 4.09834 3.77534
# Velocity P-wave (km/s) = 4.93950 6.11730 5.55968
#
# Compressibility (1/GPa) = 0.05005375
#
# Stress axis : x y z
#
# Youngs Moduli (GPa) = 82.96231 64.14845 54.77686
#
# Poissons Ratio (x) = -0.12448 -0.01746
# Poissons Ratio (y) = -0.16099 0.00994
# Poissons Ratio (z) = -0.02644 0.01164
#
# Static dielectric constant tensor:
#      x y z
#    x 1.805610 0.053000 0.077550 
#    y 0.053000 1.884040 0.032690 
#    z 0.077550 0.032690 1.780810 
# 
# From -- ./inp_files/48326.got.cif
#   From: 2010.05.17/outbox.cif.g08.bks.cpg/sg2_25_cif.got.tgz:48326.got - 2010.06.03 11:33:40.
