data_PCOD9065831
_publ_section_title
;
Structure prediction by ZEFSAII (Michael W. Deem and Ramdas Pophale) SiO2 
 PCOD9065831
Probable space group: P -1
;
_chemical_formula_sum "Si O2"
_cell_formula_units_Z 16
_cell_length_a 13.912334
_cell_length_b 8.920783
_cell_length_c 9.025414
_cell_angle_alpha 112.254555
_cell_angle_beta 74.166587
_cell_angle_gamma 137.919088
_cell_volume 694.710869
_symmetry_space_group_name_H-M "P -1"
_symmetry_group_IT_number 2
_symmetry_cell_setting 'triclinic'
loop_
_space_group_symop_operation_xyz
x,y,z
-x,-y,-z
loop_
_atom_site_type_symbol
_atom_site_label
_atom_site_fract_x
_atom_site_fract_y
_atom_site_fract_z
Si Si1 0.668769 0.082697 0.144096
Si Si2 0.166511 0.592155 0.083110
Si Si3 0.841954 0.818779 0.423458
Si Si4 0.311172 0.214182 0.112748
Si Si5 0.995671 0.879451 0.099130
Si Si6 0.620886 0.300401 0.455923
Si Si7 0.622366 0.360662 0.821683
Si Si8 0.682027 0.943237 0.647718
O O1 0.681810 0.201995 0.330819
O O2 0.497727 0.867197 0.115901
O O3 0.748055 0.267132 0.049058
O O4 0.711032 0.944061 0.065721
O O5 0.231549 0.516516 0.116727
O O6 0.201996 0.785666 0.246794
O O7 0.019522 0.334115 0.000464
O O8 0.731039 0.565007 0.451229
O O9 0.765050 0.903983 0.503373
O O10 0.874953 0.798728 0.234575
O O11 0.000000 0.000000 0.500000
O O12 0.393562 0.466572 0.118664
O O13 0.373319 0.201844 0.228629
O O14 0.152850 0.084454 0.180611
O O15 0.000000 0.000000 0.000000
O O16 0.616350 0.293295 0.631363
O O17 0.460592 0.153539 0.407375
#
# Coordination Sequence:
#
# PCOD9065831 Si02
#       8
#     2   2   2   2   2   2   2   2
#     4  11  25  43  70 104 137 186 226 290 355 409
#     4  11  25  44  72  98 147 182 234 282 355 411
#     4  12  25  47  73  99 140 191 230 285 358 414
#     4  11  25  43  71 104 141 182 241 286 347 417
#     4  12  25  47  70 102 139 189 236 289 344 423
#     4  12  25  45  72 106 142 183 234 293 351 418
#     4  12  23  45  68 105 148 177 228 295 350 412
#     4  11  25  46  72 107 137 185 237 290 352 418
#
# _framework density 23.031162999999999
#
# number of rings (size 3 to 8) (size 9 to 14) (size 15 to 20)
#    0.000    0.500    6.250    1.500    1.750    4.000 
#    0.000    0.625    0.000    0.000    0.000    0.000 
#    0.000    0.000    0.000    0.000    0.000    0.000 
#
# Total GULP energy -89385.252149 kJ/mol
# GULP energy per Si atom -5586.578259 kJ/mol
# Density = 2.297874 g / cm^3
# Si number density = 23.031163 Si / 1000 Ang^3
#
#
#
# Elastic Constant Matrix: (Units=GPa)
#
#
# Indices 1 2 3 4 5 6 
#
# 1 47.5423 21.7611 50.0634 -8.5266 -8.0765 -5.4699
# 2 21.7611 142.5557 38.9637 7.3166 -6.1805 -10.6501
# 3 50.0634 38.9637 118.1702 12.8426 -27.9287 -11.1291
# 4 -8.5266 7.3166 12.8426 30.8622 -9.5267 -5.9935
# 5 -8.0765 -6.1805 -27.9287 -9.5267 42.8004 3.2011
# 6 -5.4699 -10.6501 -11.1291 -5.9935 3.2011 40.6322
#
#
#
# Elastic Compliance Matrix: (Units=1/GPa)
#
#
# Indices 1 2 3 4 5 6 
#
# 1 0.052166 -0.002505 -0.023861 0.025425 -0.000700 0.003636
# 2 -0.002505 0.007937 -0.001417 -0.002008 -0.000782 0.001121
# 3 -0.023861 -0.001417 0.022077 -0.013375 0.006725 -0.000039
# 4 0.025425 -0.002008 -0.013375 0.048509 0.006136 0.005905
# 5 -0.000700 -0.000782 0.006725 0.006136 0.028860 0.000174
# 6 0.003636 0.001121 -0.000039 0.005905 0.000174 0.026241
#
#
# Mechanical properties :
#
#
# Convention : Reuss Voigt Hill
#
# Bulk Modulus (GPa) = 37.57211 58.87163 48.22187
# Shear Modulus (GPa) = 19.98180 36.02429 28.00305
#
# Velocity S-wave (km/s) = 2.94870 3.95923 3.49072
# Velocity P-wave (km/s) = 5.28603 6.82040 6.10164
#
# Compressibility (1/GPa) = 0.02661548
#
# Stress axis : x y z
#
# Youngs Moduli (GPa) = 19.16967 125.98672 45.29505
#
# Poissons Ratio (x) = 0.31561 1.08076
# Poissons Ratio (y) = 0.04802 0.06418
# Poissons Ratio (z) = 0.45740 0.17850
#
# Static dielectric constant tensor:
#      x y z
#    x 1.890090 0.012220 -0.019600 
#    y 0.012220 1.885570 0.046370 
#    z -0.019600 0.046370 1.875970 
# 
# From -- ./inp_files/206262.got.cif
#   From: 2010.05.17/outbox.cif.g08.bks.cpg/sg2_104_cif.got.tgz:206262.got - 2010.06.03 11:33:40.
