data_PCOD9065902
_publ_section_title
;
Structure prediction by ZEFSAII (Michael W. Deem and Ramdas Pophale) SiO2 
 PCOD9065902
Probable space group: P -1
;
_chemical_formula_sum "Si O2"
_cell_formula_units_Z 14
_cell_length_a 16.933484
_cell_length_b 8.608129
_cell_length_c 23.364936
_cell_angle_alpha 33.537289
_cell_angle_beta 19.914884
_cell_angle_gamma 34.360657
_cell_volume 624.904279
_symmetry_space_group_name_H-M "P -1"
_symmetry_group_IT_number 2
_symmetry_cell_setting 'triclinic'
loop_
_space_group_symop_operation_xyz
x,y,z
-x,-y,-z
loop_
_atom_site_type_symbol
_atom_site_label
_atom_site_fract_x
_atom_site_fract_y
_atom_site_fract_z
Si Si1 0.365140 0.940674 0.310934
Si Si2 0.246625 0.855825 0.844884
Si Si3 0.360083 0.778481 0.544560
Si Si4 0.565684 0.432222 0.086397
Si Si5 0.245155 0.591610 0.807286
Si Si6 0.097335 0.790348 0.329331
Si Si7 0.101747 0.208343 0.297623
O O1 0.558036 0.695203 0.225139
O O2 0.181485 0.769889 0.517584
O O3 0.494582 0.139689 0.201326
O O4 0.203980 0.137275 0.313291
O O5 0.363392 0.592913 0.887549
O O6 0.212086 0.799194 0.819882
O O7 0.449119 0.031070 0.650643
O O8 0.000000 0.000000 0.000000
O O9 0.500000 0.500000 0.500000
O O10 0.310662 0.705897 0.666214
O O11 0.111689 0.965571 0.630988
O O12 0.325654 0.678983 0.167801
O O13 0.790014 0.522394 0.876837
O O14 0.000000 0.500000 0.000000
O O15 0.000000 0.500000 0.500000
O O16 0.181827 0.940168 0.281746
#
# Coordination Sequence:
#
# PCOD9065902 Si02
#       7
#     2   2   2   2   2   2   2
#     4  11  25  48  70 111 153 186 256 317 379 453
#     4  12  27  49  76 107 152 197 260 315 380 457
#     4  12  27  49  79 109 154 204 246 316 385 453
#     4  12  25  46  76 109 145 201 253 313 387 452
#     4  12  28  48  72 109 150 200 254 311 379 460
#     4  12  24  47  74 108 149 193 250 309 378 455
#     4  11  25  43  75 105 149 197 242 316 384 449
#
# _framework density 22.40343
#
# number of rings (size 3 to 8) (size 9 to 14) (size 15 to 20)
#    0.000    0.286    2.857    5.571    8.000    0.000 
#    5.143    0.000    0.000    0.000    0.000    0.000 
#    0.000    0.000    0.000    0.000    0.000    0.000 
#
# Total GULP energy -78205.901055 kJ/mol
# GULP energy per Si atom -5586.135790 kJ/mol
# Density = 2.235244 g / cm^3
# Si number density = 22.403430 Si / 1000 Ang^3
#
#
#
# Elastic Constant Matrix: (Units=GPa)
#
#
# Indices 1 2 3 4 5 6 
#
# 1 112.9387 26.0441 33.6058 -0.1281 17.8158 -5.0714
# 2 26.0441 81.4810 30.0175 27.9164 4.1620 -9.3954
# 3 33.6058 30.0175 165.5286 6.4769 3.1721 -7.0505
# 4 -0.1281 27.9164 6.4769 31.4966 2.4498 7.2099
# 5 17.8158 4.1620 3.1721 2.4498 35.9061 3.8821
# 6 -5.0714 -9.3954 -7.0505 7.2099 3.8821 27.2448
#
#
#
# Elastic Compliance Matrix: (Units=1/GPa)
#
#
# Indices 1 2 3 4 5 6 
#
# 1 0.011135 -0.004382 -0.001568 0.004736 -0.005162 -0.000362
# 2 -0.004382 0.024250 -0.001984 -0.024165 -0.000269 0.013467
# 3 -0.001568 -0.001984 0.006734 0.000188 0.000328 0.000670
# 4 0.004736 -0.024165 0.000188 0.058432 -0.001097 -0.022710
# 5 -0.005162 -0.000269 0.000328 -0.001097 0.031041 -0.005101
# 6 -0.000362 0.013467 0.000670 -0.022710 -0.005101 0.048191
#
#
# Mechanical properties :
#
#
# Convention : Reuss Voigt Hill
#
# Bulk Modulus (GPa) = 38.09238 59.92033 49.00636
# Shear Modulus (GPa) = 24.46174 36.94823 30.70499
#
# Velocity S-wave (km/s) = 3.30794 4.06547 3.70611
# Velocity P-wave (km/s) = 5.62403 6.98867 6.34316
#
# Compressibility (1/GPa) = 0.02625197
#
# Stress axis : x y z
#
# Youngs Moduli (GPa) = 89.80779 41.23688 148.49639
#
# Poissons Ratio (x) = 0.18071 0.23280
# Poissons Ratio (y) = 0.39356 0.29456
# Poissons Ratio (z) = 0.14079 0.08180
#
# Static dielectric constant tensor:
#      x y z
#    x 1.591750 0.139580 -0.014630 
#    y 0.139580 1.690250 0.055950 
#    z -0.014630 0.055950 1.812480 
# 
# From -- ./inp_files/612972.got.cif
#   From: 2010.05.17/outbox.cif.g08.bks.cpg/sg2_307_cif.got.tgz:612972.got - 2010.06.03 11:33:40.
