data_PCOD9065303
_publ_section_title
;
Structure prediction by ZEFSAII (Michael W. Deem and Ramdas Pophale) SiO2 
 PCOD9065303
Probable space group: P -1
;
_chemical_formula_sum "Si O2"
_cell_formula_units_Z 15
_cell_length_a 9.520025
_cell_length_b 5.468623
_cell_length_c 18.676021
_cell_angle_alpha 115.103645
_cell_angle_beta 134.248883
_cell_angle_gamma 62.079144
_cell_volume 608.052103
_symmetry_space_group_name_H-M "P -1"
_symmetry_group_IT_number 2
_symmetry_cell_setting 'triclinic'
loop_
_space_group_symop_operation_xyz
x,y,z
-x,-y,-z
loop_
_atom_site_type_symbol
_atom_site_label
_atom_site_fract_x
_atom_site_fract_y
_atom_site_fract_z
Si Si1 0.618475 0.841326 0.733763
Si Si2 0.769220 0.894830 0.095870
Si Si3 0.782196 0.008126 0.956309
Si Si4 0.383401 0.419409 0.651009
Si Si5 0.735444 0.927262 0.550737
Si Si6 0.153246 0.628681 0.736647
Si Si7 0.500000 0.500000 0.000000
Si Si8 0.070233 0.628339 0.287175
O O1 0.667607 0.889066 0.839022
O O2 0.475909 0.625782 0.661163
O O3 0.812996 0.675461 0.737318
O O4 0.537508 0.141178 0.704362
O O5 0.976629 0.773598 0.198518
O O6 0.738814 0.227866 0.145858
O O7 0.805950 0.842272 0.019019
O O8 0.598932 0.773250 0.056078
O O9 0.659903 0.319407 0.974321
O O10 0.000000 0.000000 0.000000
O O11 0.244072 0.276502 0.534900
O O12 0.274204 0.587669 0.701517
O O13 0.918916 0.773962 0.649363
O O14 0.500000 0.000000 0.500000
O O15 0.783873 0.226839 0.599275
O O16 0.125075 0.352016 0.729885
#
# Coordination Sequence:
#
# PCOD9065303 Si02
#       8
#     2   2   2   2   2   2   1   2
#     4  12  29  48  76 111 153 201 259 315 385 464
#     4  11  26  48  76 111 151 205 257 324 392 465
#     4  12  29  47  76 110 154 207 264 327 393 471
#     4  12  29  48  75 114 155 197 256 320 382 463
#     4  11  24  47  79 107 150 199 251 314 383 466
#     4  11  26  47  74 112 150 197 255 315 390 455
#     4  12  26  46  76 104 152 202 256 324 390 464
#     4  11  26  47  78 105 152 199 255 317 386 462
#
# _framework density 24.668939999999999
#
# number of rings (size 3 to 8) (size 9 to 14) (size 15 to 20)
#    0.000    0.533    1.333    4.800   14.933    2.667 
#    0.000    0.000    0.000    0.000    0.000    0.000 
#    0.000    0.000    0.000    0.000    0.000    0.000 
#
# Total GULP energy -83681.718061 kJ/mol
# GULP energy per Si atom -5578.781204 kJ/mol
# Density = 2.461279 g / cm^3
# Si number density = 24.668940 Si / 1000 Ang^3
#
#
#
# Elastic Constant Matrix: (Units=GPa)
#
#
# Indices 1 2 3 4 5 6 
#
# 1 115.0885 22.5723 15.3862 9.7647 2.2872 -4.0691
# 2 22.5723 45.1108 -3.9240 15.6409 18.7002 4.0169
# 3 15.3862 -3.9240 137.8628 20.2686 1.3843 -3.7655
# 4 9.7647 15.6409 20.2686 38.0751 0.1334 -1.3346
# 5 2.2872 18.7002 1.3843 0.1334 42.4520 6.3777
# 6 -4.0691 4.0169 -3.7655 -1.3346 6.3777 32.0361
#
#
#
# Elastic Compliance Matrix: (Units=1/GPa)
#
#
# Indices 1 2 3 4 5 6 
#
# 1 0.010091 -0.006501 -0.001421 0.000886 0.002132 0.001542
# 2 -0.006501 0.038512 0.004340 -0.016497 -0.016316 -0.002584
# 3 -0.001421 0.004340 0.008435 -0.005885 -0.002160 0.000452
# 4 0.000886 -0.016497 -0.005885 0.035977 0.007060 0.001582
# 5 0.002132 -0.016316 -0.002160 0.007060 0.031257 -0.003866
# 6 0.001542 -0.002584 0.000452 0.001582 -0.003866 0.032623
#
#
# Mechanical properties :
#
#
# Convention : Reuss Voigt Hill
#
# Bulk Modulus (GPa) = 20.05022 40.68125 30.36574
# Shear Modulus (GPa) = 27.67281 40.11448 33.89364
#
# Velocity S-wave (km/s) = 3.35291 4.03688 3.71069
# Velocity P-wave (km/s) = 4.80986 6.18508 5.54031
#
# Compressibility (1/GPa) = 0.04987476
#
# Stress axis : x y z
#
# Youngs Moduli (GPa) = 99.09855 25.96626 118.55391
#
# Poissons Ratio (x) = 0.16881 0.16843
# Poissons Ratio (y) = 0.64424 -0.51456
# Poissons Ratio (z) = 0.14079 -0.11270
#
# Static dielectric constant tensor:
#      x y z
#    x 1.970850 0.112460 0.024310 
#    y 0.112460 2.095750 0.031210 
#    z 0.024310 0.031210 1.893850 
# 
# From -- ./inp_files/36834.got.cif
#   From: 2010.05.17/outbox.cif.g08.bks.cpg/sg2_19_cif.got.tgz:36834.got - 2010.06.03 11:33:40.
