data_PCOD9065079
_publ_section_title
;
Structure prediction by ZEFSAII (Michael W. Deem and Ramdas Pophale) SiO2 
 PCOD9065079
Probable space group: P -1
;
_chemical_formula_sum "Si O2"
_cell_formula_units_Z 15
_cell_length_a 9.459174
_cell_length_b 8.613006
_cell_length_c 13.124069
_cell_angle_alpha 96.382366
_cell_angle_beta 42.710377
_cell_angle_gamma 109.757007
_cell_volume 666.611452
_symmetry_space_group_name_H-M "P -1"
_symmetry_group_IT_number 2
_symmetry_cell_setting 'triclinic'
loop_
_space_group_symop_operation_xyz
x,y,z
-x,-y,-z
loop_
_atom_site_type_symbol
_atom_site_label
_atom_site_fract_x
_atom_site_fract_y
_atom_site_fract_z
Si Si1 0.000000 0.000000 0.000000
Si Si2 0.764386 0.503310 0.585367
Si Si3 0.821767 0.971051 0.320622
Si Si4 0.322104 0.717835 0.583573
Si Si5 0.367619 0.322584 0.935871
Si Si6 0.354677 0.808860 0.091486
Si Si7 0.039188 0.516799 0.102194
Si Si8 0.005913 0.863859 0.405562
O O1 0.884277 0.946783 0.171037
O O2 0.774386 0.855935 0.055385
O O3 0.690289 0.375580 0.521854
O O4 0.572306 0.443192 0.767240
O O5 0.000000 0.500000 0.500000
O O6 0.812937 0.688977 0.529074
O O7 0.579247 0.836323 0.474423
O O8 0.985604 0.942544 0.313485
O O9 0.807326 0.154099 0.347576
O O10 0.200187 0.577395 0.722764
O O11 0.477189 0.284836 0.977291
O O12 0.190399 0.411758 0.045154
O O13 0.175679 0.701317 0.092171
O O14 0.224087 0.817345 0.266172
O O15 0.500000 0.000000 0.000000
O O16 0.000000 0.500000 0.000000
O O17 0.000000 0.000000 0.500000
#
# Coordination Sequence:
#
# PCOD9065079 Si02
#       8
#     1   2   2   2   2   2   2   2
#     4  12  24  46  74 112 144 206 252 316 386 454
#     4  12  24  47  74 103 143 192 252 305 385 452
#     4  11  26  44  74 107 152 194 253 313 387 454
#     4  11  24  47  71 103 145 198 246 308 377 454
#     4  12  27  48  78 106 156 202 257 316 392 459
#     4  12  29  49  75 109 155 201 256 319 392 459
#     4  12  29  49  77 114 153 203 260 319 388 467
#     4  12  28  46  74 110 150 193 255 316 385 463
#
# _framework density 22.501863
#
# number of rings (size 3 to 8) (size 9 to 14) (size 15 to 20)
#    0.000    0.267    5.333    2.000    7.467    0.533 
#    0.000    0.000    0.000    0.000    0.000    0.000 
#    0.000    0.000    0.000    0.000    0.000    0.000 
#
# Total GULP energy -83662.581707 kJ/mol
# GULP energy per Si atom -5577.505447 kJ/mol
# Density = 2.245065 g / cm^3
# Si number density = 22.501863 Si / 1000 Ang^3
#
#
#
# Elastic Constant Matrix: (Units=GPa)
#
#
# Indices 1 2 3 4 5 6 
#
# 1 39.3376 56.9603 9.1089 12.3771 3.6297 -18.4013
# 2 56.9603 100.1998 44.5989 -18.3922 15.3415 40.9273
# 3 9.1089 44.5989 125.2335 -30.9807 1.6660 -5.2355
# 4 12.3771 -18.3922 -30.9807 48.5647 5.0107 1.0526
# 5 3.6297 15.3415 1.6660 5.0107 33.9274 -2.3220
# 6 -18.4013 40.9273 -5.2355 1.0526 -2.3220 6.9185
#
#
#
# Elastic Compliance Matrix: (Units=1/GPa)
#
#
# Indices 1 2 3 4 5 6 
#
# 1 0.007971 0.006411 -0.003977 -0.001183 -0.004831 -0.021176
# 2 0.006411 0.000556 -0.000629 -0.002159 0.000352 0.013733
# 3 -0.003977 -0.000629 0.010341 0.007479 -0.000936 -0.000483
# 4 -0.001183 -0.002159 0.007479 0.024839 -0.002196 0.010766
# 5 -0.004831 0.000352 -0.000936 -0.002196 0.029840 -0.005292
# 6 -0.021176 0.013733 -0.000483 0.010766 -0.005292 0.003199
#
#
# Mechanical properties :
#
#
# Convention : Reuss Voigt Hill
#
# Bulk Modulus (GPa) = 44.48640 54.01190 49.24915
# Shear Modulus (GPa) = 62.01373 28.15564 45.08469
#
# Velocity S-wave (km/s) = 5.25540 3.54115 4.48101
# Velocity P-wave (km/s) = 7.52586 6.38554 6.97903
#
# Compressibility (1/GPa) = 0.02247878
#
# Stress axis : x y z
#
# Youngs Moduli (GPa) = 125.45980 1798.39467 96.70532
#
# Poissons Ratio (x) = -11.52965 0.38455
# Poissons Ratio (y) = -0.80433 0.06082
# Poissons Ratio (z) = 0.49889 1.13098
#
# Static dielectric constant tensor:
#      x y z
#    x 1.722840 -0.112890 -0.013020 
#    y -0.112890 1.828530 0.044820 
#    z -0.013020 0.044820 1.841510 
# 
# From -- ./inp_files/158306.got.cif
#   From: 2010.05.17/outbox.cif.g08.bks.cpg/sg2_80_cif.got.tgz:158306.got - 2010.06.03 11:33:40.
