data_PCOD9065824
_publ_section_title
;
Structure prediction by ZEFSAII (Michael W. Deem and Ramdas Pophale) SiO2 
 PCOD9065824
Probable space group: P -1
;
_chemical_formula_sum "Si O2"
_cell_formula_units_Z 16
_cell_length_a 8.517708
_cell_length_b 25.706585
_cell_length_c 11.851009
_cell_angle_alpha 34.236259
_cell_angle_beta 47.241618
_cell_angle_gamma 31.151997
_cell_volume 751.572937
_symmetry_space_group_name_H-M "P -1"
_symmetry_group_IT_number 2
_symmetry_cell_setting 'triclinic'
loop_
_space_group_symop_operation_xyz
x,y,z
-x,-y,-z
loop_
_atom_site_type_symbol
_atom_site_label
_atom_site_fract_x
_atom_site_fract_y
_atom_site_fract_z
Si Si1 0.748132 0.356822 0.698516
Si Si2 0.918850 0.631425 0.289000
Si Si3 0.704486 0.363911 0.078753
Si Si4 0.352415 0.364566 0.055879
Si Si5 0.646348 0.924255 0.182918
Si Si6 0.555546 0.879150 0.536596
Si Si7 0.289018 0.896575 0.121378
Si Si8 0.031825 0.120382 0.518541
O O1 0.500000 0.500000 0.500000
O O2 0.965698 0.351321 0.684877
O O3 0.002072 0.218523 0.752377
O O4 0.534475 0.355617 0.879634
O O5 0.559921 0.744456 0.234873
O O6 0.000000 0.500000 0.500000
O O7 0.075921 0.640244 0.096725
O O8 0.520228 0.353529 0.103784
O O9 0.863642 0.249339 0.296897
O O10 0.500000 0.500000 0.000000
O O11 0.368736 0.249594 0.241780
O O12 0.000000 0.500000 0.000000
O O13 0.508920 0.897645 0.390782
O O14 0.500000 0.000000 0.000000
O O15 0.577101 0.043158 0.062458
O O16 0.819152 0.869042 0.467961
O O17 0.274829 0.998910 0.534725
O O18 0.173905 0.897578 0.297345
O O19 0.000000 0.000000 0.000000
#
# Coordination Sequence:
#
# PCOD9065824 Si02
#       8
#     2   2   2   2   2   2   2   2
#     4  11  26  45  69  99 135 183 226 282 344 405
#     4  11  26  45  69  99 138 178 231 281 339 411
#     4  11  25  44  69  98 137 181 225 282 345 407
#     4  11  25  45  68  99 137 178 231 282 341 409
#     4  12  25  45  72 100 142 180 231 285 341 410
#     4  11  25  44  68 101 137 179 225 282 338 407
#     4  12  25  45  70 104 138 184 229 280 343 406
#     4  11  25  43  69  99 139 178 227 277 342 405
#
# _framework density 21.288685999999998
#
# number of rings (size 3 to 8) (size 9 to 14) (size 15 to 20)
#    0.000    0.750    2.500    3.750    7.000    6.500 
#    0.000    0.000    0.000    0.000    0.000    0.000 
#    0.000    0.000    0.000    0.000    0.000    0.000 
#
# Total GULP energy -89253.908653 kJ/mol
# GULP energy per Si atom -5578.369291 kJ/mol
# Density = 2.124023 g / cm^3
# Si number density = 21.288686 Si / 1000 Ang^3
#
#
#
# Elastic Constant Matrix: (Units=GPa)
#
#
# Indices 1 2 3 4 5 6 
#
# 1 34.3693 21.6523 28.6583 -2.4193 17.6342 -0.6476
# 2 21.6523 132.6799 58.2574 -25.7438 8.2451 0.6351
# 3 28.6583 58.2574 160.0257 -23.2434 11.3757 1.4399
# 4 -2.4193 -25.7438 -23.2434 49.3164 -0.2372 -0.3485
# 5 17.6342 8.2451 11.3757 -0.2372 39.0168 -5.0035
# 6 -0.6476 0.6351 1.4399 -0.3485 -5.0035 27.9693
#
#
#
# Elastic Compliance Matrix: (Units=1/GPa)
#
#
# Indices 1 2 3 4 5 6 
#
# 1 0.045788 -0.004368 -0.005697 -0.002820 -0.018367 -0.001868
# 2 -0.004368 0.009996 -0.002328 0.003909 0.000556 -0.000060
# 3 -0.005697 -0.002328 0.008440 0.002483 0.000572 -0.000380
# 4 -0.002820 0.003909 0.002483 0.023349 -0.000135 -0.000015
# 5 -0.018367 0.000556 0.000572 -0.000135 0.034374 0.005680
# 6 -0.001868 -0.000060 -0.000380 -0.000015 0.005680 0.036747
#
#
# Mechanical properties :
#
#
# Convention : Reuss Voigt Hill
#
# Bulk Modulus (GPa) = 25.35602 60.46789 42.91196
# Shear Modulus (GPa) = 25.42893 37.82763 31.62828
#
# Velocity S-wave (km/s) = 3.45988 4.21989 3.85864
# Velocity P-wave (km/s) = 5.28180 7.22556 6.32875
#
# Compressibility (1/GPa) = 0.03943836
#
# Stress axis : x y z
#
# Youngs Moduli (GPa) = 21.83989 100.03917 118.47989
#
# Poissons Ratio (x) = 0.43693 0.67499
# Poissons Ratio (y) = 0.09539 0.27584
# Poissons Ratio (z) = 0.12442 0.23291
#
# Static dielectric constant tensor:
#      x y z
#    x 1.703400 -0.019540 -0.073320 
#    y -0.019540 1.709600 0.012740 
#    z -0.073320 0.012740 1.661950 
# 
# From -- ./inp_files/271933.got.cif
#   From: 2010.05.17/outbox.cif.g08.bks.cpg/sg2_136_cif.got.tgz:271933.got - 2010.06.03 11:33:40.
