data_PCOD9065021
_publ_section_title
;
Structure prediction by ZEFSAII (Michael W. Deem and Ramdas Pophale) SiO2 
 PCOD9065021
Probable space group: P -1
;
_chemical_formula_sum "Si O2"
_cell_formula_units_Z 15
_cell_length_a 5.058188
_cell_length_b 9.342747
_cell_length_c 16.896797
_cell_angle_alpha 46.334295
_cell_angle_beta 83.919121
_cell_angle_gamma 77.841620
_cell_volume 563.780616
_symmetry_space_group_name_H-M "P -1"
_symmetry_group_IT_number 2
_symmetry_cell_setting 'triclinic'
loop_
_space_group_symop_operation_xyz
x,y,z
-x,-y,-z
loop_
_atom_site_type_symbol
_atom_site_label
_atom_site_fract_x
_atom_site_fract_y
_atom_site_fract_z
Si Si1 0.369478 0.808980 0.134749
Si Si2 0.500000 0.500000 0.000000
Si Si3 0.352743 0.803726 0.799085
Si Si4 0.820164 0.329275 0.585732
Si Si5 0.672515 0.790888 0.287081
Si Si6 0.771392 0.760293 0.001474
Si Si7 0.045784 0.042510 0.390204
Si Si8 0.208072 0.459574 0.199149
O O1 0.610450 0.791757 0.197141
O O2 0.487582 0.811405 0.042375
O O3 0.270786 0.595302 0.217373
O O4 0.163258 0.015036 0.081924
O O5 0.774583 0.294509 0.086367
O O6 0.679404 0.667352 0.961134
O O7 0.195896 0.866352 0.698580
O O8 0.559639 0.587103 0.858776
O O9 0.463411 0.998179 0.748282
O O10 0.018241 0.223594 0.690550
O O11 0.000000 0.500000 0.500000
O O12 0.510552 0.364660 0.612888
O O13 0.839748 0.174043 0.570900
O O14 0.953865 0.588782 0.114332
O O15 0.199439 0.231666 0.311844
O O16 0.000000 0.000000 0.500000
#
# Coordination Sequence:
#
# PCOD9065021 Si02
#       8
#     2   1   2   2   2   2   2   2
#     4  11  25  43  65 103 146 183 240 292 365 435
#     4  12  20  46  68  94 148 180 238 294 358 430
#     4  11  24  47  68 107 135 191 242 295 361 439
#     4  11  26  48  72 106 139 188 248 300 372 429
#     4  11  25  47  74 102 145 188 241 304 362 441
#     4  11  25  43  66 103 140 189 237 296 366 429
#     4  11  26  46  72 101 142 186 242 301 362 430
#     4  12  23  45  68 101 139 181 247 287 366 432
#
# _framework density 26.606092
#
# number of rings (size 3 to 8) (size 9 to 14) (size 15 to 20)
#    0.000    0.800    5.333    0.800    3.733    2.133 
#    4.800    0.000    0.000    0.000    0.000    0.000 
#    0.000    0.000    0.000    0.000    0.000    0.000 
#
# Total GULP energy -83595.779322 kJ/mol
# GULP energy per Si atom -5573.051955 kJ/mol
# Density = 2.654554 g / cm^3
# Si number density = 26.606092 Si / 1000 Ang^3
#
#
#
# Elastic Constant Matrix: (Units=GPa)
#
#
# Indices 1 2 3 4 5 6 
#
# 1 68.0906 11.5883 -14.4973 0.5217 -3.8623 23.6900
# 2 11.5883 192.1002 14.5604 -7.8095 -3.8955 35.2538
# 3 -14.4973 14.5604 107.4203 0.7535 -28.2743 15.0883
# 4 0.5217 -7.8095 0.7535 58.9950 17.1373 3.4333
# 5 -3.8623 -3.8955 -28.2743 17.1373 38.4787 -5.1137
# 6 23.6900 35.2538 15.0883 3.4333 -5.1137 44.8187
#
#
#
# Elastic Compliance Matrix: (Units=1/GPa)
#
#
# Indices 1 2 3 4 5 6 
#
# 1 0.020523 0.000723 0.005812 -0.000906 0.005117 -0.012720
# 2 0.000723 0.006205 -0.000197 0.001352 -0.000762 -0.005387
# 3 0.005812 -0.000197 0.014025 -0.003246 0.011507 -0.006077
# 4 -0.000906 0.001352 -0.003246 0.020784 -0.011920 -0.002444
# 5 0.005117 -0.000762 0.011507 -0.011920 0.040125 -0.000488
# 6 -0.012720 -0.005387 -0.006077 -0.002444 -0.000488 0.035450
#
#
# Mechanical properties :
#
#
# Convention : Reuss Voigt Hill
#
# Bulk Modulus (GPa) = 18.71659 43.43485 31.07572
# Shear Modulus (GPa) = 35.14992 52.18914 43.66953
#
# Velocity S-wave (km/s) = 3.63867 4.43374 4.05574
# Velocity P-wave (km/s) = 4.97023 6.52467 5.79976
#
# Compressibility (1/GPa) = 0.05342853
#
# Stress axis : x y z
#
# Youngs Moduli (GPa) = 48.72502 161.15756 71.29892
#
# Poissons Ratio (x) = -0.11647 -0.41436
# Poissons Ratio (y) = -0.03521 0.01405
# Poissons Ratio (z) = -0.28317 0.03175
#
# Static dielectric constant tensor:
#      x y z
#    x 2.514100 -0.152510 -0.014140 
#    y -0.152510 2.128490 -0.025560 
#    z -0.014140 -0.025560 2.395890 
# 
# From -- ./inp_files/339695.got.cif
#   From: 2010.05.17/outbox.cif.g08.bks.cpg/sg2_170_cif.got.tgz:339695.got - 2010.06.03 11:33:40.
