data_PCOD9065178
_publ_section_title
;
Structure prediction by ZEFSAII (Michael W. Deem and Ramdas Pophale) SiO2 
 PCOD9065178
Probable space group: P -1
;
_chemical_formula_sum "Si O2"
_cell_formula_units_Z 10
_cell_length_a 16.371356
_cell_length_b 4.996769
_cell_length_c 8.928289
_cell_angle_alpha 122.456549
_cell_angle_beta 37.059650
_cell_angle_gamma 112.433692
_cell_volume 369.835456
_symmetry_space_group_name_H-M "P -1"
_symmetry_group_IT_number 2
_symmetry_cell_setting 'triclinic'
loop_
_space_group_symop_operation_xyz
x,y,z
-x,-y,-z
loop_
_atom_site_type_symbol
_atom_site_label
_atom_site_fract_x
_atom_site_fract_y
_atom_site_fract_z
Si Si1 0.371032 0.817741 0.171489
Si Si2 0.371579 0.209060 0.820940
Si Si3 0.119943 0.656829 0.781654
Si Si4 0.753599 0.757602 0.283065
Si Si5 0.850262 0.891157 0.652479
O O1 0.588377 0.544024 0.039058
O O2 0.332326 0.934804 0.428488
O O3 0.238734 0.926365 0.294183
O O4 0.500000 0.000000 0.000000
O O5 0.500000 0.000000 0.500000
O O6 0.308476 0.376646 0.813985
O O7 0.243888 0.075791 0.052760
O O8 0.121043 0.039982 0.890705
O O9 0.131206 0.469831 0.550482
O O10 0.237316 0.501257 0.676840
O O11 0.000000 0.500000 0.000000
O O12 0.000000 0.000000 0.500000
#
# Coordination Sequence:
#
# PCOD9065178 Si02
#       5
#     2   2   2   2   2
#     4  11  27  50  76 109 158 211 262 325 395 478
#     4  12  28  46  80 112 153 208 271 323 394 475
#     4  11  24  47  73 109 157 206 250 322 399 471
#     4  11  26  46  74 109 154 199 265 321 390 463
#     4  11  26  47  76 113 156 202 261 330 394 470
#
# _framework density 27.039054
#
# number of rings (size 3 to 8) (size 9 to 14) (size 15 to 20)
#    0.000    0.800    2.000    3.000   11.200    5.600 
#    0.000    0.000    0.000    0.000    0.000    0.000 
#    0.000    0.000    0.000    0.000    0.000    0.000 
#
# Total GULP energy -55904.875517 kJ/mol
# GULP energy per Si atom -5590.487552 kJ/mol
# Density = 2.697751 g / cm^3
# Si number density = 27.039054 Si / 1000 Ang^3
#
#
#
# Elastic Constant Matrix: (Units=GPa)
#
#
# Indices 1 2 3 4 5 6 
#
# 1 113.3052 25.1168 35.6546 -8.6049 14.4812 -1.7458
# 2 25.1168 94.2335 28.3339 -12.6251 -2.7913 1.8502
# 3 35.6546 28.3339 170.1566 -9.9062 14.2503 4.9581
# 4 -8.6049 -12.6251 -9.9062 38.5569 8.9831 13.9232
# 5 14.4812 -2.7913 14.2503 8.9831 62.8775 2.4379
# 6 -1.7458 1.8502 4.9581 13.9232 2.4379 50.2188
#
#
#
# Elastic Compliance Matrix: (Units=1/GPa)
#
#
# Indices 1 2 3 4 5 6 
#
# 1 0.010197 -0.002119 -0.001497 0.001660 -0.002349 0.000234
# 2 -0.002119 0.012112 -0.001410 0.003414 0.000911 -0.001371
# 3 -0.001497 -0.001410 0.006669 0.001624 -0.001421 -0.001040
# 4 0.001660 0.003414 0.001624 0.032192 -0.004852 -0.008918
# 5 -0.002349 0.000911 -0.001421 -0.004852 0.017480 0.000522
# 6 0.000234 -0.001371 -0.001040 -0.008918 0.000522 0.022521
#
#
# Mechanical properties :
#
#
# Convention : Reuss Voigt Hill
#
# Bulk Modulus (GPa) = 52.84224 61.76733 57.30478
# Shear Modulus (GPa) = 42.54087 49.56998 46.05542
#
# Velocity S-wave (km/s) = 3.97080 4.28632 4.13157
# Velocity P-wave (km/s) = 6.37247 6.88404 6.63319
#
# Compressibility (1/GPa) = 0.01892425
#
# Stress axis : x y z
#
# Youngs Moduli (GPa) = 98.07221 82.56158 149.93937
#
# Poissons Ratio (x) = 0.17499 0.22448
# Poissons Ratio (y) = 0.20786 0.21147
# Poissons Ratio (z) = 0.14683 0.11644
#
# Static dielectric constant tensor:
#      x y z
#    x 2.219250 -0.038090 -0.129600 
#    y -0.038090 2.290330 0.010980 
#    z -0.129600 0.010980 2.041230 
# 
# From -- ./inp_files/87143.got.cif
#   From: 2010.05.17/outbox.cif.g08.bks.cpg/sg2_44_cif.got.tgz:87143.got - 2010.06.03 11:33:40.
