data_PCOD9065020
_publ_section_title
;
Structure prediction by ZEFSAII (Michael W. Deem and Ramdas Pophale) SiO2 
 PCOD9065020
Probable space group: P -1
;
_chemical_formula_sum "Si O2"
_cell_formula_units_Z 14
_cell_length_a 20.497648
_cell_length_b 14.805933
_cell_length_c 9.021760
_cell_angle_alpha 50.111867
_cell_angle_beta 147.993606
_cell_angle_gamma 151.123623
_cell_volume 643.623996
_symmetry_space_group_name_H-M "P -1"
_symmetry_group_IT_number 2
_symmetry_cell_setting 'triclinic'
loop_
_space_group_symop_operation_xyz
x,y,z
-x,-y,-z
loop_
_atom_site_type_symbol
_atom_site_label
_atom_site_fract_x
_atom_site_fract_y
_atom_site_fract_z
Si Si1 0.202983 0.598453 0.711417
Si Si2 0.570744 0.850990 0.395739
Si Si3 0.907218 0.114262 0.211688
Si Si4 0.332369 0.298704 0.793427
Si Si5 0.416763 0.405643 0.278343
Si Si6 0.011319 0.811401 0.360929
Si Si7 0.665866 0.105381 0.576096
O O1 0.272510 0.727763 0.566335
O O2 0.000000 0.500000 0.500000
O O3 0.123338 0.408296 0.711165
O O4 0.389697 0.740554 0.043316
O O5 0.528122 0.687073 0.549384
O O6 0.792262 0.022006 0.548925
O O7 0.583615 0.954392 0.445565
O O8 0.916065 0.141716 0.377064
O O9 0.119606 0.210526 0.473823
O O10 0.721165 0.873768 0.078122
O O11 0.862242 0.192830 0.943785
O O12 0.449591 0.393180 0.765105
O O13 0.500000 0.500000 0.000000
O O14 0.500000 0.500000 0.500000
O O15 0.165113 0.223784 0.956450
O O16 0.500000 0.000000 0.500000
#
# Coordination Sequence:
#
# PCOD9065020 Si02
#       7
#     2   2   2   2   2   2   2
#     4  12  28  51  75 103 147 198 249 299 362 434
#     4  12  27  49  75 106 152 187 248 310 363 438
#     4  11  27  45  73 106 148 189 243 300 367 432
#     4  11  24  47  68 106 152 189 232 302 366 432
#     4  12  25  43  78 110 144 189 244 297 376 443
#     4  12  26  48  75 109 149 193 238 308 372 438
#     4  12  29  48  76 106 145 201 248 302 364 433
#
# _framework density 21.751832
#
# number of rings (size 3 to 8) (size 9 to 14) (size 15 to 20)
#    0.000    0.286    4.286    3.429   10.000    1.714 
#    0.000    0.000    0.000    0.000    0.000    0.000 
#    0.000    0.000    0.000    0.000    0.000    0.000 
#
# Total GULP energy -78326.195674 kJ/mol
# GULP energy per Si atom -5594.728262 kJ/mol
# Density = 2.170232 g / cm^3
# Si number density = 21.751832 Si / 1000 Ang^3
#
#
#
# Elastic Constant Matrix: (Units=GPa)
#
#
# Indices 1 2 3 4 5 6 
#
# 1 82.1013 4.1099 26.2951 13.3684 -2.0707 7.9411
# 2 4.1099 72.1661 26.2376 5.2945 3.8131 11.5448
# 3 26.2951 26.2376 113.0883 -8.3391 -11.3934 13.0650
# 4 13.3684 5.2945 -8.3391 29.7471 -6.2534 1.6827
# 5 -2.0707 3.8131 -11.3934 -6.2534 41.5640 9.5380
# 6 7.9411 11.5448 13.0650 1.6827 9.5380 36.0180
#
#
#
# Elastic Compliance Matrix: (Units=1/GPa)
#
#
# Indices 1 2 3 4 5 6 
#
# 1 0.015041 0.001733 -0.004537 -0.008603 -0.001628 -0.001393
# 2 0.001733 0.016436 -0.004547 -0.005395 -0.002789 -0.003010
# 3 -0.004537 -0.004547 0.012564 0.007798 0.005721 -0.003979
# 4 -0.008603 -0.005395 0.007798 0.042837 0.009503 -0.003720
# 5 -0.001628 -0.002789 0.005721 0.009503 0.029303 -0.009026
# 6 -0.001393 -0.003010 -0.003979 -0.003720 -0.009026 0.033043
#
#
# Mechanical properties :
#
#
# Convention : Reuss Voigt Hill
#
# Bulk Modulus (GPa) = 34.08513 42.29342 38.18928
# Shear Modulus (GPa) = 28.78416 35.51336 32.14876
#
# Velocity S-wave (km/s) = 3.64166 4.04500 3.84862
# Velocity P-wave (km/s) = 5.77809 6.42665 6.11098
#
# Compressibility (1/GPa) = 0.02933830
#
# Stress axis : x y z
#
# Youngs Moduli (GPa) = 66.48562 60.84114 79.59454
#
# Poissons Ratio (x) = -0.10543 0.36110
# Poissons Ratio (y) = -0.11521 0.36194
# Poissons Ratio (z) = 0.30163 0.27666
#
# Static dielectric constant tensor:
#      x y z
#    x 1.798400 -0.013320 0.040180 
#    y -0.013320 1.790120 -0.019100 
#    z 0.040180 -0.019100 1.787220 
# 
# From -- ./inp_files/74174.got.cif
#   From: 2010.05.17/outbox.cif.g08.bks.cpg/sg2_38_cif.got.tgz:74174.got - 2010.06.03 11:33:40.
