data_PCOD9065825
_publ_section_title
;
Structure prediction by ZEFSAII (Michael W. Deem and Ramdas Pophale) SiO2 
 PCOD9065825
Probable space group: P -1
;
_chemical_formula_sum "Si O2"
_cell_formula_units_Z 14
_cell_length_a 18.093476
_cell_length_b 8.858580
_cell_length_c 12.115462
_cell_angle_alpha 69.907084
_cell_angle_beta 159.078013
_cell_angle_gamma 109.762917
_cell_volume 650.378447
_symmetry_space_group_name_H-M "P -1"
_symmetry_group_IT_number 2
_symmetry_cell_setting 'triclinic'
loop_
_space_group_symop_operation_xyz
x,y,z
-x,-y,-z
loop_
_atom_site_type_symbol
_atom_site_label
_atom_site_fract_x
_atom_site_fract_y
_atom_site_fract_z
Si Si1 0.413615 0.340932 0.357037
Si Si2 0.761655 0.270859 0.694248
Si Si3 0.079024 0.528499 0.726765
Si Si4 0.152007 0.896656 0.810540
Si Si5 0.871403 0.813781 0.643890
Si Si6 0.310118 0.477374 0.657887
Si Si7 0.639027 0.948558 0.482576
O O1 0.500000 0.500000 0.500000
O O2 0.601080 0.267702 0.571610
O O3 0.328581 0.210539 0.359128
O O4 0.249923 0.403466 0.026410
O O5 0.689931 0.401913 0.474912
O O6 0.746039 0.100222 0.654764
O O7 0.991489 0.296546 0.057942
O O8 0.154694 0.713970 0.811583
O O9 0.000000 0.500000 0.500000
O O10 0.893390 0.495755 0.561590
O O11 0.041383 0.892715 0.777265
O O12 0.389986 0.964356 0.125591
O O13 0.000000 0.000000 0.500000
O O14 0.714749 0.701562 0.381408
O O15 0.743118 0.926928 0.514218
O O16 0.500000 0.500000 0.000000
#
# Coordination Sequence:
#
# PCOD9065825 Si02
#       7
#     2   2   2   2   2   2   2
#     4  12  22  44  72 101 137 181 233 281 344 414
#     4  12  25  44  71 104 142 179 233 293 342 413
#     4  11  25  43  70 101 136 185 230 286 347 411
#     4  11  27  46  69 105 144 179 231 288 352 412
#     4  11  25  48  70 100 140 185 233 287 346 410
#     4  11  25  44  67 101 137 183 237 282 344 418
#     4  12  26  44  75 104 138 187 232 287 352 408
#
# _framework density 21.525929999999999
#
# number of rings (size 3 to 8) (size 9 to 14) (size 15 to 20)
#    0.000    0.571    2.857    4.714    8.000    1.714 
#    0.000    0.000    0.000    0.000    0.000    0.000 
#    0.000    0.000    0.000    0.000    0.000    0.000 
#
# Total GULP energy -78365.820958 kJ/mol
# GULP energy per Si atom -5597.558640 kJ/mol
# Density = 2.147694 g / cm^3
# Si number density = 21.525930 Si / 1000 Ang^3
#
#
#
# Elastic Constant Matrix: (Units=GPa)
#
#
# Indices 1 2 3 4 5 6 
#
# 1 135.1511 24.6481 11.8563 3.8003 1.2336 -24.9721
# 2 24.6481 31.8099 16.3041 -3.5350 11.7965 -14.3152
# 3 11.8563 16.3041 122.0622 -2.4098 -21.3317 -3.8533
# 4 3.8003 -3.5350 -2.4098 34.4171 1.9463 -10.9817
# 5 1.2336 11.7965 -21.3317 1.9463 28.5987 -7.4485
# 6 -24.9721 -14.3152 -3.8533 -10.9817 -7.4485 38.6470
#
#
#
# Elastic Compliance Matrix: (Units=1/GPa)
#
#
# Indices 1 2 3 4 5 6 
#
# 1 0.009469 -0.007969 0.001090 -0.000791 0.004780 0.003972
# 2 -0.007969 0.064603 -0.012877 0.013233 -0.032926 0.014911
# 3 0.001090 -0.012877 0.012275 -0.001561 0.014394 -0.000511
# 4 -0.000791 0.013233 -0.001561 0.034879 -0.005557 0.013075
# 5 0.004780 -0.032926 0.014394 -0.005557 0.060062 0.002324
# 6 0.003972 0.014911 -0.000511 0.013075 0.002324 0.038078
#
#
# Mechanical properties :
#
#
# Convention : Reuss Voigt Hill
#
# Bulk Modulus (GPa) = 21.35154 43.84889 32.60021
# Shear Modulus (GPa) = 18.21556 36.08019 27.14788
#
# Velocity S-wave (km/s) = 2.91213 4.09849 3.55515
# Velocity P-wave (km/s) = 4.60954 6.54304 5.65947
#
# Compressibility (1/GPa) = 0.04683503
#
# Stress axis : x y z
#
# Youngs Moduli (GPa) = 105.60348 15.47912 81.46445
#
# Poissons Ratio (x) = 0.12335 -0.08877
# Poissons Ratio (y) = 0.84152 1.04905
# Poissons Ratio (z) = -0.11508 0.19933
#
# Static dielectric constant tensor:
#      x y z
#    x 1.728640 0.012510 -0.033490 
#    y 0.012510 1.762120 -0.030020 
#    z -0.033490 -0.030020 1.921910 
# 
# From -- ./inp_files/153861.got.cif
#   From: 2010.05.17/outbox.cif.g08.bks.cpg/sg2_77_cif.got.tgz:153861.got - 2010.06.03 11:33:40.
