data_PCOD9065743
_publ_section_title
;
Structure prediction by ZEFSAII (Michael W. Deem and Ramdas Pophale) SiO2 
 PCOD9065743
Probable space group: P -1
;
_chemical_formula_sum "Si O2"
_cell_formula_units_Z 14
_cell_length_a 27.085246
_cell_length_b 13.936870
_cell_length_c 13.911610
_cell_angle_alpha 160.202211
_cell_angle_beta 18.814983
_cell_angle_gamma 159.080969
_cell_volume 526.265969
_symmetry_space_group_name_H-M "P -1"
_symmetry_group_IT_number 2
_symmetry_cell_setting 'triclinic'
loop_
_space_group_symop_operation_xyz
x,y,z
-x,-y,-z
loop_
_atom_site_type_symbol
_atom_site_label
_atom_site_fract_x
_atom_site_fract_y
_atom_site_fract_z
Si Si1 0.368573 0.865999 0.392177
Si Si2 0.485817 0.375404 0.799805
Si Si3 0.181120 0.536219 0.168904
Si Si4 0.012801 0.830751 0.468732
Si Si5 0.987857 0.710430 0.943151
Si Si6 0.840098 0.587473 0.383151
Si Si7 0.609607 0.797619 0.513984
O O1 0.369525 0.046999 0.659940
O O2 0.459710 0.096728 0.353403
O O3 0.172296 0.725385 0.591080
O O4 0.452093 0.625255 0.030839
O O5 0.667054 0.353890 0.441326
O O6 0.500000 0.500000 0.000000
O O7 0.000000 0.500000 0.500000
O O8 0.143206 0.387283 0.992775
O O9 0.306904 0.892283 0.283576
O O10 0.249719 0.316244 0.891981
O O11 0.078395 0.569511 0.123214
O O12 0.842059 0.670274 0.571202
O O13 0.123820 0.101821 0.449868
O O14 0.996815 0.984084 0.742265
O O15 0.000000 0.500000 0.000000
O O16 0.500000 0.500000 0.500000
#
# Coordination Sequence:
#
# PCOD9065743 Si02
#       7
#     2   2   2   2   2   2   2
#     4  12  27  46  75 105 156 194 254 312 377 459
#     4  12  28  46  75 108 150 200 247 304 391 452
#     4  12  26  48  81 110 149 201 259 313 378 456
#     4  11  25  41  72 103 146 189 242 314 366 435
#     4  12  24  44  74 109 143 193 261 304 369 447
#     4  11  25  47  72 104 153 188 248 313 374 445
#     4  12  28  51  77 115 160 201 251 327 394 448
#
# _framework density 26.602519000000001
#
# number of rings (size 3 to 8) (size 9 to 14) (size 15 to 20)
#    0.000    0.286    2.857    5.571    6.000    3.429 
#    0.000    0.000    0.000    0.000    0.000    0.000 
#    0.000    0.000    0.000    0.000    0.000    0.000 
#
# Total GULP energy -78384.217279 kJ/mol
# GULP energy per Si atom -5598.872663 kJ/mol
# Density = 2.654197 g / cm^3
# Si number density = 26.602519 Si / 1000 Ang^3
#
#
#
# Elastic Constant Matrix: (Units=GPa)
#
#
# Indices 1 2 3 4 5 6 
#
# 1 131.3589 48.3486 29.2407 11.4782 -7.4322 6.0345
# 2 48.3486 106.2267 34.8352 25.6647 -3.4284 22.8064
# 3 29.2407 34.8352 119.5648 22.0060 -9.5932 8.2970
# 4 11.4782 25.6647 22.0060 46.0043 0.9783 -0.1211
# 5 -7.4322 -3.4284 -9.5932 0.9783 47.4730 11.1566
# 6 6.0345 22.8064 8.2970 -0.1211 11.1566 50.0698
#
#
#
# Elastic Compliance Matrix: (Units=1/GPa)
#
#
# Indices 1 2 3 4 5 6 
#
# 1 0.009360 -0.004150 -0.001174 0.000528 0.000731 0.000795
# 2 -0.004150 0.014814 -0.001508 -0.006562 0.001756 -0.006405
# 3 -0.001174 -0.001508 0.010035 -0.003715 0.002121 -0.001316
# 4 0.000528 -0.006562 -0.003715 0.027111 -0.002689 0.004206
# 5 0.000731 0.001756 0.002121 -0.002689 0.023303 -0.006438
# 6 0.000795 -0.006405 -0.001316 0.004206 -0.006438 0.024456
#
#
# Mechanical properties :
#
#
# Convention : Reuss Voigt Hill
#
# Bulk Modulus (GPa) = 48.67095 64.66660 56.66877
# Shear Modulus (GPa) = 38.58233 45.02448 41.80341
#
# Velocity S-wave (km/s) = 3.81245 4.11845 3.96840
# Velocity P-wave (km/s) = 6.14125 6.85396 6.50737
#
# Compressibility (1/GPa) = 0.02054614
#
# Stress axis : x y z
#
# Youngs Moduli (GPa) = 106.83574 67.50193 99.64788
#
# Poissons Ratio (x) = 0.28013 0.11696
# Poissons Ratio (y) = 0.44337 0.15029
# Poissons Ratio (z) = 0.12539 0.10181
#
# Static dielectric constant tensor:
#      x y z
#    x 2.155370 -0.062070 0.122530 
#    y -0.062070 2.149620 -0.122000 
#    z 0.122530 -0.122000 2.135710 
# 
# From -- ./inp_files/544233.got.cif
#   From: 2010.05.17/outbox.cif.g08.bks.cpg/sg2_273_cif.got.tgz:544233.got - 2010.06.03 11:33:40.
