data_PCOD9065225
_publ_section_title
;
Structure prediction by ZEFSAII (Michael W. Deem and Ramdas Pophale) SiO2 
 PCOD9065225
Probable space group: P -1
;
_chemical_formula_sum "Si O2"
_cell_formula_units_Z 14
_cell_length_a 17.496947
_cell_length_b 9.616797
_cell_length_c 24.165249
_cell_angle_alpha 31.473829
_cell_angle_beta 161.951182
_cell_angle_gamma 139.105684
_cell_volume 618.580730
_symmetry_space_group_name_H-M "P -1"
_symmetry_group_IT_number 2
_symmetry_cell_setting 'triclinic'
loop_
_space_group_symop_operation_xyz
x,y,z
-x,-y,-z
loop_
_atom_site_type_symbol
_atom_site_label
_atom_site_fract_x
_atom_site_fract_y
_atom_site_fract_z
Si Si1 0.674885 0.828686 0.836287
Si Si2 0.589729 0.180205 0.546193
Si Si3 0.106644 0.757746 0.470612
Si Si4 0.957737 0.801516 0.229401
Si Si5 0.801392 0.326145 0.250790
Si Si6 0.418704 0.806346 0.244051
Si Si7 0.996226 0.292581 0.281856
O O1 0.416936 0.728364 0.697769
O O2 0.649426 0.005825 0.702969
O O3 0.702309 0.020976 0.842015
O O4 0.927197 0.545851 0.104809
O O5 0.401662 0.496618 0.325914
O O6 0.837936 0.209422 0.674856
O O7 0.500000 0.000000 0.500000
O O8 0.000000 0.500000 0.500000
O O9 0.026455 0.869453 0.314868
O O10 0.975831 0.012858 0.336074
O O11 0.950109 0.488222 0.334696
O O12 0.689680 0.013120 0.947062
O O13 0.797907 0.401414 0.158370
O O14 0.500000 0.500000 0.000000
O O15 0.000000 0.000000 0.500000
O O16 0.721286 0.763920 0.477901
#
# Coordination Sequence:
#
# PCOD9065225 Si02
#       7
#     2   2   2   2   2   2   2
#     4  11  25  48  71 106 145 196 248 312 387 457
#     4  12  26  46  73 108 148 191 252 317 386 463
#     4  11  27  47  70 105 152 195 247 313 389 453
#     4  12  26  46  75 110 146 197 253 316 385 454
#     4  12  26  47  80 112 153 203 261 320 380 466
#     4  11  24  47  75 104 147 191 253 315 384 458
#     4  11  25  48  72 106 146 195 253 308 385 462
#
# _framework density 22.632453999999999
#
# number of rings (size 3 to 8) (size 9 to 14) (size 15 to 20)
#    0.000    0.571    4.286    2.143    6.000    5.714 
#    0.000    0.000    0.000    0.000    0.000    0.000 
#    0.000    0.000    0.000    0.000    0.000    0.000 
#
# Total GULP energy -78116.764081 kJ/mol
# GULP energy per Si atom -5579.768863 kJ/mol
# Density = 2.258094 g / cm^3
# Si number density = 22.632454 Si / 1000 Ang^3
#
#
#
# Elastic Constant Matrix: (Units=GPa)
#
#
# Indices 1 2 3 4 5 6 
#
# 1 71.7880 17.5298 19.0136 6.6804 -13.2230 -18.8690
# 2 17.5298 129.8673 44.8965 -13.7437 -0.9317 -29.4782
# 3 19.0136 44.8965 122.1534 -10.2499 -21.9796 -9.4913
# 4 6.6804 -13.7437 -10.2499 34.3249 -0.0286 -2.7293
# 5 -13.2230 -0.9317 -21.9796 -0.0286 46.2539 8.6784
# 6 -18.8690 -29.4782 -9.4913 -2.7293 8.6784 44.4055
#
#
#
# Elastic Compliance Matrix: (Units=1/GPa)
#
#
# Indices 1 2 3 4 5 6 
#
# 1 0.016906 -0.000833 -0.001671 -0.003686 0.002995 0.005462
# 2 -0.000833 0.011072 -0.003596 0.004081 -0.003049 0.007074
# 3 -0.001671 -0.003596 0.010673 0.001946 0.004831 -0.001641
# 4 -0.003686 0.004081 0.001946 0.032359 -0.000719 0.003688
# 5 0.002995 -0.003049 0.004831 -0.000719 0.025604 -0.004767
# 6 0.005462 0.007074 -0.001641 0.003688 -0.004767 0.030344
#
#
# Mechanical properties :
#
#
# Convention : Reuss Voigt Hill
#
# Bulk Modulus (GPa) = 37.80707 54.07650 45.94179
# Shear Modulus (GPa) = 33.78934 41.15478 37.47206
#
# Velocity S-wave (km/s) = 3.86808 4.26889 4.07342
# Velocity P-wave (km/s) = 6.05726 6.94573 6.51665
#
# Compressibility (1/GPa) = 0.02645008
#
# Stress axis : x y z
#
# Youngs Moduli (GPa) = 59.14956 90.32189 93.69161
#
# Poissons Ratio (x) = 0.07525 0.15659
# Poissons Ratio (y) = 0.04928 0.33692
# Poissons Ratio (z) = 0.09886 0.32480
#
# Static dielectric constant tensor:
#      x y z
#    x 1.808880 0.066940 0.031140 
#    y 0.066940 1.902020 0.007560 
#    z 0.031140 0.007560 1.914610 
# 
# From -- ./inp_files/138377.got.cif
#   From: 2010.05.17/outbox.cif.g08.bks.cpg/sg2_70_cif.got.tgz:138377.got - 2010.06.03 11:33:40.
