data_PCOD9065618
_publ_section_title
;
Structure prediction by ZEFSAII (Michael W. Deem and Ramdas Pophale) SiO2 
 PCOD9065618
Probable space group: P -1
;
_chemical_formula_sum "Si O2"
_cell_formula_units_Z 11
_cell_length_a 11.617676
_cell_length_b 13.768006
_cell_length_c 5.101128
_cell_angle_alpha 104.991790
_cell_angle_beta 90.160790
_cell_angle_gamma 34.378132
_cell_volume 410.495418
_symmetry_space_group_name_H-M "P -1"
_symmetry_group_IT_number 2
_symmetry_cell_setting 'triclinic'
loop_
_space_group_symop_operation_xyz
x,y,z
-x,-y,-z
loop_
_atom_site_type_symbol
_atom_site_label
_atom_site_fract_x
_atom_site_fract_y
_atom_site_fract_z
Si Si1 0.761403 0.310632 0.816154
Si Si2 0.810429 0.102516 0.305798
Si Si3 0.377318 0.869245 0.159180
Si Si4 0.711204 0.842644 0.577936
Si Si5 0.871404 0.460890 0.993060
Si Si6 0.000000 0.500000 0.500000
O O1 0.786041 0.236426 0.485101
O O2 0.843978 0.362874 0.879249
O O3 0.500000 0.500000 0.000000
O O4 0.932436 0.120954 0.868338
O O5 0.730266 0.100684 0.562808
O O6 0.666190 0.168059 0.115951
O O7 0.274819 0.055660 0.246572
O O8 0.633884 0.683092 0.094365
O O9 0.725478 0.737586 0.692071
O O10 0.947528 0.634997 0.288630
O O11 0.500000 0.000000 0.500000
O O12 0.944046 0.442426 0.264701
#
# Coordination Sequence:
#
# PCOD9065618 Si02
#       6
#     2   2   2   2   2   1
#     4  11  24  49  77 115 159 207 261 327 398 481
#     4  11  27  49  76 116 159 208 261 323 408 473
#     4  12  27  50  81 114 161 208 265 334 398 481
#     4  12  28  49  76 111 156 210 267 335 396 473
#     4  12  27  49  76 117 152 212 268 327 402 477
#     4  12  28  50  80 106 160 208 276 326 406 462
#
# _framework density 26.796887999999999
#
# number of rings (size 3 to 8) (size 9 to 14) (size 15 to 20)
#    0.000    0.364    5.455    1.636    2.545    5.818 
#    3.273    0.000    0.000    0.000    0.000    0.000 
#    0.000    0.000    0.000    0.000    0.000    0.000 
#
# Total GULP energy -61506.111515 kJ/mol
# GULP energy per Si atom -5591.464683 kJ/mol
# Density = 2.673590 g / cm^3
# Si number density = 26.796888 Si / 1000 Ang^3
#
#
#
# Elastic Constant Matrix: (Units=GPa)
#
#
# Indices 1 2 3 4 5 6 
#
# 1 134.3678 30.8664 71.4919 13.0709 37.8610 0.3590
# 2 30.8664 180.8924 61.7946 14.0893 16.7447 -27.0318
# 3 71.4919 61.7946 185.6790 -17.1484 38.6846 -10.2007
# 4 13.0709 14.0893 -17.1484 59.5370 -4.5418 14.5240
# 5 37.8610 16.7447 38.6846 -4.5418 59.4990 15.0279
# 6 0.3590 -27.0318 -10.2007 14.5240 15.0279 55.6115
#
#
#
# Elastic Compliance Matrix: (Units=1/GPa)
#
#
# Indices 1 2 3 4 5 6 
#
# 1 0.011390 0.000581 -0.003629 -0.004729 -0.006020 0.002405
# 2 0.000581 0.007490 -0.002280 -0.003956 -0.002545 0.004939
# 3 -0.003629 -0.002280 0.008341 0.003538 -0.002233 0.000124
# 4 -0.004729 -0.003956 0.003538 0.022327 0.005703 -0.008615
# 5 -0.006020 -0.002545 -0.002233 0.005703 0.025783 -0.010064
# 6 0.002405 0.004939 0.000124 -0.008615 -0.010064 0.025360
#
#
# Mechanical properties :
#
#
# Convention : Reuss Voigt Hill
#
# Bulk Modulus (GPa) = 60.37251 92.13832 76.25541
# Shear Modulus (GPa) = 42.78357 57.38192 50.08274
#
# Velocity S-wave (km/s) = 4.00007 4.63251 4.32786
# Velocity P-wave (km/s) = 6.62666 7.94180 7.31385
#
# Compressibility (1/GPa) = 0.01656383
#
# Stress axis : x y z
#
# Youngs Moduli (GPa) = 87.79942 133.51634 119.89353
#
# Poissons Ratio (x) = -0.07763 0.43512
# Poissons Ratio (y) = -0.05105 0.27339
# Poissons Ratio (z) = 0.31865 0.30445
#
# Static dielectric constant tensor:
#      x y z
#    x 1.602320 -0.451760 0.283510 
#    y -0.451760 1.739420 0.329760 
#    z 0.283510 0.329760 1.826400 
# 
# From -- ./inp_files/21303.got.cif
#   From: 2010.05.17/outbox.cif.g08.bks.cpg/sg2_11_cif.got.tgz:21303.got - 2010.06.03 11:33:40.
