data_PCOD9065096
_publ_section_title
;
Structure prediction by ZEFSAII (Michael W. Deem and Ramdas Pophale) SiO2 
 PCOD9065096
Probable space group: P -1
;
_chemical_formula_sum "Si O2"
_cell_formula_units_Z 16
_cell_length_a 20.531156
_cell_length_b 18.304375
_cell_length_c 9.743405
_cell_angle_alpha 36.402909
_cell_angle_beta 37.616345
_cell_angle_gamma 19.659516
_cell_volume 720.294822
_symmetry_space_group_name_H-M "P -1"
_symmetry_group_IT_number 2
_symmetry_cell_setting 'triclinic'
loop_
_space_group_symop_operation_xyz
x,y,z
-x,-y,-z
loop_
_atom_site_type_symbol
_atom_site_label
_atom_site_fract_x
_atom_site_fract_y
_atom_site_fract_z
Si Si1 0.592340 0.379451 0.807914
Si Si2 0.956924 0.750575 0.521470
Si Si3 0.162689 0.619903 0.645263
Si Si4 0.309633 0.208585 0.090357
Si Si5 0.776739 0.168926 0.120993
Si Si6 0.799339 0.969134 0.916718
Si Si7 0.460958 0.116385 0.253905
Si Si8 0.058985 0.587004 0.290518
O O1 0.681009 0.422787 0.542290
O O2 0.363315 0.617633 0.867128
O O3 0.691563 0.255135 0.978807
O O4 0.661765 0.210507 0.839143
O O5 0.862817 0.714597 0.782458
O O6 0.113910 0.644479 0.529668
O O7 0.038979 0.646062 0.391487
O O8 0.790256 0.016104 0.383093
O O9 0.241647 0.415172 0.882983
O O10 0.959485 0.849314 0.716031
O O11 0.374566 0.116910 0.276175
O O12 0.500000 0.000000 0.000000
O O13 0.000000 0.000000 0.000000
O O14 0.921799 0.798414 0.100035
O O15 0.656347 0.998187 0.061482
O O16 0.285548 0.379452 0.184155
O O17 0.500000 0.000000 0.500000
O O18 0.000000 0.500000 0.500000
#
# Coordination Sequence:
#
# PCOD9065096 Si02
#       8
#     2   2   2   2   2   2   2   2
#     4  11  26  45  74 103 141 188 237 291 348 420
#     4  12  24  44  76  97 141 187 229 292 354 409
#     4  12  26  48  69 104 148 186 235 287 359 425
#     4  12  26  44  67 105 143 180 231 291 354 426
#     4  11  24  47  71 108 139 179 246 293 344 413
#     4  12  25  46  70 104 144 188 234 291 355 418
#     4  12  26  43  72 104 140 182 241 285 354 419
#     4  12  23  45  68 104 143 179 235 295 339 419
#
# _framework density 22.213127
#
# number of rings (size 3 to 8) (size 9 to 14) (size 15 to 20)
#    0.000    0.250    6.250    2.250    3.500    0.000 
#    0.000    1.250    0.000    0.000    0.000    0.000 
#    0.000    0.000    0.000    0.000    0.000    0.000 
#
# Total GULP energy -89579.083911 kJ/mol
# GULP energy per Si atom -5598.692744 kJ/mol
# Density = 2.216257 g / cm^3
# Si number density = 22.213127 Si / 1000 Ang^3
#
#
#
# Elastic Constant Matrix: (Units=GPa)
#
#
# Indices 1 2 3 4 5 6 
#
# 1 69.3855 28.8724 10.5710 3.9085 4.8192 12.9036
# 2 28.8724 134.0999 15.4866 17.2178 0.1501 8.5245
# 3 10.5710 15.4866 66.0699 -8.9098 -10.5484 -2.1509
# 4 3.9085 17.2178 -8.9098 43.5658 2.3858 -3.0889
# 5 4.8192 0.1501 -10.5484 2.3858 37.1115 8.9516
# 6 12.9036 8.5245 -2.1509 -3.0889 8.9516 35.5287
#
#
#
# Elastic Compliance Matrix: (Units=1/GPa)
#
#
# Indices 1 2 3 4 5 6 
#
# 1 0.017213 -0.002890 -0.002676 -0.001247 -0.001595 -0.005427
# 2 -0.002890 0.008925 -0.002142 -0.003843 0.000376 -0.001650
# 3 -0.002676 -0.002142 0.017469 0.004533 0.004601 0.001778
# 4 -0.001247 -0.003843 0.004533 0.025876 -0.001212 0.004204
# 5 -0.001595 0.000376 0.004601 -0.001212 0.030214 -0.006950
# 6 -0.005427 -0.001650 0.001778 0.004204 -0.006950 0.032737
#
#
# Mechanical properties :
#
#
# Convention : Reuss Voigt Hill
#
# Bulk Modulus (GPa) = 35.47173 42.15726 38.81449
# Shear Modulus (GPa) = 31.79725 37.54957 34.67341
#
# Velocity S-wave (km/s) = 3.78757 4.11594 3.95516
# Velocity P-wave (km/s) = 5.92715 6.45040 6.19430
#
# Compressibility (1/GPa) = 0.02819146
#
# Stress axis : x y z
#
# Youngs Moduli (GPa) = 58.09653 112.04911 57.24284
#
# Poissons Ratio (x) = 0.32384 0.15318
# Poissons Ratio (y) = 0.16791 0.12259
# Poissons Ratio (z) = 0.15547 0.23996
#
# Static dielectric constant tensor:
#      x y z
#    x 1.805950 0.000150 -0.011440 
#    y 0.000150 1.820360 0.004920 
#    z -0.011440 0.004920 1.830620 
# 
# From -- ./inp_files/348821.got.cif
#   From: 2010.05.17/outbox.cif.g08.bks.cpg/sg2_175_cif.got.tgz:348821.got - 2010.06.03 11:33:40.
