data_PCOD9065935
_publ_section_title
;
Structure prediction by ZEFSAII (Michael W. Deem and Ramdas Pophale) SiO2 
 PCOD9065935
Probable space group: P -1
;
_chemical_formula_sum "Si O2"
_cell_formula_units_Z 13
_cell_length_a 13.772561
_cell_length_b 10.487345
_cell_length_c 13.194395
_cell_angle_alpha 34.709871
_cell_angle_beta 32.753558
_cell_angle_gamma 32.147253
_cell_volume 507.014207
_symmetry_space_group_name_H-M "P -1"
_symmetry_group_IT_number 2
_symmetry_cell_setting 'triclinic'
loop_
_space_group_symop_operation_xyz
x,y,z
-x,-y,-z
loop_
_atom_site_type_symbol
_atom_site_label
_atom_site_fract_x
_atom_site_fract_y
_atom_site_fract_z
Si Si1 0.848012 0.425752 0.623437
Si Si2 0.116644 0.011552 0.990089
Si Si3 0.404129 0.251110 0.539171
Si Si4 0.500000 0.000000 0.000000
Si Si5 0.150855 0.568301 0.882593
Si Si6 0.238879 0.979161 0.472184
Si Si7 0.757378 0.170486 0.628928
O O1 0.648124 0.653784 0.593555
O O2 0.000000 0.500000 0.500000
O O3 0.013067 0.228037 0.523207
O O4 0.790891 0.262346 0.855675
O O5 0.272435 0.112573 0.763662
O O6 0.955746 0.226757 0.067839
O O7 0.000000 0.000000 0.000000
O O8 0.624372 0.062918 0.521425
O O9 0.323621 0.527350 0.486377
O O10 0.660766 0.685720 0.071890
O O11 0.318210 0.934934 0.143580
O O12 0.227711 0.717894 0.644075
O O13 0.000000 0.500000 0.000000
O O14 0.341803 0.957159 0.284870
O O15 0.000000 0.000000 0.500000
#
# Coordination Sequence:
#
# PCOD9065935 Si02
#       7
#     2   2   2   1   2   2   2
#     4  11  25  47  71  97 141 192 245 299 373 439
#     4  11  25  47  75 105 146 198 249 306 379 452
#     4  12  24  45  71 102 143 189 238 309 366 437
#     4  12  26  40  70 110 146 190 254 298 380 446
#     4  11  25  44  71 104 144 188 244 308 370 447
#     4  11  25  44  68 105 142 186 241 305 369 445
#     4  12  24  44  71 109 150 192 243 309 379 447
#
# _framework density 25.640307
#
# number of rings (size 3 to 8) (size 9 to 14) (size 15 to 20)
#    0.000    0.615    4.615    3.231    4.308    0.615 
#    0.000    0.769    0.000    0.000    0.000    0.000 
#    0.000    0.000    0.000    0.000    0.000    0.000 
#
# Total GULP energy -72542.312859 kJ/mol
# GULP energy per Si atom -5580.177912 kJ/mol
# Density = 2.558195 g / cm^3
# Si number density = 25.640307 Si / 1000 Ang^3
#
#
#
# Elastic Constant Matrix: (Units=GPa)
#
#
# Indices 1 2 3 4 5 6 
#
# 1 145.6945 18.8620 21.6936 -2.7644 0.0129 -0.8901
# 2 18.8620 75.2669 18.2204 -9.2080 4.1166 -16.6663
# 3 21.6936 18.2204 122.7687 -22.9881 -23.7550 -0.1913
# 4 -2.7644 -9.2080 -22.9881 34.7914 -9.2316 -0.7917
# 5 0.0129 4.1166 -23.7550 -9.2316 53.0596 -8.4435
# 6 -0.8901 -16.6663 -0.1913 -0.7917 -8.4435 57.3144
#
#
#
# Elastic Compliance Matrix: (Units=1/GPa)
#
#
# Indices 1 2 3 4 5 6 
#
# 1 0.007262 -0.001681 -0.001356 -0.000968 -0.000727 -0.000501
# 2 -0.001681 0.015451 -0.001606 0.002800 -0.000731 0.004393
# 3 -0.001356 -0.001606 0.011689 0.009077 0.007051 0.000715
# 4 -0.000968 0.002800 0.009077 0.038392 0.011001 0.002981
# 5 -0.000727 -0.000731 0.007051 0.011001 0.024542 0.003567
# 6 -0.000501 0.004393 0.000715 0.002981 0.003567 0.019286
#
#
# Mechanical properties :
#
#
# Convention : Reuss Voigt Hill
#
# Bulk Modulus (GPa) = 39.81853 51.25359 45.53606
# Shear Modulus (GPa) = 37.23522 48.03002 42.63262
#
# Velocity S-wave (km/s) = 3.81493 4.33277 4.08207
# Velocity P-wave (km/s) = 5.91340 6.71293 6.32581
#
# Compressibility (1/GPa) = 0.02511393
#
# Stress axis : x y z
#
# Youngs Moduli (GPa) = 137.70451 64.71883 85.55257
#
# Poissons Ratio (x) = 0.10880 0.11605
# Poissons Ratio (y) = 0.23150 0.13744
# Poissons Ratio (z) = 0.18679 0.10397
#
# Static dielectric constant tensor:
#      x y z
#    x 2.244110 -0.129380 -0.328690 
#    y -0.129380 1.874530 -0.256630 
#    z -0.328690 -0.256630 1.190650 
# 
# From -- ./inp_files/304983.got.cif
#   From: 2010.05.17/outbox.cif.g08.bks.cpg/sg2_153_cif.got.tgz:304983.got - 2010.06.03 11:33:40.
