data_PCOD9065829
_publ_section_title
;
Structure prediction by ZEFSAII (Michael W. Deem and Ramdas Pophale) SiO2 
 PCOD9065829
Probable space group: P -1
;
_chemical_formula_sum "Si O2"
_cell_formula_units_Z 16
_cell_length_a 18.762119
_cell_length_b 16.150313
_cell_length_c 5.456958
_cell_angle_alpha 58.485042
_cell_angle_beta 74.749872
_cell_angle_gamma 31.256144
_cell_volume 665.269101
_symmetry_space_group_name_H-M "P -1"
_symmetry_group_IT_number 2
_symmetry_cell_setting 'triclinic'
loop_
_space_group_symop_operation_xyz
x,y,z
-x,-y,-z
loop_
_atom_site_type_symbol
_atom_site_label
_atom_site_fract_x
_atom_site_fract_y
_atom_site_fract_z
Si Si1 0.084780 0.468603 0.672117
Si Si2 0.392690 0.214880 0.796464
Si Si3 0.984402 0.134279 0.812330
Si Si4 0.501858 0.765990 0.941274
Si Si5 0.863686 0.968709 0.667144
Si Si6 0.669770 0.514158 0.771931
Si Si7 0.455186 0.634405 0.519955
Si Si8 0.813998 0.832090 0.666227
O O1 0.225002 0.374949 0.620034
O O2 0.000000 0.500000 0.500000
O O3 0.954433 0.680767 0.587883
O O4 0.163791 0.301750 0.044572
O O5 0.420607 0.281489 0.516927
O O6 0.429672 0.214732 0.032369
O O7 0.500000 0.000000 0.000000
O O8 0.817198 0.350355 0.727807
O O9 0.034824 0.112530 0.530065
O O10 0.080581 0.067412 0.056298
O O11 0.000000 0.000000 0.000000
O O12 0.650785 0.542545 0.035088
O O13 0.441875 0.750969 0.201942
O O14 0.346647 0.967899 0.624600
O O15 0.840824 0.880281 0.779001
O O16 0.698237 0.205589 0.441695
O O17 0.586147 0.512243 0.776859
O O18 0.500000 0.500000 0.500000
#
# Coordination Sequence:
#
# PCOD9065829 Si02
#       8
#     2   2   2   2   2   2   2   2
#     4  11  26  42  71 102 150 190 257 305 381 457
#     4  11  25  43  70 103 147 197 247 316 384 455
#     4  12  29  49  77 110 156 201 255 321 391 469
#     4  11  25  46  73 105 153 193 258 316 383 465
#     4  12  27  48  78 110 152 201 254 318 387 457
#     4  11  26  44  72 107 147 198 250 311 387 454
#     4  11  26  46  76 107 146 196 256 318 380 456
#     4  11  25  44  68 108 139 200 245 316 374 452
#
# _framework density 24.050419999999999
#
# number of rings (size 3 to 8) (size 9 to 14) (size 15 to 20)
#    0.000    0.750    1.250    4.125   14.000    3.500 
#    0.000    0.000    0.000    0.000    0.000    0.000 
#    0.000    0.000    0.000    0.000    0.000    0.000 
#
# Total GULP energy -89351.580018 kJ/mol
# GULP energy per Si atom -5584.473751 kJ/mol
# Density = 2.399568 g / cm^3
# Si number density = 24.050420 Si / 1000 Ang^3
#
#
#
# Elastic Constant Matrix: (Units=GPa)
#
#
# Indices 1 2 3 4 5 6 
#
# 1 163.3219 55.4814 7.6369 -5.2540 13.2282 12.0118
# 2 55.4814 184.8024 16.2262 -0.1727 3.0627 4.2246
# 3 7.6369 16.2262 61.4646 -7.6516 4.0536 2.2028
# 4 -5.2540 -0.1727 -7.6516 25.1490 2.7340 -1.9344
# 5 13.2282 3.0627 4.0536 2.7340 56.9364 14.3714
# 6 12.0118 4.2246 2.2028 -1.9344 14.3714 62.2246
#
#
#
# Elastic Compliance Matrix: (Units=1/GPa)
#
#
# Indices 1 2 3 4 5 6 
#
# 1 0.007052 -0.002072 -0.000016 0.001539 -0.001385 -0.000852
# 2 -0.002072 0.006160 -0.001498 -0.000886 0.000316 -0.000066
# 3 -0.000016 -0.001498 0.017439 0.005445 -0.001415 -0.000017
# 4 0.001539 -0.000886 0.005445 0.042199 -0.003129 0.001605
# 5 -0.001385 0.000316 -0.001415 -0.003129 0.019188 -0.004233
# 6 -0.000852 -0.000066 -0.000017 0.001605 -0.004233 0.017268
#
#
# Mechanical properties :
#
#
# Convention : Reuss Voigt Hill
#
# Bulk Modulus (GPa) = 42.58908 63.14199 52.86554
# Shear Modulus (GPa) = 40.22480 50.87829 45.55155
#
# Velocity S-wave (km/s) = 4.09408 4.60443 4.35673
# Velocity P-wave (km/s) = 6.33209 7.38774 6.88019
#
# Compressibility (1/GPa) = 0.02348020
#
# Stress axis : x y z
#
# Youngs Moduli (GPa) = 141.80826 162.33457 57.34436
#
# Poissons Ratio (x) = 0.33633 0.00090
# Poissons Ratio (y) = 0.29380 0.08587
# Poissons Ratio (z) = 0.00224 0.24310
#
# Static dielectric constant tensor:
#      x y z
#    x 1.861630 -0.006410 0.061720 
#    y -0.006410 2.022530 0.109440 
#    z 0.061720 0.109440 2.101540 
# 
# From -- ./inp_files/110719.got.cif
#   From: 2010.05.17/outbox.cif.g08.bks.cpg/sg2_56_cif.got.tgz:110719.got - 2010.06.03 11:33:40.
