data_PCOD9065368
_publ_section_title
;
Structure prediction by ZEFSAII (Michael W. Deem and Ramdas Pophale) SiO2 
 PCOD9065368
Probable space group: P -1
;
_chemical_formula_sum "Si O2"
_cell_formula_units_Z 13
_cell_length_a 11.525104
_cell_length_b 9.701454
_cell_length_c 6.747846
_cell_angle_alpha 126.339940
_cell_angle_beta 86.406916
_cell_angle_gamma 112.751546
_cell_volume 546.196079
_symmetry_space_group_name_H-M "P -1"
_symmetry_group_IT_number 2
_symmetry_cell_setting 'triclinic'
loop_
_space_group_symop_operation_xyz
x,y,z
-x,-y,-z
loop_
_atom_site_type_symbol
_atom_site_label
_atom_site_fract_x
_atom_site_fract_y
_atom_site_fract_z
Si Si1 0.192339 0.185395 0.161927
Si Si2 0.439334 0.317471 0.491816
Si Si3 0.607027 0.111001 0.248914
Si Si4 0.934677 0.091314 0.731876
Si Si5 0.000000 0.500000 0.000000
Si Si6 0.137285 0.535240 0.611260
Si Si7 0.293630 0.123041 0.695771
O O1 0.321248 0.189219 0.253625
O O2 0.177931 0.373511 0.388444
O O3 0.087237 0.008544 0.140508
O O4 0.213032 0.166896 0.912707
O O5 0.500000 0.500000 0.500000
O O6 0.545802 0.243019 0.461141
O O7 0.371959 0.304239 0.701051
O O8 0.748513 0.257877 0.278419
O O9 0.621799 0.965021 0.275942
O O10 0.500000 0.000000 0.000000
O O11 0.801626 0.041266 0.581653
O O12 0.000000 0.000000 0.500000
O O13 0.004380 0.313303 0.935838
O O14 0.892639 0.490418 0.175080
O O15 0.000000 0.500000 0.500000
#
# Coordination Sequence:
#
# PCOD9065368 Si02
#       7
#     2   2   2   2   1   2   2
#     4  11  24  48  71 111 152 200 263 331 386 474
#     4  11  24  48  72 109 148 197 259 320 390 473
#     4  12  25  50  76 112 158 201 265 326 391 477
#     4  11  25  46  74 108 155 204 266 320 393 469
#     4  12  26  48  72 106 152 206 250 328 390 456
#     4  12  28  47  76 112 154 206 268 320 397 472
#     4  11  26  46  75 110 151 204 252 330 399 462
#
# _framework density 23.800975999999999
#
# number of rings (size 3 to 8) (size 9 to 14) (size 15 to 20)
#    0.000    0.615    4.615    2.308    4.308    1.231 
#    2.769    0.000    0.000    0.000    0.000    0.000 
#    0.000    0.000    0.000    0.000    0.000    0.000 
#
# Total GULP energy -72412.380207 kJ/mol
# GULP energy per Si atom -5570.183093 kJ/mol
# Density = 2.374680 g / cm^3
# Si number density = 23.800976 Si / 1000 Ang^3
#
#
#
# Elastic Constant Matrix: (Units=GPa)
#
#
# Indices 1 2 3 4 5 6 
#
# 1 120.3911 43.9374 39.8978 -13.1171 4.6403 -8.2018
# 2 43.9374 203.9781 69.8333 -29.2642 -13.2229 16.1220
# 3 39.8978 69.8333 89.7413 -35.5816 -18.3818 2.0609
# 4 -13.1171 -29.2642 -35.5816 40.2302 -0.2866 -16.6757
# 5 4.6403 -13.2229 -18.3818 -0.2866 54.1974 -5.8179
# 6 -8.2018 16.1220 2.0609 -16.6757 -5.8179 47.7643
#
#
#
# Elastic Compliance Matrix: (Units=1/GPa)
#
#
# Indices 1 2 3 4 5 6 
#
# 1 0.010368 -0.001052 -0.004677 -0.000817 -0.002548 0.001742
# 2 -0.001052 0.007035 -0.005528 -0.001282 -0.000377 -0.002810
# 3 -0.004677 -0.005528 0.028830 0.023913 0.009963 0.009381
# 4 -0.000817 -0.001282 0.023913 0.052716 0.010176 0.018905
# 5 -0.002548 -0.000377 0.009963 0.010176 0.022608 0.005566
# 6 0.001742 -0.002810 0.009381 0.018905 0.005566 0.029057
#
#
# Mechanical properties :
#
#
# Convention : Reuss Voigt Hill
#
# Bulk Modulus (GPa) = 42.15802 80.16084 61.15943
# Shear Modulus (GPa) = 27.61903 45.80117 36.71010
#
# Velocity S-wave (km/s) = 3.41018 4.39149 3.93157
# Velocity P-wave (km/s) = 5.76689 7.71144 6.80894
#
# Compressibility (1/GPa) = 0.02372028
#
# Stress axis : x y z
#
# Youngs Moduli (GPa) = 96.45142 142.13818 34.68569
#
# Poissons Ratio (x) = 0.14957 0.16221
# Poissons Ratio (y) = 0.10150 0.19174
# Poissons Ratio (z) = 0.45106 0.78571
#
# Static dielectric constant tensor:
#      x y z
#    x 2.014960 0.073480 0.009370 
#    y 0.073480 1.921830 0.023780 
#    z 0.009370 0.023780 2.004280 
# 
# From -- ./inp_files/61293.got.cif
#   From: 2010.05.17/outbox.cif.g08.bks.cpg/sg2_31_cif.got.tgz:61293.got - 2010.06.03 11:33:40.
