data_PCOD9065102
_publ_section_title
;
Structure prediction by ZEFSAII (Michael W. Deem and Ramdas Pophale) SiO2 
 PCOD9065102
Probable space group: P -1
;
_chemical_formula_sum "Si O2"
_cell_formula_units_Z 16
_cell_length_a 12.160702
_cell_length_b 9.015319
_cell_length_c 13.427680
_cell_angle_alpha 117.364969
_cell_angle_beta 32.186594
_cell_angle_gamma 114.625637
_cell_volume 695.219035
_symmetry_space_group_name_H-M "P -1"
_symmetry_group_IT_number 2
_symmetry_cell_setting 'triclinic'
loop_
_space_group_symop_operation_xyz
x,y,z
-x,-y,-z
loop_
_atom_site_type_symbol
_atom_site_label
_atom_site_fract_x
_atom_site_fract_y
_atom_site_fract_z
Si Si1 0.404210 0.799852 0.360967
Si Si2 0.782981 0.392660 0.130285
Si Si3 0.960270 0.338297 0.773920
Si Si4 0.396757 0.668411 0.107917
Si Si5 0.345534 0.149852 0.193617
Si Si6 0.363918 0.464456 0.421326
Si Si7 0.805114 0.028366 0.087661
Si Si8 0.001816 0.983744 0.713363
O O1 0.387747 0.771549 0.246834
O O2 0.389579 0.620005 0.372285
O O3 0.202352 0.897189 0.569990
O O4 0.611955 0.919803 0.249896
O O5 0.779572 0.225818 0.148068
O O6 0.785767 0.361507 0.998546
O O7 0.570566 0.479619 0.333198
O O8 0.000000 0.500000 0.000000
O O9 0.151265 0.470631 0.648483
O O10 0.826148 0.331064 0.773857
O O11 0.055056 0.173493 0.696484
O O12 0.500000 0.500000 0.000000
O O13 0.568988 0.730704 0.919018
O O14 0.347344 0.272811 0.326776
O O15 0.115645 0.089409 0.317384
O O16 0.500000 0.000000 0.000000
O O17 0.849650 0.972572 0.922088
O O18 0.000000 0.000000 0.000000
#
# Coordination Sequence:
#
# PCOD9065102 Si02
#       8
#     2   2   2   2   2   2   2   2
#     4  12  26  41  66 100 133 173 215 269 325 385
#     4  11  24  47  71  94 127 171 219 271 328 384
#     4  11  25  43  66  97 132 174 217 265 324 392
#     4  12  23  40  67  96 136 173 215 266 323 385
#     4  12  22  41  68  96 131 176 215 263 326 388
#     4  12  26  42  66  99 134 171 219 265 325 389
#     4  11  25  46  71  95 128 169 218 274 327 385
#     4  11  25  42  67  97 131 173 218 264 326 390
#
# _framework density 23.014327000000002
#
# number of rings (size 3 to 8) (size 9 to 14) (size 15 to 20)
#    0.000    0.500    5.000    3.000    3.500    5.000 
#    0.000    0.000    0.000    0.000    0.000    0.000 
#    0.000    0.000    0.000    0.000    0.000    0.000 
#
# Total GULP energy -89175.536210 kJ/mol
# GULP energy per Si atom -5573.471013 kJ/mol
# Density = 2.296195 g / cm^3
# Si number density = 23.014327 Si / 1000 Ang^3
#
#
#
# Elastic Constant Matrix: (Units=GPa)
#
#
# Indices 1 2 3 4 5 6 
#
# 1 82.7440 20.8470 14.5984 -0.6354 -26.6117 -7.5404
# 2 20.8470 79.2838 31.3285 -12.1942 -8.8869 -6.9339
# 3 14.5984 31.3285 83.6602 -15.1477 -7.0092 -2.5867
# 4 -0.6354 -12.1942 -15.1477 42.3885 -1.2098 -1.8238
# 5 -26.6117 -8.8869 -7.0092 -1.2098 40.7260 -5.7736
# 6 -7.5404 -6.9339 -2.5867 -1.8238 -5.7736 29.8749
#
#
#
# Elastic Compliance Matrix: (Units=1/GPa)
#
#
# Indices 1 2 3 4 5 6 
#
# 1 0.016996 -0.002333 -0.001007 -0.000205 0.011242 0.005821
# 2 -0.002333 0.016074 -0.004816 0.003056 0.001704 0.003241
# 3 -0.001007 -0.004816 0.014733 0.003907 0.000990 0.000334
# 4 -0.000205 0.003056 0.003907 0.026064 0.002412 0.003053
# 5 0.011242 0.001704 0.000990 0.002412 0.033935 0.010024
# 6 0.005821 0.003241 0.000334 0.003053 0.010024 0.037847
#
#
# Mechanical properties :
#
#
# Convention : Reuss Voigt Hill
#
# Bulk Modulus (GPa) = 31.75601 42.13731 36.94666
# Shear Modulus (GPa) = 28.99267 34.52549 31.75908
#
# Velocity S-wave (km/s) = 3.55317 3.87741 3.71882
# Velocity P-wave (km/s) = 5.53730 6.19634 5.87607
#
# Compressibility (1/GPa) = 0.03149010
#
# Stress axis : x y z
#
# Youngs Moduli (GPa) = 58.83900 62.21287 67.87529
#
# Poissons Ratio (x) = 0.14515 0.06837
# Poissons Ratio (y) = 0.13728 0.32687
# Poissons Ratio (z) = 0.05926 0.29960
#
# Static dielectric constant tensor:
#      x y z
#    x 1.722930 -0.070180 0.249380 
#    y -0.070180 1.686380 0.275590 
#    z 0.249380 0.275590 1.678170 
# 
# From -- ./inp_files/428487.got.cif
#   From: 2010.05.17/outbox.cif.g08.bks.cpg/sg2_215_cif.got.tgz:428487.got - 2010.06.03 11:33:40.
