data_PCOD9065153
_publ_section_title
;
Structure prediction by ZEFSAII (Michael W. Deem and Ramdas Pophale) SiO2 
 PCOD9065153
Probable space group: P -1
;
_chemical_formula_sum "Si O2"
_cell_formula_units_Z 16
_cell_length_a 16.956752
_cell_length_b 8.774406
_cell_length_c 11.791224
_cell_angle_alpha 115.149861
_cell_angle_beta 51.775180
_cell_angle_gamma 147.445434
_cell_volume 722.017342
_symmetry_space_group_name_H-M "P -1"
_symmetry_group_IT_number 2
_symmetry_cell_setting 'triclinic'
loop_
_space_group_symop_operation_xyz
x,y,z
-x,-y,-z
loop_
_atom_site_type_symbol
_atom_site_label
_atom_site_fract_x
_atom_site_fract_y
_atom_site_fract_z
Si Si1 0.075293 0.119317 0.844170
Si Si2 0.861538 0.571117 0.722950
Si Si3 0.587294 0.967153 0.344530
Si Si4 0.032941 0.403304 0.848901
Si Si5 0.526501 0.334739 0.896636
Si Si6 0.600037 0.478762 0.448762
Si Si7 0.882017 0.976301 0.533103
Si Si8 0.242427 0.892528 0.188619
O O1 0.995294 0.170922 0.864901
O O2 0.283782 0.427240 0.733920
O O3 0.001380 0.847336 0.769224
O O4 0.000000 0.000000 0.000000
O O5 0.714921 0.511685 0.809199
O O6 0.784101 0.297205 0.760730
O O7 0.976103 0.705909 0.550451
O O8 0.521847 0.793163 0.229151
O O9 0.559052 0.802045 0.419715
O O10 0.500000 0.000000 0.500000
O O11 0.769472 0.299551 0.262506
O O12 0.922378 0.297974 0.804646
O O13 0.000000 0.500000 0.000000
O O14 0.500000 0.500000 0.000000
O O15 0.398327 0.074123 0.020247
O O16 0.500000 0.500000 0.500000
O O17 0.759540 0.713631 0.469797
O O18 0.747711 0.912786 0.697612
O O19 0.000000 0.000000 0.500000
#
# Coordination Sequence:
#
# PCOD9065153 Si02
#       8
#     2   2   2   2   2   2   2   2
#     4  11  25  45  69 101 142 188 236 299 364 436
#     4  11  26  43  70 102 140 186 242 304 361 437
#     4  12  27  46  73 104 145 188 243 298 363 434
#     4  12  25  45  71 103 141 189 239 296 369 435
#     4  12  26  48  73 104 143 195 241 299 369 440
#     4  11  26  44  68 106 141 186 237 301 364 429
#     4  11  24  47  72  99 144 196 242 294 373 445
#     4  12  25  44  71 104 142 187 244 301 365 439
#
# _framework density 22.160132999999998
#
# number of rings (size 3 to 8) (size 9 to 14) (size 15 to 20)
#    0.000    0.500    2.500    6.000    7.000    2.000 
#    0.000    0.000    0.000    0.000    0.000    0.000 
#    0.000    0.000    0.000    0.000    0.000    0.000 
#
# Total GULP energy -89095.283566 kJ/mol
# GULP energy per Si atom -5568.455223 kJ/mol
# Density = 2.210970 g / cm^3
# Si number density = 22.160133 Si / 1000 Ang^3
#
#
#
# Elastic Constant Matrix: (Units=GPa)
#
#
# Indices 1 2 3 4 5 6 
#
# 1 94.4624 6.3878 0.1128 -11.1095 4.2074 -22.4411
# 2 6.3878 52.2313 10.2249 -12.3193 9.7342 -15.9697
# 3 0.1128 10.2249 137.5333 -21.5248 5.2729 -8.8237
# 4 -11.1095 -12.3193 -21.5248 43.8650 -7.6497 3.7855
# 5 4.2074 9.7342 5.2729 -7.6497 35.0919 -11.5812
# 6 -22.4411 -15.9697 -8.8237 3.7855 -11.5812 31.1304
#
#
#
# Elastic Compliance Matrix: (Units=1/GPa)
#
#
# Indices 1 2 3 4 5 6 
#
# 1 0.013553 0.002176 0.001105 0.003987 0.002292 0.011567
# 2 0.002176 0.024519 0.000007 0.006070 -0.001498 0.012853
# 3 0.001105 0.000007 0.008068 0.004082 0.000454 0.002760
# 4 0.003987 0.006070 0.004082 0.027929 0.005187 0.005679
# 5 0.002292 -0.001498 0.000454 0.005187 0.034000 0.013030
# 6 0.011567 0.012853 0.002760 0.005679 0.013030 0.051994
#
#
# Mechanical properties :
#
#
# Convention : Reuss Voigt Hill
#
# Bulk Modulus (GPa) = 18.96907 35.29757 27.13332
# Shear Modulus (GPa) = 29.22985 39.85091 34.54038
#
# Velocity S-wave (km/s) = 3.63578 4.24526 3.95229
# Velocity P-wave (km/s) = 5.11897 6.32397 5.75310
#
# Compressibility (1/GPa) = 0.05271741
#
# Stress axis : x y z
#
# Youngs Moduli (GPa) = 73.78679 40.78494 123.94589
#
# Poissons Ratio (x) = -0.08875 -0.13701
# Poissons Ratio (y) = -0.16057 -0.00093
# Poissons Ratio (z) = -0.08156 -0.00030
#
# Static dielectric constant tensor:
#      x y z
#    x 1.822130 0.034010 0.086610 
#    y 0.034010 1.817950 0.031780 
#    z 0.086610 0.031780 1.918580 
# 
# From -- ./inp_files/462347.got.cif
#   From: 2010.05.17/outbox.cif.g08.bks.cpg/sg2_232_cif.got.tgz:462347.got - 2010.06.03 11:33:40.
