data_PCOD9065261
_publ_section_title
;
Structure prediction by ZEFSAII (Michael W. Deem and Ramdas Pophale) SiO2 
 PCOD9065261
Probable space group: P -1
;
_chemical_formula_sum "Si O2"
_cell_formula_units_Z 13
_cell_length_a 11.540972
_cell_length_b 6.188780
_cell_length_c 8.709699
_cell_angle_alpha 61.007092
_cell_angle_beta 105.465185
_cell_angle_gamma 112.809253
_cell_volume 499.177603
_symmetry_space_group_name_H-M "P -1"
_symmetry_group_IT_number 2
_symmetry_cell_setting 'triclinic'
loop_
_space_group_symop_operation_xyz
x,y,z
-x,-y,-z
loop_
_atom_site_type_symbol
_atom_site_label
_atom_site_fract_x
_atom_site_fract_y
_atom_site_fract_z
Si Si1 0.585582 0.060839 0.680669
Si Si2 0.060631 0.273194 0.775744
Si Si3 0.252853 0.066292 0.751221
Si Si4 0.826204 0.150525 0.521251
Si Si5 0.000000 0.500000 0.000000
Si Si6 0.720172 0.355313 0.900945
Si Si7 0.492916 0.565407 0.681358
O O1 0.694832 0.092305 0.582988
O O2 0.655617 0.120819 0.843482
O O3 0.520297 0.276307 0.532592
O O4 0.487699 0.778044 0.733994
O O5 0.149840 0.096439 0.827406
O O6 0.128120 0.551813 0.623411
O O7 0.038756 0.342981 0.918290
O O8 0.931856 0.138643 0.684506
O O9 0.376670 0.306732 0.734119
O O10 0.192885 0.035376 0.570528
O O11 0.278878 0.795720 0.888713
O O12 0.866056 0.492006 0.869245
O O13 0.625948 0.522072 0.785239
#
# Coordination Sequence:
#
# PCOD9065261 Si02
#       7
#     2   2   2   2   1   2   2
#     4  11  26  49  78 110 151 207 253 314 376 451
#     4  11  25  49  76 111 156 198 257 312 378 463
#     4  12  27  47  78 116 154 201 250 318 387 449
#     4  11  24  47  76 115 151 200 257 308 385 448
#     4  12  26  52  74 110 152 200 252 314 382 446
#     4  12  28  48  74 116 153 200 252 318 381 451
#     4  11  28  49  77 110 156 202 259 308 379 462
#
# _framework density 26.042836999999999
#
# number of rings (size 3 to 8) (size 9 to 14) (size 15 to 20)
#    0.000    0.615    4.615    1.385    8.615    2.462 
#    0.000    0.000    0.000    0.000    0.000    0.000 
#    0.000    0.000    0.000    0.000    0.000    0.000 
#
# Total GULP energy -72567.837726 kJ/mol
# GULP energy per Si atom -5582.141364 kJ/mol
# Density = 2.598356 g / cm^3
# Si number density = 26.042837 Si / 1000 Ang^3
#
#
#
# Elastic Constant Matrix: (Units=GPa)
#
#
# Indices 1 2 3 4 5 6 
#
# 1 171.3673 54.0503 50.6673 4.5602 25.1546 -13.6142
# 2 54.0503 116.4155 49.2133 15.3719 9.0788 13.3765
# 3 50.6673 49.2133 99.7561 14.7723 24.8455 -3.9442
# 4 4.5602 15.3719 14.7723 57.0419 3.9244 -4.2884
# 5 25.1546 9.0788 24.8455 3.9244 52.5887 17.2633
# 6 -13.6142 13.3765 -3.9442 -4.2884 17.2633 45.1739
#
#
#
# Elastic Compliance Matrix: (Units=1/GPa)
#
#
# Indices 1 2 3 4 5 6 
#
# 1 0.008532 -0.003910 -0.001206 0.001432 -0.004776 0.005585
# 2 -0.003910 0.013853 -0.006042 -0.002819 0.005189 -0.008058
# 3 -0.001206 -0.006042 0.015961 -0.001461 -0.007652 0.005604
# 4 0.001432 -0.002819 -0.001461 0.018986 -0.002162 0.003767
# 5 -0.004776 0.005189 -0.007652 -0.002162 0.029094 -0.014968
# 6 0.005585 -0.008058 0.005604 0.003767 -0.014968 0.032773
#
#
# Mechanical properties :
#
#
# Convention : Reuss Voigt Hill
#
# Bulk Modulus (GPa) = 62.38095 77.26676 69.82386
# Shear Modulus (GPa) = 34.04636 46.53477 40.29057
#
# Velocity S-wave (km/s) = 3.61961 4.23171 3.93757
# Velocity P-wave (km/s) = 6.44003 7.32188 6.89507
#
# Compressibility (1/GPa) = 0.01603053
#
# Stress axis : x y z
#
# Youngs Moduli (GPa) = 117.20672 72.18822 62.65077
#
# Poissons Ratio (x) = 0.28223 0.07558
# Poissons Ratio (y) = 0.45824 0.37852
# Poissons Ratio (z) = 0.14139 0.43614
#
# Static dielectric constant tensor:
#      x y z
#    x 2.054250 -0.032580 -0.038550 
#    y -0.032580 2.153150 -0.034950 
#    z -0.038550 -0.034950 2.026380 
# 
# From -- ./inp_files/229484.got.cif
#   From: 2010.05.17/outbox.cif.g08.bks.cpg/sg2_115_cif.got.tgz:229484.got - 2010.06.03 11:33:40.
