data_PCOD9065960
_publ_section_title
;
Structure prediction by ZEFSAII (Michael W. Deem and Ramdas Pophale) SiO2 
 PCOD9065960
Probable space group: P -1
;
_chemical_formula_sum "Si O2"
_cell_formula_units_Z 10
_cell_length_a 4.958532
_cell_length_b 8.398967
_cell_length_c 13.382095
_cell_angle_alpha 131.066647
_cell_angle_beta 114.818107
_cell_angle_gamma 61.342212
_cell_volume 364.069225
_symmetry_space_group_name_H-M "P -1"
_symmetry_group_IT_number 2
_symmetry_cell_setting 'triclinic'
loop_
_space_group_symop_operation_xyz
x,y,z
-x,-y,-z
loop_
_atom_site_type_symbol
_atom_site_label
_atom_site_fract_x
_atom_site_fract_y
_atom_site_fract_z
Si Si1 0.880869 0.794674 0.931531
Si Si2 0.851762 0.332503 0.495170
Si Si3 0.279333 0.007331 0.804574
Si Si4 0.407617 0.370584 0.840840
Si Si5 0.533760 0.244585 0.597772
O O1 0.093015 0.556051 0.836243
O O2 0.555538 0.841299 0.843460
O O3 0.868765 0.817704 0.059209
O O4 0.000000 0.000000 0.000000
O O5 0.500000 0.500000 0.500000
O O6 0.798356 0.241645 0.558766
O O7 0.178782 0.389444 0.571096
O O8 0.895069 0.144121 0.339671
O O9 0.390562 0.141681 0.790592
O O10 0.605725 0.321931 0.750423
O O11 0.500000 0.500000 0.000000
O O12 0.500000 0.000000 0.500000
#
# Coordination Sequence:
#
# PCOD9065960 Si02
#       5
#     2   2   2   2   2
#     4  11  25  44  69 108 145 184 254 302 365 451
#     4  12  28  49  80 108 154 200 253 312 382 444
#     4  11  26  46  73 107 145 199 244 312 374 445
#     4  12  26  46  77 106 149 196 244 309 381 441
#     4  12  28  50  76 113 151 196 258 309 373 462
#
# _framework density 27.467303999999999
#
# number of rings (size 3 to 8) (size 9 to 14) (size 15 to 20)
#    0.000    0.400    4.000    3.000    8.400    1.600 
#    0.000    0.000    0.000    0.000    0.000    0.000 
#    0.000    0.000    0.000    0.000    0.000    0.000 
#
# Total GULP energy -56062.772937 kJ/mol
# GULP energy per Si atom -5606.277294 kJ/mol
# Density = 2.740479 g / cm^3
# Si number density = 27.467304 Si / 1000 Ang^3
#
#
#
# Elastic Constant Matrix: (Units=GPa)
#
#
# Indices 1 2 3 4 5 6 
#
# 1 110.3151 16.1625 30.5765 -12.3838 -12.9160 3.8533
# 2 16.1625 99.8996 21.8680 4.6083 -11.5452 -17.9273
# 3 30.5765 21.8680 191.9292 -24.2725 0.9893 -4.3128
# 4 -12.3838 4.6083 -24.2725 38.0155 -0.2687 -6.1947
# 5 -12.9160 -11.5452 0.9893 -0.2687 54.7792 -0.0129
# 6 3.8533 -17.9273 -4.3128 -6.1947 -0.0129 54.9259
#
#
#
# Elastic Compliance Matrix: (Units=1/GPa)
#
#
# Indices 1 2 3 4 5 6 
#
# 1 0.010174 -0.001442 -0.001160 0.002603 0.002128 -0.000981
# 2 -0.001442 0.011492 -0.001276 -0.002090 0.002096 0.003517
# 3 -0.001160 -0.001276 0.006025 0.003710 -0.000633 0.000556
# 4 0.002603 -0.002090 0.003710 0.030239 0.000255 0.002837
# 5 0.002128 0.002096 -0.000633 0.000255 0.019211 0.000518
# 6 -0.000981 0.003517 0.000556 0.002837 0.000518 0.019787
#
#
# Mechanical properties :
#
#
# Convention : Reuss Voigt Hill
#
# Bulk Modulus (GPa) = 50.16312 59.92867 55.04590
# Shear Modulus (GPa) = 44.91150 51.77991 48.34570
#
# Velocity S-wave (km/s) = 4.04801 4.34654 4.19993
# Velocity P-wave (km/s) = 6.33648 6.85969 6.60327
#
# Compressibility (1/GPa) = 0.01993496
#
# Stress axis : x y z
#
# Youngs Moduli (GPa) = 98.29428 87.01464 165.96414
#
# Poissons Ratio (x) = 0.12549 0.19256
# Poissons Ratio (y) = 0.14176 0.21172
# Poissons Ratio (z) = 0.11405 0.11100
#
# Static dielectric constant tensor:
#      x y z
#    x 2.200650 -0.164000 0.014930 
#    y -0.164000 2.382640 -0.062130 
#    z 0.014930 -0.062130 2.043740 
# 
# From -- ./inp_files/15126.got.cif
#   From: 2010.05.17/outbox.cif.g08.bks.cpg/sg2_8_cif.got.tgz:15126.got - 2010.06.03 11:33:40.
