data_PCOD9065764
_publ_section_title
;
Structure prediction by ZEFSAII (Michael W. Deem and Ramdas Pophale) SiO2 
 PCOD9065764
Probable space group: P -1
;
_chemical_formula_sum "Si O2"
_cell_formula_units_Z 14
_cell_length_a 25.014294
_cell_length_b 13.627838
_cell_length_c 11.387755
_cell_angle_alpha 22.089352
_cell_angle_beta 31.899716
_cell_angle_gamma 33.036990
_cell_volume 744.898716
_symmetry_space_group_name_H-M "P -1"
_symmetry_group_IT_number 2
_symmetry_cell_setting 'triclinic'
loop_
_space_group_symop_operation_xyz
x,y,z
-x,-y,-z
loop_
_atom_site_type_symbol
_atom_site_label
_atom_site_fract_x
_atom_site_fract_y
_atom_site_fract_z
Si Si1 0.604669 0.659990 0.711688
Si Si2 0.917691 0.398104 0.186888
Si Si3 0.694335 0.039857 0.298782
Si Si4 0.259926 0.171377 0.899185
Si Si5 0.115419 0.085892 0.058824
Si Si6 0.576845 0.324619 0.808229
Si Si7 0.512679 0.054814 0.779754
O O1 0.640188 0.727277 0.442146
O O2 0.642528 0.862398 0.504862
O O3 0.662112 0.351963 0.974706
O O4 0.484463 0.691554 0.936526
O O5 0.816725 0.638039 0.077514
O O6 0.993333 0.246893 0.109204
O O7 0.882485 0.189054 0.570427
O O8 0.000000 0.500000 0.000000
O O9 0.633826 0.027131 0.547131
O O10 0.819344 0.946747 0.147060
O O11 0.185761 0.209352 0.880630
O O12 0.304995 0.858992 0.194203
O O13 0.551172 0.636609 0.473371
O O14 0.528693 0.160827 0.981379
O O15 0.500000 0.000000 0.000000
#
# Coordination Sequence:
#
# PCOD9065764 Si02
#       7
#     2   2   2   2   2   2   2
#     4   9  17  29  43  70 101 129 152 185 224 288
#     4   9  17  28  44  65 101 133 159 186 227 275
#     4   9  17  30  49  68  93 129 162 190 233 279
#     4  10  18  28  45  70 103 132 156 191 227 286
#     4   9  17  29  44  69 101 131 160 189 226 282
#     4  10  21  31  51  72  96 129 162 191 245 285
#     4  10  21  37  51  70  95 124 165 210 241 279
#
# _framework density 18.794501
#
# number of rings (size 3 to 8) (size 9 to 14) (size 15 to 20)
#    0.000    2.571    1.429    0.857    2.000    0.000 
#    0.000    5.714    0.000    0.000    0.000    2.000 
#    0.000    0.000    0.000    0.000    0.000    0.000 
#
# Total GULP energy -77954.720695 kJ/mol
# GULP energy per Si atom -5568.194335 kJ/mol
# Density = 1.875172 g / cm^3
# Si number density = 18.794501 Si / 1000 Ang^3
#
#
#
# Elastic Constant Matrix: (Units=GPa)
#
#
# Indices 1 2 3 4 5 6 
#
# 1 37.0784 21.5527 24.4594 7.0161 5.8022 9.9622
# 2 21.5527 175.0419 51.1502 9.9068 19.8063 -2.5576
# 3 24.4594 51.1502 82.8798 2.4785 9.9619 10.4465
# 4 7.0161 9.9068 2.4785 35.5849 13.4555 0.1582
# 5 5.8022 19.8063 9.9619 13.4555 16.0120 -2.8589
# 6 9.9622 -2.5576 10.4465 0.1582 -2.8589 17.1316
#
#
#
# Elastic Compliance Matrix: (Units=1/GPa)
#
#
# Indices 1 2 3 4 5 6 
#
# 1 0.040355 -0.002117 -0.006828 -0.003587 -0.008493 -0.021004
# 2 -0.002117 0.007878 -0.003917 0.001036 -0.006758 0.003658
# 3 -0.006828 -0.003917 0.018856 0.005137 -0.010498 -0.009911
# 4 -0.003587 0.001036 0.005137 0.043909 -0.041546 -0.008231
# 5 -0.008493 -0.006758 -0.010498 -0.041546 0.120848 0.030883
# 6 -0.021004 0.003658 -0.009911 -0.008231 0.030883 0.082405
#
#
# Mechanical properties :
#
#
# Convention : Reuss Voigt Hill
#
# Bulk Modulus (GPa) = 24.17442 54.36940 39.27191
# Shear Modulus (GPa) = 14.13380 26.93489 20.53435
#
# Velocity S-wave (km/s) = 2.74527 3.78977 3.30899
# Velocity P-wave (km/s) = 4.78948 6.93837 5.96155
#
# Compressibility (1/GPa) = 0.04136605
#
# Stress axis : x y z
#
# Youngs Moduli (GPa) = 24.77980 126.94245 53.03484
#
# Poissons Ratio (x) = 0.26868 0.36212
# Poissons Ratio (y) = 0.05245 0.20773
# Poissons Ratio (z) = 0.16919 0.49722
#
# Static dielectric constant tensor:
#      x y z
#    x 1.844350 0.016900 -0.245950 
#    y 0.016900 1.795810 0.011960 
#    z -0.245950 0.011960 1.849720 
# 
# From -- ./inp_files/37454.got.cif
#   From: 2010.05.17/outbox.cif.g08.bks.cpg/sg2_19_cif.got.tgz:37454.got - 2010.06.03 11:33:40.
