data_PCOD9065779
_publ_section_title
;
Structure prediction by ZEFSAII (Michael W. Deem and Ramdas Pophale) SiO2 
 PCOD9065779
Probable space group: P -1
;
_chemical_formula_sum "Si O2"
_cell_formula_units_Z 15
_cell_length_a 14.010372
_cell_length_b 24.055335
_cell_length_c 14.877875
_cell_angle_alpha 157.296231
_cell_angle_beta 148.072280
_cell_angle_gamma 18.977834
_cell_volume 618.093300
_symmetry_space_group_name_H-M "P -1"
_symmetry_group_IT_number 2
_symmetry_cell_setting 'triclinic'
loop_
_space_group_symop_operation_xyz
x,y,z
-x,-y,-z
loop_
_atom_site_type_symbol
_atom_site_label
_atom_site_fract_x
_atom_site_fract_y
_atom_site_fract_z
Si Si1 0.582055 0.336076 0.181520
Si Si2 0.306599 0.686108 0.966047
Si Si3 0.262087 0.776203 0.656911
Si Si4 0.426885 0.204724 0.581773
Si Si5 0.500000 0.000000 0.000000
Si Si6 0.854702 0.557129 0.731720
Si Si7 0.248832 0.272430 0.796688
Si Si8 0.344625 0.330945 0.509938
O O1 0.711962 0.305738 0.145414
O O2 0.274125 0.620354 0.378211
O O3 0.739889 0.254393 0.282935
O O4 0.528925 0.200901 0.924733
O O5 0.366209 0.489065 0.755196
O O6 0.546235 0.654515 0.140876
O O7 0.002049 0.943175 0.148889
O O8 0.570619 0.650722 0.681653
O O9 0.507819 0.174925 0.498207
O O10 0.084947 0.364996 0.550428
O O11 0.642419 0.955381 0.431550
O O12 0.718956 0.796329 0.951804
O O13 0.531432 0.825639 0.712591
O O14 0.097403 0.386804 0.750635
O O15 0.000000 0.500000 0.000000
O O16 0.000000 0.500000 0.500000
#
# Coordination Sequence:
#
# PCOD9065779 Si02
#       8
#     2   2   2   2   1   2   2   2
#     4  11  25  42  73 112 154 200 253 315 384 455
#     4  12  27  50  76 110 154 205 256 322 386 450
#     4  11  26  45  71 112 158 199 256 312 383 462
#     4  12  28  49  80 113 159 202 259 320 382 460
#     4  12  26  48  78 108 152 196 258 310 378 454
#     4  12  25  47  76 110 151 204 254 312 381 455
#     4  12  24  46  77 113 155 202 253 315 386 455
#     4  12  27  51  78 110 149 204 261 315 382 461
#
# _framework density 24.268180999999998
#
# number of rings (size 3 to 8) (size 9 to 14) (size 15 to 20)
#    0.000    0.267    4.000    4.400    3.733    0.000 
#    0.000    0.667    0.000    0.000    0.000    0.000 
#    0.000    0.000    0.000    0.000    0.000    0.000 
#
# Total GULP energy -83581.694269 kJ/mol
# GULP energy per Si atom -5572.112951 kJ/mol
# Density = 2.421295 g / cm^3
# Si number density = 24.268181 Si / 1000 Ang^3
#
#
#
# Elastic Constant Matrix: (Units=GPa)
#
#
# Indices 1 2 3 4 5 6 
#
# 1 103.7505 38.0048 46.4139 0.6140 -0.4712 11.4968
# 2 38.0048 82.8943 43.2229 18.9853 17.7357 10.8298
# 3 46.4139 43.2229 160.4864 14.7740 20.2120 19.7569
# 4 0.6140 18.9853 14.7740 42.1309 9.3298 7.4724
# 5 -0.4712 17.7357 20.2120 9.3298 42.7946 1.2979
# 6 11.4968 10.8298 19.7569 7.4724 1.2979 44.1365
#
#
#
# Elastic Compliance Matrix: (Units=1/GPa)
#
#
# Indices 1 2 3 4 5 6 
#
# 1 0.013129 -0.005763 -0.002752 0.002894 0.003243 -0.001359
# 2 -0.005763 0.018403 -0.001924 -0.006168 -0.005408 -0.000950
# 3 -0.002752 -0.001924 0.008273 -0.000958 -0.002863 -0.002268
# 4 0.002894 -0.006168 -0.000958 0.028085 -0.002977 -0.003479
# 5 0.003243 -0.005408 -0.002863 -0.002977 0.027602 0.001456
# 6 -0.001359 -0.000950 -0.002268 -0.003479 0.001456 0.024805
#
#
# Mechanical properties :
#
#
# Convention : Reuss Voigt Hill
#
# Bulk Modulus (GPa) = 52.83659 66.93494 59.88577
# Shear Modulus (GPa) = 33.90178 40.44502 37.17340
#
# Velocity S-wave (km/s) = 3.74165 4.08681 3.91804
# Velocity P-wave (km/s) = 6.36285 7.06475 6.72296
#
# Compressibility (1/GPa) = 0.01892628
#
# Stress axis : x y z
#
# Youngs Moduli (GPa) = 76.16593 54.33933 120.87359
#
# Poissons Ratio (x) = 0.31318 0.33270
# Poissons Ratio (y) = 0.43897 0.23252
# Poissons Ratio (z) = 0.20964 0.10453
#
# Static dielectric constant tensor:
#      x y z
#    x 2.172850 0.042640 -0.073300 
#    y 0.042640 2.044010 -0.084530 
#    z -0.073300 -0.084530 1.973150 
# 
# From -- ./inp_files/535457.got.cif
#   From: 2010.05.17/outbox.cif.g08.bks.cpg/sg2_268_cif.got.tgz:535457.got - 2010.06.03 11:33:40.
