data_PCOD9065247
_publ_section_title
;
Structure prediction by ZEFSAII (Michael W. Deem and Ramdas Pophale) SiO2 
 PCOD9065247
Probable space group: P -1
;
_chemical_formula_sum "Si O2"
_cell_formula_units_Z 16
_cell_length_a 7.589335
_cell_length_b 15.893399
_cell_length_c 12.668997
_cell_angle_alpha 24.798607
_cell_angle_beta 89.300555
_cell_angle_gamma 85.858075
_cell_volume 634.051442
_symmetry_space_group_name_H-M "P -1"
_symmetry_group_IT_number 2
_symmetry_cell_setting 'triclinic'
loop_
_space_group_symop_operation_xyz
x,y,z
-x,-y,-z
loop_
_atom_site_type_symbol
_atom_site_label
_atom_site_fract_x
_atom_site_fract_y
_atom_site_fract_z
Si Si1 0.080222 0.923949 0.971839
Si Si2 0.600380 0.831594 0.364529
Si Si3 0.097092 0.802806 0.780422
Si Si4 0.174561 0.459418 0.435710
Si Si5 0.699915 0.496722 0.045749
Si Si6 0.634106 0.928438 0.485947
Si Si7 0.837994 0.560511 0.188829
Si Si8 0.721483 0.857998 0.013650
O O1 0.159535 0.685867 0.225451
O O2 0.898678 0.950963 0.875155
O O3 0.229463 0.054390 0.787900
O O4 0.000000 0.000000 0.000000
O O5 0.672279 0.606934 0.577678
O O6 0.554674 0.858958 0.456851
O O7 0.432176 0.961906 0.161724
O O8 0.253573 0.890649 0.742786
O O9 0.180727 0.657558 0.853235
O O10 0.000000 0.000000 0.500000
O O11 0.973594 0.688933 0.983275
O O12 0.228560 0.296613 0.713567
O O13 0.979745 0.440934 0.406765
O O14 0.744755 0.721375 0.764667
O O15 0.500000 0.500000 0.000000
O O16 0.741405 0.455040 0.216556
O O17 0.500000 0.000000 0.500000
O O18 0.692080 0.711474 0.083317
#
# Coordination Sequence:
#
# PCOD9065247 Si02
#       8
#     2   2   2   2   2   2   2   2
#     4  11  24  47  76 105 147 195 250 307 376 442
#     4  12  27  46  77 107 151 199 248 308 377 439
#     4  12  26  44  76 103 145 196 248 311 383 441
#     4  11  25  49  74 110 151 191 252 310 366 451
#     4  12  26  47  71 107 149 192 251 313 372 455
#     4  12  25  48  72 106 151 191 247 313 368 449
#     4  11  24  48  74 106 150 196 250 308 381 448
#     4  11  25  49  75 109 150 196 250 306 371 454
#
# _framework density 25.234546999999999
#
# number of rings (size 3 to 8) (size 9 to 14) (size 15 to 20)
#    0.000    0.500    3.750    5.250    1.750    0.500 
#    2.250    0.000    0.000    0.000    0.000    0.000 
#    0.000    0.000    0.000    0.000    0.000    0.000 
#
# Total GULP energy -89540.034664 kJ/mol
# GULP energy per Si atom -5596.252167 kJ/mol
# Density = 2.517711 g / cm^3
# Si number density = 25.234547 Si / 1000 Ang^3
#
#
#
# Elastic Constant Matrix: (Units=GPa)
#
#
# Indices 1 2 3 4 5 6 
#
# 1 88.6630 33.1279 30.6149 -10.0287 0.2554 -4.9779
# 2 33.1279 202.6577 46.3718 -25.5926 21.0404 -11.3269
# 3 30.6149 46.3718 110.6839 -22.4657 19.9306 -7.8449
# 4 -10.0287 -25.5926 -22.4657 52.2633 -9.0482 8.9096
# 5 0.2554 21.0404 19.9306 -9.0482 41.1618 -13.1108
# 6 -4.9779 -11.3269 -7.8449 8.9096 -13.1108 41.5338
#
#
#
# Elastic Compliance Matrix: (Units=1/GPa)
#
#
# Indices 1 2 3 4 5 6 
#
# 1 0.013121 -0.001538 -0.003277 0.000627 0.002843 0.001297
# 2 -0.001538 0.005917 -0.001356 0.001649 -0.001928 0.000210
# 3 -0.003277 -0.001356 0.011927 0.003150 -0.004569 -0.000628
# 4 0.000627 0.001649 0.003150 0.022216 0.001501 -0.003172
# 5 0.002843 -0.001928 -0.004569 0.001501 0.030428 0.008235
# 6 0.001297 0.000210 -0.000628 -0.003172 0.008235 0.027451
#
#
# Mechanical properties :
#
#
# Convention : Reuss Voigt Hill
#
# Bulk Modulus (GPa) = 53.70570 69.13709 61.42139
# Shear Modulus (GPa) = 38.57723 46.45110 42.51416
#
# Velocity S-wave (km/s) = 3.91416 4.29508 4.10904
# Velocity P-wave (km/s) = 6.46192 7.21486 6.84874
#
# Compressibility (1/GPa) = 0.01862000
#
# Stress axis : x y z
#
# Youngs Moduli (GPa) = 76.21583 169.01855 83.84292
#
# Poissons Ratio (x) = 0.26002 0.27479
# Poissons Ratio (y) = 0.11725 0.11372
# Poissons Ratio (z) = 0.24979 0.22924
#
# Static dielectric constant tensor:
#      x y z
#    x 2.029090 0.057870 -0.000750 
#    y 0.057870 2.052090 0.037600 
#    z -0.000750 0.037600 2.036450 
# 
# From -- ./inp_files/398164.got.cif
#   From: 2010.05.17/outbox.cif.g08.bks.cpg/sg2_200_cif.got.tgz:398164.got - 2010.06.03 11:33:40.
