data_PCOD9065769
_publ_section_title
;
Structure prediction by ZEFSAII (Michael W. Deem and Ramdas Pophale) SiO2 
 PCOD9065769
Probable space group: P -1
;
_chemical_formula_sum "Si O2"
_cell_formula_units_Z 12
_cell_length_a 15.988630
_cell_length_b 12.159517
_cell_length_c 7.758892
_cell_angle_alpha 69.320483
_cell_angle_beta 46.079415
_cell_angle_gamma 33.307741
_cell_volume 489.065403
_symmetry_space_group_name_H-M "P -1"
_symmetry_group_IT_number 2
_symmetry_cell_setting 'triclinic'
loop_
_space_group_symop_operation_xyz
x,y,z
-x,-y,-z
loop_
_atom_site_type_symbol
_atom_site_label
_atom_site_fract_x
_atom_site_fract_y
_atom_site_fract_z
Si Si1 0.533787 0.143763 0.464073
Si Si2 0.658314 0.848960 0.691786
Si Si3 0.014213 0.349794 0.114335
Si Si4 0.079391 0.886409 0.255235
Si Si5 0.324003 0.757903 0.660879
Si Si6 0.938172 0.373884 0.578936
O O1 0.583038 0.192782 0.519065
O O2 0.515173 0.031038 0.637355
O O3 0.725417 0.578290 0.385539
O O4 0.789452 0.900426 0.132949
O O5 0.722831 0.655769 0.698237
O O6 0.905195 0.706998 0.445356
O O7 0.500000 0.000000 0.000000
O O8 0.089052 0.258739 0.253166
O O9 0.000000 0.500000 0.000000
O O10 0.134441 0.697625 0.274484
O O11 0.282589 0.778121 0.917401
O O12 0.000000 0.000000 0.500000
O O13 0.878071 0.076779 0.288378
O O14 0.500000 0.500000 0.500000
#
# Coordination Sequence:
#
# PCOD9065769 Si02
#       6
#     2   2   2   2   2   2
#     4  12  27  48  76 105 153 194 249 305 384 451
#     4  11  25  42  70 106 143 196 235 309 379 453
#     4  12  26  47  74 113 148 195 242 311 380 453
#     4  11  26  50  74 107 149 199 262 314 381 450
#     4  11  28  48  75 106 149 206 252 320 379 453
#     4  11  25  44  72 104 146 189 251 307 375 456
#
# _framework density 24.536594000000001
#
# number of rings (size 3 to 8) (size 9 to 14) (size 15 to 20)
#    0.000    0.667    3.333    2.500   14.000    0.667 
#    0.000    0.000    0.000    0.000    0.000    0.000 
#    0.000    0.000    0.000    0.000    0.000    0.000 
#
# Total GULP energy -66879.462803 kJ/mol
# GULP energy per Si atom -5573.288567 kJ/mol
# Density = 2.448075 g / cm^3
# Si number density = 24.536594 Si / 1000 Ang^3
#
#
#
# Elastic Constant Matrix: (Units=GPa)
#
#
# Indices 1 2 3 4 5 6 
#
# 1 92.6030 40.6213 39.2156 13.6950 18.1219 1.7260
# 2 40.6213 140.3388 34.7805 7.3260 9.5650 31.2074
# 3 39.2156 34.7805 90.3883 20.2302 24.2977 -3.7588
# 4 13.6950 7.3260 20.2302 47.7122 -4.9284 10.3990
# 5 18.1219 9.5650 24.2977 -4.9284 40.5093 1.6360
# 6 1.7260 31.2074 -3.7588 10.3990 1.6360 49.4376
#
#
#
# Elastic Compliance Matrix: (Units=1/GPa)
#
#
# Indices 1 2 3 4 5 6 
#
# 1 0.015044 -0.003658 -0.003004 -0.003489 -0.004587 0.002441
# 2 -0.003658 0.010566 -0.004084 0.003043 0.002267 -0.007568
# 3 -0.003004 -0.004084 0.019048 -0.009061 -0.010477 0.006383
# 4 -0.003489 0.003043 -0.009061 0.028287 0.010072 -0.008771
# 5 -0.004587 0.002267 -0.010477 0.010072 0.033927 -0.005309
# 6 0.002441 -0.007568 0.006383 -0.008771 -0.005309 0.027425
#
#
# Mechanical properties :
#
#
# Convention : Reuss Voigt Hill
#
# Bulk Modulus (GPa) = 43.16582 61.39611 52.28096
# Shear Modulus (GPa) = 30.57933 41.44600 36.01267
#
# Velocity S-wave (km/s) = 3.53409 4.11439 3.83523
# Velocity P-wave (km/s) = 5.85523 6.90272 6.40044
#
# Compressibility (1/GPa) = 0.02316648
#
# Stress axis : x y z
#
# Youngs Moduli (GPa) = 66.47340 94.64333 52.49998
#
# Poissons Ratio (x) = 0.34621 0.15769
# Poissons Ratio (y) = 0.24316 0.21439
# Poissons Ratio (z) = 0.19966 0.38649
#
# Static dielectric constant tensor:
#      x y z
#    x 2.312070 -0.027150 -0.053790 
#    y -0.027150 1.868110 -0.001800 
#    z -0.053790 -0.001800 2.165590 
# 
# From -- ./inp_files/333099.got.cif
#   From: 2010.05.17/outbox.cif.g08.bks.cpg/sg2_167_cif.got.tgz:333099.got - 2010.06.03 11:33:40.
