data_PCOD9065778
_publ_section_title
;
Structure prediction by ZEFSAII (Michael W. Deem and Ramdas Pophale) SiO2 
 PCOD9065778
Probable space group: P -1
;
_chemical_formula_sum "Si O2"
_cell_formula_units_Z 16
_cell_length_a 8.757204
_cell_length_b 18.673588
_cell_length_c 11.195356
_cell_angle_alpha 44.549384
_cell_angle_beta 107.425635
_cell_angle_gamma 140.579676
_cell_volume 673.695496
_symmetry_space_group_name_H-M "P -1"
_symmetry_group_IT_number 2
_symmetry_cell_setting 'triclinic'
loop_
_space_group_symop_operation_xyz
x,y,z
-x,-y,-z
loop_
_atom_site_type_symbol
_atom_site_label
_atom_site_fract_x
_atom_site_fract_y
_atom_site_fract_z
Si Si1 0.688619 0.166880 0.249302
Si Si2 0.141530 0.150980 0.133617
Si Si3 0.220572 0.241133 0.560058
Si Si4 0.788223 0.709575 0.779027
Si Si5 0.803930 0.191430 0.569270
Si Si6 0.296049 0.617922 0.367212
Si Si7 0.227340 0.559995 0.136762
Si Si8 0.408114 0.047705 0.848989
O O1 0.963340 0.242171 0.204732
O O2 0.500000 0.000000 0.500000
O O3 0.455909 0.026265 0.255931
O O4 0.767893 0.329018 0.062337
O O5 0.145816 0.162975 0.264634
O O6 0.476079 0.337937 0.952504
O O7 0.002705 0.974723 0.251532
O O8 0.919848 0.120485 0.074327
O O9 0.247003 0.281348 0.378190
O O10 0.533422 0.382465 0.524283
O O11 0.071034 0.255826 0.577837
O O12 0.500000 0.500000 0.000000
O O13 0.642965 0.179496 0.639703
O O14 0.936733 0.335125 0.324158
O O15 0.242295 0.576987 0.263551
O O16 0.535994 0.832169 0.189033
O O17 0.000000 0.500000 0.500000
O O18 0.500000 0.000000 0.000000
#
# Coordination Sequence:
#
# PCOD9065778 Si02
#       8
#     2   2   2   2   2   2   2   2
#     4  12  26  50  74 108 153 193 243 311 372 443
#     4  11  25  45  71 107 143 198 242 310 372 436
#     4  11  26  47  72 105 154 190 250 303 378 439
#     4  12  26  46  72 105 144 197 248 304 367 443
#     4  12  24  48  73 113 143 202 244 306 373 434
#     4  11  26  47  71 106 148 195 243 311 365 440
#     4  12  27  48  76 111 148 193 254 304 371 444
#     4  11  25  42  73 103 150 198 249 301 375 440
#
# _framework density 23.749600000000001
#
# number of rings (size 3 to 8) (size 9 to 14) (size 15 to 20)
#    0.000    0.500    5.000    1.875    3.500    3.000 
#    2.250    0.000    0.000    0.000    0.000    0.000 
#    0.000    0.000    0.000    0.000    0.000    0.000 
#
# Total GULP energy -89241.234271 kJ/mol
# GULP energy per Si atom -5577.577142 kJ/mol
# Density = 2.369555 g / cm^3
# Si number density = 23.749600 Si / 1000 Ang^3
#
#
#
# Elastic Constant Matrix: (Units=GPa)
#
#
# Indices 1 2 3 4 5 6 
#
# 1 114.7768 35.3705 54.6697 4.3097 -21.3617 23.6645
# 2 35.3705 73.5137 46.2726 1.9837 -6.8221 12.0872
# 3 54.6697 46.2726 115.6990 -20.4345 -2.6899 33.8464
# 4 4.3097 1.9837 -20.4345 41.3701 -0.5550 5.8888
# 5 -21.3617 -6.8221 -2.6899 -0.5550 40.5242 -12.1674
# 6 23.6645 12.0872 33.8464 5.8888 -12.1674 46.3620
#
#
#
# Elastic Compliance Matrix: (Units=1/GPa)
#
#
# Indices 1 2 3 4 5 6 
#
# 1 0.013672 -0.001808 -0.006567 -0.004578 0.006583 0.000596
# 2 -0.001808 0.020132 -0.009356 -0.005932 0.002944 0.004030
# 3 -0.006567 -0.009356 0.021797 0.013770 -0.007561 -0.013855
# 4 -0.004578 -0.005932 0.013770 0.033351 -0.005607 -0.011877
# 5 0.006583 0.002944 -0.007561 -0.005607 0.031150 0.010280
# 6 0.000596 0.004030 -0.013855 -0.011877 0.010280 0.034536
#
#
# Mechanical properties :
#
#
# Convention : Reuss Voigt Hill
#
# Bulk Modulus (GPa) = 49.65251 64.06834 56.86043
# Shear Modulus (GPa) = 25.40484 36.82970 31.11727
#
# Velocity S-wave (km/s) = 3.27417 3.94223 3.62363
# Velocity P-wave (km/s) = 5.93680 6.91062 6.44214
#
# Compressibility (1/GPa) = 0.02013997
#
# Stress axis : x y z
#
# Youngs Moduli (GPa) = 73.14316 49.67125 45.87730
#
# Poissons Ratio (x) = 0.08982 0.30127
# Poissons Ratio (y) = 0.13226 0.42921
# Poissons Ratio (z) = 0.48032 0.46471
#
# Static dielectric constant tensor:
#      x y z
#    x 1.987040 -0.095040 0.076970 
#    y -0.095040 1.428250 -0.488480 
#    z 0.076970 -0.488480 1.517080 
# 
# From -- ./inp_files/405423.got.cif
#   From: 2010.05.17/outbox.cif.g08.bks.cpg/sg2_203_cif.got.tgz:405423.got - 2010.06.03 11:33:40.
