data_PCOD9065410
_publ_section_title
;
Structure prediction by ZEFSAII (Michael W. Deem and Ramdas Pophale) SiO2 
 PCOD9065410
Probable space group: P -1
;
_chemical_formula_sum "Si O2"
_cell_formula_units_Z 16
_cell_length_a 9.363293
_cell_length_b 12.745212
_cell_length_c 9.351266
_cell_angle_alpha 112.334288
_cell_angle_beta 50.615760
_cell_angle_gamma 126.752000
_cell_volume 691.086944
_symmetry_space_group_name_H-M "P -1"
_symmetry_group_IT_number 2
_symmetry_cell_setting 'triclinic'
loop_
_space_group_symop_operation_xyz
x,y,z
-x,-y,-z
loop_
_atom_site_type_symbol
_atom_site_label
_atom_site_fract_x
_atom_site_fract_y
_atom_site_fract_z
Si Si1 0.558296 0.268540 0.836931
Si Si2 0.743602 0.616185 0.554893
Si Si3 0.847901 0.257427 0.144519
Si Si4 0.533870 0.324150 0.556573
Si Si5 0.269010 0.369476 0.108669
Si Si6 0.515488 0.003967 0.163570
Si Si7 0.777040 0.870648 0.535944
Si Si8 0.917083 0.381808 0.879540
O O1 0.597142 0.311756 0.670548
O O2 0.732869 0.371147 0.888614
O O3 0.566537 0.138186 0.793965
O O4 0.333676 0.256989 0.010876
O O5 0.550388 0.464963 0.594318
O O6 0.817239 0.626055 0.677439
O O7 0.718222 0.742909 0.606162
O O8 0.911606 0.621481 0.335862
O O9 0.707183 0.312903 0.339636
O O10 0.739089 0.101623 0.149955
O O11 0.086022 0.334828 0.092348
O O12 0.833489 0.266416 0.987533
O O13 0.295833 0.206505 0.609960
O O14 0.500000 0.500000 0.000000
O O15 0.377017 0.070180 0.324660
O O16 0.500000 0.000000 0.000000
O O17 0.000000 0.000000 0.500000
O O18 0.000000 0.500000 0.000000
#
# Coordination Sequence:
#
# PCOD9065410 Si02
#       8
#     2   2   2   2   2   2   2   2
#     4  12  26  46  76 108 148 194 245 306 374 439
#     4  12  26  46  75 106 153 189 250 305 376 431
#     4  11  26  46  71 106 148 195 249 300 371 444
#     4  11  26  46  75 109 147 195 248 306 376 440
#     4  12  27  45  71 111 150 183 247 313 372 430
#     4  11  24  48  73 101 147 199 244 296 368 451
#     4  11  27  46  72 110 149 193 250 305 368 442
#     4  12  25  43  77 104 143 200 244 299 374 437
#
# _framework density 23.151934000000001
#
# number of rings (size 3 to 8) (size 9 to 14) (size 15 to 20)
#    0.000    0.500    3.750    3.375    3.500    6.500 
#    0.000    0.000    0.000    0.000    0.000    0.000 
#    0.000    0.000    0.000    0.000    0.000    0.000 
#
# Total GULP energy -89312.920622 kJ/mol
# GULP energy per Si atom -5582.057539 kJ/mol
# Density = 2.309924 g / cm^3
# Si number density = 23.151934 Si / 1000 Ang^3
#
#
#
# Elastic Constant Matrix: (Units=GPa)
#
#
# Indices 1 2 3 4 5 6 
#
# 1 160.8198 75.0223 38.0550 -4.3261 23.3813 19.0495
# 2 75.0223 190.5574 22.8054 6.9851 7.3615 3.9424
# 3 38.0550 22.8054 119.0138 -0.6505 27.4556 -0.4868
# 4 -4.3261 6.9851 -0.6505 17.5297 -5.4716 1.0135
# 5 23.3813 7.3615 27.4556 -5.4716 41.0606 -0.5593
# 6 19.0495 3.9424 -0.4868 1.0135 -0.5593 46.2455
#
#
#
# Elastic Compliance Matrix: (Units=1/GPa)
#
#
# Indices 1 2 3 4 5 6 
#
# 1 0.009083 -0.003293 -0.001523 0.002688 -0.003254 -0.003575
# 2 -0.003293 0.006674 -0.000350 -0.003387 0.000473 0.000864
# 3 -0.001523 -0.000350 0.010392 -0.001845 -0.006255 0.000731
# 4 0.002688 -0.003387 -0.001845 0.061769 0.008513 -0.002089
# 5 -0.003254 0.000473 -0.006255 0.008513 0.031459 0.001428
# 6 -0.003575 0.000864 0.000731 -0.002089 0.001428 0.023094
#
#
# Mechanical properties :
#
#
# Convention : Reuss Voigt Hill
#
# Bulk Modulus (GPa) = 63.21625 82.46184 72.83904
# Shear Modulus (GPa) = 31.63056 43.26771 37.44913
#
# Velocity S-wave (km/s) = 3.70025 4.32772 4.02623
# Velocity P-wave (km/s) = 6.75426 7.78892 7.28997
#
# Compressibility (1/GPa) = 0.01581872
#
# Stress axis : x y z
#
# Youngs Moduli (GPa) = 110.08973 149.83397 96.22571
#
# Poissons Ratio (x) = 0.49337 0.14652
# Poissons Ratio (y) = 0.36250 0.03369
# Poissons Ratio (z) = 0.16763 0.05246
#
# Static dielectric constant tensor:
#      x y z
#    x 1.882600 0.047920 -0.003090 
#    y 0.047920 2.074710 -0.035440 
#    z -0.003090 -0.035440 1.837720 
# 
# From -- ./inp_files/188332.got.cif
#   From: 2010.05.17/outbox.cif.g08.bks.cpg/sg2_95_cif.got.tgz:188332.got - 2010.06.03 11:33:40.
