data_PCOD9065251
_publ_section_title
;
Structure prediction by ZEFSAII (Michael W. Deem and Ramdas Pophale) SiO2 
 PCOD9065251
Probable space group: P -1
;
_chemical_formula_sum "Si O2"
_cell_formula_units_Z 16
_cell_length_a 12.078138
_cell_length_b 8.279818
_cell_length_c 8.890880
_cell_angle_alpha 79.389678
_cell_angle_beta 109.966232
_cell_angle_gamma 56.374658
_cell_volume 611.637596
_symmetry_space_group_name_H-M "P -1"
_symmetry_group_IT_number 2
_symmetry_cell_setting 'triclinic'
loop_
_space_group_symop_operation_xyz
x,y,z
-x,-y,-z
loop_
_atom_site_type_symbol
_atom_site_label
_atom_site_fract_x
_atom_site_fract_y
_atom_site_fract_z
Si Si1 0.308474 0.596225 0.235800
Si Si2 0.353169 0.556107 0.839739
Si Si3 0.114888 0.165179 0.672331
Si Si4 0.061928 0.752985 0.884804
Si Si5 0.378941 0.174149 0.288385
Si Si6 0.819137 0.204273 0.563608
Si Si7 0.080508 0.384193 0.315562
Si Si8 0.604364 0.125932 0.904197
O O1 0.396836 0.356056 0.244392
O O2 0.299163 0.593850 0.411396
O O3 0.362154 0.729016 0.189075
O O4 0.124294 0.742703 0.077134
O O5 0.205958 0.677668 0.860453
O O6 0.283952 0.727708 0.642390
O O7 0.424976 0.318447 0.849872
O O8 0.500000 0.500000 0.000000
O O9 0.143807 0.208256 0.510941
O O10 0.980009 0.149230 0.601109
O O11 0.012711 0.391346 0.678514
O O12 0.269992 0.995780 0.877635
O O13 0.045756 0.582263 0.858797
O O14 0.891847 0.984576 0.725664
O O15 0.216223 0.313196 0.280335
O O16 0.500000 0.000000 0.500000
O O17 0.383732 0.043517 0.171333
#
# Coordination Sequence:
#
# PCOD9065251 Si02
#       8
#     2   2   2   2   2   2   2   2
#     4  12  26  48  78 115 154 199 261 319 385 466
#     4  12  26  48  73 110 158 199 259 322 381 469
#     4  11  24  47  76 109 148 203 259 321 382 454
#     4  12  25  45  78 113 144 206 257 321 387 453
#     4  12  29  51  75 115 165 206 252 319 400 467
#     4  12  24  44  78 107 150 195 259 317 386 461
#     4  11  26  45  76 108 152 200 264 315 383 461
#     4  12  28  49  79 113 156 207 260 321 396 458
#
# _framework density 26.159281
#
# number of rings (size 3 to 8) (size 9 to 14) (size 15 to 20)
#    0.000    0.250    5.000    3.000    3.500    5.000 
#    0.000    1.875    0.000    0.000    0.000    0.000 
#    0.000    0.000    0.000    0.000    0.000    0.000 
#
# Total GULP energy -89562.434109 kJ/mol
# GULP energy per Si atom -5597.652132 kJ/mol
# Density = 2.609974 g / cm^3
# Si number density = 26.159281 Si / 1000 Ang^3
#
#
#
# Elastic Constant Matrix: (Units=GPa)
#
#
# Indices 1 2 3 4 5 6 
#
# 1 75.4300 22.3920 24.8841 5.6975 -1.0305 1.9642
# 2 22.3920 153.5614 40.2335 -3.6320 -3.3103 6.3846
# 3 24.8841 40.2335 170.7547 -1.9381 10.3370 6.3575
# 4 5.6975 -3.6320 -1.9381 49.7293 -2.4616 0.6239
# 5 -1.0305 -3.3103 10.3370 -2.4616 36.5471 0.4706
# 6 1.9642 6.3846 6.3575 0.6239 0.4706 35.9138
#
#
#
# Elastic Compliance Matrix: (Units=1/GPa)
#
#
# Indices 1 2 3 4 5 6 
#
# 1 0.014488 -0.001671 -0.001771 -0.001817 0.000638 -0.000159
# 2 -0.001671 0.007224 -0.001481 0.000727 0.001087 -0.000958
# 3 -0.001771 -0.001481 0.006618 0.000262 -0.002028 -0.000790
# 4 -0.001817 0.000727 0.000262 0.020452 0.001324 -0.000449
# 5 0.000638 0.001087 -0.002028 0.001324 0.028145 -0.000261
# 6 -0.000159 -0.000958 -0.000790 -0.000449 -0.000261 0.028174
#
#
# Mechanical properties :
#
#
# Convention : Reuss Voigt Hill
#
# Bulk Modulus (GPa) = 54.09775 63.86281 58.98028
# Shear Modulus (GPa) = 41.28555 45.25379 43.26967
#
# Velocity S-wave (km/s) = 3.97701 4.16376 4.07146
# Velocity P-wave (km/s) = 6.46637 6.89796 6.68565
#
# Compressibility (1/GPa) = 0.01848506
#
# Stress axis : x y z
#
# Youngs Moduli (GPa) = 69.02379 138.42542 151.09370
#
# Poissons Ratio (x) = 0.23134 0.26756
# Poissons Ratio (y) = 0.11536 0.22370
# Poissons Ratio (z) = 0.12223 0.20494
#
# Static dielectric constant tensor:
#      x y z
#    x 2.092250 0.065000 -0.025960 
#    y 0.065000 2.154790 -0.050740 
#    z -0.025960 -0.050740 2.086840 
# 
# From -- ./inp_files/298293.got.cif
#   From: 2010.05.17/outbox.cif.g08.bks.cpg/sg2_150_cif.got.tgz:298293.got - 2010.06.03 11:33:40.
