data_PCOD9065620
_publ_section_title
;
Structure prediction by ZEFSAII (Michael W. Deem and Ramdas Pophale) SiO2 
 PCOD9065620
Probable space group: P -1
;
_chemical_formula_sum "Si O2"
_cell_formula_units_Z 14
_cell_length_a 22.797690
_cell_length_b 16.856142
_cell_length_c 8.483233
_cell_angle_alpha 42.954951
_cell_angle_beta 31.851396
_cell_angle_gamma 23.335976
_cell_volume 663.218060
_symmetry_space_group_name_H-M "P -1"
_symmetry_group_IT_number 2
_symmetry_cell_setting 'triclinic'
loop_
_space_group_symop_operation_xyz
x,y,z
-x,-y,-z
loop_
_atom_site_type_symbol
_atom_site_label
_atom_site_fract_x
_atom_site_fract_y
_atom_site_fract_z
Si Si1 0.924231 0.899717 0.255479
Si Si2 0.283069 0.451377 0.232862
Si Si3 0.224860 0.308330 0.332267
Si Si4 0.413057 0.440765 0.289857
Si Si5 0.574047 0.093190 0.624379
Si Si6 0.367853 0.719954 0.426833
Si Si7 0.116783 0.818417 0.614626
O O1 0.106854 0.690232 0.238173
O O2 0.750600 0.956664 0.544825
O O3 0.811511 0.099650 0.311700
O O4 0.997876 0.872905 0.954735
O O5 0.220802 0.381684 0.401272
O O6 0.345958 0.434417 0.290865
O O7 0.481214 0.306379 0.893956
O O8 0.000000 0.500000 0.500000
O O9 0.337596 0.087869 0.418822
O O10 0.369658 0.240925 0.965840
O O11 0.548761 0.234456 0.378243
O O12 0.217645 0.627847 0.567606
O O13 0.500000 0.500000 0.000000
O O14 0.500000 0.500000 0.500000
O O15 0.281269 0.759572 0.400064
O O16 0.000000 0.000000 0.500000
#
# Coordination Sequence:
#
# PCOD9065620 Si02
#       7
#     2   2   2   2   2   2   2
#     4  12  24  42  69 102 136 187 243 290 353 424
#     4  12  25  44  70 102 140 186 239 290 352 429
#     4  11  24  49  78 103 133 190 251 298 350 414
#     4  12  26  46  68 108 153 188 228 292 365 431
#     4  11  25  45  76 104 142 184 240 302 355 415
#     4  12  24  41  65  99 142 184 238 287 347 432
#     4  12  25  40  65 101 147 193 228 287 357 429
#
# _framework density 21.109195
#
# number of rings (size 3 to 8) (size 9 to 14) (size 15 to 20)
#    0.000    0.286    5.714    3.857    2.000    0.571 
#    0.000    0.714    0.000    0.000    0.000    0.000 
#    0.000    0.000    0.000    0.000    0.000    0.000 
#
# Total GULP energy -78115.009902 kJ/mol
# GULP energy per Si atom -5579.643564 kJ/mol
# Density = 2.106115 g / cm^3
# Si number density = 21.109195 Si / 1000 Ang^3
#
#
#
# Elastic Constant Matrix: (Units=GPa)
#
#
# Indices 1 2 3 4 5 6 
#
# 1 133.1864 49.5941 25.0994 17.4478 -1.2898 15.7135
# 2 49.5941 138.5791 27.0139 9.8726 7.7310 9.2357
# 3 25.0994 27.0139 75.1413 25.8913 -3.4258 3.5316
# 4 17.4478 9.8726 25.8913 41.0771 3.8494 -0.3011
# 5 -1.2898 7.7310 -3.4258 3.8494 36.2998 13.7343
# 6 15.7135 9.2357 3.5316 -0.3011 13.7343 53.3179
#
#
#
# Elastic Compliance Matrix: (Units=1/GPa)
#
#
# Indices 1 2 3 4 5 6 
#
# 1 0.009527 -0.002970 -0.000826 -0.003048 0.002293 -0.002847
# 2 -0.002970 0.008849 -0.002664 0.001041 -0.002407 0.000145
# 3 -0.000826 -0.002664 0.018653 -0.011163 0.004107 -0.001652
# 4 -0.003048 0.001041 -0.011163 0.033021 -0.006102 0.003216
# 5 0.002293 -0.002407 0.004107 -0.006102 0.032565 -0.008954
# 6 -0.002847 0.000145 -0.001652 0.003216 -0.008954 0.022003
#
#
# Mechanical properties :
#
#
# Convention : Reuss Voigt Hill
#
# Bulk Modulus (GPa) = 41.47803 61.14684 51.31243
# Shear Modulus (GPa) = 34.34667 42.48558 38.41612
#
# Velocity S-wave (km/s) = 4.03810 4.49113 4.27063
# Velocity P-wave (km/s) = 6.43690 7.47820 6.97700
#
# Compressibility (1/GPa) = 0.02410915
#
# Stress axis : x y z
#
# Youngs Moduli (GPa) = 104.96404 113.01116 53.60945
#
# Poissons Ratio (x) = 0.33559 0.04429
# Poissons Ratio (y) = 0.31170 0.14283
# Poissons Ratio (z) = 0.08672 0.30110
#
# Static dielectric constant tensor:
#      x y z
#    x 1.829920 0.045070 -0.035090 
#    y 0.045070 1.751940 -0.021630 
#    z -0.035090 -0.021630 1.833930 
# 
# From -- ./inp_files/355004.got.cif
#   From: 2010.05.17/outbox.cif.g08.bks.cpg/sg2_178_cif.got.tgz:355004.got - 2010.06.03 11:33:40.
