data_PCOD9065080
_publ_section_title
;
Structure prediction by ZEFSAII (Michael W. Deem and Ramdas Pophale) SiO2 
 PCOD9065080
Probable space group: P -1
;
_chemical_formula_sum "Si O2"
_cell_formula_units_Z 16
_cell_length_a 17.060975
_cell_length_b 8.650964
_cell_length_c 17.144735
_cell_angle_alpha 136.277355
_cell_angle_beta 32.514901
_cell_angle_gamma 149.174375
_cell_volume 696.977899
_symmetry_space_group_name_H-M "P -1"
_symmetry_group_IT_number 2
_symmetry_cell_setting 'triclinic'
loop_
_space_group_symop_operation_xyz
x,y,z
-x,-y,-z
loop_
_atom_site_type_symbol
_atom_site_label
_atom_site_fract_x
_atom_site_fract_y
_atom_site_fract_z
Si Si1 0.658926 0.995640 0.401567
Si Si2 0.221609 0.758689 0.442374
Si Si3 0.981634 0.177511 0.730750
Si Si4 0.363818 0.296135 0.417811
Si Si5 0.609360 0.887561 0.837065
Si Si6 0.753733 0.654666 0.996412
Si Si7 0.046993 0.733239 0.890077
Si Si8 0.698316 0.566848 0.841371
O O1 0.547624 0.653352 0.394900
O O2 0.500000 0.000000 0.500000
O O3 0.764485 0.218760 0.468107
O O4 0.810975 0.105691 0.245316
O O5 0.336162 0.670756 0.275338
O O6 0.000000 0.500000 0.500000
O O7 0.323187 0.090506 0.448731
O O8 0.168715 0.249795 0.562357
O O9 0.040167 0.472456 0.828538
O O10 0.825667 0.089243 0.763674
O O11 0.866712 0.896027 0.782960
O O12 0.383695 0.154158 0.275008
O O13 0.474352 0.554587 0.867000
O O14 0.500000 0.000000 0.000000
O O15 0.768165 0.553632 0.863398
O O16 0.845304 0.617277 0.979657
O O17 0.868629 0.005757 0.023759
O O18 0.500000 0.500000 0.000000
#
# Coordination Sequence:
#
# PCOD9065080 Si02
#       8
#     2   2   2   2   2   2   2   2
#     4  12  27  47  76 107 149 194 247 300 366 443
#     4  12  28  49  74 108 147 196 242 306 373 434
#     4  12  26  43  73 110 145 193 248 305 367 436
#     4  12  27  47  72 107 150 194 241 305 369 442
#     4  12  24  44  74 107 145 193 249 300 369 442
#     4  11  24  47  71 103 147 191 240 301 373 436
#     4  11  25  45  73 106 143 193 244 301 364 444
#     4  12  27  46  73 105 146 186 243 309 364 436
#
# _framework density 22.956251000000002
#
# number of rings (size 3 to 8) (size 9 to 14) (size 15 to 20)
#    0.000    0.250    6.250    2.250    5.250    0.500 
#    0.000    0.000    0.000    0.000    0.000    0.000 
#    0.000    0.000    0.000    0.000    0.000    0.000 
#
# Total GULP energy -89540.877724 kJ/mol
# GULP energy per Si atom -5596.304858 kJ/mol
# Density = 2.290400 g / cm^3
# Si number density = 22.956251 Si / 1000 Ang^3
#
#
#
# Elastic Constant Matrix: (Units=GPa)
#
#
# Indices 1 2 3 4 5 6 
#
# 1 51.4528 -3.6466 8.1742 8.2259 11.5374 4.1946
# 2 -3.6466 104.4778 2.8298 8.3395 -6.4920 -6.6929
# 3 8.1742 2.8298 99.5326 9.1676 -8.6057 14.7671
# 4 8.2259 8.3395 9.1676 40.9433 -3.2133 -0.1803
# 5 11.5374 -6.4920 -8.6057 -3.2133 35.4143 4.5745
# 6 4.1946 -6.6929 14.7671 -0.1803 4.5745 34.7980
#
#
#
# Elastic Compliance Matrix: (Units=1/GPa)
#
#
# Indices 1 2 3 4 5 6 
#
# 1 0.022429 0.000680 -0.002007 -0.004828 -0.008019 -0.000692
# 2 0.000680 0.009948 -0.000329 -0.001994 0.001107 0.001815
# 3 -0.002007 -0.000329 0.011501 -0.001822 0.003898 -0.005224
# 4 -0.004828 -0.001994 -0.001822 0.026452 0.003074 0.000705
# 5 -0.008019 0.001107 0.003898 0.003074 0.032896 -0.004783
# 6 -0.000692 0.001815 -0.005224 0.000705 -0.004783 0.032019
#
#
# Mechanical properties :
#
#
# Convention : Reuss Voigt Hill
#
# Bulk Modulus (GPa) = 24.65110 30.01976 27.33543
# Shear Modulus (GPa) = 32.87749 38.77149 35.82449
#
# Velocity S-wave (km/s) = 3.78852 4.11412 3.95467
# Velocity P-wave (km/s) = 5.46798 5.97271 5.72591
#
# Compressibility (1/GPa) = 0.04056614
#
# Stress axis : x y z
#
# Youngs Moduli (GPa) = 44.58586 100.51974 86.94882
#
# Poissons Ratio (x) = -0.06835 0.17453
# Poissons Ratio (y) = -0.03032 0.02857
# Poissons Ratio (z) = 0.08950 0.03303
#
# Static dielectric constant tensor:
#      x y z
#    x 1.948700 0.027090 -0.074090 
#    y 0.027090 1.928140 -0.004020 
#    z -0.074090 -0.004020 1.859680 
# 
# From -- ./inp_files/336662.got.cif
#   From: 2010.05.17/outbox.cif.g08.bks.cpg/sg2_169_cif.got.tgz:336662.got - 2010.06.03 11:33:40.
