data_PCOD9065484
_publ_section_title
;
Structure prediction by ZEFSAII (Michael W. Deem and Ramdas Pophale) SiO2 
 PCOD9065484
Probable space group: P -1
;
_chemical_formula_sum "Si O2"
_cell_formula_units_Z 16
_cell_length_a 15.018971
_cell_length_b 23.108591
_cell_length_c 9.731624
_cell_angle_alpha 136.248512
_cell_angle_beta 27.121289
_cell_angle_gamma 151.846373
_cell_volume 695.268984
_symmetry_space_group_name_H-M "P -1"
_symmetry_group_IT_number 2
_symmetry_cell_setting 'triclinic'
loop_
_space_group_symop_operation_xyz
x,y,z
-x,-y,-z
loop_
_atom_site_type_symbol
_atom_site_label
_atom_site_fract_x
_atom_site_fract_y
_atom_site_fract_z
Si Si1 0.725099 0.255230 0.419103
Si Si2 0.537482 0.332046 0.612037
Si Si3 0.574452 0.703565 0.583363
Si Si4 0.327999 0.978386 0.396060
Si Si5 0.605486 0.528576 0.245860
Si Si6 0.841558 0.026686 0.680574
Si Si7 0.878323 0.366805 0.701618
Si Si8 0.167334 0.292169 0.258750
O O1 0.535383 0.263396 0.616021
O O2 0.769229 0.298778 0.588247
O O3 0.546499 0.110738 0.405914
O O4 0.043052 0.358927 0.078933
O O5 0.475109 0.266156 0.440830
O O6 0.853915 0.481318 0.430623
O O7 0.288942 0.316774 0.979761
O O8 0.500400 0.585536 0.436705
O O9 0.911640 0.820860 0.371466
O O10 0.366991 0.667871 0.927849
O O11 0.216238 0.991669 0.435575
O O12 0.042851 0.850689 0.648655
O O13 0.529057 0.961436 0.054942
O O14 0.500000 0.500000 0.500000
O O15 0.442464 0.400917 0.170398
O O16 0.000000 0.000000 0.500000
O O17 0.986566 0.319906 0.552731
#
# Coordination Sequence:
#
# PCOD9065484 Si02
#       8
#     2   2   2   2   2   2   2   2
#     4  12  27  48  73 106 153 195 248 309 371 449
#     4  12  26  46  74 108 150 194 249 311 374 444
#     4  12  25  46  75 104 142 191 248 302 378 441
#     4  11  27  48  74 112 151 200 251 304 380 452
#     4  12  25  43  76 105 143 194 245 306 376 437
#     4  11  24  48  76 106 153 196 251 310 370 447
#     4  12  26  47  74 111 147 192 254 312 371 447
#     4  12  27  47  72 106 154 192 248 315 371 449
#
# _framework density 23.012675999999999
#
# number of rings (size 3 to 8) (size 9 to 14) (size 15 to 20)
#    0.000    0.250    3.750    4.875    7.000    1.000 
#    2.250    0.000    0.000    0.000    0.000    0.000 
#    0.000    0.000    0.000    0.000    0.000    0.000 
#
# Total GULP energy -89491.800052 kJ/mol
# GULP energy per Si atom -5593.237503 kJ/mol
# Density = 2.296030 g / cm^3
# Si number density = 23.012676 Si / 1000 Ang^3
#
#
#
# Elastic Constant Matrix: (Units=GPa)
#
#
# Indices 1 2 3 4 5 6 
#
# 1 79.3465 26.2340 38.7798 -0.1325 4.4282 12.9252
# 2 26.2340 116.3245 52.5718 -18.1352 15.5733 21.8826
# 3 38.7798 52.5718 136.3900 -11.3312 23.8724 10.7771
# 4 -0.1325 -18.1352 -11.3312 32.8147 -5.2088 -1.2355
# 5 4.4282 15.5733 23.8724 -5.2088 36.9811 13.4653
# 6 12.9252 21.8826 10.7771 -1.2355 13.4653 41.0866
#
#
#
# Elastic Compliance Matrix: (Units=1/GPa)
#
#
# Indices 1 2 3 4 5 6 
#
# 1 0.015641 -0.001572 -0.004154 -0.001972 0.002617 -0.003910
# 2 -0.001572 0.012290 -0.003413 0.005385 -0.000235 -0.004917
# 3 -0.004154 -0.003413 0.010726 0.000987 -0.005648 0.002192
# 4 -0.001972 0.005385 0.000987 0.034173 0.003047 -0.002477
# 5 0.002617 -0.000235 -0.005648 0.003047 0.034727 -0.010506
# 6 -0.003910 -0.004917 0.002192 -0.002477 -0.010506 0.030981
#
#
# Mechanical properties :
#
#
# Convention : Reuss Voigt Hill
#
# Bulk Modulus (GPa) = 49.07293 63.02580 56.04936
# Shear Modulus (GPa) = 30.56076 36.47482 33.51779
#
# Velocity S-wave (km/s) = 3.64812 3.98551 3.82054
# Velocity P-wave (km/s) = 6.25425 6.97323 6.62350
#
# Compressibility (1/GPa) = 0.02037783
#
# Stress axis : x y z
#
# Youngs Moduli (GPa) = 63.93624 81.37018 93.23166
#
# Poissons Ratio (x) = 0.12793 0.38728
# Poissons Ratio (y) = 0.10052 0.31820
# Poissons Ratio (z) = 0.26559 0.27772
#
# Static dielectric constant tensor:
#      x y z
#    x 1.946540 -0.048450 -0.031310 
#    y -0.048450 1.875480 0.021130 
#    z -0.031310 0.021130 1.828950 
# 
# From -- ./inp_files/320325.got.cif
#   From: 2010.05.17/outbox.cif.g08.bks.cpg/sg2_161_cif.got.tgz:320325.got - 2010.06.03 11:33:40.
