data_PCOD9065078
_publ_section_title
;
Structure prediction by ZEFSAII (Michael W. Deem and Ramdas Pophale) SiO2 
 PCOD9065078
Probable space group: P -1
;
_chemical_formula_sum "Si O2"
_cell_formula_units_Z 16
_cell_length_a 8.991257
_cell_length_b 18.820287
_cell_length_c 18.098483
_cell_angle_alpha 151.861278
_cell_angle_beta 29.084696
_cell_angle_gamma 141.258190
_cell_volume 701.511911
_symmetry_space_group_name_H-M "P -1"
_symmetry_group_IT_number 2
_symmetry_cell_setting 'triclinic'
loop_
_space_group_symop_operation_xyz
x,y,z
-x,-y,-z
loop_
_atom_site_type_symbol
_atom_site_label
_atom_site_fract_x
_atom_site_fract_y
_atom_site_fract_z
Si Si1 0.480362 0.579535 0.399763
Si Si2 0.468216 0.870195 0.835633
Si Si3 0.139344 0.374933 0.574419
Si Si4 0.393416 0.966282 0.223145
Si Si5 0.803220 0.704939 0.814939
Si Si6 0.528079 0.181537 0.649016
Si Si7 0.743743 0.804049 0.379014
Si Si8 0.869080 0.685243 0.928033
O O1 0.674621 0.586181 0.396233
O O2 0.362000 0.413003 0.276629
O O3 0.693154 0.655589 0.313987
O O4 0.165562 0.672794 0.626465
O O5 0.626577 0.722419 0.662738
O O6 0.120551 0.818174 0.925721
O O7 0.616665 0.926418 0.745627
O O8 0.500000 0.000000 0.000000
O O9 0.854149 0.256547 0.598459
O O10 0.019776 0.525707 0.729359
O O11 0.092281 0.854023 0.253132
O O12 0.379011 0.062742 0.393013
O O13 0.695602 0.870900 0.996798
O O14 0.684594 0.671090 0.918926
O O15 0.447332 0.216371 0.631553
O O16 0.500000 0.000000 0.500000
O O17 0.303685 0.262530 0.876783
#
# Coordination Sequence:
#
# PCOD9065078 Si02
#       8
#     2   2   2   2   2   2   2   2
#     4  11  26  46  72 104 142 192 238 294 361 427
#     4  12  26  45  74 108 142 189 238 298 369 417
#     4  12  26  49  71 107 149 187 244 295 358 438
#     4  11  25  45  75 104 143 185 244 296 353 435
#     4  11  26  45  73 106 143 187 244 293 362 424
#     4  12  27  46  74 108 147 190 242 296 364 431
#     4  11  24  47  71 103 143 190 236 293 362 419
#     4  12  26  47  72 108 143 193 238 300 362 426
#
# _framework density 22.807880000000001
#
# number of rings (size 3 to 8) (size 9 to 14) (size 15 to 20)
#    0.000    0.500    2.500    4.500    7.000    5.500 
#    0.000    0.000    0.000    0.000    0.000    0.000 
#    0.000    0.000    0.000    0.000    0.000    0.000 
#
# Total GULP energy -89564.188881 kJ/mol
# GULP energy per Si atom -5597.761805 kJ/mol
# Density = 2.275597 g / cm^3
# Si number density = 22.807880 Si / 1000 Ang^3
#
#
#
# Elastic Constant Matrix: (Units=GPa)
#
#
# Indices 1 2 3 4 5 6 
#
# 1 128.1413 47.5956 46.8302 10.2912 16.7185 14.6047
# 2 47.5956 87.6086 -0.5906 -2.4157 -0.3905 16.0006
# 3 46.8302 -0.5906 82.2746 11.2910 10.4934 1.0872
# 4 10.2912 -2.4157 11.2910 33.7101 -5.2199 -3.6547
# 5 16.7185 -0.3905 10.4934 -5.2199 33.1889 5.5037
# 6 14.6047 16.0006 1.0872 -3.6547 5.5037 40.9281
#
#
#
# Elastic Compliance Matrix: (Units=1/GPa)
#
#
# Indices 1 2 3 4 5 6 
#
# 1 0.014429 -0.007731 -0.007060 -0.003602 -0.005440 -0.001529
# 2 -0.007731 0.016473 0.003727 0.002464 0.003976 -0.004095
# 3 -0.007060 0.003727 0.016994 -0.003580 -0.002439 0.000619
# 4 -0.003602 0.002464 -0.003580 0.033615 0.007871 0.002361
# 5 -0.005440 0.003976 -0.002439 0.007871 0.035528 -0.003623
# 6 -0.001529 -0.004095 0.000619 0.002361 -0.003623 0.027261
#
#
# Mechanical properties :
#
#
# Convention : Reuss Voigt Hill
#
# Bulk Modulus (GPa) = 38.80597 53.96611 46.38604
# Shear Modulus (GPa) = 28.56897 35.17803 31.87350
#
# Velocity S-wave (km/s) = 3.54304 3.93155 3.74234
# Velocity P-wave (km/s) = 5.81281 6.65748 6.24943
#
# Compressibility (1/GPa) = 0.02576923
#
# Stress axis : x y z
#
# Youngs Moduli (GPa) = 69.30627 60.70536 58.84519
#
# Poissons Ratio (x) = 0.46929 0.41544
# Poissons Ratio (y) = 0.53578 -0.21934
# Poissons Ratio (z) = 0.48929 -0.22627
#
# Static dielectric constant tensor:
#      x y z
#    x 1.826840 0.033010 0.019620 
#    y 0.033010 1.909900 0.021680 
#    z 0.019620 0.021680 1.910830 
# 
# From -- ./inp_files/562046.got.cif
#   From: 2010.05.17/outbox.cif.g08.bks.cpg/sg2_282_cif.got.tgz:562046.got - 2010.06.03 11:33:40.
