data_PCOD9065472
_publ_section_title
;
Structure prediction by ZEFSAII (Michael W. Deem and Ramdas Pophale) SiO2 
 PCOD9065472
Probable space group: P -1
;
_chemical_formula_sum "Si O2"
_cell_formula_units_Z 13
_cell_length_a 6.020409
_cell_length_b 8.179191
_cell_length_c 12.553203
_cell_angle_alpha 81.583480
_cell_angle_beta 107.136907
_cell_angle_gamma 114.448540
_cell_volume 537.524052
_symmetry_space_group_name_H-M "P -1"
_symmetry_group_IT_number 2
_symmetry_cell_setting 'triclinic'
loop_
_space_group_symop_operation_xyz
x,y,z
-x,-y,-z
loop_
_atom_site_type_symbol
_atom_site_label
_atom_site_fract_x
_atom_site_fract_y
_atom_site_fract_z
Si Si1 0.935806 0.189373 0.814336
Si Si2 0.000000 0.500000 0.500000
Si Si3 0.098896 0.197988 0.202063
Si Si4 0.390088 0.672665 0.359507
Si Si5 0.305216 0.792216 0.998742
Si Si6 0.089129 0.201948 0.454758
Si Si7 0.516385 0.538974 0.165091
O O1 0.698253 0.172294 0.708006
O O2 0.865683 0.212959 0.922420
O O3 0.181116 0.366429 0.802004
O O4 0.982937 0.009050 0.823641
O O5 0.835543 0.459240 0.589506
O O6 0.092099 0.714664 0.521932
O O7 0.110889 0.207863 0.329876
O O8 0.358693 0.325029 0.166986
O O9 0.879823 0.258297 0.123085
O O10 0.637268 0.710700 0.459249
O O11 0.434794 0.590735 0.262984
O O12 0.426471 0.646941 0.053453
O O13 0.500000 0.000000 0.000000
O O14 0.000000 0.000000 0.500000
#
# Coordination Sequence:
#
# PCOD9065472 Si02
#       7
#     2   1   2   2   2   2   2
#     4  11  26  48  75 104 151 203 241 314 390 432
#     4  12  24  46  78 100 152 202 236 306 386 418
#     4  12  25  47  75 112 145 197 259 306 374 463
#     4  11  25  48  69 108 151 191 246 313 364 446
#     4  11  25  49  75 105 155 191 247 326 375 446
#     4  12  28  48  75 113 155 196 256 310 373 462
#     4  11  24  48  75 106 149 193 253 310 373 453
#
# _framework density 24.184963
#
# number of rings (size 3 to 8) (size 9 to 14) (size 15 to 20)
#    0.000    0.615    3.077    4.154    4.308    3.077 
#    5.538    0.000    0.000    0.000    0.000    0.000 
#    0.000    0.000    0.000    0.000    0.000    0.000 
#
# Total GULP energy -72525.935806 kJ/mol
# GULP energy per Si atom -5578.918139 kJ/mol
# Density = 2.412992 g / cm^3
# Si number density = 24.184963 Si / 1000 Ang^3
#
#
#
# Elastic Constant Matrix: (Units=GPa)
#
#
# Indices 1 2 3 4 5 6 
#
# 1 33.5156 1.4472 4.3122 -12.7687 -14.7168 10.1872
# 2 1.4472 105.2484 3.7677 -10.2590 -6.7929 14.2160
# 3 4.3122 3.7677 126.6016 -24.1052 20.8316 8.2219
# 4 -12.7687 -10.2590 -24.1052 23.6765 8.0342 -9.7888
# 5 -14.7168 -6.7929 20.8316 8.0342 42.9541 -9.4531
# 6 10.1872 14.2160 8.2219 -9.7888 -9.4531 41.6380
#
#
#
# Elastic Compliance Matrix: (Units=1/GPa)
#
#
# Indices 1 2 3 4 5 6 
#
# 1 0.042979 0.002588 0.000925 0.019955 0.009934 -0.004635
# 2 0.002588 0.010383 0.000685 0.005170 0.000577 -0.002967
# 3 0.000925 0.000685 0.012413 0.015949 -0.008835 -0.001168
# 4 0.019955 0.005170 0.015949 0.078358 -0.013514 0.005557
# 5 0.009934 0.000577 -0.008835 -0.013514 0.034414 0.003753
# 6 -0.004635 -0.002967 -0.001168 0.005557 0.003753 0.028553
#
#
# Mechanical properties :
#
#
# Convention : Reuss Voigt Hill
#
# Bulk Modulus (GPa) = 13.48222 31.60220 22.54221
# Shear Modulus (GPa) = 22.37860 38.70961 30.54410
#
# Velocity S-wave (km/s) = 3.04519 4.00505 3.55764
# Velocity P-wave (km/s) = 4.23686 5.87218 5.12023
#
# Compressibility (1/GPa) = 0.07417174
#
# Stress axis : x y z
#
# Youngs Moduli (GPa) = 23.26705 96.30991 80.55970
#
# Poissons Ratio (x) = -0.24927 -0.07451
# Poissons Ratio (y) = -0.06022 -0.05518
# Poissons Ratio (z) = -0.02152 -0.06597
#
# Static dielectric constant tensor:
#      x y z
#    x 1.957890 -0.051740 0.176320 
#    y -0.051740 2.030530 -0.138220 
#    z 0.176320 -0.138220 2.024510 
# 
# From -- ./inp_files/26431.got.cif
#   From: 2010.05.17/outbox.cif.g08.bks.cpg/sg2_14_cif.got.tgz:26431.got - 2010.06.03 11:33:40.
