data_PCOD9065844
_publ_section_title
;
Structure prediction by ZEFSAII (Michael W. Deem and Ramdas Pophale) SiO2 
 PCOD9065844
Probable space group: P -1
;
_chemical_formula_sum "Si O2"
_cell_formula_units_Z 14
_cell_length_a 21.210768
_cell_length_b 11.728278
_cell_length_c 6.660203
_cell_angle_alpha 81.848804
_cell_angle_beta 67.852677
_cell_angle_gamma 139.747177
_cell_volume 690.546188
_symmetry_space_group_name_H-M "P -1"
_symmetry_group_IT_number 2
_symmetry_cell_setting 'triclinic'
loop_
_space_group_symop_operation_xyz
x,y,z
-x,-y,-z
loop_
_atom_site_type_symbol
_atom_site_label
_atom_site_fract_x
_atom_site_fract_y
_atom_site_fract_z
Si Si1 0.077520 0.826378 0.716450
Si Si2 0.604572 0.659065 0.641686
Si Si3 0.846663 0.265385 0.618107
Si Si4 0.909560 0.743383 0.652537
Si Si5 0.562133 0.769350 0.331047
Si Si6 0.819679 0.474219 0.439078
Si Si7 0.386504 0.739101 0.600482
O O1 0.119618 0.761646 0.610225
O O2 0.013197 0.799971 0.611273
O O3 0.227536 0.109676 0.548337
O O4 0.954042 0.647142 0.081736
O O5 0.591690 0.760874 0.516335
O O6 0.547544 0.479405 0.597622
O O7 0.500000 0.500000 0.000000
O O8 0.790708 0.309622 0.625911
O O9 0.000000 0.500000 0.500000
O O10 0.718429 0.011064 0.965424
O O11 0.869907 0.645280 0.498379
O O12 0.754702 0.506599 0.025193
O O13 0.000000 0.000000 0.500000
O O14 0.483524 0.772909 0.435068
O O15 0.684190 0.314831 0.504319
O O16 0.500000 0.000000 0.500000
#
# Coordination Sequence:
#
# PCOD9065844 Si02
#       7
#     2   2   2   2   2   2   2
#     4  11  25  43  71 101 132 178 232 280 347 406
#     4  11  25  44  67 101 135 177 222 282 347 402
#     4  12  23  44  73 101 137 177 224 286 343 408
#     4  11  27  45  71  99 136 186 237 284 339 415
#     4  11  27  43  68 102 138 174 227 283 338 410
#     4  11  26  46  71  98 140 182 228 286 343 405
#     4  11  28  46  68 101 141 184 234 279 344 416
#
# _framework density 20.273806
#
# number of rings (size 3 to 8) (size 9 to 14) (size 15 to 20)
#    0.000    0.857    2.857    2.143   10.000    3.429 
#    0.000    0.000    0.000    0.000    0.000    0.000 
#    0.000    0.000    0.000    0.000    0.000    0.000 
#
# Total GULP energy -78319.707327 kJ/mol
# GULP energy per Si atom -5594.264809 kJ/mol
# Density = 2.022766 g / cm^3
# Si number density = 20.273806 Si / 1000 Ang^3
#
#
#
# Elastic Constant Matrix: (Units=GPa)
#
#
# Indices 1 2 3 4 5 6 
#
# 1 83.8195 41.9554 24.0619 4.5321 -4.4552 5.6546
# 2 41.9554 141.9050 28.0875 -2.9434 1.8428 12.0550
# 3 24.0619 28.0875 59.8501 -2.1701 3.2266 13.5497
# 4 4.5321 -2.9434 -2.1701 38.0333 2.9474 -3.8273
# 5 -4.4552 1.8428 3.2266 2.9474 33.6342 -0.2915
# 6 5.6546 12.0550 13.5497 -3.8273 -0.2915 43.1232
#
#
#
# Elastic Compliance Matrix: (Units=1/GPa)
#
#
# Indices 1 2 3 4 5 6 
#
# 1 0.015451 -0.003741 -0.004779 -0.002600 0.002941 0.000311
# 2 -0.003741 0.008727 -0.002248 0.000942 -0.000851 -0.001165
# 3 -0.004779 -0.002248 0.021069 0.001276 -0.002689 -0.005270
# 4 -0.002600 0.000942 0.001276 0.027180 -0.002882 0.002070
# 5 0.002941 -0.000851 -0.002689 -0.002882 0.030684 0.000649
# 6 0.000311 -0.001165 -0.005270 0.002070 0.000649 0.025318
#
#
# Mechanical properties :
#
#
# Convention : Reuss Voigt Hill
#
# Bulk Modulus (GPa) = 42.17442 52.64269 47.40856
# Shear Modulus (GPa) = 31.67177 35.72279 33.69728
#
# Velocity S-wave (km/s) = 3.95676 4.20219 4.08132
# Velocity P-wave (km/s) = 6.45927 7.04037 6.75607
#
# Compressibility (1/GPa) = 0.02371105
#
# Stress axis : x y z
#
# Youngs Moduli (GPa) = 64.72207 114.58111 47.46257
#
# Poissons Ratio (x) = 0.42860 0.22684
# Poissons Ratio (y) = 0.24210 0.10670
# Poissons Ratio (z) = 0.30933 0.25759
#
# Static dielectric constant tensor:
#      x y z
#    x 1.709040 -0.013480 0.029940 
#    y -0.013480 1.705180 0.007340 
#    z 0.029940 0.007340 1.723170 
# 
# From -- ./inp_files/65947.got.cif
#   From: 2010.05.17/outbox.cif.g08.bks.cpg/sg2_33_cif.got.tgz:65947.got - 2010.06.03 11:33:40.
