data_PCOD9065990
_publ_section_title
;
Structure prediction by ZEFSAII (Michael W. Deem and Ramdas Pophale) SiO2 
 PCOD9065990
Probable space group: P -1
;
_chemical_formula_sum "Si O2"
_cell_formula_units_Z 16
_cell_length_a 15.023905
_cell_length_b 8.866508
_cell_length_c 11.257667
_cell_angle_alpha 107.783233
_cell_angle_beta 48.014676
_cell_angle_gamma 69.198372
_cell_volume 650.238090
_symmetry_space_group_name_H-M "P -1"
_symmetry_group_IT_number 2
_symmetry_cell_setting 'triclinic'
loop_
_space_group_symop_operation_xyz
x,y,z
-x,-y,-z
loop_
_atom_site_type_symbol
_atom_site_label
_atom_site_fract_x
_atom_site_fract_y
_atom_site_fract_z
Si Si1 0.779842 0.174187 0.745897
Si Si2 0.710938 0.335581 0.580845
Si Si3 0.637188 0.732749 0.628419
Si Si4 0.414453 0.438918 0.767954
Si Si5 0.992216 0.663865 0.971592
Si Si6 0.095215 0.310978 0.480979
Si Si7 0.719100 0.760890 0.083924
Si Si8 0.924358 0.112696 0.962655
O O1 0.690833 0.304882 0.726954
O O2 0.804560 0.962187 0.697678
O O3 0.682226 0.380323 0.985207
O O4 0.000000 0.000000 0.500000
O O5 0.603339 0.607165 0.701315
O O6 0.630788 0.280979 0.552491
O O7 0.941069 0.129574 0.302378
O O8 0.735256 0.757943 0.632599
O O9 0.810525 0.520221 0.326081
O O10 0.445694 0.001285 0.800690
O O11 0.379301 0.285999 0.769202
O O12 0.301358 0.640909 0.808430
O O13 0.804097 0.825279 0.095585
O O14 0.000000 0.500000 0.000000
O O15 0.003868 0.783501 0.090910
O O16 0.000000 0.500000 0.500000
O O17 0.912689 0.490979 0.779811
O O18 0.000000 0.000000 0.000000
#
# Coordination Sequence:
#
# PCOD9065990 Si02
#       8
#     2   2   2   2   2   2   2   2
#     4  12  23  47  74  98 140 186 232 282 345 407
#     4  12  27  45  71 104 142 181 232 286 342 415
#     4  11  27  44  67 104 139 178 228 282 347 410
#     4  12  27  45  73 102 137 185 234 283 345 412
#     4  11  25  47  70  97 135 182 229 283 346 408
#     4  11  25  44  70  99 138 179 224 283 339 404
#     4  11  25  45  68 100 136 178 229 279 344 409
#     4  12  26  47  71 100 140 180 233 287 345 410
#
# _framework density 24.606369999999998
#
# number of rings (size 3 to 8) (size 9 to 14) (size 15 to 20)
#    0.000    0.500    5.000    1.875    7.000    2.500 
#    0.000    0.000    0.000    0.000    0.000    0.000 
#    0.000    0.000    0.000    0.000    0.000    0.000 
#
# Total GULP energy -89452.624832 kJ/mol
# GULP energy per Si atom -5590.789052 kJ/mol
# Density = 2.455036 g / cm^3
# Si number density = 24.606370 Si / 1000 Ang^3
#
#
#
# Elastic Constant Matrix: (Units=GPa)
#
#
# Indices 1 2 3 4 5 6 
#
# 1 102.2758 14.2043 12.5176 14.2444 -29.3897 -24.3471
# 2 14.2043 132.3686 8.1348 15.1946 -8.4237 -25.4109
# 3 12.5176 8.1348 69.8528 6.1876 -17.8625 -4.5427
# 4 14.2444 15.1946 6.1876 27.2608 -2.7879 -5.2814
# 5 -29.3897 -8.4237 -17.8625 -2.7879 40.2985 8.9342
# 6 -24.3471 -25.4109 -4.5427 -5.2814 8.9342 53.0250
#
#
#
# Elastic Compliance Matrix: (Units=1/GPa)
#
#
# Indices 1 2 3 4 5 6 
#
# 1 0.014271 0.000631 0.000603 -0.006074 0.009339 0.004728
# 2 0.000631 0.008810 -0.000238 -0.004327 0.001035 0.003886
# 3 0.000603 -0.000238 0.016419 -0.003147 0.007450 0.000001
# 4 -0.006074 -0.004327 -0.003147 0.042550 -0.003727 -0.000266
# 5 0.009339 0.001035 0.007450 -0.003727 0.035077 -0.000859
# 6 0.004728 0.003886 0.000001 -0.000266 -0.000859 0.023011
#
#
# Mechanical properties :
#
#
# Convention : Reuss Voigt Hill
#
# Bulk Modulus (GPa) = 24.10151 41.57896 32.84023
# Shear Modulus (GPa) = 32.89945 42.09289 37.49617
#
# Velocity S-wave (km/s) = 3.66051 4.14049 3.90787
# Velocity P-wave (km/s) = 5.26135 6.30813 5.80837
#
# Compressibility (1/GPa) = 0.04149118
#
# Stress axis : x y z
#
# Youngs Moduli (GPa) = 70.07131 113.50468 60.90349
#
# Poissons Ratio (x) = -0.07160 -0.03671
# Poissons Ratio (y) = -0.04420 0.01451
# Poissons Ratio (z) = -0.04223 0.02705
#
# Static dielectric constant tensor:
#      x y z
#    x 1.720200 -0.122660 -0.183550 
#    y -0.122660 1.915560 -0.144610 
#    z -0.183550 -0.144610 1.860250 
# 
# From -- ./inp_files/279073.got.cif
#   From: 2010.05.17/outbox.cif.g08.bks.cpg/sg2_140_cif.got.tgz:279073.got - 2010.06.03 11:33:40.
