data_PCOD9065388
_publ_section_title
;
Structure prediction by ZEFSAII (Michael W. Deem and Ramdas Pophale) SiO2 
 PCOD9065388
Probable space group: P -1
;
_chemical_formula_sum "Si O2"
_cell_formula_units_Z 12
_cell_length_a 16.482769
_cell_length_b 13.619887
_cell_length_c 9.321913
_cell_angle_alpha 133.371186
_cell_angle_beta 118.010024
_cell_angle_gamma 25.121889
_cell_volume 561.902559
_symmetry_space_group_name_H-M "P -1"
_symmetry_group_IT_number 2
_symmetry_cell_setting 'triclinic'
loop_
_space_group_symop_operation_xyz
x,y,z
-x,-y,-z
loop_
_atom_site_type_symbol
_atom_site_label
_atom_site_fract_x
_atom_site_fract_y
_atom_site_fract_z
Si Si1 0.395683 0.172031 0.429389
Si Si2 0.096669 0.845323 0.272187
Si Si3 0.800598 0.288075 0.232255
Si Si4 0.586482 0.366136 0.775898
Si Si5 0.008944 0.605575 0.331389
Si Si6 0.157407 0.458207 0.979370
O O1 0.341406 0.401369 0.631334
O O2 0.176142 0.401410 0.401065
O O3 0.500000 0.000000 0.500000
O O4 0.584412 0.899768 0.195157
O O5 0.327103 0.609161 0.193313
O O6 0.094963 0.687031 0.089641
O O7 0.000000 0.000000 0.500000
O O8 0.928967 0.152421 0.343894
O O9 0.633795 0.392730 0.239267
O O10 0.000000 0.000000 0.000000
O O11 0.500000 0.500000 0.000000
O O12 0.783310 0.992817 0.556793
O O13 0.102885 0.525426 0.171651
O O14 0.953169 0.521503 0.173287
#
# Coordination Sequence:
#
# PCOD9065388 Si02
#       6
#     2   2   2   2   2   2
#     4  12  25  43  73 104 144 195 244 297 363 437
#     4  12  25  46  72 109 146 185 245 301 362 436
#     4  12  24  46  71 103 146 190 241 303 359 428
#     4  12  24  45  76 102 146 198 237 299 371 427
#     4  11  24  48  72 105 149 192 241 304 369 433
#     4  11  25  45  74 108 147 188 244 302 370 434
#
# _framework density 21.356016
#
# number of rings (size 3 to 8) (size 9 to 14) (size 15 to 20)
#    0.000    0.333    6.667    1.500    0.000    2.667 
#    0.000    0.000    0.000    0.000    0.000    0.000 
#    0.000    0.000    0.000    0.000    0.000    0.000 
#
# Total GULP energy -66921.307760 kJ/mol
# GULP energy per Si atom -5576.775647 kJ/mol
# Density = 2.130741 g / cm^3
# Si number density = 21.356016 Si / 1000 Ang^3
#
#
#
# Elastic Constant Matrix: (Units=GPa)
#
#
# Indices 1 2 3 4 5 6 
#
# 1 154.2139 42.9332 48.1289 3.0527 5.4431 -12.4489
# 2 42.9332 100.1042 27.5914 -1.2795 -10.0453 -10.4877
# 3 48.1289 27.5914 138.8516 10.9078 -19.8893 4.7923
# 4 3.0527 -1.2795 10.9078 38.8212 1.5383 3.0109
# 5 5.4431 -10.0453 -19.8893 1.5383 46.1436 0.0769
# 6 -12.4489 -10.4877 4.7923 3.0109 0.0769 44.0946
#
#
#
# Elastic Compliance Matrix: (Units=1/GPa)
#
#
# Indices 1 2 3 4 5 6 
#
# 1 0.008440 -0.002918 -0.002822 -0.000009 -0.002850 0.002001
# 2 -0.002918 0.012035 -0.001158 0.000691 0.002439 0.002113
# 3 -0.002822 -0.001158 0.009263 -0.002435 0.004158 -0.001920
# 4 -0.000009 0.000691 -0.002435 0.026645 -0.001784 -0.001390
# 5 -0.002850 0.002439 0.004158 -0.001784 0.024391 -0.000597
# 6 0.002001 0.002113 -0.001920 -0.001390 -0.000597 0.024051
#
#
# Mechanical properties :
#
#
# Convention : Reuss Voigt Hill
#
# Bulk Modulus (GPa) = 62.72831 70.05295 66.39063
# Shear Modulus (GPa) = 40.34305 44.11295 42.22800
#
# Velocity S-wave (km/s) = 4.35106 4.54982 4.45155
# Velocity P-wave (km/s) = 7.39451 7.77655 7.58793
#
# Compressibility (1/GPa) = 0.01594177
#
# Stress axis : x y z
#
# Youngs Moduli (GPa) = 118.48181 83.08865 107.95168
#
# Poissons Ratio (x) = 0.24249 0.30466
# Poissons Ratio (y) = 0.34578 0.12499
# Poissons Ratio (z) = 0.33438 0.09620
#
# Static dielectric constant tensor:
#      x y z
#    x 1.634510 0.164660 0.010440 
#    y 0.164660 1.530060 0.051700 
#    z 0.010440 0.051700 1.766800 
# 
# From -- ./inp_files/182962.got.cif
#   From: 2010.05.17/outbox.cif.g08.bks.cpg/sg2_92_cif.got.tgz:182962.got - 2010.06.03 11:33:40.
