data_PCOD9065547
_publ_section_title
;
Structure prediction by ZEFSAII (Michael W. Deem and Ramdas Pophale) SiO2 
 PCOD9065547
Probable space group: P -1
;
_chemical_formula_sum "Si O2"
_cell_formula_units_Z 14
_cell_length_a 12.184910
_cell_length_b 7.267165
_cell_length_c 17.363010
_cell_angle_alpha 65.102901
_cell_angle_beta 154.862933
_cell_angle_gamma 126.645123
_cell_volume 490.841499
_symmetry_space_group_name_H-M "P -1"
_symmetry_group_IT_number 2
_symmetry_cell_setting 'triclinic'
loop_
_space_group_symop_operation_xyz
x,y,z
-x,-y,-z
loop_
_atom_site_type_symbol
_atom_site_label
_atom_site_fract_x
_atom_site_fract_y
_atom_site_fract_z
Si Si1 0.250557 0.036977 0.490211
Si Si2 0.500000 0.000000 0.500000
Si Si3 0.073742 0.327319 0.530777
Si Si4 0.426868 0.241974 0.969564
Si Si5 0.882822 0.167368 0.033269
Si Si6 0.752298 0.484617 0.991424
Si Si7 0.000000 0.000000 0.000000
Si Si8 0.376864 0.531277 0.528391
O O1 0.383662 0.322204 0.525912
O O2 0.400038 0.949107 0.538941
O O3 0.182487 0.939408 0.552014
O O4 0.907568 0.907160 0.257593
O O5 0.301868 0.706894 0.408277
O O6 0.409040 0.392100 0.758096
O O7 0.133805 0.395244 0.467637
O O8 0.000000 0.500000 0.500000
O O9 0.682983 0.320898 0.052520
O O10 0.365746 0.062169 0.031990
O O11 0.500000 0.500000 0.000000
O O12 0.812678 0.088582 0.914848
O O13 0.252509 0.255913 0.253481
O O14 0.890088 0.395285 0.030819
O O15 0.896274 0.772773 0.036594
#
# Coordination Sequence:
#
# PCOD9065547 Si02
#       8
#     2   1   2   2   2   2   1   2
#     4  11  26  47  71 108 141 186 247 292 350 440
#     4  12  24  46  70 106 144 184 240 302 344 440
#     4  11  24  49  70 104 146 189 235 296 364 419
#     4  11  24  49  70 104 146 189 235 296 364 419
#     4  12  26  47  73 105 144 191 239 298 361 416
#     4  11  26  47  71 108 141 186 247 292 350 440
#     4  12  24  46  70 106 144 184 240 302 344 440
#     4  12  26  47  73 105 144 191 239 298 361 416
#
# _framework density 28.522445000000001
#
# number of rings (size 3 to 8) (size 9 to 14) (size 15 to 20)
#    0.000    0.571    5.714    1.714    0.000    3.429 
#   10.286    0.000    0.000    0.000    0.000    0.000 
#    0.000    0.000    0.000    0.000    0.000    0.000 
#
# Total GULP energy -77975.096236 kJ/mol
# GULP energy per Si atom -5569.649731 kJ/mol
# Density = 2.845753 g / cm^3
# Si number density = 28.522445 Si / 1000 Ang^3
#
#
#
# Elastic Constant Matrix: (Units=GPa)
#
#
# Indices 1 2 3 4 5 6 
#
# 1 224.9811 80.9571 7.2209 -6.4612 34.6922 3.2003
# 2 80.9571 235.3700 -1.1341 18.4033 27.0972 7.1721
# 3 7.2209 -1.1341 99.4716 25.1386 22.0579 7.5503
# 4 -6.4612 18.4033 25.1386 6.5862 15.5401 3.9456
# 5 34.6922 27.0972 22.0579 15.5401 26.1137 -13.6746
# 6 3.2003 7.1721 7.5503 3.9456 -13.6746 69.1257
#
#
#
# Elastic Compliance Matrix: (Units=1/GPa)
#
#
# Indices 1 2 3 4 5 6 
#
# 1 0.003427 -0.000343 0.002975 -0.016318 0.003629 0.001201
# 2 -0.000343 0.005360 0.001729 0.002977 -0.009826 -0.002843
# 3 0.002975 0.001729 0.014635 0.004979 -0.024791 -0.007104
# 4 -0.016318 0.002977 0.004979 -0.090486 0.079077 0.020711
# 5 0.003629 -0.009826 -0.024791 0.079077 0.019022 0.002809
# 6 0.001201 -0.002843 -0.007104 0.020711 0.002809 0.014855
#
#
# Mechanical properties :
#
#
# Convention : Reuss Voigt Hill
#
# Bulk Modulus (GPa) = 31.10997 81.54561 56.32779
# Shear Modulus (GPa) = -160.29629 51.88370 -54.20629
#
# Velocity S-wave (km/s) = -7.50480 4.26966 -4.36418
# Velocity P-wave (km/s) = 8.01032 7.27727 2.36712
#
# Compressibility (1/GPa) = 0.03214403
#
# Stress axis : x y z
#
# Youngs Moduli (GPa) = 291.76439 186.56310 68.32762
#
# Poissons Ratio (x) = 0.06401 -0.20329
# Poissons Ratio (y) = 0.10011 -0.11811
# Poissons Ratio (z) = -0.86805 -0.32248
#
# Static dielectric constant tensor:
#      x y z
#    x 2.370230 0.073110 -0.265560 
#    y 0.073110 2.263270 -0.115420 
#    z -0.265560 -0.115420 2.108200 
# 
# From -- ./inp_files/118867.got.cif
#   From: 2010.05.17/outbox.cif.g08.bks.cpg/sg2_60_cif.got.tgz:118867.got - 2010.06.03 11:33:40.
