data_PCOD9065703
_publ_section_title
;
Structure prediction by ZEFSAII (Michael W. Deem and Ramdas Pophale) SiO2 
 PCOD9065703
Probable space group: P -1
;
_chemical_formula_sum "Si O2"
_cell_formula_units_Z 16
_cell_length_a 8.795735
_cell_length_b 6.628519
_cell_length_c 20.684683
_cell_angle_alpha 56.620809
_cell_angle_beta 117.335430
_cell_angle_gamma 79.600491
_cell_volume 726.240104
_symmetry_space_group_name_H-M "P -1"
_symmetry_group_IT_number 2
_symmetry_cell_setting 'triclinic'
loop_
_space_group_symop_operation_xyz
x,y,z
-x,-y,-z
loop_
_atom_site_type_symbol
_atom_site_label
_atom_site_fract_x
_atom_site_fract_y
_atom_site_fract_z
Si Si1 0.300677 0.733273 0.963076
Si Si2 0.726080 0.870225 0.597614
Si Si3 0.921835 0.176609 0.521553
Si Si4 0.292099 0.146262 0.672855
Si Si5 0.695372 0.642043 0.769046
Si Si6 0.565784 0.275884 0.863882
Si Si7 0.099405 0.415779 0.963974
Si Si8 0.824317 0.702325 0.232674
O O1 0.139531 0.665041 0.918525
O O2 0.217747 0.065782 0.871036
O O3 0.500000 0.500000 0.000000
O O4 0.358672 0.679619 0.059951
O O5 0.700572 0.796773 0.678505
O O6 0.929716 0.557333 0.665719
O O7 0.500000 0.000000 0.500000
O O8 0.795731 0.086731 0.556335
O O9 0.774810 0.525618 0.414662
O O10 0.127114 0.111513 0.609318
O O11 0.000000 0.000000 0.500000
O O12 0.263295 0.130908 0.745848
O O13 0.527200 0.900864 0.738918
O O14 0.620021 0.424515 0.792396
O O15 0.929255 0.449542 0.876436
O O16 0.319169 0.411702 0.792602
O O17 0.693753 0.921625 0.940231
O O18 0.000000 0.500000 0.000000
#
# Coordination Sequence:
#
# PCOD9065703 Si02
#       8
#     2   2   2   2   2   2   2   2
#     4  12  26  46  74 109 149 188 253 301 362 448
#     4  12  29  46  73 111 147 189 244 311 368 420
#     4  11  24  51  77  99 146 191 245 308 361 428
#     4  11  26  48  77 104 138 200 248 289 366 445
#     4  12  27  45  74 111 150 194 242 303 376 432
#     4  12  26  50  73 104 155 198 241 301 370 449
#     4  12  26  47  72 111 150 194 238 304 378 438
#     4  12  26  46  79 107 143 201 248 295 364 445
#
# _framework density 22.031279999999999
#
# number of rings (size 3 to 8) (size 9 to 14) (size 15 to 20)
#    0.000    0.250    3.750    4.500    8.750    1.500 
#    0.000    0.000    0.000    0.000    0.000    0.000 
#    0.000    0.000    0.000    0.000    0.000    0.000 
#
# Total GULP energy -89533.157774 kJ/mol
# GULP energy per Si atom -5595.822361 kJ/mol
# Density = 2.198114 g / cm^3
# Si number density = 22.031280 Si / 1000 Ang^3
#
#
#
# Elastic Constant Matrix: (Units=GPa)
#
#
# Indices 1 2 3 4 5 6 
#
# 1 149.8073 34.6053 50.8625 -3.2547 -9.7228 15.0131
# 2 34.6053 79.2509 27.6435 -5.6207 -3.6107 0.1027
# 3 50.8625 27.6435 99.9302 -7.7162 1.0404 -1.8930
# 4 -3.2547 -5.6207 -7.7162 21.9188 -2.4359 -6.2265
# 5 -9.7228 -3.6107 1.0404 -2.4359 49.6225 -5.1783
# 6 15.0131 0.1027 -1.8930 -6.2265 -5.1783 48.9930
#
#
#
# Elastic Compliance Matrix: (Units=1/GPa)
#
#
# Indices 1 2 3 4 5 6 
#
# 1 0.008987 -0.002552 -0.004049 -0.001442 0.001281 -0.002953
# 2 -0.002552 0.014880 -0.002578 0.002948 0.000898 0.001121
# 3 -0.004049 -0.002578 0.013130 0.003880 -0.000841 0.002158
# 4 -0.001442 0.002948 0.003880 0.049931 0.003059 0.007255
# 5 0.001281 0.000898 -0.000841 0.003059 0.020862 0.002167
# 6 -0.002953 0.001121 0.002158 0.007255 0.002167 0.022548
#
#
# Mechanical properties :
#
#
# Convention : Reuss Voigt Hill
#
# Bulk Modulus (GPa) = 53.64857 61.69011 57.66934
# Shear Modulus (GPa) = 32.27676 38.49866 35.38771
#
# Velocity S-wave (km/s) = 3.83174 4.18479 4.01215
# Velocity P-wave (km/s) = 6.63176 7.17021 6.90624
#
# Compressibility (1/GPa) = 0.01863983
#
# Stress axis : x y z
#
# Youngs Moduli (GPa) = 111.26922 67.20327 76.16081
#
# Poissons Ratio (x) = 0.17151 0.30837
# Poissons Ratio (y) = 0.28396 0.19633
# Poissons Ratio (z) = 0.45052 0.17324
#
# Static dielectric constant tensor:
#      x y z
#    x 1.727160 -0.031200 -0.002880 
#    y -0.031200 1.777540 -0.001240 
#    z -0.002880 -0.001240 1.747920 
# 
# From -- ./inp_files/585126.got.cif
#   From: 2010.05.17/outbox.cif.g08.bks.cpg/sg2_293_cif.got.tgz:585126.got - 2010.06.03 11:33:40.
