data_PCOD9065127
_publ_section_title
;
Structure prediction by ZEFSAII (Michael W. Deem and Ramdas Pophale) SiO2 
 PCOD9065127
Probable space group: P -1
;
_chemical_formula_sum "Si O2"
_cell_formula_units_Z 15
_cell_length_a 9.073636
_cell_length_b 7.285805
_cell_length_c 16.686509
_cell_angle_alpha 120.377836
_cell_angle_beta 45.676117
_cell_angle_gamma 126.682861
_cell_volume 625.343213
_symmetry_space_group_name_H-M "P -1"
_symmetry_group_IT_number 2
_symmetry_cell_setting 'triclinic'
loop_
_space_group_symop_operation_xyz
x,y,z
-x,-y,-z
loop_
_atom_site_type_symbol
_atom_site_label
_atom_site_fract_x
_atom_site_fract_y
_atom_site_fract_z
Si Si1 0.500000 0.000000 0.500000
Si Si2 0.567902 0.568642 0.328023
Si Si3 0.335468 0.512038 0.248983
Si Si4 0.102682 0.797710 0.326263
Si Si5 0.034330 0.632205 0.132959
Si Si6 0.226116 0.236460 0.961308
Si Si7 0.310071 0.083692 0.061979
Si Si8 0.645548 0.825389 0.565558
O O1 0.628152 0.835542 0.382915
O O2 0.538479 0.933219 0.563868
O O3 0.357671 0.497622 0.332361
O O4 0.767065 0.511787 0.203024
O O5 0.507134 0.427033 0.401253
O O6 0.140419 0.589372 0.311346
O O7 0.290872 0.266220 0.172376
O O8 0.578251 0.696429 0.165223
O O9 0.098938 0.749831 0.222582
O O10 0.875718 0.820550 0.443766
O O11 0.297191 0.021412 0.340524
O O12 0.149734 0.451745 0.039923
O O13 0.100073 0.838598 0.089333
O O14 0.349032 0.210988 0.990678
O O15 0.000000 0.000000 0.000000
O O16 0.500000 0.000000 0.000000
#
# Coordination Sequence:
#
# PCOD9065127 Si02
#       8
#     1   2   2   2   2   2   2   2
#     4  12  24  48  70 104 140 182 236 288 350 422
#     4  12  28  45  74 103 143 186 233 293 356 421
#     4  12  25  48  74 106 141 192 237 288 357 421
#     4  11  24  47  72 105 141 184 236 289 352 418
#     4  12  26  46  70 108 141 188 237 286 357 419
#     4  12  28  46  70 106 148 183 238 292 347 426
#     4  12  25  45  72  98 144 187 232 294 342 413
#     4  11  26  49  72 103 145 181 236 300 345 425
#
# _framework density 23.986829
#
# number of rings (size 3 to 8) (size 9 to 14) (size 15 to 20)
#    0.000    0.267    5.333    3.200    3.733    3.733 
#    0.000    0.000    0.000    0.000    0.000    0.000 
#    0.000    0.000    0.000    0.000    0.000    0.000 
#
# Total GULP energy -83687.166459 kJ/mol
# GULP energy per Si atom -5579.144431 kJ/mol
# Density = 2.393223 g / cm^3
# Si number density = 23.986829 Si / 1000 Ang^3
#
#
#
# Elastic Constant Matrix: (Units=GPa)
#
#
# Indices 1 2 3 4 5 6 
#
# 1 112.8279 35.2229 10.5059 5.4438 0.2604 -39.6240
# 2 35.2229 111.0512 21.2878 4.7078 -15.2406 -22.7944
# 3 10.5059 21.2878 56.1037 21.4264 -5.9155 -13.0553
# 4 5.4438 4.7078 21.4264 41.0863 -9.1339 -3.6395
# 5 0.2604 -15.2406 -5.9155 -9.1339 44.5030 6.3253
# 6 -39.6240 -22.7944 -13.0553 -3.6395 6.3253 36.5458
#
#
#
# Elastic Compliance Matrix: (Units=1/GPa)
#
#
# Indices 1 2 3 4 5 6 
#
# 1 0.015166 -0.002291 0.002307 -0.002256 -0.003331 0.016190
# 2 -0.002291 0.011411 -0.003571 0.001879 0.003412 0.002954
# 3 0.002307 -0.003571 0.025394 -0.012770 -0.001671 0.008363
# 4 -0.002256 0.001879 -0.012770 0.032105 0.006073 -0.003691
# 5 -0.003331 0.003412 -0.001671 0.006073 0.025520 -0.005892
# 6 0.016190 0.002954 0.008363 -0.003691 -0.005892 0.050400
#
#
# Mechanical properties :
#
#
# Convention : Reuss Voigt Hill
#
# Bulk Modulus (GPa) = 22.29056 46.00176 34.14616
# Shear Modulus (GPa) = 27.46364 38.62479 33.04421
#
# Velocity S-wave (km/s) = 3.38738 4.01715 3.71563
# Velocity P-wave (km/s) = 4.96106 6.38249 5.71613
#
# Compressibility (1/GPa) = 0.04486204
#
# Stress axis : x y z
#
# Youngs Moduli (GPa) = 65.93771 87.63445 39.37952
#
# Poissons Ratio (x) = 0.20075 -0.09086
# Poissons Ratio (y) = 0.15105 0.14062
# Poissons Ratio (z) = -0.15214 0.31294
#
# Static dielectric constant tensor:
#      x y z
#    x 1.931070 0.117290 0.021710 
#    y 0.117290 2.014740 -0.005960 
#    z 0.021710 -0.005960 1.855740 
# 
# From -- ./inp_files/27873.got.cif
#   From: 2010.05.17/outbox.cif.g08.bks.cpg/sg2_14_cif.got.tgz:27873.got - 2010.06.03 11:33:40.
