data_PCOD9065971
_publ_section_title
;
Structure prediction by ZEFSAII (Michael W. Deem and Ramdas Pophale) SiO2 
 PCOD9065971
Probable space group: P -1
;
_chemical_formula_sum "Si O2"
_cell_formula_units_Z 16
_cell_length_a 16.781548
_cell_length_b 5.784117
_cell_length_c 16.935091
_cell_angle_alpha 52.406337
_cell_angle_beta 32.379342
_cell_angle_gamma 53.175608
_cell_volume 683.661096
_symmetry_space_group_name_H-M "P -1"
_symmetry_group_IT_number 2
_symmetry_cell_setting 'triclinic'
loop_
_space_group_symop_operation_xyz
x,y,z
-x,-y,-z
loop_
_atom_site_type_symbol
_atom_site_label
_atom_site_fract_x
_atom_site_fract_y
_atom_site_fract_z
Si Si1 0.240195 0.456954 0.860792
Si Si2 0.499817 0.358936 0.940807
Si Si3 0.993765 0.927019 0.905734
Si Si4 0.317897 0.380217 0.391974
Si Si5 0.212434 0.449445 0.063714
Si Si6 0.540451 0.650962 0.555095
Si Si7 0.800334 0.175447 0.399102
Si Si8 0.023857 0.805128 0.597992
O O1 0.123277 0.777829 0.889388
O O2 0.396820 0.508253 0.682652
O O3 0.264635 0.345907 0.953832
O O4 0.147731 0.240814 0.938843
O O5 0.635609 0.457439 0.757572
O O6 0.500000 0.500000 0.000000
O O7 0.347949 0.521667 0.987958
O O8 0.500000 0.000000 0.000000
O O9 0.080710 0.860196 0.763377
O O10 0.925159 0.272822 0.892279
O O11 0.426358 0.423049 0.364693
O O12 0.142773 0.508553 0.534608
O O13 0.324310 0.030559 0.455787
O O14 0.135999 0.228259 0.225558
O O15 0.701857 0.507077 0.412569
O O16 0.500000 0.000000 0.500000
O O17 0.888332 0.084251 0.425781
O O18 0.000000 0.000000 0.500000
#
# Coordination Sequence:
#
# PCOD9065971 Si02
#       8
#     2   2   2   2   2   2   2   2
#     4  11  25  44  70 103 146 185 246 295 391 443
#     4  12  31  51  79 112 153 202 262 320 382 451
#     4  11  25  44  70 106 142 193 235 310 372 463
#     4  11  25  46  70 104 143 190 246 309 373 449
#     4  12  25  46  74 104 148 189 250 308 378 451
#     4  11  26  44  73 101 144 189 242 306 375 457
#     4  11  25  45  69 103 145 184 255 306 373 452
#     4  11  25  44  70  99 142 191 245 311 373 443
#
# _framework density 23.403409
#
# number of rings (size 3 to 8) (size 9 to 14) (size 15 to 20)
#    0.000    0.750    3.750    1.875   10.500    5.500 
#    0.000    0.000    0.000    0.000    0.000    0.000 
#    0.000    0.000    0.000    0.000    0.000    0.000 
#
# Total GULP energy -89434.066889 kJ/mol
# GULP energy per Si atom -5589.629181 kJ/mol
# Density = 2.335014 g / cm^3
# Si number density = 23.403409 Si / 1000 Ang^3
#
#
#
# Elastic Constant Matrix: (Units=GPa)
#
#
# Indices 1 2 3 4 5 6 
#
# 1 122.4053 2.6389 31.9559 7.8264 18.0510 -7.4724
# 2 2.6389 63.1301 3.4757 -3.6901 10.6893 -9.2071
# 3 31.9559 3.4757 113.2011 -11.6420 2.6022 4.1007
# 4 7.8264 -3.6901 -11.6420 27.2730 -4.7495 -0.0681
# 5 18.0510 10.6893 2.6022 -4.7495 46.3765 -1.0793
# 6 -7.4724 -9.2071 4.1007 -0.0681 -1.0793 31.7545
#
#
#
# Elastic Compliance Matrix: (Units=1/GPa)
#
#
# Indices 1 2 3 4 5 6 
#
# 1 0.010191 0.000624 -0.003419 -0.005053 -0.004369 0.002861
# 2 0.000624 0.017340 -0.000680 0.001200 -0.003959 0.005130
# 3 -0.003419 -0.000680 0.010445 0.005589 0.001420 -0.002290
# 4 -0.005053 0.001200 0.005589 0.041639 0.005611 -0.001283
# 5 -0.004369 -0.003959 0.001420 0.005611 0.024636 -0.001510
# 6 0.002861 0.005130 -0.002290 -0.001283 -0.001510 0.033894
#
#
# Mechanical properties :
#
#
# Convention : Reuss Voigt Hill
#
# Bulk Modulus (GPa) = 32.23044 41.65306 36.94175
# Shear Modulus (GPa) = 32.16750 38.45854 35.31302
#
# Velocity S-wave (km/s) = 3.71142 4.05815 3.88865
# Velocity P-wave (km/s) = 5.67166 6.30829 5.99843
#
# Compressibility (1/GPa) = 0.03102657
#
# Stress axis : x y z
#
# Youngs Moduli (GPa) = 98.12792 57.66868 95.73992
#
# Poissons Ratio (x) = -0.03599 0.32732
# Poissons Ratio (y) = -0.06123 0.06510
# Poissons Ratio (z) = 0.33548 0.03921
#
# Static dielectric constant tensor:
#      x y z
#    x 1.907130 0.034360 -0.004540 
#    y 0.034360 2.005280 0.018620 
#    z -0.004540 0.018620 1.878670 
# 
# From -- ./inp_files/111007.got.cif
#   From: 2010.05.17/outbox.cif.g08.bks.cpg/sg2_56_cif.got.tgz:111007.got - 2010.06.03 11:33:40.
