data_PCOD9065310
_publ_section_title
;
Structure prediction by ZEFSAII (Michael W. Deem and Ramdas Pophale) SiO2 
 PCOD9065310
Probable space group: P -1
;
_chemical_formula_sum "Si O2"
_cell_formula_units_Z 10
_cell_length_a 21.329303
_cell_length_b 21.293181
_cell_length_c 6.192452
_cell_angle_alpha 43.458126
_cell_angle_beta 136.633580
_cell_angle_gamma 166.759935
_cell_volume 439.321510
_symmetry_space_group_name_H-M "P -1"
_symmetry_group_IT_number 2
_symmetry_cell_setting 'triclinic'
loop_
_space_group_symop_operation_xyz
x,y,z
-x,-y,-z
loop_
_atom_site_type_symbol
_atom_site_label
_atom_site_fract_x
_atom_site_fract_y
_atom_site_fract_z
Si Si1 0.870188 0.629795 0.850981
Si Si2 0.052139 0.948135 0.167356
Si Si3 0.260101 0.760099 0.164837
Si Si4 0.573056 0.926962 0.865233
Si Si5 0.448140 0.552144 0.147335
O O1 0.657137 0.480875 0.846321
O O2 0.019111 0.842850 0.534986
O O3 0.147361 0.848552 0.107053
O O4 0.651428 0.352620 0.886983
O O5 0.804832 0.695163 0.024172
O O6 0.310968 0.189026 0.054856
O O7 0.000000 0.000000 0.000000
O O8 0.281200 0.867505 0.109972
O O9 0.367520 0.781209 0.541502
O O10 0.000000 0.500000 0.000000
O O11 0.500000 0.000000 0.000000
O O12 0.500000 0.500000 0.500000
#
# Coordination Sequence:
#
# PCOD9065310 Si02
#       5
#     2   2   2   2   2
#     4  12  26  45  72 106 156 188 248 311 354 432
#     4  12  26  44  72 101 140 199 253 298 360 423
#     4  11  24  47  80 106 145 189 239 295 374 460
#     4  11  26  46  72 112 148 190 238 308 374 429
#     4  12  26  44  72 101 140 199 253 298 360 423
#
# _framework density 22.762374000000001
#
# number of rings (size 3 to 8) (size 9 to 14) (size 15 to 20)
#    0.000    0.400    2.000    6.000    2.800    9.600 
#    0.000    0.000    0.000    0.000    0.000    0.000 
#    0.000    0.000    0.000    0.000    0.000    0.000 
#
# Total GULP energy -55773.879755 kJ/mol
# GULP energy per Si atom -5577.387976 kJ/mol
# Density = 2.271057 g / cm^3
# Si number density = 22.762374 Si / 1000 Ang^3
#
#
#
# Elastic Constant Matrix: (Units=GPa)
#
#
# Indices 1 2 3 4 5 6 
#
# 1 94.5368 68.6489 62.8111 2.6915 -7.6021 19.4968
# 2 68.6489 250.8231 71.2171 -2.6054 -5.0707 14.0334
# 3 62.8111 71.2171 90.3767 -12.3936 -10.4221 -5.2328
# 4 2.6915 -2.6054 -12.3936 48.0924 1.8274 -19.2220
# 5 -7.6021 -5.0707 -10.4221 1.8274 31.0904 -2.6138
# 6 19.4968 14.0334 -5.2328 -19.2220 -2.6138 45.4145
#
#
#
# Elastic Compliance Matrix: (Units=1/GPa)
#
#
# Indices 1 2 3 4 5 6 
#
# 1 0.037647 -0.000174 -0.030931 -0.021563 -0.002357 -0.028935
# 2 -0.000174 0.005542 -0.004829 -0.002164 -0.000896 -0.003162
# 3 -0.030931 -0.004829 0.042237 0.024192 0.006931 0.030277
# 4 -0.021563 -0.002164 0.024192 0.039911 0.002640 0.029758
# 5 -0.002357 -0.000896 0.006931 0.002640 0.034044 0.005164
# 6 -0.028935 -0.003162 0.030277 0.029758 0.005164 0.051799
#
#
# Mechanical properties :
#
#
# Convention : Reuss Voigt Hill
#
# Bulk Modulus (GPa) = 73.76401 93.45451 83.60926
# Shear Modulus (GPa) = 17.38709 40.45675 28.92192
#
# Velocity S-wave (km/s) = 2.76679 4.22044 3.56842
# Velocity P-wave (km/s) = 6.53324 8.05575 7.33411
#
# Compressibility (1/GPa) = 0.01355675
#
# Stress axis : x y z
#
# Youngs Moduli (GPa) = 26.56244 180.43865 23.67576
#
# Poissons Ratio (x) = 0.03141 0.73232
# Poissons Ratio (y) = 0.00462 0.11434
# Poissons Ratio (z) = 0.82161 0.87140
#
# Static dielectric constant tensor:
#      x y z
#    x 1.847810 -0.003030 0.137000 
#    y -0.003030 1.780710 -0.014900 
#    z 0.137000 -0.014900 1.835010 
# 
# From -- ./inp_files/12126.got.cif
#   From: 2010.05.17/outbox.cif.g08.bks.cpg/sg2_7_cif.got.tgz:12126.got - 2010.06.03 11:33:40.
