data_PCOD9065851
_publ_section_title
;
Structure prediction by ZEFSAII (Michael W. Deem and Ramdas Pophale) SiO2 
 PCOD9065851
Probable space group: P -1
;
_chemical_formula_sum "Si O2"
_cell_formula_units_Z 13
_cell_length_a 15.213469
_cell_length_b 8.117151
_cell_length_c 9.673442
_cell_angle_alpha 67.390530
_cell_angle_beta 36.438004
_cell_angle_gamma 47.504523
_cell_volume 487.445174
_symmetry_space_group_name_H-M "P -1"
_symmetry_group_IT_number 2
_symmetry_cell_setting 'triclinic'
loop_
_space_group_symop_operation_xyz
x,y,z
-x,-y,-z
loop_
_atom_site_type_symbol
_atom_site_label
_atom_site_fract_x
_atom_site_fract_y
_atom_site_fract_z
Si Si1 0.821663 0.995587 0.973165
Si Si2 0.263983 0.942844 0.618214
Si Si3 0.340575 0.266531 0.388809
Si Si4 0.500000 0.500000 0.000000
Si Si5 0.121183 0.304583 0.234570
Si Si6 0.094857 0.696015 0.241580
Si Si7 0.704115 0.393670 0.497917
O O1 0.765215 0.891367 0.966902
O O2 0.058798 0.788561 0.742098
O O3 0.771318 0.239061 0.904264
O O4 0.756454 0.034254 0.199579
O O5 0.381679 0.025665 0.399556
O O6 0.041533 0.134024 0.770206
O O7 0.352493 0.688933 0.528571
O O8 0.428008 0.341691 0.150379
O O9 0.099952 0.465043 0.613455
O O10 0.360843 0.646913 0.265520
O O11 0.374813 0.339660 0.469985
O O12 0.060141 0.227616 0.465320
O O13 0.202474 0.427259 0.147900
#
# Coordination Sequence:
#
# PCOD9065851 Si02
#       7
#     2   2   2   1   2   2   2
#     4  10  18  28  45  71  98 117 138 183 231 275
#     4  10  18  28  46  72  96 115 141 181 236 272
#     4   8  17  29  44  66  90 119 149 185 223 255
#     4   8  16  32  42  62  92 118 154 192 216 240
#     4   9  17  29  44  66  97 119 148 175 222 273
#     4   9  17  28  43  66  98 121 143 176 218 282
#     4   8  16  28  42  63  93 116 145 181 220 259
#
# _framework density 26.669668999999999
#
# number of rings (size 3 to 8) (size 9 to 14) (size 15 to 20)
#    0.923    2.154    0.000    2.308    0.000    7.385 
#    0.000    0.000    0.000    0.000    0.000    5.385 
#    0.000    0.000    0.000    0.000    0.000    0.000 
#
# Total GULP energy -72446.880359 kJ/mol
# GULP energy per Si atom -5572.836951 kJ/mol
# Density = 2.660897 g / cm^3
# Si number density = 26.669669 Si / 1000 Ang^3
#
#
#
# Elastic Constant Matrix: (Units=GPa)
#
#
# Indices 1 2 3 4 5 6 
#
# 1 83.0206 95.8912 54.6208 25.5981 -17.0816 44.8813
# 2 95.8912 -3.0335 -48.7801 -13.3871 45.1741 31.2692
# 3 54.6208 -48.7801 45.1352 11.9812 40.5406 8.6585
# 4 25.5981 -13.3871 11.9812 21.9189 31.8057 0.2735
# 5 -17.0816 45.1741 40.5406 31.8057 31.9832 4.3380
# 6 44.8813 31.2692 8.6585 0.2735 4.3380 54.4702
#
#
#
# Elastic Compliance Matrix: (Units=1/GPa)
#
#
# Indices 1 2 3 4 5 6 
#
# 1 0.007815 0.004706 0.002733 0.001812 -0.006509 -0.009066
# 2 0.004706 0.007742 -0.001799 -0.016903 0.011874 -0.008896
# 3 0.002733 -0.001799 0.017185 -0.025493 0.008176 -0.004474
# 4 0.001812 -0.016903 -0.025493 0.075258 -0.019508 0.013438
# 5 -0.006509 0.011874 0.008176 -0.019508 0.020638 -0.004298
# 6 -0.009066 -0.008896 -0.004474 0.013438 -0.004298 0.031922
#
#
# Mechanical properties :
#
#
# Convention : Reuss Voigt Hill
#
# Bulk Modulus (GPa) = 22.71640 36.50957 29.61298
# Shear Modulus (GPa) = 30.49643 23.23383 26.86513
#
# Velocity S-wave (km/s) = 3.38522 2.95476 3.17729
# Velocity P-wave (km/s) = 4.88014 5.03588 4.95862
#
# Compressibility (1/GPa) = 0.04402107
#
# Stress axis : x y z
#
# Youngs Moduli (GPa) = 127.96145 129.16484 58.19061
#
# Poissons Ratio (x) = -0.60780 -0.15905
# Poissons Ratio (y) = -0.60214 0.10470
# Poissons Ratio (z) = -0.34974 0.23239
#
# Static dielectric constant tensor:
#      x y z
#    x 2.086100 0.115970 -0.043710 
#    y 0.115970 2.069700 0.027540 
#    z -0.043710 0.027540 1.991070 
# 
# From -- ./inp_files/166239.got.cif
#   From: 2010.05.17/outbox.cif.g08.bks.cpg/sg2_84_cif.got.tgz:166239.got - 2010.06.03 11:33:40.
