data_PCOD9065489
_publ_section_title
;
Structure prediction by ZEFSAII (Michael W. Deem and Ramdas Pophale) SiO2 
 PCOD9065489
Probable space group: P -1
;
_chemical_formula_sum "Si O2"
_cell_formula_units_Z 10
_cell_length_a 9.315637
_cell_length_b 7.200077
_cell_length_c 8.813379
_cell_angle_alpha 128.484917
_cell_angle_beta 61.742814
_cell_angle_gamma 86.457699
_cell_volume 348.910312
_symmetry_space_group_name_H-M "P -1"
_symmetry_group_IT_number 2
_symmetry_cell_setting 'triclinic'
loop_
_space_group_symop_operation_xyz
x,y,z
-x,-y,-z
loop_
_atom_site_type_symbol
_atom_site_label
_atom_site_fract_x
_atom_site_fract_y
_atom_site_fract_z
Si Si1 0.114945 0.683558 0.638286
Si Si2 0.236276 0.389014 0.722473
Si Si3 0.562472 0.749415 0.958053
Si Si4 0.146556 0.883979 0.228972
Si Si5 0.334949 0.961052 0.696958
O O1 0.127532 0.483739 0.665431
O O2 0.278670 0.516090 0.345533
O O3 0.184987 0.877608 0.777251
O O4 0.924927 0.865698 0.730330
O O5 0.273481 0.108442 0.639285
O O6 0.454030 0.308277 0.543640
O O7 0.141956 0.639095 0.015375
O O8 0.366098 0.762491 0.101335
O O9 0.648630 0.821662 0.094710
O O10 0.500000 0.000000 0.000000
O O11 0.000000 0.000000 0.500000
#
# Coordination Sequence:
#
# PCOD9065489 Si02
#       5
#     2   2   2   2   2
#     4  12  26  52  80 111 158 202 260 322 385 460
#     4  11  24  48  76 113 150 207 257 310 388 459
#     4  12  26  51  80 112 153 207 258 316 390 461
#     4  12  29  48  77 119 160 198 259 327 385 460
#     4  11  25  47  82 108 152 208 255 312 389 462
#
# _framework density 28.660661999999999
#
# number of rings (size 3 to 8) (size 9 to 14) (size 15 to 20)
#    0.000    0.400    4.000    3.600    5.600    3.200 
#    3.600    0.000    0.000    0.000    0.000    0.000 
#    0.000    0.000    0.000    0.000    0.000    0.000 
#
# Total GULP energy -56243.507418 kJ/mol
# GULP energy per Si atom -5624.350742 kJ/mol
# Density = 2.859543 g / cm^3
# Si number density = 28.660662 Si / 1000 Ang^3
#
#
#
# Elastic Constant Matrix: (Units=GPa)
#
#
# Indices 1 2 3 4 5 6 
#
# 1 141.7228 22.7199 59.9310 -3.4774 -8.7399 -21.4366
# 2 22.7199 179.9774 32.5814 1.0955 -7.5630 -43.7464
# 3 59.9310 32.5814 200.1841 -19.9554 -2.7677 -19.6041
# 4 -3.4774 1.0955 -19.9554 44.9647 -9.4515 -11.6501
# 5 -8.7399 -7.5630 -2.7677 -9.4515 57.5172 -0.8637
# 6 -21.4366 -43.7464 -19.6041 -11.6501 -0.8637 46.5231
#
#
#
# Elastic Compliance Matrix: (Units=1/GPa)
#
#
# Indices 1 2 3 4 5 6 
#
# 1 0.008569 0.000211 -0.002147 0.000911 0.001429 0.003498
# 2 0.000211 0.007455 -0.000333 0.001923 0.001425 0.007475
# 3 -0.002147 -0.000333 0.006237 0.003273 0.000500 0.002154
# 4 0.000911 0.001923 0.003273 0.027565 0.005238 0.010608
# 5 0.001429 0.001425 0.000500 0.005238 0.018733 0.003868
# 6 0.003498 0.007475 0.002154 0.010608 0.003868 0.033771
#
#
# Mechanical properties :
#
#
# Convention : Reuss Voigt Hill
#
# Bulk Modulus (GPa) = 56.42109 83.59432 70.00770
# Shear Modulus (GPa) = 44.33568 56.91114 50.62341
#
# Velocity S-wave (km/s) = 3.93735 4.46094 4.20730
# Velocity P-wave (km/s) = 6.35602 7.46750 6.93407
#
# Compressibility (1/GPa) = 0.01772387
#
# Stress axis : x y z
#
# Youngs Moduli (GPa) = 116.69330 134.13852 160.34531
#
# Poissons Ratio (x) = -0.02837 0.34423
# Poissons Ratio (y) = -0.02468 0.05343
# Poissons Ratio (z) = 0.25052 0.04470
#
# Static dielectric constant tensor:
#      x y z
#    x 2.222420 0.023210 0.010870 
#    y 0.023210 2.154220 -0.019650 
#    z 0.010870 -0.019650 2.234050 
# 
# From -- ./inp_files/156318.got.cif
#   From: 2010.05.17/outbox.cif.g08.bks.cpg/sg2_79_cif.got.tgz:156318.got - 2010.06.03 11:33:40.
