data_PCOD9065765
_publ_section_title
;
Structure prediction by ZEFSAII (Michael W. Deem and Ramdas Pophale) SiO2 
 PCOD9065765
Probable space group: P -1
;
_chemical_formula_sum "Si O2"
_cell_formula_units_Z 15
_cell_length_a 7.855229
_cell_length_b 7.106284
_cell_length_c 13.492087
_cell_angle_alpha 94.293764
_cell_angle_beta 91.193460
_cell_angle_gamma 51.793429
_cell_volume 589.840312
_symmetry_space_group_name_H-M "P -1"
_symmetry_group_IT_number 2
_symmetry_cell_setting 'triclinic'
loop_
_space_group_symop_operation_xyz
x,y,z
-x,-y,-z
loop_
_atom_site_type_symbol
_atom_site_label
_atom_site_fract_x
_atom_site_fract_y
_atom_site_fract_z
Si Si1 0.701989 0.843069 0.572133
Si Si2 0.441354 0.309341 0.916549
Si Si3 0.221976 0.024027 0.222201
Si Si4 0.994422 0.711209 0.962846
Si Si5 0.211418 0.847892 0.689687
Si Si6 0.083749 0.709041 0.432900
Si Si7 0.500000 0.500000 0.500000
Si Si8 0.661910 0.060168 0.111296
O O1 0.660699 0.956829 0.683786
O O2 0.756257 0.583321 0.577566
O O3 0.922285 0.772767 0.523703
O O4 0.500000 0.000000 0.500000
O O5 0.234540 0.584015 0.923124
O O6 0.625480 0.237606 0.837129
O O7 0.377395 0.137239 0.880560
O O8 0.512035 0.240021 0.028649
O O9 0.163518 0.183850 0.129336
O O10 0.989580 0.126939 0.265881
O O11 0.000000 0.500000 0.000000
O O12 0.900302 0.905399 0.056385
O O13 0.358896 0.627972 0.607150
O O14 0.351683 0.830327 0.780582
O O15 0.083597 0.111252 0.645687
O O16 0.277035 0.727710 0.447376
#
# Coordination Sequence:
#
# PCOD9065765 Si02
#       8
#     2   2   2   2   2   2   1   2
#     4  11  26  47  72 105 141 192 250 305 359 445
#     4   9  20  40  70 101 140 180 242 295 349 440
#     4  11  25  42  69 107 145 187 241 299 371 429
#     4   9  20  41  68 102 142 179 237 299 354 431
#     4  12  27  46  70 106 149 197 240 307 378 427
#     4  11  27  46  72  99 142 192 251 303 362 441
#     4  12  26  48  70 100 152 192 248 308 366 436
#     4   9  21  41  68  99 138 187 236 296 360 435
#
# _framework density 25.430613000000001
#
# number of rings (size 3 to 8) (size 9 to 14) (size 15 to 20)
#    0.000    1.600    1.333    2.000    9.333    5.333 
#    0.000    1.333    0.000    0.000    0.000    0.000 
#    0.000    0.000    0.000    0.000    0.000    0.000 
#
# Total GULP energy -83617.009640 kJ/mol
# GULP energy per Si atom -5574.467309 kJ/mol
# Density = 2.537273 g / cm^3
# Si number density = 25.430613 Si / 1000 Ang^3
#
#
#
# Elastic Constant Matrix: (Units=GPa)
#
#
# Indices 1 2 3 4 5 6 
#
# 1 64.5779 24.3114 21.4077 16.3419 -13.6425 -24.5013
# 2 24.3114 114.1023 43.4236 16.5966 -9.0670 -14.3801
# 3 21.4077 43.4236 167.5649 20.7285 4.8381 -7.0529
# 4 16.3419 16.5966 20.7285 39.7750 -6.9288 -17.3846
# 5 -13.6425 -9.0670 4.8381 -6.9288 41.1895 6.6414
# 6 -24.5013 -14.3801 -7.0529 -17.3846 6.6414 47.0697
#
#
#
# Elastic Compliance Matrix: (Units=1/GPa)
#
#
# Indices 1 2 3 4 5 6 
#
# 1 0.021936 -0.002134 -0.001722 -0.002447 0.005155 0.008877
# 2 -0.002134 0.010557 -0.002256 -0.001685 0.001445 0.000950
# 3 -0.001722 -0.002256 0.007157 -0.003045 -0.002206 -0.001327
# 4 -0.002447 -0.001685 -0.003045 0.033173 0.003216 0.009553
# 5 0.005155 0.001445 -0.002206 0.003216 0.027078 0.000162
# 6 0.008877 0.000950 -0.001327 0.009553 0.000162 0.029463
#
#
# Mechanical properties :
#
#
# Convention : Reuss Voigt Hill
#
# Bulk Modulus (GPa) = 36.46325 58.28117 47.37221
# Shear Modulus (GPa) = 33.17193 42.74701 37.95947
#
# Velocity S-wave (km/s) = 3.61558 4.10436 3.86770
# Velocity P-wave (km/s) = 5.63909 6.74007 6.21401
#
# Compressibility (1/GPa) = 0.02742487
#
# Stress axis : x y z
#
# Youngs Moduli (GPa) = 45.58792 94.72178 139.72115
#
# Poissons Ratio (x) = 0.20215 0.24059
# Poissons Ratio (y) = 0.09729 0.31528
# Poissons Ratio (z) = 0.07850 0.21374
#
# Static dielectric constant tensor:
#      x y z
#    x 1.945510 -0.177200 -0.070360 
#    y -0.177200 1.905540 -0.032730 
#    z -0.070360 -0.032730 1.944940 
# 
# From -- ./inp_files/382298.got.cif
#   From: 2010.05.17/outbox.cif.g08.bks.cpg/sg2_192_cif.got.tgz:382298.got - 2010.06.03 11:33:40.
