data_PCOD9065525
_publ_section_title
;
Structure prediction by ZEFSAII (Michael W. Deem and Ramdas Pophale) SiO2 
 PCOD9065525
Probable space group: P -1
;
_chemical_formula_sum "Si O2"
_cell_formula_units_Z 10
_cell_length_a 8.195786
_cell_length_b 10.755698
_cell_length_c 10.726992
_cell_angle_alpha 55.435523
_cell_angle_beta 40.872017
_cell_angle_gamma 87.201633
_cell_volume 361.115552
_symmetry_space_group_name_H-M "P -1"
_symmetry_group_IT_number 2
_symmetry_cell_setting 'triclinic'
loop_
_space_group_symop_operation_xyz
x,y,z
-x,-y,-z
loop_
_atom_site_type_symbol
_atom_site_label
_atom_site_fract_x
_atom_site_fract_y
_atom_site_fract_z
Si Si1 0.218587 0.713198 0.332934
Si Si2 0.989344 0.675052 0.889191
Si Si3 0.106193 0.098642 0.018977
Si Si4 0.368404 0.317444 0.297935
Si Si5 0.635490 0.936571 0.721597
O O1 0.000000 0.500000 0.500000
O O2 0.934096 0.701756 0.567794
O O3 0.497531 0.762591 0.240120
O O4 0.433720 0.883247 0.996410
O O5 0.964853 0.758035 0.984091
O O6 0.627084 0.534572 0.101782
O O7 0.281708 0.885699 0.516588
O O8 0.000000 0.500000 0.000000
O O9 0.845913 0.887346 0.373492
O O10 0.000000 0.000000 0.000000
O O11 0.561192 0.281313 0.117034
O O12 0.000000 0.000000 0.500000
#
# Coordination Sequence:
#
# PCOD9065525 Si02
#       5
#     2   2   2   2   2
#     4  12  24  51  86 119 156 217 280 339 401 490
#     4  11  26  51  79 121 167 215 270 340 423 483
#     4  11  26  50  79 118 166 209 274 338 412 487
#     4  11  25  49  78 119 157 212 281 332 411 483
#     4  11  24  48  80 119 158 212 278 342 395 496
#
# _framework density 27.691967999999999
#
# number of rings (size 3 to 8) (size 9 to 14) (size 15 to 20)
#    0.000    0.800    6.000    0.600    0.000   10.400 
#    3.600    2.000    0.000    0.000    0.000    0.000 
#    0.000    0.000    0.000    0.000    0.000    0.000 
#
# Total GULP energy -56066.629796 kJ/mol
# GULP energy per Si atom -5606.662980 kJ/mol
# Density = 2.762894 g / cm^3
# Si number density = 27.691968 Si / 1000 Ang^3
#
#
#
# Elastic Constant Matrix: (Units=GPa)
#
#
# Indices 1 2 3 4 5 6 
#
# 1 157.2576 102.4421 56.9331 6.7047 -4.0082 9.6358
# 2 102.4421 268.8384 68.1315 6.6084 14.8404 15.2980
# 3 56.9331 68.1315 85.6483 -21.0933 -1.7461 -6.0830
# 4 6.7047 6.6084 -21.0933 60.9978 4.3259 4.1258
# 5 -4.0082 14.8404 -1.7461 4.3259 50.5788 -13.2656
# 6 9.6358 15.2980 -6.0830 4.1258 -13.2656 63.6864
#
#
#
# Elastic Compliance Matrix: (Units=1/GPa)
#
#
# Indices 1 2 3 4 5 6 
#
# 1 0.010160 -0.002398 -0.005586 -0.002809 0.001282 -0.001046
# 2 -0.002398 0.005782 -0.003495 -0.001284 -0.002361 -0.001768
# 3 -0.005586 -0.003495 0.020338 0.007684 0.001532 0.003449
# 4 -0.002809 -0.001284 0.007684 0.019594 -0.001274 -0.000067
# 5 0.001282 -0.002361 0.001532 -0.001274 0.022092 0.005204
# 6 -0.001046 -0.001768 0.003449 -0.000067 0.005204 0.017703
#
#
# Mechanical properties :
#
#
# Convention : Reuss Voigt Hill
#
# Bulk Modulus (GPa) = 75.06991 107.41751 91.24371
# Shear Modulus (GPa) = 40.62820 54.00179 47.31500
#
# Velocity S-wave (km/s) = 3.83449 4.42077 4.13803
# Velocity P-wave (km/s) = 6.83902 8.05804 7.47343
#
# Compressibility (1/GPa) = 0.01332092
#
# Stress axis : x y z
#
# Youngs Moduli (GPa) = 98.42536 172.95391 49.16972
#
# Poissons Ratio (x) = 0.41476 0.27466
# Poissons Ratio (y) = 0.23603 0.17187
# Poissons Ratio (z) = 0.54979 0.60454
#
# Static dielectric constant tensor:
#      x y z
#    x 2.268810 0.050510 -0.048210 
#    y 0.050510 2.222800 -0.019270 
#    z -0.048210 -0.019270 2.173490 
# 
# From -- ./inp_files/383996.got.cif
#   From: 2010.05.17/outbox.cif.g08.bks.cpg/sg2_192_cif.got.tgz:383996.got - 2010.06.03 11:33:40.
