data_PCOD9065688
_publ_section_title
;
Structure prediction by ZEFSAII (Michael W. Deem and Ramdas Pophale) SiO2 
 PCOD9065688
Probable space group: P -1
;
_chemical_formula_sum "Si O2"
_cell_formula_units_Z 13
_cell_length_a 6.520611
_cell_length_b 9.351187
_cell_length_c 18.305585
_cell_angle_alpha 146.685962
_cell_angle_beta 62.941218
_cell_angle_gamma 118.545072
_cell_volume 534.937371
_symmetry_space_group_name_H-M "P -1"
_symmetry_group_IT_number 2
_symmetry_cell_setting 'triclinic'
loop_
_space_group_symop_operation_xyz
x,y,z
-x,-y,-z
loop_
_atom_site_type_symbol
_atom_site_label
_atom_site_fract_x
_atom_site_fract_y
_atom_site_fract_z
Si Si1 0.527738 0.254286 0.549781
Si Si2 0.001395 0.349831 0.336606
Si Si3 0.389917 0.572921 0.971824
Si Si4 0.960020 0.751915 0.344405
Si Si5 0.000564 0.870835 0.221694
Si Si6 0.500000 0.500000 0.500000
Si Si7 0.831739 0.764623 0.885432
O O1 0.496867 0.285012 0.480007
O O2 0.789299 0.401081 0.585762
O O3 0.315493 0.384285 0.669479
O O4 0.500000 0.000000 0.500000
O O5 0.747604 0.420259 0.396972
O O6 0.095872 0.173782 0.183693
O O7 0.013496 0.175542 0.331689
O O8 0.241449 0.306842 0.844903
O O9 0.578227 0.721879 0.946408
O O10 0.500000 0.500000 0.000000
O O11 0.208398 0.756912 0.101710
O O12 0.102615 0.525272 0.241357
O O13 0.025788 0.848094 0.293774
O O14 0.000000 0.000000 0.500000
O O15 0.000000 0.000000 0.000000
#
# Coordination Sequence:
#
# PCOD9065688 Si02
#       7
#     2   2   2   2   2   1   2
#     4  12  28  50  79 118 162 217 275 339 419 507
#     4  12  28  50  79 121 160 213 278 347 418 508
#     4  11  24  50  83 117 163 213 275 347 417 497
#     4  12  27  51  80 116 168 223 271 346 429 500
#     4  11  27  48  84 122 155 218 283 341 419 508
#     4  12  28  50  80 114 164 214 278 338 424 490
#     4  12  27  50  80 117 162 218 273 342 424 495
#
# _framework density 24.301908999999998
#
# number of rings (size 3 to 8) (size 9 to 14) (size 15 to 20)
#    0.000    0.308    3.077    4.154    6.462    3.077 
#    0.000    0.000    0.000    0.000    0.000    0.000 
#    0.000    0.000    0.000    0.000    0.000    0.000 
#
# Total GULP energy -72442.433440 kJ/mol
# GULP energy per Si atom -5572.494880 kJ/mol
# Density = 2.424660 g / cm^3
# Si number density = 24.301909 Si / 1000 Ang^3
#
#
#
# Elastic Constant Matrix: (Units=GPa)
#
#
# Indices 1 2 3 4 5 6 
#
# 1 79.0226 60.7575 30.2863 -6.9659 -4.4743 -2.0394
# 2 60.7575 154.1708 57.0748 -13.8478 -3.9618 -2.6241
# 3 30.2863 57.0748 102.1052 -14.6151 12.8917 12.4381
# 4 -6.9659 -13.8478 -14.6151 52.7842 2.2008 -10.8340
# 5 -4.4743 -3.9618 12.8917 2.2008 33.5011 -9.0357
# 6 -2.0394 -2.6241 12.4381 -10.8340 -9.0357 69.7526
#
#
#
# Elastic Compliance Matrix: (Units=1/GPa)
#
#
# Indices 1 2 3 4 5 6 
#
# 1 0.018697 -0.006323 -0.002503 0.000232 0.003016 0.001182
# 2 -0.006323 0.010840 -0.004551 0.000954 0.002533 0.001511
# 3 -0.002503 -0.004551 0.014788 0.002164 -0.007659 -0.003537
# 4 0.000232 0.000954 0.002164 0.020426 -0.001313 0.002659
# 5 0.003016 0.002533 -0.007659 -0.001313 0.035178 0.005902
# 6 0.001182 0.001511 -0.003537 0.002659 0.005902 0.016236
#
#
# Mechanical properties :
#
#
# Convention : Reuss Voigt Hill
#
# Bulk Modulus (GPa) = 56.91372 70.17062 63.54217
# Shear Modulus (GPa) = 33.60775 43.68623 38.64699
#
# Velocity S-wave (km/s) = 3.72281 4.24447 3.99217
# Velocity P-wave (km/s) = 6.47683 7.27721 6.88866
#
# Compressibility (1/GPa) = 0.01757045
#
# Stress axis : x y z
#
# Youngs Moduli (GPa) = 53.48311 92.25478 67.62395
#
# Poissons Ratio (x) = 0.58337 0.16925
# Poissons Ratio (y) = 0.33820 0.30774
# Poissons Ratio (z) = 0.13386 0.41983
#
# Static dielectric constant tensor:
#      x y z
#    x 1.962690 0.002020 0.061640 
#    y 0.002020 2.047200 -0.076940 
#    z 0.061640 -0.076940 1.970370 
# 
# From -- ./inp_files/548474.got.cif
#   From: 2010.05.17/outbox.cif.g08.bks.cpg/sg2_275_cif.got.tgz:548474.got - 2010.06.03 11:33:40.
