data_PCOD9065476
_publ_section_title
;
Structure prediction by ZEFSAII (Michael W. Deem and Ramdas Pophale) SiO2 
 PCOD9065476
Probable space group: P -1
;
_chemical_formula_sum "Si O2"
_cell_formula_units_Z 13
_cell_length_a 6.255210
_cell_length_b 6.219247
_cell_length_c 14.644422
_cell_angle_alpha 84.421964
_cell_angle_beta 87.132636
_cell_angle_gamma 77.308580
_cell_volume 552.915108
_symmetry_space_group_name_H-M "P -1"
_symmetry_group_IT_number 2
_symmetry_cell_setting 'triclinic'
loop_
_space_group_symop_operation_xyz
x,y,z
-x,-y,-z
loop_
_atom_site_type_symbol
_atom_site_label
_atom_site_fract_x
_atom_site_fract_y
_atom_site_fract_z
Si Si1 0.324163 0.889775 0.057601
Si Si2 0.880947 0.139935 0.413253
Si Si3 0.813944 0.814309 0.280607
Si Si4 0.500000 0.500000 0.500000
Si Si5 0.902276 0.155642 0.121258
Si Si6 0.439669 0.476973 0.793947
Si Si7 0.788929 0.585266 0.663823
O O1 0.435917 0.682498 0.124275
O O2 0.184339 0.815126 0.981668
O O3 0.163038 0.076606 0.112610
O O4 0.500000 0.000000 0.000000
O O5 0.699735 0.338490 0.447658
O O6 0.067047 0.230139 0.350635
O O7 0.773005 0.984238 0.357449
O O8 0.000000 0.000000 0.500000
O O9 0.625207 0.679059 0.276999
O O10 0.041550 0.643244 0.303788
O O11 0.829481 0.950746 0.182182
O O12 0.680193 0.560955 0.569456
O O13 0.784463 0.372702 0.169143
O O14 0.598537 0.620555 0.742040
#
# Coordination Sequence:
#
# PCOD9065476 Si02
#       7
#     2   2   2   1   2   2   2
#     4  11  24  48  75 112 152 200 248 307 377 438
#     4  12  29  52  76 110 152 194 251 316 374 449
#     4  12  25  50  75 109 155 194 252 311 370 450
#     4  12  26  52  78 106 144 194 256 304 380 440
#     4  11  25  47  75 111 154 195 252 310 366 449
#     4  12  27  49  78 112 150 203 251 305 378 447
#     4  12  27  48  77 110 148 196 254 307 379 449
#
# _framework density 23.511747
#
# number of rings (size 3 to 8) (size 9 to 14) (size 15 to 20)
#    0.000    0.308    4.615    3.692    2.154    6.154 
#    5.538    0.000    0.000    0.000    0.000    0.000 
#    0.000    0.000    0.000    0.000    0.000    0.000 
#
# Total GULP energy -72609.145708 kJ/mol
# GULP energy per Si atom -5585.318901 kJ/mol
# Density = 2.345823 g / cm^3
# Si number density = 23.511747 Si / 1000 Ang^3
#
#
#
# Elastic Constant Matrix: (Units=GPa)
#
#
# Indices 1 2 3 4 5 6 
#
# 1 95.6606 49.3070 41.8870 -6.6838 -12.6724 -8.2870
# 2 49.3070 91.5885 61.5392 -9.0362 -11.9347 -4.9132
# 3 41.8870 61.5392 96.2906 0.6446 0.7309 -6.7725
# 4 -6.6838 -9.0362 0.6446 37.9294 -13.2347 13.5137
# 5 -12.6724 -11.9347 0.7309 -13.2347 58.8762 4.3185
# 6 -8.2870 -4.9132 -6.7725 13.5137 4.3185 30.3012
#
#
#
# Elastic Compliance Matrix: (Units=1/GPa)
#
#
# Indices 1 2 3 4 5 6 
#
# 1 0.015226 -0.005662 -0.002931 0.001708 0.002441 0.001481
# 2 -0.005662 0.024778 -0.013894 0.009488 0.006535 -0.005799
# 3 -0.002931 -0.013894 0.021091 -0.008579 -0.006104 0.006355
# 4 0.001708 0.009488 -0.008579 0.040709 0.013010 -0.019921
# 5 0.002441 0.006535 -0.006104 0.013010 0.022469 -0.008641
# 6 0.001481 -0.005799 0.006355 -0.019921 -0.008641 0.044003
#
#
# Mechanical properties :
#
#
# Convention : Reuss Voigt Hill
#
# Bulk Modulus (GPa) = 62.02646 65.44511 63.73578
# Shear Modulus (GPa) = 22.87033 34.14179 28.50606
#
# Velocity S-wave (km/s) = 3.12223 3.81480 3.48576
# Velocity P-wave (km/s) = 6.27981 6.87743 6.58541
#
# Compressibility (1/GPa) = 0.01612215
#
# Stress axis : x y z
#
# Youngs Moduli (GPa) = 65.67571 40.35777 47.41460
#
# Poissons Ratio (x) = 0.22849 0.13897
# Poissons Ratio (y) = 0.37184 0.65877
# Poissons Ratio (z) = 0.19249 0.56073
#
# Static dielectric constant tensor:
#      x y z
#    x 1.869850 0.006350 0.008600 
#    y 0.006350 1.863030 -0.016350 
#    z 0.008600 -0.016350 1.895030 
# 
# From -- ./inp_files/4513.got.cif
#   From: 2010.05.17/outbox.cif.g08.bks.cpg/sg2_3_cif.got.tgz:4513.got - 2010.06.03 11:33:40.
