data_PCOD9065145
_publ_section_title
;
Structure prediction by ZEFSAII (Michael W. Deem and Ramdas Pophale) SiO2 
 PCOD9065145
Probable space group: P -1
;
_chemical_formula_sum "Si O2"
_cell_formula_units_Z 13
_cell_length_a 14.472168
_cell_length_b 8.608380
_cell_length_c 8.500571
_cell_angle_alpha 147.786628
_cell_angle_beta 74.901154
_cell_angle_gamma 115.755568
_cell_volume 495.625018
_symmetry_space_group_name_H-M "P -1"
_symmetry_group_IT_number 2
_symmetry_cell_setting 'triclinic'
loop_
_space_group_symop_operation_xyz
x,y,z
-x,-y,-z
loop_
_atom_site_type_symbol
_atom_site_label
_atom_site_fract_x
_atom_site_fract_y
_atom_site_fract_z
Si Si1 0.000000 0.500000 0.000000
Si Si2 0.396381 0.960807 0.919455
Si Si3 0.116518 0.048282 0.030072
Si Si4 0.838414 0.497401 0.336042
Si Si5 0.660037 0.680823 0.189526
Si Si6 0.802937 0.413462 0.800646
Si Si7 0.554570 0.394335 0.661344
O O1 0.085554 0.549277 0.149645
O O2 0.916929 0.553363 0.205253
O O3 0.286033 0.695107 0.795669
O O4 0.421655 0.885306 0.665293
O O5 0.500000 0.000000 0.000000
O O6 0.388283 0.297654 0.209771
O O7 0.138698 0.167557 0.302798
O O8 0.184693 0.328521 0.120928
O O9 0.133742 0.725646 0.741552
O O10 0.000000 0.000000 0.000000
O O11 0.567768 0.670010 0.337298
O O12 0.737623 0.053605 0.462510
O O13 0.734166 0.499137 0.035068
O O14 0.599240 0.492657 0.899391
#
# Coordination Sequence:
#
# PCOD9065145 Si02
#       7
#     1   2   2   2   2   2   2
#     4  12  32  48  72 114 148 196 236 314 368 436
#     4  12  26  46  72 105 147 195 231 294 361 444
#     4  12  25  49  76 105 140 203 249 299 348 440
#     4  12  28  49  76 107 149 189 252 295 364 436
#     4  11  25  44  79 105 144 186 237 312 349 431
#     4  12  26  47  74 109 150 191 243 299 375 422
#     4  11  24  47  72 112 138 185 250 287 362 426
#
# _framework density 26.229506000000001
#
# number of rings (size 3 to 8) (size 9 to 14) (size 15 to 20)
#    0.000    0.308    1.538    7.385    6.462    4.923 
#    0.000    0.000    0.000    0.000    0.000    0.000 
#    0.000    0.000    0.000    0.000    0.000    0.000 
#
# Total GULP energy -72650.462497 kJ/mol
# GULP energy per Si atom -5588.497115 kJ/mol
# Density = 2.616981 g / cm^3
# Si number density = 26.229506 Si / 1000 Ang^3
#
#
#
# Elastic Constant Matrix: (Units=GPa)
#
#
# Indices 1 2 3 4 5 6 
#
# 1 180.1203 11.3671 16.9915 -15.2337 -7.1652 32.8605
# 2 11.3671 59.2389 23.1293 -35.7308 7.0672 21.0752
# 3 16.9915 23.1293 73.3715 13.4876 -22.9432 7.0711
# 4 -15.2337 -35.7308 13.4876 22.3359 9.9762 -10.4105
# 5 -7.1652 7.0672 -22.9432 9.9762 30.7501 -2.6859
# 6 32.8605 21.0752 7.0711 -10.4105 -2.6859 52.3891
#
#
#
# Elastic Compliance Matrix: (Units=1/GPa)
#
#
# Indices 1 2 3 4 5 6 
#
# 1 0.006168 -0.001861 0.000771 -0.002131 0.002826 -0.003503
# 2 -0.001861 -0.004763 0.012817 -0.026242 0.018483 -0.002913
# 3 0.000771 0.012817 0.003536 0.021009 -0.007145 -0.002309
# 4 -0.002131 -0.026242 0.021009 -0.021197 0.028639 0.006314
# 5 0.002826 0.018483 -0.007145 0.028639 0.014149 -0.001827
# 6 -0.003503 -0.002913 -0.002309 0.006314 -0.001827 0.023930
#
#
# Mechanical properties :
#
#
# Convention : Reuss Voigt Hill
#
# Bulk Modulus (GPa) = 35.21695 46.18960 40.70328
# Shear Modulus (GPa) = 638.34949 38.51120 338.43035
#
# Velocity S-wave (km/s) = 15.61727 3.83592 11.37131
# Velocity P-wave (km/s) = 18.40257 6.10467 13.70988
#
# Compressibility (1/GPa) = 0.02839542
#
# Stress axis : x y z
#
# Youngs Moduli (GPa) = 162.13472 -209.93929 282.77220
#
# Poissons Ratio (x) = -0.39073 -0.21812
# Poissons Ratio (y) = 0.30176 -3.62431
# Poissons Ratio (z) = -0.12506 2.69081
#
# Static dielectric constant tensor:
#      x y z
#    x 2.040540 -0.009790 0.052560 
#    y -0.009790 2.134670 -0.014780 
#    z 0.052560 -0.014780 1.976110 
# 
# From -- ./inp_files/299924.got.cif
#   From: 2010.05.17/outbox.cif.g08.bks.cpg/sg2_150_cif.got.tgz:299924.got - 2010.06.03 11:33:40.
