data_PCOD9065203
_publ_section_title
;
Structure prediction by ZEFSAII (Michael W. Deem and Ramdas Pophale) SiO2 
 PCOD9065203
Probable space group: P -1
;
_chemical_formula_sum "Si O2"
_cell_formula_units_Z 16
_cell_length_a 9.113938
_cell_length_b 18.240946
_cell_length_c 5.695692
_cell_angle_alpha 103.187517
_cell_angle_beta 122.585496
_cell_angle_gamma 58.170999
_cell_volume 675.796241
_symmetry_space_group_name_H-M "P -1"
_symmetry_group_IT_number 2
_symmetry_cell_setting 'triclinic'
loop_
_space_group_symop_operation_xyz
x,y,z
-x,-y,-z
loop_
_atom_site_type_symbol
_atom_site_label
_atom_site_fract_x
_atom_site_fract_y
_atom_site_fract_z
Si Si1 0.232608 0.632415 0.458974
Si Si2 0.860140 0.756652 0.491779
Si Si3 0.348771 0.076585 0.256041
Si Si4 0.671530 0.520034 0.246528
Si Si5 0.003544 0.393159 0.141995
Si Si6 0.584327 0.653205 0.625141
Si Si7 0.883131 0.016707 0.162494
Si Si8 0.506507 0.171141 0.128304
O O1 0.241847 0.546516 0.508505
O O2 0.449018 0.623533 0.630922
O O3 0.077345 0.715622 0.530759
O O4 0.133774 0.639495 0.127257
O O5 0.797556 0.840805 0.654341
O O6 0.877271 0.679581 0.612541
O O7 0.689245 0.782300 0.169356
O O8 0.472159 0.106493 0.218201
O O9 0.500000 0.000000 0.500000
O O10 0.219993 0.043422 0.979037
O O11 0.587585 0.615739 0.340793
O O12 0.852532 0.483943 0.194373
O O13 0.500000 0.500000 0.000000
O O14 0.181677 0.389450 0.139823
O O15 0.486043 0.755315 0.655024
O O16 0.701637 0.115263 0.098669
O O17 0.000000 0.000000 0.500000
O O18 0.000000 0.000000 0.000000
#
# Coordination Sequence:
#
# PCOD9065203 Si02
#       8
#     2   2   2   2   2   2   2   2
#     4  11  25  47  72 107 152 196 250 322 380 457
#     4  11  24  47  74 106 148 194 259 316 394 465
#     4  12  25  50  82 104 154 207 258 327 401 486
#     4  11  25  47  72 106 153 203 254 313 389 459
#     4  11  24  48  70 107 146 199 255 316 386 462
#     4  12  25  46  75 106 152 196 256 315 382 470
#     4  12  30  50  78 120 158 203 268 329 402 489
#     4  12  27  49  76 111 151 202 262 319 407 467
#
# _framework density 23.675774000000001
#
# number of rings (size 3 to 8) (size 9 to 14) (size 15 to 20)
#    0.000    0.500    5.000    1.875    3.500    2.500 
#    0.000    0.000    0.000    0.000    0.000    0.000 
#    0.000    0.000    0.000    0.000    0.000    0.000 
#
# Total GULP energy -89547.883564 kJ/mol
# GULP energy per Si atom -5596.742723 kJ/mol
# Density = 2.362189 g / cm^3
# Si number density = 23.675774 Si / 1000 Ang^3
#
#
#
# Elastic Constant Matrix: (Units=GPa)
#
#
# Indices 1 2 3 4 5 6 
#
# 1 160.1518 78.4614 37.3177 13.6229 -3.0014 -28.0726
# 2 78.4614 126.6741 63.1148 31.6126 -11.0471 -26.1469
# 3 37.3177 63.1148 112.6060 14.5598 2.6181 1.3207
# 4 13.6229 31.6126 14.5598 62.6232 1.9975 -13.2880
# 5 -3.0014 -11.0471 2.6181 1.9975 36.6889 5.4129
# 6 -28.0726 -26.1469 1.3207 -13.2880 5.4129 56.6812
#
#
#
# Elastic Compliance Matrix: (Units=1/GPa)
#
#
# Indices 1 2 3 4 5 6 
#
# 1 0.009350 -0.005731 -0.000069 0.001442 -0.001397 0.002460
# 2 -0.005731 0.017754 -0.007527 -0.005326 0.005145 0.003787
# 3 -0.000069 -0.007527 0.013217 0.000077 -0.002697 -0.003539
# 4 0.001442 -0.005326 0.000077 0.019059 -0.002973 0.003007
# 5 -0.001397 0.005145 -0.002697 -0.002973 0.029304 -0.001751
# 6 0.002460 0.003787 -0.003539 0.003007 -0.001751 0.021563
#
#
# Mechanical properties :
#
#
# Convention : Reuss Voigt Hill
#
# Bulk Modulus (GPa) = 73.17293 84.13550 78.65422
# Shear Modulus (GPa) = 35.34683 45.90119 40.62401
#
# Velocity S-wave (km/s) = 3.86807 4.40789 4.14677
# Velocity P-wave (km/s) = 7.13601 7.84345 7.49808
#
# Compressibility (1/GPa) = 0.01366626
#
# Stress axis : x y z
#
# Youngs Moduli (GPa) = 106.94849 56.32633 75.66220
#
# Poissons Ratio (x) = 0.32279 0.00526
# Poissons Ratio (y) = 0.61289 0.56951
# Poissons Ratio (z) = 0.00743 0.42397
#
# Static dielectric constant tensor:
#      x y z
#    x 1.934950 -0.008130 -0.029320 
#    y -0.008130 1.866400 -0.005640 
#    z -0.029320 -0.005640 1.935680 
# 
# From -- ./inp_files/48744.got.cif
#   From: 2010.05.17/outbox.cif.g08.bks.cpg/sg2_25_cif.got.tgz:48744.got - 2010.06.03 11:33:40.
