data_PCOD9065980
_publ_section_title
;
Structure prediction by ZEFSAII (Michael W. Deem and Ramdas Pophale) SiO2 
 PCOD9065980
Probable space group: P -1
;
_chemical_formula_sum "Si O2"
_cell_formula_units_Z 14
_cell_length_a 8.515203
_cell_length_b 9.586926
_cell_length_c 17.825913
_cell_angle_alpha 113.662835
_cell_angle_beta 149.953794
_cell_angle_gamma 54.974899
_cell_volume 580.273884
_symmetry_space_group_name_H-M "P -1"
_symmetry_group_IT_number 2
_symmetry_cell_setting 'triclinic'
loop_
_space_group_symop_operation_xyz
x,y,z
-x,-y,-z
loop_
_atom_site_type_symbol
_atom_site_label
_atom_site_fract_x
_atom_site_fract_y
_atom_site_fract_z
Si Si1 0.492991 0.152367 0.082486
Si Si2 0.278008 0.992820 0.177286
Si Si3 0.732890 0.344130 0.118470
Si Si4 0.713206 0.101177 0.592279
Si Si5 0.374980 0.368309 0.391730
Si Si6 0.764213 0.706249 0.433829
Si Si7 0.560357 0.220148 0.277528
O O1 0.488947 0.299894 0.060362
O O2 0.309418 0.252428 0.106231
O O3 0.879081 0.030291 0.253013
O O4 0.500000 0.000000 0.000000
O O5 0.510913 0.811550 0.280101
O O6 0.560482 0.047377 0.272898
O O7 0.012406 0.153876 0.156947
O O8 0.000000 0.000000 0.000000
O O9 0.995699 0.404729 0.278169
O O10 0.500000 0.500000 0.000000
O O11 0.646587 0.183165 0.501028
O O12 0.536511 0.245435 0.614781
O O13 0.500000 0.000000 0.500000
O O14 0.500000 0.500000 0.500000
O O15 0.367069 0.356233 0.296270
O O16 0.000000 0.500000 0.500000
O O17 0.068683 0.769768 0.577124
#
# Coordination Sequence:
#
# PCOD9065980 Si02
#       7
#     2   2   2   2   2   2   2
#     4  12  26  45  74 105 143 192 242 294 371 432
#     4  11  25  47  71 105 149 192 244 303 367 436
#     4  11  25  48  70 101 146 190 232 297 365 428
#     4  12  22  46  73  97 146 189 237 301 357 426
#     4  11  25  44  70 107 142 182 242 295 358 431
#     4  12  25  45  73 108 146 192 248 302 367 437
#     4  11  25  44  74 108 141 192 242 301 361 440
#
# _framework density 24.126538
#
# number of rings (size 3 to 8) (size 9 to 14) (size 15 to 20)
#    0.000    0.571    4.286    3.000    4.000    3.429 
#    0.000    3.571    0.000    0.000    0.000    0.000 
#    0.000    0.000    0.000    0.000    0.000    0.000 
#
# Total GULP energy -78000.514082 kJ/mol
# GULP energy per Si atom -5571.465292 kJ/mol
# Density = 2.407162 g / cm^3
# Si number density = 24.126538 Si / 1000 Ang^3
#
#
#
# Elastic Constant Matrix: (Units=GPa)
#
#
# Indices 1 2 3 4 5 6 
#
# 1 95.8891 37.7907 6.1446 5.4324 -27.5924 20.6208
# 2 37.7907 141.2036 68.5504 -4.6300 -25.6736 27.6236
# 3 6.1446 68.5504 128.1690 10.0707 -27.4488 21.3346
# 4 5.4324 -4.6300 10.0707 57.6271 -1.8239 -0.4362
# 5 -27.5924 -25.6736 -27.4488 -1.8239 43.6563 -3.4923
# 6 20.6208 27.6236 21.3346 -0.4362 -3.4923 32.3978
#
#
#
# Elastic Compliance Matrix: (Units=1/GPa)
#
#
# Indices 1 2 3 4 5 6 
#
# 1 0.016875 -0.003023 0.005118 -0.002453 0.011175 -0.010363
# 2 -0.003023 0.011588 -0.005201 0.002135 0.001375 -0.004354
# 3 0.005118 -0.005201 0.013417 -0.003046 0.007938 -0.006844
# 4 -0.002453 0.002135 -0.003046 0.018261 -0.001298 0.001852
# 5 0.011175 0.001375 0.007938 -0.001298 0.034933 -0.009764
# 6 -0.010363 -0.004354 -0.006844 0.001852 -0.009764 0.044654
#
#
# Mechanical properties :
#
#
# Convention : Reuss Voigt Hill
#
# Bulk Modulus (GPa) = 28.03551 65.58146 46.80848
# Shear Modulus (GPa) = 31.68003 43.58799 37.63401
#
# Velocity S-wave (km/s) = 3.62757 4.25507 3.95379
# Velocity P-wave (km/s) = 5.40288 7.16813 6.34718
#
# Compressibility (1/GPa) = 0.03566905
#
# Stress axis : x y z
#
# Youngs Moduli (GPa) = 59.25941 86.29750 74.53162
#
# Poissons Ratio (x) = 0.26084 -0.38149
# Poissons Ratio (y) = 0.17911 0.38766
# Poissons Ratio (z) = -0.30332 0.44886
#
# Static dielectric constant tensor:
#      x y z
#    x 2.416960 -0.334040 -0.146120 
#    y -0.334040 2.123920 0.127430 
#    z -0.146120 0.127430 2.008550 
# 
# From -- ./inp_files/158105.got.cif
#   From: 2010.05.17/outbox.cif.g08.bks.cpg/sg2_80_cif.got.tgz:158105.got - 2010.06.03 11:33:40.
