data_PCOD9065724
_publ_section_title
;
Structure prediction by ZEFSAII (Michael W. Deem and Ramdas Pophale) SiO2 
 PCOD9065724
Probable space group: P -1
;
_chemical_formula_sum "Si O2"
_cell_formula_units_Z 14
_cell_length_a 10.202521
_cell_length_b 11.274142
_cell_length_c 10.282725
_cell_angle_alpha 105.208218
_cell_angle_beta 77.590068
_cell_angle_gamma 40.606105
_cell_volume 558.551610
_symmetry_space_group_name_H-M "P -1"
_symmetry_group_IT_number 2
_symmetry_cell_setting 'triclinic'
loop_
_space_group_symop_operation_xyz
x,y,z
-x,-y,-z
loop_
_atom_site_type_symbol
_atom_site_label
_atom_site_fract_x
_atom_site_fract_y
_atom_site_fract_z
Si Si1 0.484010 0.647196 0.270130
Si Si2 0.652934 0.143178 0.927167
Si Si3 0.907570 0.699703 0.694644
Si Si4 0.009766 0.893052 0.096310
Si Si5 0.762063 0.785424 0.470633
Si Si6 0.845564 0.322534 0.713438
Si Si7 0.467476 0.378172 0.459673
O O1 0.397280 0.787265 0.196896
O O2 0.282327 0.690812 0.337673
O O3 0.481422 0.710644 0.429611
O O4 0.784788 0.354136 0.100637
O O5 0.880208 0.054035 0.911465
O O6 0.385717 0.396604 0.127182
O O7 0.732620 0.940106 0.872681
O O8 0.035290 0.486608 0.686588
O O9 0.168242 0.570107 0.550095
O O10 0.736947 0.786671 0.632314
O O11 0.081535 0.790917 0.196120
O O12 0.688371 0.152119 0.247098
O O13 0.909589 0.797572 0.428474
O O14 0.500000 0.000000 0.500000
O O15 0.500000 0.500000 0.500000
#
# Coordination Sequence:
#
# PCOD9065724 Si02
#       7
#     2   2   2   2   2   2   2
#     4   9  21  37  65  97 131 168 197 265 328 372
#     4   9  19  39  62  94 130 154 212 268 307 387
#     4  11  25  41  61 100 122 159 227 260 305 389
#     4   9  19  37  60  98 134 163 207 253 321 390
#     4  11  25  45  65  83 128 173 212 270 312 369
#     4   9  19  39  65  91 123 170 207 254 324 375
#     4  12  22  36  62  98 130 167 210 256 323 387
#
# _framework density 25.064827999999999
#
# number of rings (size 3 to 8) (size 9 to 14) (size 15 to 20)
#    0.000    2.000    1.429    3.429    4.000    2.286 
#    2.571    0.714    0.000    0.000    0.000    0.000 
#    0.000    0.000    0.000    0.000    0.000    0.000 
#
# Total GULP energy -78314.108712 kJ/mol
# GULP energy per Si atom -5593.864908 kJ/mol
# Density = 2.500778 g / cm^3
# Si number density = 25.064828 Si / 1000 Ang^3
#
#
#
# Elastic Constant Matrix: (Units=GPa)
#
#
# Indices 1 2 3 4 5 6 
#
# 1 60.6129 32.8328 2.8424 -0.6238 -2.7474 -13.7301
# 2 32.8328 124.3270 19.4844 13.6543 11.3347 -13.7410
# 3 2.8424 19.4844 82.0405 13.3447 8.8621 -16.1912
# 4 -0.6238 13.6543 13.3447 40.9462 9.4134 6.1954
# 5 -2.7474 11.3347 8.8621 9.4134 31.4532 14.1608
# 6 -13.7301 -13.7410 -16.1912 6.1954 14.1608 37.5248
#
#
#
# Elastic Compliance Matrix: (Units=1/GPa)
#
#
# Indices 1 2 3 4 5 6 
#
# 1 0.020595 -0.005082 0.001611 0.000491 0.000239 0.006199
# 2 -0.005082 0.010742 -0.000470 -0.002956 -0.005253 0.004342
# 3 0.001611 -0.000470 0.016074 -0.004959 -0.007727 0.011088
# 4 0.000491 -0.002956 -0.004959 0.028750 -0.003123 -0.006611
# 5 0.000239 -0.005253 -0.007727 -0.003123 0.046879 -0.022345
# 6 0.006199 0.004342 0.011088 -0.006611 -0.022345 0.044815
#
#
# Mechanical properties :
#
#
# Convention : Reuss Voigt Hill
#
# Bulk Modulus (GPa) = 25.29706 41.92218 33.60962
# Shear Modulus (GPa) = 26.46708 36.10624 31.28666
#
# Velocity S-wave (km/s) = 3.25306 3.79953 3.53686
# Velocity P-wave (km/s) = 4.92183 6.00086 5.48793
#
# Compressibility (1/GPa) = 0.03953029
#
# Stress axis : x y z
#
# Youngs Moduli (GPa) = 48.55448 93.08904 62.21085
#
# Poissons Ratio (x) = 0.47307 -0.10024
# Poissons Ratio (y) = 0.24675 0.02925
# Poissons Ratio (z) = -0.07823 0.04377
#
# Static dielectric constant tensor:
#      x y z
#    x 1.960010 -0.000140 -0.007910 
#    y -0.000140 2.054030 -0.023360 
#    z -0.007910 -0.023360 2.008530 
# 
# From -- ./inp_files/235375.got.cif
#   From: 2010.05.17/outbox.cif.g08.bks.cpg/sg2_118_cif.got.tgz:235375.got - 2010.06.03 11:33:40.
