data_PCOD9065537
_publ_section_title
;
Structure prediction by ZEFSAII (Michael W. Deem and Ramdas Pophale) SiO2 
 PCOD9065537
Probable space group: P -1
;
_chemical_formula_sum "Si O2"
_cell_formula_units_Z 14
_cell_length_a 9.320479
_cell_length_b 22.366423
_cell_length_c 9.885413
_cell_angle_alpha 41.469982
_cell_angle_beta 136.238532
_cell_angle_gamma 151.655538
_cell_volume 634.881393
_symmetry_space_group_name_H-M "P -1"
_symmetry_group_IT_number 2
_symmetry_cell_setting 'triclinic'
loop_
_space_group_symop_operation_xyz
x,y,z
-x,-y,-z
loop_
_atom_site_type_symbol
_atom_site_label
_atom_site_fract_x
_atom_site_fract_y
_atom_site_fract_z
Si Si1 0.727379 0.543174 0.389384
Si Si2 0.327284 0.275738 0.452724
Si Si3 0.620760 0.186427 0.735196
Si Si4 0.118854 0.899476 0.804213
Si Si5 0.825841 0.071025 0.655788
Si Si6 0.314468 0.574509 0.161393
Si Si7 0.129851 0.125976 0.033332
O O1 0.572240 0.435165 0.347280
O O2 0.501631 0.553267 0.253261
O O3 0.747418 0.481964 0.634439
O O4 0.064698 0.688387 0.338763
O O5 0.504064 0.237806 0.643647
O O6 0.109020 0.195253 0.311315
O O7 0.099792 0.215645 0.527081
O O8 0.353154 0.058683 0.673771
O O9 0.689234 0.128857 0.984873
O O10 0.933350 0.862677 0.877373
O O11 0.500000 0.000000 0.500000
O O12 0.875212 0.983439 0.792236
O O13 0.876524 0.085864 0.825949
O O14 0.545340 0.733441 0.039885
O O15 0.000000 0.500000 0.000000
#
# Coordination Sequence:
#
# PCOD9065537 Si02
#       7
#     2   2   2   2   2   2   2
#     4  11  26  47  68 102 140 183 234 282 342 417
#     4  12  26  44  66 108 137 180 226 284 349 409
#     4  11  25  45  69  98 141 179 228 285 340 413
#     4  11  26  43  74 102 135 178 231 283 348 407
#     4  11  27  42  74 102 141 179 229 288 346 403
#     4  11  26  44  73  97 139 187 233 280 344 411
#     4  11  24  49  68 106 136 179 235 284 338 417
#
# _framework density 22.051361
#
# number of rings (size 3 to 8) (size 9 to 14) (size 15 to 20)
#    0.000    0.857    4.286    0.857    8.000    1.714 
#    0.000    0.000    0.000    0.000    0.000    0.000 
#    0.000    0.000    0.000    0.000    0.000    0.000 
#
# Total GULP energy -78387.007968 kJ/mol
# GULP energy per Si atom -5599.071998 kJ/mol
# Density = 2.200117 g / cm^3
# Si number density = 22.051361 Si / 1000 Ang^3
#
#
#
# Elastic Constant Matrix: (Units=GPa)
#
#
# Indices 1 2 3 4 5 6 
#
# 1 54.8967 20.3101 17.8733 8.7821 -15.5174 12.1447
# 2 20.3101 152.9833 39.9908 -3.2857 -21.4314 16.7121
# 3 17.8733 39.9908 70.8654 17.4405 -9.3138 13.8329
# 4 8.7821 -3.2857 17.4405 37.0942 4.0825 3.1123
# 5 -15.5174 -21.4314 -9.3138 4.0825 28.4996 -0.0716
# 6 12.1447 16.7121 13.8329 3.1123 -0.0716 40.5268
#
#
#
# Elastic Compliance Matrix: (Units=1/GPa)
#
#
# Indices 1 2 3 4 5 6 
#
# 1 0.025167 -0.000468 -0.001496 -0.006278 0.013746 -0.006332
# 2 -0.000468 0.008665 -0.004429 0.002651 0.004429 -0.002117
# 3 -0.001496 -0.004429 0.020743 -0.009897 0.004041 -0.004038
# 4 -0.006278 0.002651 -0.009897 0.034258 -0.009563 0.001518
# 5 0.013746 0.004429 0.004041 -0.009563 0.048577 -0.006505
# 6 -0.006332 -0.002117 -0.004038 0.001518 -0.006505 0.028696
#
#
# Mechanical properties :
#
#
# Convention : Reuss Voigt Hill
#
# Bulk Modulus (GPa) = 23.92929 48.34375 36.13652
# Shear Modulus (GPa) = 25.93083 34.59553 30.26318
#
# Velocity S-wave (km/s) = 3.43290 3.96518 3.70860
# Velocity P-wave (km/s) = 5.15638 6.55243 5.89587
#
# Compressibility (1/GPa) = 0.04178979
#
# Stress axis : x y z
#
# Youngs Moduli (GPa) = 39.73522 115.40421 48.20887
#
# Poissons Ratio (x) = 0.05396 0.07212
# Poissons Ratio (y) = 0.01858 0.21352
# Poissons Ratio (z) = 0.05944 0.51113
#
# Static dielectric constant tensor:
#      x y z
#    x 1.851730 -0.195030 0.125940 
#    y -0.195030 2.495310 -0.488450 
#    z 0.125940 -0.488450 2.145320 
# 
# From -- ./inp_files/223291.got.cif
#   From: 2010.05.17/outbox.cif.g08.bks.cpg/sg2_112_cif.got.tgz:223291.got - 2010.06.03 11:33:40.
