data_PCOD9065838
_publ_section_title
;
Structure prediction by ZEFSAII (Michael W. Deem and Ramdas Pophale) SiO2 
 PCOD9065838
Probable space group: P -1
;
_chemical_formula_sum "Si O2"
_cell_formula_units_Z 15
_cell_length_a 5.890633
_cell_length_b 12.023797
_cell_length_c 13.820452
_cell_angle_alpha 132.037221
_cell_angle_beta 85.146689
_cell_angle_gamma 69.446978
_cell_volume 604.550349
_symmetry_space_group_name_H-M "P -1"
_symmetry_group_IT_number 2
_symmetry_cell_setting 'triclinic'
loop_
_space_group_symop_operation_xyz
x,y,z
-x,-y,-z
loop_
_atom_site_type_symbol
_atom_site_label
_atom_site_fract_x
_atom_site_fract_y
_atom_site_fract_z
Si Si1 0.848831 0.585111 0.694662
Si Si2 0.389806 0.278205 0.426496
Si Si3 0.375968 0.576892 0.268894
Si Si4 0.671635 0.029679 0.723517
Si Si5 0.910912 0.100154 0.205336
Si Si6 0.717971 0.551447 0.990430
Si Si7 0.000000 0.000000 0.500000
Si Si8 0.970304 0.246867 0.087726
O O1 0.175620 0.446878 0.595436
O O2 0.805128 0.720505 0.859990
O O3 0.747189 0.679672 0.650690
O O4 0.717492 0.474538 0.660646
O O5 0.678312 0.240925 0.367588
O O6 0.430458 0.101246 0.369413
O O7 0.261928 0.785301 0.385869
O O8 0.701022 0.424802 0.157553
O O9 0.217415 0.538195 0.169750
O O10 0.449188 0.236187 0.867795
O O11 0.816779 0.968900 0.786791
O O12 0.869248 0.005670 0.614697
O O13 0.883941 0.186678 0.152764
O O14 0.903886 0.923282 0.086225
O O15 0.500000 0.500000 0.000000
O O16 0.000000 0.500000 0.000000
#
# Coordination Sequence:
#
# PCOD9065838 Si02
#       8
#     2   2   2   2   2   2   1   2
#     4  11  25  43  70 110 150 194 245 311 394 469
#     4  11  25  43  70 110 150 194 245 311 394 469
#     4  12  26  49  74 109 148 198 257 325 381 473
#     4  12  26  49  74 109 148 198 257 325 381 473
#     4  11  25  44  73 111 151 191 244 315 398 469
#     4  12  30  54  78 108 158 214 272 319 389 464
#     4  12  28  50  74 100 158 202 274 310 392 454
#     4  11  25  44  73 111 151 191 244 315 398 469
#
# _framework density 24.811831000000002
#
# number of rings (size 3 to 8) (size 9 to 14) (size 15 to 20)
#    0.000    0.533    6.667    0.000    7.467    1.067 
#    0.000    2.000    0.000    0.000    0.000    0.000 
#    0.000    0.000    0.000    0.000    0.000    0.000 
#
# Total GULP energy -83598.864934 kJ/mol
# GULP energy per Si atom -5573.257662 kJ/mol
# Density = 2.475536 g / cm^3
# Si number density = 24.811831 Si / 1000 Ang^3
#
#
#
# Elastic Constant Matrix: (Units=GPa)
#
#
# Indices 1 2 3 4 5 6 
#
# 1 57.1688 30.5918 21.9363 5.8861 7.4955 -10.3019
# 2 30.5918 112.0788 38.1354 23.4465 2.7296 1.1139
# 3 21.9363 38.1354 84.3610 8.5163 -1.9722 -4.0971
# 4 5.8861 23.4465 8.5163 48.3830 -7.8757 -2.0130
# 5 7.4955 2.7296 -1.9722 -7.8757 40.8004 3.5877
# 6 -10.3019 1.1139 -4.0971 -2.0130 3.5877 41.5328
#
#
#
# Elastic Compliance Matrix: (Units=1/GPa)
#
#
# Indices 1 2 3 4 5 6 
#
# 1 0.023264 -0.005020 -0.003572 -0.000285 -0.004688 0.005944
# 2 -0.005020 0.012798 -0.004090 -0.005112 -0.000929 -0.002159
# 3 -0.003572 -0.004090 0.014684 0.000118 0.001615 0.000538
# 4 -0.000285 -0.005112 0.000118 0.024001 0.004961 0.000813
# 5 -0.004688 -0.000929 0.001615 0.004961 0.026737 -0.003048
# 6 0.005944 -0.002159 0.000538 0.000813 -0.003048 0.025965
#
#
# Mechanical properties :
#
#
# Convention : Reuss Voigt Hill
#
# Bulk Modulus (GPa) = 39.40018 48.32617 43.86318
# Shear Modulus (GPa) = 31.00307 37.00623 34.00465
#
# Velocity S-wave (km/s) = 3.53870 3.86615 3.70604
# Velocity P-wave (km/s) = 5.71057 6.28083 6.00248
#
# Compressibility (1/GPa) = 0.02538059
#
# Stress axis : x y z
#
# Youngs Moduli (GPa) = 42.98474 78.13873 68.10190
#
# Poissons Ratio (x) = 0.39223 0.24329
# Poissons Ratio (y) = 0.21577 0.27857
# Poissons Ratio (z) = 0.15356 0.31962
#
# Static dielectric constant tensor:
#      x y z
#    x 2.023560 0.009340 0.006190 
#    y 0.009340 2.027530 -0.022650 
#    z 0.006190 -0.022650 1.933690 
# 
# From -- ./inp_files/65488.got.cif
#   From: 2010.05.17/outbox.cif.g08.bks.cpg/sg2_33_cif.got.tgz:65488.got - 2010.06.03 11:33:40.
