data_PCOD9065242
_publ_section_title
;
Structure prediction by ZEFSAII (Michael W. Deem and Ramdas Pophale) SiO2 
 PCOD9065242
Probable space group: P -1
;
_chemical_formula_sum "Si O2"
_cell_formula_units_Z 16
_cell_length_a 11.467321
_cell_length_b 10.921043
_cell_length_c 9.106360
_cell_angle_alpha 120.765930
_cell_angle_beta 124.682060
_cell_angle_gamma 42.240202
_cell_volume 621.969293
_symmetry_space_group_name_H-M "P -1"
_symmetry_group_IT_number 2
_symmetry_cell_setting 'triclinic'
loop_
_space_group_symop_operation_xyz
x,y,z
-x,-y,-z
loop_
_atom_site_type_symbol
_atom_site_label
_atom_site_fract_x
_atom_site_fract_y
_atom_site_fract_z
Si Si1 0.234059 0.759466 0.625534
Si Si2 0.868439 0.429291 0.774056
Si Si3 0.375544 0.027077 0.558971
Si Si4 0.638610 0.516628 0.188135
Si Si5 0.094722 0.437425 0.690296
Si Si6 0.734241 0.112077 0.811001
Si Si7 0.967293 0.900361 0.126336
Si Si8 0.529936 0.824421 0.837865
O O1 0.276155 0.623133 0.702918
O O2 0.385213 0.789353 0.746171
O O3 0.219385 0.660106 0.416222
O O4 0.062234 0.963557 0.683019
O O5 0.955927 0.468785 0.732025
O O6 0.015280 0.264491 0.888418
O O7 0.275477 0.378334 0.127282
O O8 0.261799 0.219453 0.678051
O O9 0.500000 0.000000 0.500000
O O10 0.222793 0.031863 0.369253
O O11 0.498477 0.870789 0.670914
O O12 0.796955 0.482760 0.181489
O O13 0.484265 0.727592 0.258692
O O14 0.500000 0.500000 0.000000
O O15 0.000000 0.500000 0.500000
O O16 0.852058 0.171817 0.880474
O O17 0.801754 0.021213 0.964001
O O18 0.500000 0.000000 0.000000
#
# Coordination Sequence:
#
# PCOD9065242 Si02
#       8
#     2   2   2   2   2   2   2   2
#     4  12  24  49  83 116 163 213 276 333 408 491
#     4  12  25  53  83 116 164 217 274 339 414 488
#     4  12  25  48  78 109 158 209 265 325 404 490
#     4  12  25  46  75 116 159 211 267 328 405 481
#     4  12  26  49  79 120 157 209 274 336 404 493
#     4  11  24  47  75 117 158 210 270 329 401 484
#     4  11  25  45  78 123 159 207 270 336 400 484
#     4  12  30  52  80 120 164 212 274 344 416 490
#
# _framework density 25.724741999999999
#
# number of rings (size 3 to 8) (size 9 to 14) (size 15 to 20)
#    0.000    0.250    3.750    5.250    3.500    0.000 
#    4.500    1.875    0.000    0.000    0.000    0.000 
#    0.000    0.000    0.000    0.000    0.000    0.000 
#
# Total GULP energy -89551.041309 kJ/mol
# GULP energy per Si atom -5596.940082 kJ/mol
# Density = 2.566619 g / cm^3
# Si number density = 25.724742 Si / 1000 Ang^3
#
#
#
# Elastic Constant Matrix: (Units=GPa)
#
#
# Indices 1 2 3 4 5 6 
#
# 1 185.5383 54.5708 33.7530 6.8269 9.7818 15.5977
# 2 54.5708 154.6763 47.2069 13.0059 -7.2985 12.7304
# 3 33.7530 47.2069 124.1402 28.4063 3.3033 24.2408
# 4 6.8269 13.0059 28.4063 52.0433 18.3372 -7.0065
# 5 9.7818 -7.2985 3.3033 18.3372 43.5746 -3.2541
# 6 15.5977 12.7304 24.2408 -7.0065 -3.2541 41.4382
#
#
#
# Elastic Compliance Matrix: (Units=1/GPa)
#
#
# Indices 1 2 3 4 5 6 
#
# 1 0.006330 -0.002038 -0.000775 0.000652 -0.002079 -0.001356
# 2 -0.002038 0.008139 -0.002139 -0.001593 0.002613 -0.000546
# 3 -0.000775 -0.002139 0.012200 -0.007547 0.001518 -0.007345
# 4 0.000652 -0.001593 -0.007547 0.028796 -0.011314 0.008639
# 5 -0.002079 0.002613 0.001518 -0.011314 0.028456 -0.000586
# 6 -0.001356 -0.000546 -0.007345 0.008639 -0.000586 0.030522
#
#
# Mechanical properties :
#
#
# Convention : Reuss Voigt Hill
#
# Bulk Modulus (GPa) = 59.64998 81.71291 70.68145
# Shear Modulus (GPa) = 38.48050 49.33282 43.90666
#
# Velocity S-wave (km/s) = 3.87183 4.38393 4.13581
# Velocity P-wave (km/s) = 6.57466 7.58013 7.09523
#
# Compressibility (1/GPa) = 0.01676446
#
# Stress axis : x y z
#
# Youngs Moduli (GPa) = 157.98374 122.86197 81.96466
#
# Poissons Ratio (x) = 0.25039 0.06353
# Poissons Ratio (y) = 0.32196 0.17535
# Poissons Ratio (z) = 0.12246 0.26285
#
# Static dielectric constant tensor:
#      x y z
#    x 2.456950 -0.891460 0.147000 
#    y -0.891460 3.624450 -0.088190 
#    z 0.147000 -0.088190 2.181650 
# 
# From -- ./inp_files/263167.got.cif
#   From: 2010.05.17/outbox.cif.g08.bks.cpg/sg2_132_cif.got.tgz:263167.got - 2010.06.03 11:33:40.
