data_PCOD9065575
_publ_section_title
;
Structure prediction by ZEFSAII (Michael W. Deem and Ramdas Pophale) SiO2 
 PCOD9065575
Probable space group: P -1
;
_chemical_formula_sum "Si O2"
_cell_formula_units_Z 12
_cell_length_a 14.346925
_cell_length_b 5.223032
_cell_length_c 7.459748
_cell_angle_alpha 107.094441
_cell_angle_beta 121.719084
_cell_angle_gamma 69.556006
_cell_volume 441.261859
_symmetry_space_group_name_H-M "P -1"
_symmetry_group_IT_number 2
_symmetry_cell_setting 'triclinic'
loop_
_space_group_symop_operation_xyz
x,y,z
-x,-y,-z
loop_
_atom_site_type_symbol
_atom_site_label
_atom_site_fract_x
_atom_site_fract_y
_atom_site_fract_z
Si Si1 0.788110 0.696917 0.575217
Si Si2 0.211747 0.336376 0.025924
Si Si3 0.533721 0.945343 0.314798
Si Si4 0.207701 0.814163 0.720865
Si Si5 0.400282 0.483691 0.094809
Si Si6 0.984990 0.192356 0.200374
O O1 0.794526 0.775371 0.805608
O O2 0.667750 0.871521 0.425537
O O3 0.804426 0.364292 0.503973
O O4 0.894531 0.772501 0.603225
O O5 0.308414 0.510696 0.170527
O O6 0.091418 0.518980 0.888072
O O7 0.247767 0.091395 0.866349
O O8 0.481143 0.684244 0.178174
O O9 0.500000 0.000000 0.500000
O O10 0.480897 0.193350 0.177909
O O11 0.090990 0.874285 0.728381
O O12 0.303683 0.575993 0.866275
O O13 0.000000 0.000000 0.000000
#
# Coordination Sequence:
#
# PCOD9065575 Si02
#       6
#     2   2   2   2   2   2
#     4  12  26  45  75 112 142 202 250 302 376 444
#     4  11  24  49  74 103 151 196 245 315 369 437
#     4  12  25  45  77 110 151 198 251 302 366 451
#     4  11  25  49  75 109 148 192 252 311 367 446
#     4  11  24  49  73 105 155 195 243 310 368 431
#     4  11  25  47  75 105 152 196 244 314 377 437
#
# _framework density 27.194738000000001
#
# number of rings (size 3 to 8) (size 9 to 14) (size 15 to 20)
#    0.000    0.667    5.000    1.500    2.333    2.000 
#   12.000    0.000    0.000    0.000    0.000    0.000 
#    0.000    0.000    0.000    0.000    0.000    0.000 
#
# Total GULP energy -67104.075402 kJ/mol
# GULP energy per Si atom -5592.006284 kJ/mol
# Density = 2.713284 g / cm^3
# Si number density = 27.194738 Si / 1000 Ang^3
#
#
#
# Elastic Constant Matrix: (Units=GPa)
#
#
# Indices 1 2 3 4 5 6 
#
# 1 113.3766 40.4797 58.1336 -14.5627 40.8179 -15.8359
# 2 40.4797 193.0912 69.2896 1.3035 17.7322 -5.9862
# 3 58.1336 69.2896 92.1351 6.9671 13.7436 -21.4680
# 4 -14.5627 1.3035 6.9671 38.3873 -21.4552 0.3167
# 5 40.8179 17.7322 13.7436 -21.4552 66.5398 3.9136
# 6 -15.8359 -5.9862 -21.4680 0.3167 3.9136 52.4413
#
#
#
# Elastic Compliance Matrix: (Units=1/GPa)
#
#
# Indices 1 2 3 4 5 6 
#
# 1 0.017269 0.000788 -0.010336 0.004257 -0.007390 0.001599
# 2 0.000788 0.007277 -0.006238 0.000743 -0.000811 -0.001429
# 3 -0.010336 -0.006238 0.024084 -0.008097 0.000060 0.006071
# 4 0.004257 0.000743 -0.008097 0.034880 0.010282 -0.002922
# 5 -0.007390 -0.000811 0.000060 0.010282 0.023322 -0.004102
# 6 0.001599 -0.001429 0.006071 -0.002922 -0.004102 0.022198
#
#
# Mechanical properties :
#
#
# Convention : Reuss Voigt Hill
#
# Bulk Modulus (GPa) = 58.62018 81.60096 70.11057
# Shear Modulus (GPa) = 30.06802 46.85368 38.46085
#
# Velocity S-wave (km/s) = 3.32875 4.15528 3.76477
# Velocity P-wave (km/s) = 6.03130 7.28650 6.68841
#
# Compressibility (1/GPa) = 0.01705897
#
# Stress axis : x y z
#
# Youngs Moduli (GPa) = 57.90658 137.41086 41.52071
#
# Poissons Ratio (x) = -0.10829 0.42914
# Poissons Ratio (y) = -0.04564 0.25903
# Poissons Ratio (z) = 0.59850 0.85723
#
# Static dielectric constant tensor:
#      x y z
#    x 2.017790 0.070620 0.054560 
#    y 0.070620 2.145590 0.069150 
#    z 0.054560 0.069150 2.125850 
# 
# From -- ./inp_files/131572.got.cif
#   From: 2010.05.17/outbox.cif.g08.bks.cpg/sg2_66_cif.got.tgz:131572.got - 2010.06.03 11:33:40.
