data_PCOD9065093
_publ_section_title
;
Structure prediction by ZEFSAII (Michael W. Deem and Ramdas Pophale) SiO2 
 PCOD9065093
Probable space group: P -1
;
_chemical_formula_sum "Si O2"
_cell_formula_units_Z 16
_cell_length_a 11.867055
_cell_length_b 8.918891
_cell_length_c 19.367722
_cell_angle_alpha 148.985938
_cell_angle_beta 132.556317
_cell_angle_gamma 48.952458
_cell_volume 761.812428
_symmetry_space_group_name_H-M "P -1"
_symmetry_group_IT_number 2
_symmetry_cell_setting 'triclinic'
loop_
_space_group_symop_operation_xyz
x,y,z
-x,-y,-z
loop_
_atom_site_type_symbol
_atom_site_label
_atom_site_fract_x
_atom_site_fract_y
_atom_site_fract_z
Si Si1 0.854782 0.207941 0.350300
Si Si2 0.553130 0.147737 0.875489
Si Si3 0.431317 0.845806 0.588824
Si Si4 0.590127 0.143675 0.651807
Si Si5 0.518431 0.158876 0.141882
Si Si6 0.085751 0.832539 0.402088
Si Si7 0.907373 0.785017 0.664553
Si Si8 0.109464 0.133161 0.150139
O O1 0.695036 0.117109 0.227157
O O2 0.832390 0.493829 0.504834
O O3 0.935843 0.278810 0.340563
O O4 0.980720 0.965145 0.346372
O O5 0.425470 0.023794 0.728219
O O6 0.571342 0.979272 0.889693
O O7 0.716510 0.050343 0.864778
O O8 0.500000 0.500000 0.000000
O O9 0.500000 0.500000 0.500000
O O10 0.262898 0.881676 0.497650
O O11 0.539403 0.997132 0.642970
O O12 0.538930 0.493872 0.760068
O O13 0.500000 0.000000 0.500000
O O14 0.775868 0.049134 0.684646
O O15 0.500000 0.000000 0.000000
O O16 0.099833 0.480631 0.269545
O O17 0.000000 0.000000 0.500000
O O18 0.933603 0.864512 0.785701
O O19 0.000000 0.000000 0.000000
#
# Coordination Sequence:
#
# PCOD9065093 Si02
#       8
#     2   2   2   2   2   2   2   2
#     4  11  26  45  73 108 145 188 241 296 363 438
#     4  12  28  49  73 101 145 195 247 302 364 435
#     4  12  24  45  75 106 140 189 250 301 354 432
#     4  12  23  43  73 104 140 187 238 298 357 422
#     4  12  29  47  71 105 145 193 245 297 365 432
#     4  12  25  44  74 107 145 192 240 303 361 436
#     4  11  24  47  71 107 144 188 239 299 362 432
#     4  12  29  47  72 107 149 190 243 301 372 435
#
# _framework density 21.002545000000001
#
# number of rings (size 3 to 8) (size 9 to 14) (size 15 to 20)
#    0.000    0.250    5.000    3.000    8.750    0.000 
#    0.000    1.250    0.000    0.000    0.000    0.000 
#    0.000    0.000    0.000    0.000    0.000    0.000 
#
# Total GULP energy -89497.088283 kJ/mol
# GULP energy per Si atom -5593.568018 kJ/mol
# Density = 2.095474 g / cm^3
# Si number density = 21.002545 Si / 1000 Ang^3
#
#
#
# Elastic Constant Matrix: (Units=GPa)
#
#
# Indices 1 2 3 4 5 6 
#
# 1 82.0592 23.0940 32.6965 -1.6794 -14.1760 4.4952
# 2 23.0940 126.0138 59.9031 10.5269 -7.2470 -4.5712
# 3 32.6965 59.9031 172.7489 3.0653 -19.1319 0.6030
# 4 -1.6794 10.5269 3.0653 55.7896 0.8674 1.7844
# 5 -14.1760 -7.2470 -19.1319 0.8674 31.2772 -10.3815
# 6 4.4952 -4.5712 0.6030 1.7844 -10.3815 40.9271
#
#
#
# Elastic Compliance Matrix: (Units=1/GPa)
#
#
# Indices 1 2 3 4 5 6 
#
# 1 0.014167 -0.001646 -0.001582 0.000764 0.004881 -0.000512
# 2 -0.001646 0.009916 -0.003077 -0.001801 0.000205 0.001464
# 3 -0.001582 -0.003077 0.007525 0.000049 0.003360 0.000569
# 4 0.000764 -0.001801 0.000049 0.018343 -0.000994 -0.001338
# 5 0.004881 0.000205 0.003360 -0.000994 0.039465 0.009491
# 6 -0.000512 0.001464 0.000569 -0.001338 0.009491 0.027111
#
#
# Mechanical properties :
#
#
# Convention : Reuss Voigt Hill
#
# Bulk Modulus (GPa) = 52.64107 68.02323 60.33215
# Shear Modulus (GPa) = 36.90900 43.27398 40.09149
#
# Velocity S-wave (km/s) = 4.19663 4.54411 4.37382
# Velocity P-wave (km/s) = 6.97143 7.74534 7.36855
#
# Compressibility (1/GPa) = 0.01899658
#
# Stress axis : x y z
#
# Youngs Moduli (GPa) = 70.58802 100.85194 132.89899
#
# Poissons Ratio (x) = 0.16601 0.21022
# Poissons Ratio (y) = 0.11619 0.40896
# Poissons Ratio (z) = 0.11165 0.31035
#
# Static dielectric constant tensor:
#      x y z
#    x 1.792850 -0.015590 -0.008780 
#    y -0.015590 1.718230 -0.029370 
#    z -0.008780 -0.029370 1.721290 
# 
# From -- ./inp_files/206369.got.cif
#   From: 2010.05.17/outbox.cif.g08.bks.cpg/sg2_104_cif.got.tgz:206369.got - 2010.06.03 11:33:40.
