data_PCOD9065155
_publ_section_title
;
Structure prediction by ZEFSAII (Michael W. Deem and Ramdas Pophale) SiO2 
 PCOD9065155
Probable space group: P -1
;
_chemical_formula_sum "Si O2"
_cell_formula_units_Z 14
_cell_length_a 18.851935
_cell_length_b 6.825366
_cell_length_c 17.713387
_cell_angle_alpha 61.702151
_cell_angle_beta 164.326385
_cell_angle_gamma 112.700746
_cell_volume 517.793359
_symmetry_space_group_name_H-M "P -1"
_symmetry_group_IT_number 2
_symmetry_cell_setting 'triclinic'
loop_
_space_group_symop_operation_xyz
x,y,z
-x,-y,-z
loop_
_atom_site_type_symbol
_atom_site_label
_atom_site_fract_x
_atom_site_fract_y
_atom_site_fract_z
Si Si1 0.435120 0.760604 0.592115
Si Si2 0.810930 0.464581 0.489242
Si Si3 0.858995 0.815646 0.259993
Si Si4 0.115295 0.729478 0.843155
Si Si5 0.818062 0.810366 0.675290
Si Si6 0.422490 0.775213 0.929756
Si Si7 0.265495 0.660793 0.283792
O O1 0.227598 0.684092 0.450650
O O2 0.348539 0.807279 0.407809
O O3 0.687098 0.525690 0.888342
O O4 0.455590 0.993724 0.612725
O O5 0.015703 0.320015 0.662403
O O6 0.520588 0.578808 0.130080
O O7 0.920580 0.674369 0.590863
O O8 0.640032 0.713474 0.094676
O O9 0.115862 0.811245 0.579240
O O10 0.729508 0.087779 0.056803
O O11 0.931557 0.850406 0.703667
O O12 0.816176 0.544164 0.718404
O O13 0.030476 0.806436 0.961409
O O14 0.500000 0.000000 0.000000
O O15 0.500000 0.500000 0.500000
#
# Coordination Sequence:
#
# PCOD9065155 Si02
#       7
#     2   2   2   2   2   2   2
#     4  12  26  44  74 105 146 192 244 304 379 443
#     4  12  27  45  74 107 148 195 251 304 384 441
#     4  12  28  49  76 109 153 202 254 315 373 451
#     4  12  26  45  73 108 145 197 246 313 370 449
#     4  11  25  47  70 105 145 185 244 303 375 450
#     4  12  26  49  77 106 154 202 252 314 378 443
#     4  11  24  47  73 102 144 189 240 304 372 454
#
# _framework density 27.037813
#
# number of rings (size 3 to 8) (size 9 to 14) (size 15 to 20)
#    0.000    0.286    5.714    2.571    4.000    2.857 
#    0.000    0.000    0.000    0.000    0.000    0.000 
#    0.000    0.000    0.000    0.000    0.000    0.000 
#
# Total GULP energy -78510.223273 kJ/mol
# GULP energy per Si atom -5607.873091 kJ/mol
# Density = 2.697627 g / cm^3
# Si number density = 27.037813 Si / 1000 Ang^3
#
#
#
# Elastic Constant Matrix: (Units=GPa)
#
#
# Indices 1 2 3 4 5 6 
#
# 1 130.3800 39.7574 18.2531 3.1753 15.1042 -28.7226
# 2 39.7574 101.3475 18.9553 -17.9571 -9.2842 -20.9388
# 3 18.2531 18.9553 84.7340 -0.0916 1.0970 -21.5536
# 4 3.1753 -17.9571 -0.0916 38.3793 -5.7563 14.7284
# 5 15.1042 -9.2842 1.0970 -5.7563 42.5267 -4.1772
# 6 -28.7226 -20.9388 -21.5536 14.7284 -4.1772 59.3340
#
#
#
# Elastic Compliance Matrix: (Units=1/GPa)
#
#
# Indices 1 2 3 4 5 6 
#
# 1 0.010905 -0.004809 -0.000037 -0.005710 -0.005241 0.004617
# 2 -0.004809 0.014144 -0.002096 0.007749 0.005938 0.000397
# 3 -0.000037 -0.002096 0.013511 -0.002902 -0.000712 0.004820
# 4 -0.005710 0.007749 -0.002902 0.034814 0.007604 -0.009190
# 5 -0.005241 0.005938 -0.000712 0.007604 0.027657 -0.000641
# 6 0.004617 0.000397 0.004820 -0.009190 -0.000641 0.023216
#
#
# Mechanical properties :
#
#
# Convention : Reuss Voigt Hill
#
# Bulk Modulus (GPa) = 40.52524 52.26590 46.39557
# Shear Modulus (GPa) = 34.16305 44.01438 39.08871
#
# Velocity S-wave (km/s) = 3.55847 4.03908 3.80637
# Velocity P-wave (km/s) = 5.64841 6.41287 6.04274
#
# Compressibility (1/GPa) = 0.02467598
#
# Stress axis : x y z
#
# Youngs Moduli (GPa) = 91.70237 70.69897 74.01504
#
# Poissons Ratio (x) = 0.33999 0.00276
# Poissons Ratio (y) = 0.44099 0.15512
# Poissons Ratio (z) = 0.00342 0.14817
#
# Static dielectric constant tensor:
#      x y z
#    x 2.092120 0.040840 0.002740 
#    y 0.040840 2.164640 -0.028480 
#    z 0.002740 -0.028480 2.154010 
# 
# From -- ./inp_files/575259.got.cif
#   From: 2010.05.17/outbox.cif.g08.bks.cpg/sg2_288_cif.got.tgz:575259.got - 2010.06.03 11:33:40.
