data_PCOD9065473
_publ_section_title
;
Structure prediction by ZEFSAII (Michael W. Deem and Ramdas Pophale) SiO2 
 PCOD9065473
Probable space group: P -1
;
_chemical_formula_sum "Si O2"
_cell_formula_units_Z 10
_cell_length_a 5.495151
_cell_length_b 11.758750
_cell_length_c 13.284243
_cell_angle_alpha 146.298243
_cell_angle_beta 127.046040
_cell_angle_gamma 57.430437
_cell_volume 378.811845
_symmetry_space_group_name_H-M "P -1"
_symmetry_group_IT_number 2
_symmetry_cell_setting 'triclinic'
loop_
_space_group_symop_operation_xyz
x,y,z
-x,-y,-z
loop_
_atom_site_type_symbol
_atom_site_label
_atom_site_fract_x
_atom_site_fract_y
_atom_site_fract_z
Si Si1 0.354071 0.527356 0.095048
Si Si2 0.334619 0.873917 0.489970
Si Si3 0.017223 0.025248 0.190678
Si Si4 0.863946 0.315380 0.174781
Si Si5 0.749346 0.338088 0.490348
O O1 0.395544 0.759074 0.314827
O O2 0.519671 0.350756 0.077685
O O3 0.500000 0.500000 0.000000
O O4 0.000000 0.500000 0.000000
O O5 0.636412 0.973193 0.679921
O O6 0.295943 0.691775 0.426381
O O7 0.000000 0.000000 0.500000
O O8 0.954333 0.190946 0.206053
O O9 0.785189 0.114530 0.284005
O O10 0.965577 0.810273 0.967123
O O11 0.952299 0.547194 0.374389
O O12 0.500000 0.500000 0.500000
#
# Coordination Sequence:
#
# PCOD9065473 Si02
#       5
#     2   2   2   2   2
#     4  12  27  48  76 111 157 209 260 322 399 472
#     4  12  27  48  75 110 155 202 260 325 390 467
#     4  11  25  46  74 111 147 196 261 323 386 466
#     4  11  24  48  75 110 152 197 262 318 389 466
#     4  12  24  46  77 107 150 201 256 318 392 460
#
# _framework density 26.398329
#
# number of rings (size 3 to 8) (size 9 to 14) (size 15 to 20)
#    0.000    0.400    4.000    4.200    2.800    1.600 
#    3.600    0.000    0.000    0.000    0.000    0.000 
#    0.000    0.000    0.000    0.000    0.000    0.000 
#
# Total GULP energy -56019.180217 kJ/mol
# GULP energy per Si atom -5601.918022 kJ/mol
# Density = 2.633825 g / cm^3
# Si number density = 26.398329 Si / 1000 Ang^3
#
#
#
# Elastic Constant Matrix: (Units=GPa)
#
#
# Indices 1 2 3 4 5 6 
#
# 1 97.5224 60.0125 33.5789 -26.9670 -29.9232 -21.8662
# 2 60.0125 183.4773 38.1530 -32.4840 -2.7315 -17.7610
# 3 33.5789 38.1530 133.5050 -3.8227 -42.3735 -17.3192
# 4 -26.9670 -32.4840 -3.8227 43.8611 -13.4369 1.6854
# 5 -29.9232 -2.7315 -42.3735 -13.4369 53.8034 -1.2426
# 6 -21.8662 -17.7610 -17.3192 1.6854 -1.2426 53.6102
#
#
#
# Elastic Compliance Matrix: (Units=1/GPa)
#
#
# Indices 1 2 3 4 5 6 
#
# 1 0.026580 -0.004623 0.003758 0.019797 0.022692 0.010427
# 2 -0.004623 0.007604 -0.002077 0.001562 -0.003435 -0.000166
# 3 0.003758 -0.002077 0.012054 0.005616 0.012993 0.004863
# 4 0.019797 0.001562 0.005616 0.044470 0.026841 0.009631
# 5 0.022692 -0.003435 0.012993 0.026841 0.048259 0.012590
# 6 0.010427 -0.000166 0.004863 0.009631 0.012590 0.024411
#
#
# Mechanical properties :
#
#
# Convention : Reuss Voigt Hill
#
# Bulk Modulus (GPa) = 24.78126 75.33262 50.05694
# Shear Modulus (GPa) = 27.36505 49.10563 38.23534
#
# Velocity S-wave (km/s) = 3.22315 4.31766 3.80991
# Velocity P-wave (km/s) = 4.82280 7.31130 6.19332
#
# Compressibility (1/GPa) = 0.04035307
#
# Stress axis : x y z
#
# Youngs Moduli (GPa) = 37.62198 131.51523 82.95720
#
# Poissons Ratio (x) = 0.60802 -0.31174
# Poissons Ratio (y) = 0.17393 0.17232
# Poissons Ratio (z) = -0.14138 0.27319
#
# Static dielectric constant tensor:
#      x y z
#    x 2.052220 -0.096790 0.200720 
#    y -0.096790 2.029150 0.005910 
#    z 0.200720 0.005910 1.973420 
# 
# From -- ./inp_files/18644.got.cif
#   From: 2010.05.17/outbox.cif.g08.bks.cpg/sg2_10_cif.got.tgz:18644.got - 2010.06.03 11:33:40.
