data_PCOD9065785
_publ_section_title
;
Structure prediction by ZEFSAII (Michael W. Deem and Ramdas Pophale) SiO2 
 PCOD9065785
Probable space group: P -1
;
_chemical_formula_sum "Si O2"
_cell_formula_units_Z 14
_cell_length_a 9.142172
_cell_length_b 10.785765
_cell_length_c 8.849303
_cell_angle_alpha 109.140598
_cell_angle_beta 47.447299
_cell_angle_gamma 121.490145
_cell_volume 547.685429
_symmetry_space_group_name_H-M "P -1"
_symmetry_group_IT_number 2
_symmetry_cell_setting 'triclinic'
loop_
_space_group_symop_operation_xyz
x,y,z
-x,-y,-z
loop_
_atom_site_type_symbol
_atom_site_label
_atom_site_fract_x
_atom_site_fract_y
_atom_site_fract_z
Si Si1 0.161692 0.941186 0.938542
Si Si2 0.813277 0.493087 0.244813
Si Si3 0.651194 0.361718 0.787602
Si Si4 0.065249 0.343054 0.452594
Si Si5 0.649334 0.831137 0.838243
Si Si6 0.498971 0.157533 0.380952
Si Si7 0.728727 0.712528 0.214980
O O1 0.986913 0.777179 0.029184
O O2 0.263759 0.037809 0.052472
O O3 0.363497 0.931286 0.707819
O O4 0.000000 0.000000 0.000000
O O5 0.899556 0.582963 0.376226
O O6 0.666159 0.328418 0.328548
O O7 0.673708 0.565771 0.285838
O O8 0.000000 0.500000 0.000000
O O9 0.801397 0.532080 0.714986
O O10 0.429627 0.318692 0.829457
O O11 0.804576 0.287499 0.588320
O O12 0.564060 0.301852 0.990861
O O13 0.164875 0.227254 0.336028
O O14 0.588697 0.879953 0.743003
O O15 0.306431 0.163161 0.617931
#
# Coordination Sequence:
#
# PCOD9065785 Si02
#       7
#     2   2   2   2   2   2   2
#     4  12  29  48  72 106 146 197 245 295 350 436
#     4  12  23  46  78 107 146 182 241 304 369 420
#     4  11  25  42  74 107 147 187 237 298 368 418
#     4  11  25  45  72 113 144 188 237 305 361 432
#     4  12  26  48  71 106 149 190 246 290 361 431
#     4  12  26  47  77 104 146 188 245 299 363 428
#     4  12  25  47  74 106 142 196 237 301 362 424
#
# _framework density 25.56212
#
# number of rings (size 3 to 8) (size 9 to 14) (size 15 to 20)
#    0.000    0.286    5.714    3.000    2.000    4.571 
#    0.000    0.000    0.000    0.000    0.000    0.000 
#    0.000    0.000    0.000    0.000    0.000    0.000 
#
# Total GULP energy -78465.420988 kJ/mol
# GULP energy per Si atom -5604.672928 kJ/mol
# Density = 2.550394 g / cm^3
# Si number density = 25.562120 Si / 1000 Ang^3
#
#
#
# Elastic Constant Matrix: (Units=GPa)
#
#
# Indices 1 2 3 4 5 6 
#
# 1 98.6878 26.9764 47.3984 18.3812 -23.1650 -20.2775
# 2 26.9764 51.9076 17.7575 4.7803 -16.3697 1.4174
# 3 47.3984 17.7575 126.9985 -1.5611 -31.7246 -0.3757
# 4 18.3812 4.7803 -1.5611 39.2684 -12.1442 -3.2749
# 5 -23.1650 -16.3697 -31.7246 -12.1442 43.1189 10.6094
# 6 -20.2775 1.4174 -0.3757 -3.2749 10.6094 41.4891
#
#
#
# Elastic Compliance Matrix: (Units=1/GPa)
#
#
# Indices 1 2 3 4 5 6 
#
# 1 0.017900 -0.007372 -0.006246 -0.007643 -0.002115 0.008881
# 2 -0.007372 0.025406 0.001505 0.002706 0.009175 -0.006590
# 3 -0.006246 0.001505 0.012311 0.005625 0.009055 -0.004864
# 4 -0.007643 0.002706 0.005625 0.032025 0.011084 -0.004083
# 5 -0.002115 0.009175 0.009055 0.011084 0.037796 -0.010056
# 6 0.008881 -0.006590 -0.004864 -0.004083 -0.010056 0.030873
#
#
# Mechanical properties :
#
#
# Convention : Reuss Voigt Hill
#
# Bulk Modulus (GPa) = 31.85620 51.31761 41.58691
# Shear Modulus (GPa) = 26.17793 37.13937 31.65865
#
# Velocity S-wave (km/s) = 3.20361 3.81584 3.52305
# Velocity P-wave (km/s) = 5.11600 6.28756 5.73179
#
# Compressibility (1/GPa) = 0.03139107
#
# Stress axis : x y z
#
# Youngs Moduli (GPa) = 55.86695 39.36152 81.22500
#
# Poissons Ratio (x) = 0.29015 0.50733
# Poissons Ratio (y) = 0.41182 -0.12222
# Poissons Ratio (z) = 0.34894 -0.05923
#
# Static dielectric constant tensor:
#      x y z
#    x 1.992110 0.003270 0.003580 
#    y 0.003270 2.061020 -0.049140 
#    z 0.003580 -0.049140 2.038680 
# 
# From -- ./inp_files/184674.got.cif
#   From: 2010.05.17/outbox.cif.g08.bks.cpg/sg2_93_cif.got.tgz:184674.got - 2010.06.03 11:33:40.
