data_PCOD9065070
_publ_section_title
;
Structure prediction by ZEFSAII (Michael W. Deem and Ramdas Pophale) SiO2 
 PCOD9065070
Probable space group: P -1
;
_chemical_formula_sum "Si O2"
_cell_formula_units_Z 16
_cell_length_a 14.112262
_cell_length_b 9.186391
_cell_length_c 8.693322
_cell_angle_alpha 95.465185
_cell_angle_beta 41.063777
_cell_angle_gamma 81.644438
_cell_volume 695.153715
_symmetry_space_group_name_H-M "P -1"
_symmetry_group_IT_number 2
_symmetry_cell_setting 'triclinic'
loop_
_space_group_symop_operation_xyz
x,y,z
-x,-y,-z
loop_
_atom_site_type_symbol
_atom_site_label
_atom_site_fract_x
_atom_site_fract_y
_atom_site_fract_z
Si Si1 0.577336 0.816748 0.887593
Si Si2 0.854159 0.831858 0.374329
Si Si3 0.075060 0.892014 0.538178
Si Si4 0.358607 0.658997 0.185457
Si Si5 0.346462 0.275065 0.859857
Si Si6 0.668509 0.294374 0.413380
Si Si7 0.883286 0.458537 0.017946
Si Si8 0.798840 0.943325 0.110457
O O1 0.719615 0.775773 0.596600
O O2 0.441158 0.757915 0.998489
O O3 0.630914 0.745496 0.985173
O O4 0.500000 0.000000 0.000000
O O5 0.844385 0.856501 0.207245
O O6 0.836998 0.999872 0.480566
O O7 0.012064 0.699820 0.206159
O O8 0.186323 0.720589 0.338327
O O9 0.000000 0.000000 0.500000
O O10 0.941918 0.888649 0.815691
O O11 0.319298 0.701601 0.416465
O O12 0.500000 0.500000 0.000000
O O13 0.488886 0.316604 0.618366
O O14 0.195078 0.405744 0.994146
O O15 0.335701 0.111219 0.799537
O O16 0.747675 0.413568 0.263885
O O17 0.753991 0.125166 0.219596
O O18 0.000000 0.500000 0.000000
#
# Coordination Sequence:
#
# PCOD9065070 Si02
#       8
#     2   2   2   2   2   2   2   2
#     4  11  24  47  70  98 144 186 243 296 366 438
#     4  12  23  44  73 103 141 193 241 303 360 439
#     4  12  25  44  71 109 146 188 247 304 370 439
#     4  11  26  44  71 101 145 196 237 302 371 433
#     4  11  26  45  70 110 145 190 243 305 367 440
#     4  11  24  48  71 104 146 189 250 298 360 442
#     4  12  26  44  70 108 147 191 240 304 376 431
#     4  12  23  45  79 104 139 191 250 305 358 436
#
# _framework density 23.016493000000001
#
# number of rings (size 3 to 8) (size 9 to 14) (size 15 to 20)
#    0.000    0.500    5.000    3.375    1.750    2.500 
#    2.250    0.000    0.000    0.000    0.000    0.000 
#    0.000    0.000    0.000    0.000    0.000    0.000 
#
# Total GULP energy -89331.896343 kJ/mol
# GULP energy per Si atom -5583.243521 kJ/mol
# Density = 2.296411 g / cm^3
# Si number density = 23.016493 Si / 1000 Ang^3
#
#
#
# Elastic Constant Matrix: (Units=GPa)
#
#
# Indices 1 2 3 4 5 6 
#
# 1 82.0417 25.1063 41.5072 -3.5024 -4.4474 -18.8116
# 2 25.1063 96.5425 47.6176 1.0993 -2.3546 -17.9902
# 3 41.5072 47.6176 154.5379 -21.5392 -15.5645 -24.2330
# 4 -3.5024 1.0993 -21.5392 49.2477 -2.2522 -13.4248
# 5 -4.4474 -2.3546 -15.5645 -2.2522 23.9999 -0.8477
# 6 -18.8116 -17.9902 -24.2330 -13.4248 -0.8477 43.8250
#
#
#
# Elastic Compliance Matrix: (Units=1/GPa)
#
#
# Indices 1 2 3 4 5 6 
#
# 1 0.015240 -0.001840 -0.002404 0.001483 0.001398 0.004938
# 2 -0.001840 0.012941 -0.003503 -0.001439 -0.001403 0.002118
# 3 -0.002404 -0.003503 0.010644 0.006378 0.006906 0.005503
# 4 0.001483 -0.001439 0.006378 0.026813 0.007208 0.011926
# 5 0.001398 -0.001403 0.006906 0.007208 0.047189 0.006963
# 6 0.004938 0.002118 0.005503 0.011926 0.006963 0.032638
#
#
# Mechanical properties :
#
#
# Convention : Reuss Voigt Hill
#
# Bulk Modulus (GPa) = 42.86394 62.39826 52.63110
# Shear Modulus (GPa) = 29.63198 38.00724 33.81961
#
# Velocity S-wave (km/s) = 3.59196 4.06803 3.83739
# Velocity P-wave (km/s) = 5.98886 7.01671 6.52307
#
# Compressibility (1/GPa) = 0.02332963
#
# Stress axis : x y z
#
# Youngs Moduli (GPa) = 65.61749 77.27230 93.95346
#
# Poissons Ratio (x) = 0.14217 0.22591
# Poissons Ratio (y) = 0.12072 0.32914
# Poissons Ratio (z) = 0.15777 0.27070
#
# Static dielectric constant tensor:
#      x y z
#    x 1.906160 0.015860 -0.022840 
#    y 0.015860 1.922090 0.053660 
#    z -0.022840 0.053660 1.859780 
# 
# From -- ./inp_files/298468.got.cif
#   From: 2010.05.17/outbox.cif.g08.bks.cpg/sg2_150_cif.got.tgz:298468.got - 2010.06.03 11:33:40.
