data_PCOD9065270
_publ_section_title
;
Structure prediction by ZEFSAII (Michael W. Deem and Ramdas Pophale) SiO2 
 PCOD9065270
Probable space group: P -1
;
_chemical_formula_sum "Si O2"
_cell_formula_units_Z 16
_cell_length_a 8.501684
_cell_length_b 14.125428
_cell_length_c 11.355519
_cell_angle_alpha 129.065929
_cell_angle_beta 107.475615
_cell_angle_gamma 43.058683
_cell_volume 689.100379
_symmetry_space_group_name_H-M "P -1"
_symmetry_group_IT_number 2
_symmetry_cell_setting 'triclinic'
loop_
_space_group_symop_operation_xyz
x,y,z
-x,-y,-z
loop_
_atom_site_type_symbol
_atom_site_label
_atom_site_fract_x
_atom_site_fract_y
_atom_site_fract_z
Si Si1 0.364076 0.627862 0.351504
Si Si2 0.746860 0.298844 0.871646
Si Si3 0.871303 0.877883 0.560159
Si Si4 0.645888 0.647116 0.819036
Si Si5 0.281625 0.392165 0.468843
Si Si6 0.188864 0.932830 0.088600
Si Si7 0.119983 0.313835 0.939347
Si Si8 0.534088 0.056565 0.409485
O O1 0.289875 0.728224 0.290458
O O2 0.346857 0.490167 0.226026
O O3 0.621018 0.540707 0.385539
O O4 0.143956 0.763183 0.498499
O O5 0.790312 0.180118 0.892381
O O6 0.952135 0.288952 0.901674
O O7 0.500000 0.500000 0.000000
O O8 0.730816 0.824442 0.497892
O O9 0.856677 0.926995 0.730525
O O10 0.709413 0.009927 0.515952
O O11 0.655533 0.618420 0.661310
O O12 0.420995 0.825196 0.976191
O O13 0.833617 0.651517 0.895495
O O14 0.468374 0.187982 0.397215
O O15 0.000000 0.500000 0.500000
O O16 0.000000 0.000000 0.000000
O O17 0.334349 0.136077 0.767522
O O18 0.000000 0.500000 0.000000
#
# Coordination Sequence:
#
# PCOD9065270 Si02
#       8
#     2   2   2   2   2   2   2   2
#     4  12  25  50  78 105 150 204 263 310 386 461
#     4  12  26  46  77 109 145 203 257 306 381 457
#     4  11  24  47  77 107 151 195 255 315 387 456
#     4  12  26  48  72 107 151 201 245 314 385 454
#     4  12  30  48  74 111 156 202 260 318 384 462
#     4  12  27  45  71 110 154 195 248 319 381 453
#     4  12  24  47  77 111 149 190 259 319 384 455
#     4  11  25  47  77 112 149 201 255 318 389 457
#
# _framework density 23.218677
#
# number of rings (size 3 to 8) (size 9 to 14) (size 15 to 20)
#    0.000    0.250    5.000    2.625    5.250    4.500 
#    0.000    0.000    0.000    0.000    0.000    0.000 
#    0.000    0.000    0.000    0.000    0.000    0.000 
#
# Total GULP energy -89130.044492 kJ/mol
# GULP energy per Si atom -5570.627781 kJ/mol
# Density = 2.316583 g / cm^3
# Si number density = 23.218677 Si / 1000 Ang^3
#
#
#
# Elastic Constant Matrix: (Units=GPa)
#
#
# Indices 1 2 3 4 5 6 
#
# 1 55.9995 -17.0991 14.8594 -17.1542 -20.2359 -37.8573
# 2 -17.0991 55.9258 20.4745 -33.2054 -7.6999 -11.7260
# 3 14.8594 20.4745 78.9996 -29.3766 0.6495 -11.1471
# 4 -17.1542 -33.2054 -29.3766 41.1009 -7.7402 6.4025
# 5 -20.2359 -7.6999 0.6495 -7.7402 37.6211 -12.7432
# 6 -37.8573 -11.7260 -11.1471 6.4025 -12.7432 28.5406
#
#
#
# Elastic Compliance Matrix: (Units=1/GPa)
#
#
# Indices 1 2 3 4 5 6 
#
# 1 -0.003682 -0.013312 -0.003188 -0.014747 -0.012362 -0.013810
# 2 -0.013312 0.010040 -0.002049 0.002043 -0.011381 -0.019873
# 3 -0.003188 -0.002049 0.017107 0.009216 -0.000811 -0.000818
# 4 -0.014747 0.002043 0.009216 0.028491 -0.010720 -0.026300
# 5 -0.012362 -0.011381 -0.000811 -0.010720 0.010580 -0.014262
# 6 -0.013810 -0.019873 -0.000818 -0.026300 -0.014262 0.007767
#
#
# Mechanical properties :
#
#
# Convention : Reuss Voigt Hill
#
# Bulk Modulus (GPa) = -73.35007 25.26605 -24.04201
# Shear Modulus (GPa) = 48.61074 32.96521 40.78798
#
# Velocity S-wave (km/s) = 4.58056 3.77207 4.19583
# Velocity P-wave (km/s) = 1.91943 5.46597 3.61888
#
# Compressibility (1/GPa) = -0.01363325
#
# Stress axis : x y z
#
# Youngs Moduli (GPa) = -271.58445 99.59978 58.45474
#
# Poissons Ratio (x) = 1.32589 0.18636
# Poissons Ratio (y) = -3.61539 0.11977
# Poissons Ratio (z) = -0.86584 0.20408
#
# Static dielectric constant tensor:
#      x y z
#    x 1.776160 0.039050 0.117720 
#    y 0.039050 1.935820 -0.066510 
#    z 0.117720 -0.066510 1.932890 
# 
# From -- ./inp_files/399634.got.cif
#   From: 2010.05.17/outbox.cif.g08.bks.cpg/sg2_200_cif.got.tgz:399634.got - 2010.06.03 11:33:40.
