data_PCOD9065962
_publ_section_title
;
Structure prediction by ZEFSAII (Michael W. Deem and Ramdas Pophale) SiO2 
 PCOD9065962
Probable space group: P -1
;
_chemical_formula_sum "Si O2"
_cell_formula_units_Z 12
_cell_length_a 7.691579
_cell_length_b 16.772067
_cell_length_c 21.268852
_cell_angle_alpha 15.286313
_cell_angle_beta 135.958558
_cell_angle_gamma 129.179494
_cell_volume 473.566723
_symmetry_space_group_name_H-M "P -1"
_symmetry_group_IT_number 2
_symmetry_cell_setting 'triclinic'
loop_
_space_group_symop_operation_xyz
x,y,z
-x,-y,-z
loop_
_atom_site_type_symbol
_atom_site_label
_atom_site_fract_x
_atom_site_fract_y
_atom_site_fract_z
Si Si1 0.538242 0.200244 0.032092
Si Si2 0.177442 0.627967 0.825054
Si Si3 0.833420 0.516068 0.381338
Si Si4 0.652674 0.721149 0.741928
Si Si5 0.761529 0.490363 0.612101
Si Si6 0.101436 0.184147 0.036618
O O1 0.745480 0.844695 0.360313
O O2 0.622809 0.499734 0.846907
O O3 0.445795 0.251689 0.895755
O O4 0.323285 0.192620 0.036160
O O5 0.346780 0.916509 0.541638
O O6 0.071220 0.446170 0.882697
O O7 0.160364 0.483787 0.000196
O O8 0.000000 0.000000 0.500000
O O9 0.015020 0.604035 0.310112
O O10 0.000000 0.500000 0.500000
O O11 0.818457 0.159005 0.648111
O O12 0.500000 0.500000 0.000000
O O13 0.500000 0.500000 0.500000
O O14 0.837857 0.261846 0.865966
#
# Coordination Sequence:
#
# PCOD9065962 Si02
#       6
#     2   2   2   2   2   2
#     4  11  25  45  70  98 142 183 231 295 356 421
#     4  12  25  46  72 105 144 189 238 291 355 428
#     4  11  25  45  70 102 136 180 238 291 357 430
#     4  12  27  46  73 106 148 189 240 296 356 427
#     4  11  25  45  69 101 139 180 231 299 357 422
#     4  11  25  44  70 100 138 186 233 291 357 425
#
# _framework density 25.33962
#
# number of rings (size 3 to 8) (size 9 to 14) (size 15 to 20)
#    0.000    0.667    1.667    5.000    7.000    6.667 
#    0.000    0.000    0.000    0.000    0.000    0.000 
#    0.000    0.000    0.000    0.000    0.000    0.000 
#
# Total GULP energy -66940.018974 kJ/mol
# GULP energy per Si atom -5578.334914 kJ/mol
# Density = 2.528195 g / cm^3
# Si number density = 25.339620 Si / 1000 Ang^3
#
#
#
# Elastic Constant Matrix: (Units=GPa)
#
#
# Indices 1 2 3 4 5 6 
#
# 1 64.1501 9.7763 -4.9772 13.9627 -9.9473 -3.4568
# 2 9.7763 103.1785 16.8101 12.1825 -5.5701 -11.2084
# 3 -4.9772 16.8101 165.0897 14.2277 -13.6525 -1.8504
# 4 13.9627 12.1825 14.2277 52.5154 -7.7920 -5.6908
# 5 -9.9473 -5.5701 -13.6525 -7.7920 26.1168 4.6532
# 6 -3.4568 -11.2084 -1.8504 -5.6908 4.6532 32.0217
#
#
#
# Elastic Compliance Matrix: (Units=1/GPa)
#
#
# Indices 1 2 3 4 5 6 
#
# 1 0.017678 -0.001122 0.001491 -0.003938 0.006096 0.000016
# 2 -0.001122 0.010486 -0.000911 -0.001495 0.000320 0.003185
# 3 0.001491 -0.000911 0.006607 -0.001520 0.003472 -0.000551
# 4 -0.003938 -0.001495 -0.001520 0.021605 0.003422 0.002306
# 5 0.006096 0.000320 0.003472 0.003422 0.044383 -0.004871
# 6 0.000016 0.003185 -0.000551 0.002306 -0.004871 0.033431
#
#
# Mechanical properties :
#
#
# Convention : Reuss Voigt Hill
#
# Bulk Modulus (GPa) = 29.68450 41.73742 35.71096
# Shear Modulus (GPa) = 34.12877 42.85139 38.49008
#
# Velocity S-wave (km/s) = 3.67393 4.11674 3.90162
# Velocity P-wave (km/s) = 5.45318 6.25329 5.86689
#
# Compressibility (1/GPa) = 0.03368762
#
# Stress axis : x y z
#
# Youngs Moduli (GPa) = 56.56669 95.36205 151.35672
#
# Poissons Ratio (x) = 0.10701 -0.22565
# Poissons Ratio (y) = 0.06348 0.13783
# Poissons Ratio (z) = -0.08433 0.08684
#
# Static dielectric constant tensor:
#      x y z
#    x 2.251500 0.060420 0.071310 
#    y 0.060420 2.030740 0.096710 
#    z 0.071310 0.096710 1.978260 
# 
# From -- ./inp_files/4685.got.cif
#   From: 2010.05.17/outbox.cif.g08.bks.cpg/sg2_3_cif.got.tgz:4685.got - 2010.06.03 11:33:40.
