data_PCOD9065772
_publ_section_title
;
Structure prediction by ZEFSAII (Michael W. Deem and Ramdas Pophale) SiO2 
 PCOD9065772
Probable space group: P -1
;
_chemical_formula_sum "Si O2"
_cell_formula_units_Z 12
_cell_length_a 11.300917
_cell_length_b 9.575547
_cell_length_c 6.561384
_cell_angle_alpha 99.903344
_cell_angle_beta 96.901859
_cell_angle_gamma 119.546318
_cell_volume 590.824218
_symmetry_space_group_name_H-M "P -1"
_symmetry_group_IT_number 2
_symmetry_cell_setting 'triclinic'
loop_
_space_group_symop_operation_xyz
x,y,z
-x,-y,-z
loop_
_atom_site_type_symbol
_atom_site_label
_atom_site_fract_x
_atom_site_fract_y
_atom_site_fract_z
Si Si1 0.910842 0.802596 0.940997
Si Si2 0.219488 0.419347 0.534198
Si Si3 0.307338 0.747967 0.430560
Si Si4 0.361973 0.323069 0.875627
Si Si5 0.996289 0.377726 0.797348
Si Si6 0.523123 0.921477 0.185236
O O1 0.879497 0.710011 0.693441
O O2 0.759316 0.729044 0.995619
O O3 0.998613 0.759803 0.101729
O O4 0.000000 0.000000 0.000000
O O5 0.318365 0.598711 0.494019
O O6 0.301065 0.347727 0.656412
O O7 0.126039 0.445719 0.687123
O O8 0.145173 0.686319 0.370651
O O9 0.376369 0.793214 0.232907
O O10 0.386947 0.918282 0.613869
O O11 0.400002 0.180920 0.848059
O O12 0.500000 0.500000 0.000000
O O13 0.000000 0.500000 0.000000
O O14 0.500000 0.000000 0.000000
#
# Coordination Sequence:
#
# PCOD9065772 Si02
#       6
#     2   2   2   2   2   2
#     4  11  27  42  68 103 137 180 224 276 342 401
#     4  11  25  45  70  99 137 177 225 279 338 403
#     4  11  25  43  69 101 131 177 229 273 342 392
#     4  11  26  45  69  97 139 181 226 278 339 404
#     4  11  25  42  71 100 133 177 223 276 338 402
#     4  11  27  43  69  99 135 176 226 283 330 402
#
# _framework density 20.310611000000002
#
# number of rings (size 3 to 8) (size 9 to 14) (size 15 to 20)
#    0.000    1.000    1.667    2.500   11.667    5.333 
#    0.000    0.000    0.000    0.000    0.000    0.000 
#    0.000    0.000    0.000    0.000    0.000    0.000 
#
# Total GULP energy -67070.155445 kJ/mol
# GULP energy per Si atom -5589.179620 kJ/mol
# Density = 2.026438 g / cm^3
# Si number density = 20.310611 Si / 1000 Ang^3
#
#
#
# Elastic Constant Matrix: (Units=GPa)
#
#
# Indices 1 2 3 4 5 6 
#
# 1 79.6590 41.8332 19.7198 -18.0043 3.3352 -22.4526
# 2 41.8332 156.7843 46.4374 -15.7879 -10.0732 -16.2809
# 3 19.7198 46.4374 87.4013 -15.9255 -2.9668 -9.6647
# 4 -18.0043 -15.7879 -15.9255 44.2014 -3.4885 6.8221
# 5 3.3352 -10.0732 -2.9668 -3.4885 31.3698 1.4342
# 6 -22.4526 -16.2809 -9.6647 6.8221 1.4342 34.8265
#
#
#
# Elastic Compliance Matrix: (Units=1/GPa)
#
#
# Indices 1 2 3 4 5 6 
#
# 1 0.018240 -0.003507 -0.000548 0.004311 -0.003061 0.009250
# 2 -0.003507 0.008663 -0.003556 0.000520 0.002849 0.000583
# 3 -0.000548 -0.003556 0.014248 0.003498 0.000597 0.001229
# 4 0.004311 0.000520 0.003498 0.026260 0.003018 -0.001276
# 5 -0.003061 0.002849 0.000597 0.003018 0.033622 -0.002451
# 6 0.009250 0.000583 0.001229 -0.001276 -0.002451 0.035642
#
#
# Mechanical properties :
#
#
# Convention : Reuss Voigt Hill
#
# Bulk Modulus (GPa) = 38.56476 59.98060 49.27268
# Shear Modulus (GPa) = 31.14510 36.46983 33.80747
#
# Velocity S-wave (km/s) = 3.92016 4.24205 4.08428
# Velocity P-wave (km/s) = 6.28641 7.32046 6.82305
#
# Compressibility (1/GPa) = 0.02593041
#
# Stress axis : x y z
#
# Youngs Moduli (GPa) = 54.82397 115.43453 70.18684
#
# Poissons Ratio (x) = 0.40478 0.03846
# Poissons Ratio (y) = 0.19225 0.24956
# Poissons Ratio (z) = 0.03004 0.41044
#
# Static dielectric constant tensor:
#      x y z
#    x 1.132120 1.043890 -0.022610 
#    y 1.043890 -0.111440 -0.035560 
#    z -0.022610 -0.035560 1.712220 
# 
# From -- ./inp_files/17276.got.cif
#   From: 2010.05.17/outbox.cif.g08.bks.cpg/sg2_9_cif.got.tgz:17276.got - 2010.06.03 11:33:40.
