data_PCOD9065664
_publ_section_title
;
Structure prediction by ZEFSAII (Michael W. Deem and Ramdas Pophale) SiO2 
 PCOD9065664
Probable space group: P -1
;
_chemical_formula_sum "Si O2"
_cell_formula_units_Z 14
_cell_length_a 11.373898
_cell_length_b 9.622094
_cell_length_c 8.282272
_cell_angle_alpha 78.431413
_cell_angle_beta 78.436950
_cell_angle_gamma 40.154809
_cell_volume 571.035474
_symmetry_space_group_name_H-M "P -1"
_symmetry_group_IT_number 2
_symmetry_cell_setting 'triclinic'
loop_
_space_group_symop_operation_xyz
x,y,z
-x,-y,-z
loop_
_atom_site_type_symbol
_atom_site_label
_atom_site_fract_x
_atom_site_fract_y
_atom_site_fract_z
Si Si1 0.938663 0.391882 0.558790
Si Si2 0.528646 0.816507 0.969486
Si Si3 0.327250 0.714494 0.160823
Si Si4 0.103800 0.676132 0.061777
Si Si5 0.627707 0.318254 0.372760
Si Si6 0.010675 0.134887 0.291483
Si Si7 0.512720 0.831821 0.598472
O O1 0.985163 0.290693 0.749707
O O2 0.004578 0.246391 0.417769
O O3 0.716781 0.590652 0.569547
O O4 0.000000 0.500000 0.500000
O O5 0.740263 0.577867 0.967042
O O6 0.471643 0.873991 0.787253
O O7 0.415919 0.788691 0.086412
O O8 0.500000 0.000000 0.000000
O O9 0.206846 0.733292 0.060862
O O10 0.498345 0.462331 0.218064
O O11 0.180125 0.875485 0.305818
O O12 0.983043 0.800280 0.905243
O O13 0.500000 0.500000 0.500000
O O14 0.820708 0.219130 0.324083
O O15 0.629241 0.150136 0.442838
O O16 0.500000 0.000000 0.500000
#
# Coordination Sequence:
#
# PCOD9065664 Si02
#       7
#     2   2   2   2   2   2   2
#     4  11  27  48  69 113 158 190 252 319 372 453
#     4  11  25  43  74 104 146 198 244 307 374 443
#     4  12  25  48  78 111 151 194 257 316 368 449
#     4  11  24  50  74 106 153 198 252 312 376 444
#     4  12  24  48  77 110 152 195 253 313 370 451
#     4  12  27  45  84 112 142 207 255 305 384 449
#     4  11  26  46  71 105 150 199 238 310 387 435
#
# _framework density 24.516864999999999
#
# number of rings (size 3 to 8) (size 9 to 14) (size 15 to 20)
#    0.000    0.571    5.714    1.714    8.000    5.143 
#    0.000    0.000    0.000    0.000    0.000    0.000 
#    0.000    0.000    0.000    0.000    0.000    0.000 
#
# Total GULP energy -78425.444289 kJ/mol
# GULP energy per Si atom -5601.817449 kJ/mol
# Density = 2.446106 g / cm^3
# Si number density = 24.516865 Si / 1000 Ang^3
#
#
#
# Elastic Constant Matrix: (Units=GPa)
#
#
# Indices 1 2 3 4 5 6 
#
# 1 141.5409 65.1628 52.7195 5.5094 -7.7690 27.2657
# 2 65.1628 128.4417 43.2454 21.6337 9.5210 21.2342
# 3 52.7195 43.2454 136.7849 3.8670 0.8012 11.4326
# 4 5.5094 21.6337 3.8670 49.5487 9.1783 4.4616
# 5 -7.7690 9.5210 0.8012 9.1783 38.7790 1.0799
# 6 27.2657 21.2342 11.4326 4.4616 1.0799 57.6618
#
#
#
# Elastic Compliance Matrix: (Units=1/GPa)
#
#
# Indices 1 2 3 4 5 6 
#
# 1 0.010814 -0.004471 -0.002534 0.000621 0.003255 -0.003074
# 2 -0.004471 0.011744 -0.001738 -0.003841 -0.002792 -0.001517
# 3 -0.002534 -0.001738 0.008822 0.000414 -0.000363 0.000064
# 4 0.000621 -0.003841 0.000414 0.022606 -0.004274 -0.000630
# 5 0.003255 -0.002792 -0.000363 -0.004274 0.028161 -0.000636
# 6 -0.003074 -0.001517 0.000064 -0.000630 -0.000636 0.019402
#
#
# Mechanical properties :
#
#
# Convention : Reuss Voigt Hill
#
# Bulk Modulus (GPa) = 71.97545 81.00257 76.48901
# Shear Modulus (GPa) = 40.43133 45.57389 43.00261
#
# Velocity S-wave (km/s) = 4.06535 4.31615 4.19262
# Velocity P-wave (km/s) = 7.17337 7.61250 7.39620
#
# Compressibility (1/GPa) = 0.01389363
#
# Stress axis : x y z
#
# Youngs Moduli (GPa) = 92.47448 85.15293 113.35281
#
# Poissons Ratio (x) = 0.38070 0.28725
# Poissons Ratio (y) = 0.41343 0.19701
# Poissons Ratio (z) = 0.23434 0.14800
#
# Static dielectric constant tensor:
#      x y z
#    x 2.067860 0.041230 0.051810 
#    y 0.041230 1.997200 -0.033680 
#    z 0.051810 -0.033680 2.064300 
# 
# From -- ./inp_files/243471.got.cif
#   From: 2010.05.17/outbox.cif.g08.bks.cpg/sg2_122_cif.got.tgz:243471.got - 2010.06.03 11:33:40.
