data_PCOD9065776
_publ_section_title
;
Structure prediction by ZEFSAII (Michael W. Deem and Ramdas Pophale) SiO2 
 PCOD9065776
Probable space group: P -1
;
_chemical_formula_sum "Si O2"
_cell_formula_units_Z 15
_cell_length_a 9.386926
_cell_length_b 27.216430
_cell_length_c 8.821591
_cell_angle_alpha 38.964108
_cell_angle_beta 132.301337
_cell_angle_gamma 150.684650
_cell_volume 693.804189
_symmetry_space_group_name_H-M "P -1"
_symmetry_group_IT_number 2
_symmetry_cell_setting 'triclinic'
loop_
_space_group_symop_operation_xyz
x,y,z
-x,-y,-z
loop_
_atom_site_type_symbol
_atom_site_label
_atom_site_fract_x
_atom_site_fract_y
_atom_site_fract_z
Si Si1 0.186330 0.977955 0.708011
Si Si2 0.000000 0.500000 0.500000
Si Si3 0.448982 0.752103 0.363425
Si Si4 0.172291 0.247864 0.803928
Si Si5 0.021355 0.850310 0.431568
Si Si6 0.836070 0.411049 0.950562
Si Si7 0.241013 0.748565 0.517279
Si Si8 0.643704 0.109698 0.177236
O O1 0.221195 0.923368 0.734317
O O2 0.513030 0.109626 0.643551
O O3 0.000000 0.000000 0.500000
O O4 0.027863 0.881569 0.958180
O O5 0.742899 0.361328 0.606849
O O6 0.971073 0.468433 0.743902
O O7 0.361760 0.722435 0.547444
O O8 0.782706 0.831078 0.388641
O O9 0.379620 0.819652 0.105107
O O10 0.502473 0.339259 0.872291
O O11 0.125405 0.225044 0.645423
O O12 0.046126 0.294634 0.642114
O O13 0.142171 0.817313 0.701796
O O14 0.314503 0.988102 0.278690
O O15 0.813127 0.312730 0.218059
O O16 0.000000 0.500000 0.000000
#
# Coordination Sequence:
#
# PCOD9065776 Si02
#       8
#     2   1   2   2   2   2   2   2
#     4  12  23  43  76 113 154 197 238 309 385 467
#     4  12  28  52  76 110 146 202 268 320 368 446
#     4  12  25  48  73 105 153 202 253 318 374 449
#     4  12  25  46  75 112 147 195 255 305 386 463
#     4  11  25  42  72 110 153 198 243 309 385 461
#     4  12  28  52  77 105 149 201 263 321 379 441
#     4  12  25  46  78 108 151 200 248 310 383 464
#     4  11  25  44  70 114 156 194 248 304 388 464
#
# _framework density 21.619934000000001
#
# number of rings (size 3 to 8) (size 9 to 14) (size 15 to 20)
#    0.000    0.267    6.667    2.400    1.867    2.667 
#    0.000    1.333    0.000    0.000    0.000    0.000 
#    0.000    0.000    0.000    0.000    0.000    0.000 
#
# Total GULP energy -83542.803250 kJ/mol
# GULP energy per Si atom -5569.520217 kJ/mol
# Density = 2.157073 g / cm^3
# Si number density = 21.619934 Si / 1000 Ang^3
#
#
#
# Elastic Constant Matrix: (Units=GPa)
#
#
# Indices 1 2 3 4 5 6 
#
# 1 108.9491 40.5433 61.8534 5.3026 1.4333 5.1410
# 2 40.5433 122.3791 45.5383 16.6839 7.8074 -12.3890
# 3 61.8534 45.5383 81.3442 16.7151 -24.2172 25.8725
# 4 5.3026 16.6839 16.7151 25.5113 4.8072 -0.9906
# 5 1.4333 7.8074 -24.2172 4.8072 29.2879 21.3878
# 6 5.1410 -12.3890 25.8725 -0.9906 21.3878 28.4033
#
#
#
# Elastic Compliance Matrix: (Units=1/GPa)
#
#
# Indices 1 2 3 4 5 6 
#
# 1 0.011717 -0.005150 -0.000393 -0.000673 0.007841 -0.009937
# 2 -0.005150 0.008497 0.004508 -0.008888 0.006689 -0.004815
# 3 -0.000393 0.004508 -0.003957 0.004511 -0.020949 0.021573
# 4 -0.000673 -0.008888 0.004511 0.039855 0.009594 -0.013699
# 5 0.007841 0.006689 -0.020949 0.009594 -0.004873 0.024585
# 6 -0.009937 -0.004815 0.021573 -0.013699 0.024585 -0.003736
#
#
# Mechanical properties :
#
#
# Convention : Reuss Voigt Hill
#
# Bulk Modulus (GPa) = 70.48381 67.61580 69.04981
# Shear Modulus (GPa) = 92.07608 27.62298 59.84953
#
# Velocity S-wave (km/s) = 6.53307 3.57832 5.26713
# Velocity P-wave (km/s) = 9.46467 6.95810 8.30648
#
# Compressibility (1/GPa) = 0.01418765
#
# Stress axis : x y z
#
# Youngs Moduli (GPa) = 85.34829 117.68296 -252.74145
#
# Poissons Ratio (x) = 0.60603 -0.09939
# Poissons Ratio (y) = 0.43952 1.13936
# Poissons Ratio (z) = 0.03356 -0.53052
#
# Static dielectric constant tensor:
#      x y z
#    x 1.850180 -0.033360 -0.037390 
#    y -0.033360 1.791870 0.007390 
#    z -0.037390 0.007390 1.824170 
# 
# From -- ./inp_files/227349.got.cif
#   From: 2010.05.17/outbox.cif.g08.bks.cpg/sg2_114_cif.got.tgz:227349.got - 2010.06.03 11:33:40.
