data_PCOD9065442
_publ_section_title
;
Structure prediction by ZEFSAII (Michael W. Deem and Ramdas Pophale) SiO2 
 PCOD9065442
Probable space group: P -1
;
_chemical_formula_sum "Si O2"
_cell_formula_units_Z 16
_cell_length_a 8.571344
_cell_length_b 12.477962
_cell_length_c 8.879998
_cell_angle_alpha 126.766095
_cell_angle_beta 78.818921
_cell_angle_gamma 104.944600
_cell_volume 734.129507
_symmetry_space_group_name_H-M "P -1"
_symmetry_group_IT_number 2
_symmetry_cell_setting 'triclinic'
loop_
_space_group_symop_operation_xyz
x,y,z
-x,-y,-z
loop_
_atom_site_type_symbol
_atom_site_label
_atom_site_fract_x
_atom_site_fract_y
_atom_site_fract_z
Si Si1 0.450245 0.353056 0.815775
Si Si2 0.070992 0.575979 0.698692
Si Si3 0.162364 0.244549 0.997339
Si Si4 0.303160 0.133385 0.178200
Si Si5 0.321145 0.847350 0.790928
Si Si6 0.354075 0.874915 0.450995
Si Si7 0.809047 0.678781 0.398253
Si Si8 0.048542 0.868737 0.309049
O O1 0.312623 0.269177 0.876981
O O2 0.591183 0.269124 0.699407
O O3 0.364706 0.358754 0.677668
O O4 0.500000 0.500000 0.000000
O O5 0.199070 0.710848 0.745278
O O6 0.150129 0.461760 0.668931
O O7 0.000000 0.500000 0.500000
O O8 0.921666 0.624472 0.852216
O O9 0.017878 0.140879 0.856382
O O10 0.236886 0.199802 0.098935
O O11 0.493995 0.169528 0.218974
O O12 0.205602 0.197436 0.380952
O O13 0.284759 0.974512 0.003476
O O14 0.302587 0.879345 0.641450
O O15 0.230233 0.879471 0.340594
O O16 0.500000 0.000000 0.500000
O O17 0.946307 0.737997 0.302080
O O18 0.000000 0.000000 0.500000
#
# Coordination Sequence:
#
# PCOD9065442 Si02
#       8
#     2   2   2   2   2   2   2   2
#     4  11  27  44  71 102 143 191 240 290 356 426
#     4  12  27  45  70 106 149 188 236 296 373 436
#     4  11  27  45  70 107 141 189 238 294 360 427
#     4  11  24  48  74 105 145 179 250 295 367 427
#     4  11  27  44  76 109 140 191 238 307 363 427
#     4  12  25  48  75 103 142 187 245 296 355 425
#     4  11  25  47  70 106 145 191 237 300 359 435
#     4  11  26  45  75 103 144 189 244 294 361 421
#
# _framework density 21.794522000000001
#
# number of rings (size 3 to 8) (size 9 to 14) (size 15 to 20)
#    0.000    0.750    2.500    3.750    8.750    3.000 
#    0.000    0.000    0.000    0.000    0.000    0.000 
#    0.000    0.000    0.000    0.000    0.000    0.000 
#
# Total GULP energy -89373.533614 kJ/mol
# GULP energy per Si atom -5585.845851 kJ/mol
# Density = 2.174492 g / cm^3
# Si number density = 21.794522 Si / 1000 Ang^3
#
#
#
# Elastic Constant Matrix: (Units=GPa)
#
#
# Indices 1 2 3 4 5 6 
#
# 1 65.9412 -3.1399 -5.0227 -0.1787 12.8156 -20.4054
# 2 -3.1399 61.0665 -11.7780 7.8935 3.0650 -1.6370
# 3 -5.0227 -11.7780 96.8195 12.9892 7.0930 -7.5615
# 4 -0.1787 7.8935 12.9892 41.7917 -5.4514 0.5932
# 5 12.8156 3.0650 7.0930 -5.4514 42.5385 3.4357
# 6 -20.4054 -1.6370 -7.5615 0.5932 3.4357 43.1044
#
#
#
# Elastic Compliance Matrix: (Units=1/GPa)
#
#
# Indices 1 2 3 4 5 6 
#
# 1 0.020547 0.002725 0.003216 -0.002648 -0.008157 0.011081
# 2 0.002725 0.018099 0.003508 -0.005007 -0.003590 0.002948
# 3 0.003216 0.003508 0.012243 -0.005068 -0.004253 0.004212
# 4 -0.002648 -0.005007 -0.005068 0.027233 0.005749 -0.003166
# 5 -0.008157 -0.003590 -0.004253 0.005749 0.028241 -0.007074
# 6 0.011081 0.002948 0.004212 -0.003166 -0.007074 0.029903
#
#
# Mechanical properties :
#
#
# Convention : Reuss Voigt Hill
#
# Bulk Modulus (GPa) = 14.32942 20.43843 17.38392
# Shear Modulus (GPa) = 35.55436 41.73811 38.64623
#
# Velocity S-wave (km/s) = 4.04337 4.38090 4.21552
# Velocity P-wave (km/s) = 5.32799 5.91506 5.62918
#
# Compressibility (1/GPa) = 0.06978650
#
# Stress axis : x y z
#
# Youngs Moduli (GPa) = 48.66926 55.25231 81.68235
#
# Poissons Ratio (x) = -0.15058 -0.26266
# Poissons Ratio (y) = -0.13264 -0.28655
# Poissons Ratio (z) = -0.15650 -0.19383
#
# Static dielectric constant tensor:
#      x y z
#    x 1.710150 0.073090 0.030450 
#    y 0.073090 1.739720 -0.081180 
#    z 0.030450 -0.081180 1.744770 
# 
# From -- ./inp_files/190713.got.cif
#   From: 2010.05.17/outbox.cif.g08.bks.cpg/sg2_96_cif.got.tgz:190713.got - 2010.06.03 11:33:40.
