data_PCOD9065995
_publ_section_title
;
Structure prediction by ZEFSAII (Michael W. Deem and Ramdas Pophale) SiO2 
 PCOD9065995
Probable space group: P -1
;
_chemical_formula_sum "Si O2"
_cell_formula_units_Z 14
_cell_length_a 9.456694
_cell_length_b 28.356124
_cell_length_c 31.357553
_cell_angle_alpha 171.782038
_cell_angle_beta 29.994267
_cell_angle_gamma 149.744379
_cell_volume 598.290128
_symmetry_space_group_name_H-M "P -1"
_symmetry_group_IT_number 2
_symmetry_cell_setting 'triclinic'
loop_
_space_group_symop_operation_xyz
x,y,z
-x,-y,-z
loop_
_atom_site_type_symbol
_atom_site_label
_atom_site_fract_x
_atom_site_fract_y
_atom_site_fract_z
Si Si1 0.306470 0.202796 0.090820
Si Si2 0.192352 0.031628 0.197518
Si Si3 0.743423 0.168028 0.617686
Si Si4 0.784434 0.236576 0.138205
Si Si5 0.624776 0.842530 0.212093
Si Si6 0.333541 0.987772 0.800192
Si Si7 0.757674 0.219086 0.828114
O O1 0.301763 0.605019 0.449730
O O2 0.546335 0.148052 0.013761
O O3 0.431150 0.041632 0.871426
O O4 0.000000 0.000000 0.000000
O O5 0.295751 0.415670 0.512544
O O6 0.907394 0.075413 0.338675
O O7 0.095088 0.822490 0.993816
O O8 0.596444 0.115585 0.655119
O O9 0.500000 0.000000 0.500000
O O10 0.770233 0.524271 0.907640
O O11 0.048974 0.043106 0.434681
O O12 0.500000 0.000000 0.000000
O O13 0.020805 0.107169 0.990625
O O14 0.436448 0.840421 0.216537
O O15 0.528756 0.239105 0.943682
O O16 0.000000 0.500000 0.000000
#
# Coordination Sequence:
#
# PCOD9065995 Si02
#       7
#     2   2   2   2   2   2   2
#     4  12  26  49  76 109 149 194 248 319 383 448
#     4  12  26  44  76 103 146 189 244 300 376 437
#     4  11  25  44  71 100 143 190 254 296 367 440
#     4  12  25  47  73 107 145 189 240 302 372 453
#     4  11  26  46  69 107 142 197 243 313 366 438
#     4  12  27  46  75 111 149 193 255 302 382 455
#     4  12  26  46  74 106 152 199 247 311 373 449
#
# _framework density 23.400017999999999
#
# number of rings (size 3 to 8) (size 9 to 14) (size 15 to 20)
#    0.000    0.286    2.857    5.571    6.000    1.143 
#    0.000    0.000    0.000    0.000    0.000    0.000 
#    0.000    0.000    0.000    0.000    0.000    0.000 
#
# Total GULP energy -78057.170275 kJ/mol
# GULP energy per Si atom -5575.512162 kJ/mol
# Density = 2.334676 g / cm^3
# Si number density = 23.400018 Si / 1000 Ang^3
#
#
#
# Elastic Constant Matrix: (Units=GPa)
#
#
# Indices 1 2 3 4 5 6 
#
# 1 134.7601 -18.6808 39.4590 15.2098 -30.5131 10.5343
# 2 -18.6808 197.5328 -7.0554 -28.6391 36.0491 -4.7533
# 3 39.4590 -7.0554 182.6750 27.5656 -34.8007 48.3643
# 4 15.2098 -28.6391 27.5656 52.6084 -8.5133 9.1240
# 5 -30.5131 36.0491 -34.8007 -8.5133 57.5594 -35.0190
# 6 10.5343 -4.7533 48.3643 9.1240 -35.0190 66.0679
#
#
#
# Elastic Compliance Matrix: (Units=1/GPa)
#
#
# Indices 1 2 3 4 5 6 
#
# 1 0.009013 -0.000400 -0.001365 -0.001674 0.005627 0.002747
# 2 -0.000400 0.006476 -0.000600 0.003477 -0.005637 -0.002499
# 3 -0.001365 -0.000600 0.007560 -0.002955 0.001142 -0.004347
# 4 -0.001674 0.003477 -0.002955 0.022834 -0.002601 -0.001852
# 5 0.005627 -0.005637 0.001142 -0.002601 0.034109 0.016300
# 6 0.002747 -0.002499 -0.004347 -0.001852 0.016300 0.026595
#
#
# Mechanical properties :
#
#
# Convention : Reuss Voigt Hill
#
# Bulk Modulus (GPa) = 54.59048 60.26818 57.42933
# Shear Modulus (GPa) = 42.58079 68.66350 55.62214
#
# Velocity S-wave (km/s) = 4.27041 5.42283 4.88075
# Velocity P-wave (km/s) = 6.90616 8.06356 7.50720
#
# Compressibility (1/GPa) = 0.01831821
#
# Stress axis : x y z
#
# Youngs Moduli (GPa) = 110.94922 154.42073 132.27410
#
# Poissons Ratio (x) = 0.06175 0.18056
# Poissons Ratio (y) = 0.04436 0.07942
# Poissons Ratio (z) = 0.15145 0.09272
#
# Static dielectric constant tensor:
#      x y z
#    x 1.794640 -0.168920 -0.015620 
#    y -0.168920 1.777590 -0.122450 
#    z -0.015620 -0.122450 1.835350 
# 
# From -- ./inp_files/47216.got.cif
#   From: 2010.05.17/outbox.cif.g08.bks.cpg/sg2_24_cif.got.tgz:47216.got - 2010.06.03 11:33:40.
