data_PCOD9065753
_publ_section_title
;
Structure prediction by ZEFSAII (Michael W. Deem and Ramdas Pophale) SiO2 
 PCOD9065753
Probable space group: P -1
;
_chemical_formula_sum "Si O2"
_cell_formula_units_Z 14
_cell_length_a 7.899795
_cell_length_b 18.180142
_cell_length_c 18.990334
_cell_angle_alpha 21.820695
_cell_angle_beta 39.619040
_cell_angle_gamma 37.399540
_cell_volume 609.203058
_symmetry_space_group_name_H-M "P -1"
_symmetry_group_IT_number 2
_symmetry_cell_setting 'triclinic'
loop_
_space_group_symop_operation_xyz
x,y,z
-x,-y,-z
loop_
_atom_site_type_symbol
_atom_site_label
_atom_site_fract_x
_atom_site_fract_y
_atom_site_fract_z
Si Si1 0.061055 0.046192 0.098465
Si Si2 0.514705 0.058041 0.194839
Si Si3 0.567151 0.779394 0.080614
Si Si4 0.385725 0.683003 0.549867
Si Si5 0.906383 0.859115 0.439717
Si Si6 0.065902 0.708191 0.776204
Si Si7 0.530113 0.300647 0.216399
O O1 0.757358 0.135958 0.079566
O O2 0.296917 0.953579 0.046422
O O3 0.168654 0.194618 0.983720
O O4 0.036531 0.855930 0.324209
O O5 0.241720 0.115509 0.281768
O O6 0.608691 0.805292 0.379531
O O7 0.420402 0.168106 0.052131
O O8 0.533441 0.551051 0.298509
O O9 0.229804 0.682257 0.674073
O O10 0.156354 0.832556 0.437641
O O11 0.760951 0.695679 0.658148
O O12 0.662383 0.086870 0.319442
O O13 0.257066 0.730586 0.759295
O O14 0.000000 0.500000 0.000000
O O15 0.500000 0.500000 0.000000
#
# Coordination Sequence:
#
# PCOD9065753 Si02
#       7
#     2   2   2   2   2   2   2
#     4  11  26  49  74  98 142 190 233 296 348 407
#     4  12  25  48  70 104 143 180 235 293 347 420
#     4  11  26  51  70 103 139 185 243 289 348 411
#     4  12  25  44  72 102 146 180 230 296 343 423
#     4  11  25  42  67 103 136 182 232 277 347 417
#     4  12  24  41  68 102 140 182 222 279 361 416
#     4  11  25  42  66 101 144 181 224 282 348 421
#
# _framework density 22.980844000000001
#
# number of rings (size 3 to 8) (size 9 to 14) (size 15 to 20)
#    0.000    0.571    4.286    2.571    8.000    1.143 
#    2.571    0.714    0.000    0.000    0.000    0.000 
#    0.000    0.000    0.000    0.000    0.000    0.000 
#
# Total GULP energy -78306.791866 kJ/mol
# GULP energy per Si atom -5593.342276 kJ/mol
# Density = 2.292854 g / cm^3
# Si number density = 22.980844 Si / 1000 Ang^3
#
#
#
# Elastic Constant Matrix: (Units=GPa)
#
#
# Indices 1 2 3 4 5 6 
#
# 1 132.4282 22.1162 -4.0912 -2.9504 -12.4102 -1.2635
# 2 22.1162 46.2331 -6.3214 2.4288 3.3212 9.0858
# 3 -4.0912 -6.3214 78.7133 -18.3672 -2.5907 7.0850
# 4 -2.9504 2.4288 -18.3672 33.6875 1.4483 -2.5643
# 5 -12.4102 3.3212 -2.5907 1.4483 38.0310 6.5757
# 6 -1.2635 9.0858 7.0850 -2.5643 6.5757 24.0585
#
#
#
# Elastic Compliance Matrix: (Units=1/GPa)
#
#
# Indices 1 2 3 4 5 6 
#
# 1 0.008659 -0.004657 0.000338 0.001261 0.002958 0.001440
# 2 -0.004657 0.026496 0.002377 -0.001758 -0.001762 -0.010656
# 3 0.000338 0.002377 0.015206 0.007708 0.001500 -0.004946
# 4 0.001261 -0.001758 0.007708 0.034325 -0.000612 0.002286
# 5 0.002958 -0.001762 0.001500 -0.000612 0.028848 -0.007571
# 6 0.001440 -0.010656 -0.004946 0.002286 -0.007571 0.049435
#
#
# Mechanical properties :
#
#
# Convention : Reuss Voigt Hill
#
# Bulk Modulus (GPa) = 21.51705 31.19796 26.35750
# Shear Modulus (GPa) = 27.42054 35.53345 31.47700
#
# Velocity S-wave (km/s) = 3.45801 3.93647 3.70497
# Velocity P-wave (km/s) = 5.03261 5.85373 5.45863
#
# Compressibility (1/GPa) = 0.04647478
#
# Stress axis : x y z
#
# Youngs Moduli (GPa) = 115.49245 37.74206 65.76368
#
# Poissons Ratio (x) = 0.17578 -0.02223
# Poissons Ratio (y) = 0.53790 -0.15631
# Poissons Ratio (z) = -0.03903 -0.08971
#
# Static dielectric constant tensor:
#      x y z
#    x 1.529450 0.059640 -0.097930 
#    y 0.059640 1.886160 -0.029690 
#    z -0.097930 -0.029690 1.876020 
# 
# From -- ./inp_files/591574.got.cif
#   From: 2010.05.17/outbox.cif.g08.bks.cpg/sg2_296_cif.got.tgz:591574.got - 2010.06.03 11:33:40.
