data_PCOD9065804
_publ_section_title
;
Structure prediction by ZEFSAII (Michael W. Deem and Ramdas Pophale) SiO2 
 PCOD9065804
Probable space group: P -1
;
_chemical_formula_sum "Si O2"
_cell_formula_units_Z 16
_cell_length_a 18.752106
_cell_length_b 12.852469
_cell_length_c 21.533542
_cell_angle_alpha 143.783449
_cell_angle_beta 162.543448
_cell_angle_gamma 28.382758
_cell_volume 720.609169
_symmetry_space_group_name_H-M "P -1"
_symmetry_group_IT_number 2
_symmetry_cell_setting 'triclinic'
loop_
_space_group_symop_operation_xyz
x,y,z
-x,-y,-z
loop_
_atom_site_type_symbol
_atom_site_label
_atom_site_fract_x
_atom_site_fract_y
_atom_site_fract_z
Si Si1 0.855371 0.546569 0.093245
Si Si2 0.789977 0.925684 0.786943
Si Si3 0.915384 0.176809 0.569242
Si Si4 0.158624 0.320050 0.601439
Si Si5 0.109743 0.249438 0.353001
Si Si6 0.792038 0.496457 0.875533
Si Si7 0.234944 0.847041 0.790226
Si Si8 0.814914 0.029486 0.052446
O O1 0.096141 0.279729 0.172497
O O2 0.973706 0.676391 0.281003
O O3 0.792175 0.588676 0.987555
O O4 0.551837 0.638657 0.923346
O O5 0.833297 0.826742 0.706879
O O6 0.436237 0.130188 0.598370
O O7 0.000000 0.000000 0.000000
O O8 0.553980 0.347284 0.359109
O O9 0.000000 0.000000 0.500000
O O10 0.080734 0.040936 0.704000
O O11 0.000000 0.500000 0.500000
O O12 0.085515 0.484988 0.676967
O O13 0.986545 0.216431 0.414871
O O14 0.519726 0.129957 0.813242
O O15 0.943279 0.161640 0.204302
O O16 0.930456 0.236822 0.873127
O O17 0.000000 0.500000 0.000000
O O18 0.271508 0.924214 0.924154
#
# Coordination Sequence:
#
# PCOD9065804 Si02
#       8
#     2   2   2   2   2   2   2   2
#     4  12  27  46  76 105 148 197 247 302 371 440
#     4  11  25  43  72 102 148 192 245 301 368 436
#     4  12  28  49  76 108 147 192 254 306 371 441
#     4  12  27  44  72 108 148 193 244 300 373 439
#     4  11  25  43  67 105 144 190 245 301 364 441
#     4  12  28  48  76 108 147 190 248 311 372 435
#     4  12  27  46  77 106 147 197 249 305 370 441
#     4  12  27  45  73 108 149 188 248 307 370 443
#
# _framework density 22.203434999999999
#
# number of rings (size 3 to 8) (size 9 to 14) (size 15 to 20)
#    0.000    0.250    2.500    5.250   10.500    6.000 
#    0.000    0.000    0.000    0.000    0.000    0.000 
#    0.000    0.000    0.000    0.000    0.000    0.000 
#
# Total GULP energy -89629.474581 kJ/mol
# GULP energy per Si atom -5601.842161 kJ/mol
# Density = 2.215290 g / cm^3
# Si number density = 22.203435 Si / 1000 Ang^3
#
#
#
# Elastic Constant Matrix: (Units=GPa)
#
#
# Indices 1 2 3 4 5 6 
#
# 1 79.8490 -14.3569 7.1004 -2.9271 -16.5806 -8.4514
# 2 -14.3569 91.9483 22.4441 -2.6725 -1.9968 -1.4312
# 3 7.1004 22.4441 117.6024 -7.9184 11.1802 5.6449
# 4 -2.9271 -2.6725 -7.9184 49.9845 1.5998 3.6002
# 5 -16.5806 -1.9968 11.1802 1.5998 38.5110 2.2958
# 6 -8.4514 -1.4312 5.6449 3.6002 2.2958 44.6927
#
#
#
# Elastic Compliance Matrix: (Units=1/GPa)
#
#
# Indices 1 2 3 4 5 6 
#
# 1 0.015086 0.003126 -0.002307 0.000251 0.007146 0.002857
# 2 0.003126 0.012131 -0.002804 0.000216 0.002710 0.001177
# 3 -0.002307 -0.002804 0.009732 0.001503 -0.003927 -0.001675
# 4 0.000251 0.000216 0.001503 0.020429 -0.001063 -0.001727
# 5 0.007146 0.002710 -0.003927 -0.001063 0.030341 0.000461
# 6 0.002857 0.001177 -0.001675 -0.001727 0.000461 0.023280
#
#
# Mechanical properties :
#
#
# Convention : Reuss Voigt Hill
#
# Bulk Modulus (GPa) = 30.32093 35.53052 32.92572
# Shear Modulus (GPa) = 39.69423 44.91844 42.30634
#
# Velocity S-wave (km/s) = 4.23277 4.50270 4.36982
# Velocity P-wave (km/s) = 6.12977 6.56273 6.34994
#
# Compressibility (1/GPa) = 0.03298052
#
# Stress axis : x y z
#
# Youngs Moduli (GPa) = 66.28525 82.43008 102.74901
#
# Poissons Ratio (x) = -0.25765 0.23705
# Poissons Ratio (y) = -0.20719 0.28806
# Poissons Ratio (z) = 0.15292 0.23109
#
# Static dielectric constant tensor:
#      x y z
#    x 1.759580 -0.101470 0.002260 
#    y -0.101470 1.709570 0.018770 
#    z 0.002260 0.018770 1.785640 
# 
# From -- ./inp_files/600102.got.cif
#   From: 2010.05.17/outbox.cif.g08.bks.cpg/sg2_301_cif.got.tgz:600102.got - 2010.06.03 11:33:40.
