data_PCOD9065335
_publ_section_title
;
Structure prediction by ZEFSAII (Michael W. Deem and Ramdas Pophale) SiO2 
 PCOD9065335
Probable space group: P -1
;
_chemical_formula_sum "Si O2"
_cell_formula_units_Z 16
_cell_length_a 11.544582
_cell_length_b 8.998718
_cell_length_c 8.613018
_cell_angle_alpha 98.554766
_cell_angle_beta 115.318005
_cell_angle_gamma 65.169892
_cell_volume 733.541796
_symmetry_space_group_name_H-M "P -1"
_symmetry_group_IT_number 2
_symmetry_cell_setting 'triclinic'
loop_
_space_group_symop_operation_xyz
x,y,z
-x,-y,-z
loop_
_atom_site_type_symbol
_atom_site_label
_atom_site_fract_x
_atom_site_fract_y
_atom_site_fract_z
Si Si1 0.859095 0.583032 0.332936
Si Si2 0.161610 0.321471 0.020053
Si Si3 0.133456 0.876971 0.463711
Si Si4 0.656956 0.394355 0.240785
Si Si5 0.595141 0.955658 0.756311
Si Si6 0.877720 0.334473 0.856693
Si Si7 0.704701 0.915767 0.478949
Si Si8 0.614629 0.302943 0.860100
O O1 0.878724 0.610075 0.166762
O O2 0.762703 0.480636 0.273321
O O3 0.778404 0.757348 0.393638
O O4 0.000000 0.500000 0.500000
O O5 0.033767 0.281813 0.007164
O O6 0.176227 0.468464 0.148214
O O7 0.303393 0.161799 0.076713
O O8 0.255611 0.756870 0.624398
O O9 0.100332 0.758927 0.308002
O O10 0.195233 0.990062 0.426162
O O11 0.000000 0.000000 0.500000
O O12 0.516205 0.536127 0.250704
O O13 0.615912 0.327986 0.049508
O O14 0.437772 0.971740 0.672147
O O15 0.593580 0.137371 0.787634
O O16 0.659026 0.877793 0.614801
O O17 0.761433 0.295190 0.876736
#
# Coordination Sequence:
#
# PCOD9065335 Si02
#       8
#     2   2   2   2   2   2   2   2
#     4  12  25  47  69  99 143 181 227 284 343 411
#     4  11  27  44  72 107 131 185 230 282 346 408
#     4  12  27  46  68 104 141 183 228 282 347 408
#     4  11  26  44  72 100 137 182 230 282 347 406
#     4  11  26  46  72 100 141 179 232 284 343 407
#     4  11  25  46  69 102 136 177 235 277 345 405
#     4  11  26  45  68 104 138 184 226 283 345 404
#     4  11  24  48  69 101 137 182 229 288 339 405
#
# _framework density 21.811980999999999
#
# number of rings (size 3 to 8) (size 9 to 14) (size 15 to 20)
#    0.000    0.750    3.750    2.250   10.500    2.500 
#    0.000    0.000    0.000    0.000    0.000    0.000 
#    0.000    0.000    0.000    0.000    0.000    0.000 
#
# Total GULP energy -89500.343218 kJ/mol
# GULP energy per Si atom -5593.771451 kJ/mol
# Density = 2.176234 g / cm^3
# Si number density = 21.811981 Si / 1000 Ang^3
#
#
#
# Elastic Constant Matrix: (Units=GPa)
#
#
# Indices 1 2 3 4 5 6 
#
# 1 85.2668 24.2836 10.8732 14.0158 13.8638 -1.3435
# 2 24.2836 103.3118 46.6747 17.4440 -7.8480 -22.1324
# 3 10.8732 46.6747 64.6760 5.9474 4.2772 -12.1226
# 4 14.0158 17.4440 5.9474 43.3485 -2.4096 4.0097
# 5 13.8638 -7.8480 4.2772 -2.4096 26.9205 6.8897
# 6 -1.3435 -22.1324 -12.1226 4.0097 6.8897 29.7873
#
#
#
# Elastic Compliance Matrix: (Units=1/GPa)
#
#
# Indices 1 2 3 4 5 6 
#
# 1 0.014962 -0.004086 0.001670 -0.004074 -0.009818 0.001138
# 2 -0.004086 0.018985 -0.011423 -0.005146 0.006848 0.008382
# 3 0.001670 -0.011423 0.024757 -0.000198 -0.009113 0.003798
# 4 -0.004074 -0.005146 -0.000198 0.027624 0.005420 -0.009060
# 5 -0.009818 0.006848 -0.009113 0.005420 0.048978 -0.011122
# 6 0.001138 0.008382 0.003798 -0.009060 -0.011122 0.045189
#
#
# Mechanical properties :
#
#
# Convention : Reuss Voigt Hill
#
# Bulk Modulus (GPa) = 32.22837 46.32417 39.27627
# Shear Modulus (GPa) = 22.88184 31.43948 27.16066
#
# Velocity S-wave (km/s) = 3.24242 3.80068 3.53259
# Velocity P-wave (km/s) = 5.36892 6.36744 5.88938
#
# Compressibility (1/GPa) = 0.03102857
#
# Stress axis : x y z
#
# Youngs Moduli (GPa) = 66.83435 52.67264 40.39258
#
# Poissons Ratio (x) = 0.21520 -0.06747
# Poissons Ratio (y) = 0.27306 0.46139
# Poissons Ratio (z) = -0.11163 0.60166
#
# Static dielectric constant tensor:
#      x y z
#    x 1.796610 -0.004690 -0.000430 
#    y -0.004690 1.777110 -0.018500 
#    z -0.000430 -0.018500 1.813410 
# 
# From -- ./inp_files/185143.got.cif
#   From: 2010.05.17/outbox.cif.g08.bks.cpg/sg2_93_cif.got.tgz:185143.got - 2010.06.03 11:33:40.
