data_PCOD9065807
_publ_section_title
;
Structure prediction by ZEFSAII (Michael W. Deem and Ramdas Pophale) SiO2 
 PCOD9065807
Probable space group: P -1
;
_chemical_formula_sum "Si O2"
_cell_formula_units_Z 13
_cell_length_a 15.013871
_cell_length_b 6.408093
_cell_length_c 15.097549
_cell_angle_alpha 105.979588
_cell_angle_beta 27.391655
_cell_angle_gamma 116.358833
_cell_volume 573.336179
_symmetry_space_group_name_H-M "P -1"
_symmetry_group_IT_number 2
_symmetry_cell_setting 'triclinic'
loop_
_space_group_symop_operation_xyz
x,y,z
-x,-y,-z
loop_
_atom_site_type_symbol
_atom_site_label
_atom_site_fract_x
_atom_site_fract_y
_atom_site_fract_z
Si Si1 0.000000 0.000000 0.000000
Si Si2 0.594404 0.437162 0.775428
Si Si3 0.378511 0.713109 0.549900
Si Si4 0.208135 0.933834 0.993556
Si Si5 0.068463 0.397941 0.650673
Si Si6 0.652785 0.286553 0.889542
Si Si7 0.285885 0.511499 0.803176
O O1 0.932095 0.717087 0.002731
O O2 0.089872 0.958648 0.013194
O O3 0.759379 0.596360 0.572762
O O4 0.703467 0.358390 0.750254
O O5 0.485563 0.587730 0.934065
O O6 0.403534 0.191099 0.876040
O O7 0.204306 0.639676 0.617251
O O8 0.287244 0.578984 0.707106
O O9 0.546454 0.608551 0.357403
O O10 0.500000 0.000000 0.500000
O O11 0.032769 0.820078 0.214090
O O12 0.309559 0.744205 0.863981
O O13 0.866604 0.379193 0.770633
O O14 0.500000 0.000000 0.000000
#
# Coordination Sequence:
#
# PCOD9065807 Si02
#       7
#     1   2   2   2   2   2   2
#     4  12  24  42  68 100 152 198 248 312 368 442
#     4  11  27  52  75 111 152 191 249 324 379 461
#     4  11  25  46  69 108 150 201 255 307 374 452
#     4  12  27  47  73 110 151 208 257 307 383 455
#     4  12  26  48  77 111 148 202 247 309 389 442
#     4  11  26  52  80 110 148 189 254 319 388 461
#     4  11  25  43  68 102 152 200 252 314 364 455
#
# _framework density 22.674303999999999
#
# number of rings (size 3 to 8) (size 9 to 14) (size 15 to 20)
#    0.000    0.615    3.077    3.692    6.462    0.615 
#    5.538    0.000    0.000    0.000    0.000    0.000 
#    0.000    0.000    0.000    0.000    0.000    0.000 
#
# Total GULP energy -72454.954383 kJ/mol
# GULP energy per Si atom -5573.458029 kJ/mol
# Density = 2.262270 g / cm^3
# Si number density = 22.674304 Si / 1000 Ang^3
#
#
#
# Elastic Constant Matrix: (Units=GPa)
#
#
# Indices 1 2 3 4 5 6 
#
# 1 176.0119 54.4759 53.3445 -6.6954 -15.4066 8.8850
# 2 54.4759 153.0114 43.7946 1.9602 -5.2003 -1.9856
# 3 53.3445 43.7946 115.7455 2.3908 23.5798 -1.8142
# 4 -6.6954 1.9602 2.3908 23.9203 5.9913 3.9003
# 5 -15.4066 -5.2003 23.5798 5.9913 32.3116 -7.5064
# 6 8.8850 -1.9856 -1.8142 3.9003 -7.5064 27.7561
#
#
#
# Elastic Compliance Matrix: (Units=1/GPa)
#
#
# Indices 1 2 3 4 5 6 
#
# 1 0.008216 -0.001427 -0.004610 0.001515 0.006420 -0.001510
# 2 -0.001427 0.008114 -0.003104 -0.002047 0.003768 0.002141
# 3 -0.004610 -0.003104 0.014762 0.001320 -0.014131 -0.001789
# 4 0.001515 -0.002047 0.001320 0.046859 -0.011647 -0.010280
# 5 0.006420 0.003768 -0.014131 -0.011647 0.049979 0.012444
# 6 -0.001510 0.002141 -0.001789 -0.010280 0.012444 0.041358
#
#
# Mechanical properties :
#
#
# Convention : Reuss Voigt Hill
#
# Bulk Modulus (GPa) = 78.05883 83.11099 80.58491
# Shear Modulus (GPa) = 26.06365 36.34119 31.20242
#
# Velocity S-wave (km/s) = 3.39408 4.00778 3.71363
# Velocity P-wave (km/s) = 7.06120 7.62563 7.34883
#
# Compressibility (1/GPa) = 0.01281085
#
# Stress axis : x y z
#
# Youngs Moduli (GPa) = 121.71671 123.24470 67.74088
#
# Poissons Ratio (x) = 0.17581 0.31226
# Poissons Ratio (y) = 0.17363 0.21030
# Poissons Ratio (z) = 0.56106 0.38260
#
# Static dielectric constant tensor:
#      x y z
#    x 1.844310 -0.013370 -0.073350 
#    y -0.013370 1.780090 -0.044060 
#    z -0.073350 -0.044060 1.857910 
# 
# From -- ./inp_files/525413.got.cif
#   From: 2010.05.17/outbox.cif.g08.bks.cpg/sg2_263_cif.got.tgz:525413.got - 2010.06.03 11:33:40.
