data_PCOD9065416
_publ_section_title
;
Structure prediction by ZEFSAII (Michael W. Deem and Ramdas Pophale) SiO2 
 PCOD9065416
Probable space group: P -1
;
_chemical_formula_sum "Si O2"
_cell_formula_units_Z 12
_cell_length_a 16.758440
_cell_length_b 20.212929
_cell_length_c 12.392803
_cell_angle_alpha 31.608032
_cell_angle_beta 157.790940
_cell_angle_gamma 159.461836
_cell_volume 552.959377
_symmetry_space_group_name_H-M "P -1"
_symmetry_group_IT_number 2
_symmetry_cell_setting 'triclinic'
loop_
_space_group_symop_operation_xyz
x,y,z
-x,-y,-z
loop_
_atom_site_type_symbol
_atom_site_label
_atom_site_fract_x
_atom_site_fract_y
_atom_site_fract_z
Si Si1 0.349022 0.096035 0.787409
Si Si2 0.715403 0.796592 0.871816
Si Si3 0.345089 0.552391 0.180140
Si Si4 0.401162 0.823948 0.252682
Si Si5 0.731836 0.448996 0.143099
Si Si6 0.843591 0.221005 0.639287
O O1 0.567366 0.285928 0.866904
O O2 0.428640 0.129297 0.713535
O O3 0.000000 0.000000 0.500000
O O4 0.400134 0.975000 0.059057
O O5 0.561252 0.812810 0.562583
O O6 0.477490 0.653579 0.868741
O O7 0.884295 0.749709 0.100494
O O8 0.000000 0.000000 0.000000
O O9 0.500000 0.500000 0.500000
O O10 0.462402 0.601540 0.134847
O O11 0.967095 0.375099 0.945412
O O12 0.835394 0.350829 0.386972
O O13 0.027228 0.673569 0.228084
O O14 0.500000 0.000000 0.500000
#
# Coordination Sequence:
#
# PCOD9065416 Si02
#       6
#     2   2   2   2   2   2
#     4  11  26  49  78 106 145 195 245 301 357 433
#     4  12  27  46  76 107 147 193 236 305 369 433
#     4  12  27  48  77 104 147 193 240 306 363 428
#     4  11  27  50  73 110 146 190 250 292 369 434
#     4  11  27  46  72 111 145 186 251 291 374 436
#     4  11  24  48  73 105 146 192 236 302 362 434
#
# _framework density 21.701412999999999
#
# number of rings (size 3 to 8) (size 9 to 14) (size 15 to 20)
#    0.000    0.667    3.333    3.000    7.000    1.333 
#    0.000    0.000    0.000    0.000    0.000    0.000 
#    0.000    0.000    0.000    0.000    0.000    0.000 
#
# Total GULP energy -67091.187179 kJ/mol
# GULP energy per Si atom -5590.932265 kJ/mol
# Density = 2.165202 g / cm^3
# Si number density = 21.701413 Si / 1000 Ang^3
#
#
#
# Elastic Constant Matrix: (Units=GPa)
#
#
# Indices 1 2 3 4 5 6 
#
# 1 146.5515 81.6291 111.3923 -21.4863 2.6443 -6.2591
# 2 81.6291 172.6861 81.3147 5.8144 -1.3328 -35.8491
# 3 111.3923 81.3147 204.2049 -7.8239 -10.4114 -7.0376
# 4 -21.4863 5.8144 -7.8239 31.6478 2.1789 2.1472
# 5 2.6443 -1.3328 -10.4114 2.1789 44.9615 0.5894
# 6 -6.2591 -35.8491 -7.0376 2.1472 0.5894 46.3979
#
#
#
# Elastic Compliance Matrix: (Units=1/GPa)
#
#
# Indices 1 2 3 4 5 6 
#
# 1 0.016744 -0.006018 -0.006600 0.011325 -0.003189 -0.003875
# 2 -0.006018 0.011001 -0.001060 -0.006947 0.000668 0.007841
# 3 -0.006600 -0.001060 0.008954 -0.002228 0.002542 -0.000280
# 4 0.011325 -0.006947 -0.002228 0.040646 -0.003279 -0.006017
# 5 -0.003189 0.000668 0.002542 -0.003279 0.023192 0.000329
# 6 -0.003875 0.007841 -0.000280 -0.006017 0.000329 0.027320
#
#
# Mechanical properties :
#
#
# Convention : Reuss Voigt Hill
#
# Bulk Modulus (GPa) = 107.01769 119.12385 113.07077
# Shear Modulus (GPa) = 31.58034 41.20853 36.39444
#
# Velocity S-wave (km/s) = 3.81887 4.36235 4.09963
# Velocity P-wave (km/s) = 8.29854 8.96576 8.63860
#
# Compressibility (1/GPa) = 0.00934425
#
# Stress axis : x y z
#
# Youngs Moduli (GPa) = 59.72194 90.89843 111.68350
#
# Poissons Ratio (x) = 0.54700 0.73710
# Poissons Ratio (y) = 0.35939 0.11838
# Poissons Ratio (z) = 0.39416 0.09635
#
# Static dielectric constant tensor:
#      x y z
#    x 1.858070 0.008670 -0.009570 
#    y 0.008670 1.888070 0.004410 
#    z -0.009570 0.004410 1.779120 
# 
# From -- ./inp_files/467078.got.cif
#   From: 2010.05.17/outbox.cif.g08.bks.cpg/sg2_234_cif.got.tgz:467078.got - 2010.06.03 11:33:40.
