data_PCOD9065998
_publ_section_title
;
Structure prediction by ZEFSAII (Michael W. Deem and Ramdas Pophale) SiO2 
 PCOD9065998
Probable space group: P -1
;
_chemical_formula_sum "Si O2"
_cell_formula_units_Z 16
_cell_length_a 13.100232
_cell_length_b 5.389569
_cell_length_c 11.550956
_cell_angle_alpha 93.082513
_cell_angle_beta 97.912113
_cell_angle_gamma 128.567681
_cell_volume 621.241052
_symmetry_space_group_name_H-M "P -1"
_symmetry_group_IT_number 2
_symmetry_cell_setting 'triclinic'
loop_
_space_group_symop_operation_xyz
x,y,z
-x,-y,-z
loop_
_atom_site_type_symbol
_atom_site_label
_atom_site_fract_x
_atom_site_fract_y
_atom_site_fract_z
Si Si1 0.576360 0.638998 0.339972
Si Si2 0.244299 0.018121 0.831257
Si Si3 0.887578 0.127903 0.790659
Si Si4 0.692990 0.141649 0.921084
Si Si5 0.892290 0.767940 0.071134
Si Si6 0.333212 0.588459 0.270585
Si Si7 0.695674 0.345540 0.469639
Si Si8 0.940851 0.572575 0.389552
O O1 0.422801 0.479623 0.297278
O O2 0.609218 0.449593 0.416930
O O3 0.637629 0.693067 0.223245
O O4 0.638473 0.990290 0.411248
O O5 0.169352 0.716321 0.722803
O O6 0.132242 0.055128 0.837593
O O7 0.307980 0.029966 0.966665
O O8 0.801747 0.193388 0.850166
O O9 0.035303 0.365036 0.874395
O O10 0.927767 0.183891 0.663736
O O11 0.810803 0.750911 0.790925
O O12 0.598745 0.125638 0.807823
O O13 0.748118 0.476047 0.997188
O O14 0.000000 0.000000 0.000000
O O15 0.311587 0.677395 0.393656
O O16 0.844015 0.616071 0.444204
O O17 0.000000 0.500000 0.500000
#
# Coordination Sequence:
#
# PCOD9065998 Si02
#       8
#     2   2   2   2   2   2   2   2
#     4  11  28  52  76 105 147 199 250 303 363 434
#     4  11  25  44  71 101 148 194 237 298 375 436
#     4  12  25  41  70 106 145 183 242 302 372 435
#     4  12  24  43  67 107 141 193 240 295 373 435
#     4  12  21  41  65 101 141 186 229 293 372 439
#     4  12  28  44  76 105 142 190 252 305 355 440
#     4  11  27  52  77 106 147 196 245 305 375 426
#     4  11  25  44  73 109 148 186 241 308 365 447
#
# _framework density 25.754899000000002
#
# number of rings (size 3 to 8) (size 9 to 14) (size 15 to 20)
#    0.000    0.500    3.750    3.375   10.500    1.000 
#    0.000    2.500    0.000    0.000    0.000    0.000 
#    0.000    0.000    0.000    0.000    0.000    0.000 
#
# Total GULP energy -89166.319485 kJ/mol
# GULP energy per Si atom -5572.894968 kJ/mol
# Density = 2.569628 g / cm^3
# Si number density = 25.754899 Si / 1000 Ang^3
#
#
#
# Elastic Constant Matrix: (Units=GPa)
#
#
# Indices 1 2 3 4 5 6 
#
# 1 80.0826 -9.4463 21.3613 12.6552 -4.4364 -7.8374
# 2 -9.4463 54.1031 17.0965 -3.7066 -1.1165 -7.7551
# 3 21.3613 17.0965 98.7122 -12.6714 10.6348 3.5110
# 4 12.6552 -3.7066 -12.6714 25.0801 -0.6487 -3.7137
# 5 -4.4364 -1.1165 10.6348 -0.6487 40.5300 -8.9403
# 6 -7.8374 -7.7551 3.5110 -3.7137 -8.9403 33.6885
#
#
#
# Elastic Compliance Matrix: (Units=1/GPa)
#
#
# Indices 1 2 3 4 5 6 
#
# 1 0.017504 0.005507 -0.006849 -0.010421 0.005077 0.006252
# 2 0.005507 0.022540 -0.006031 -0.001163 0.004594 0.008189
# 3 -0.006849 -0.006031 0.014614 0.009056 -0.005713 -0.005023
# 4 -0.010421 -0.001163 0.009056 0.049644 -0.002495 0.001174
# 5 0.005077 0.004594 -0.005713 -0.002495 0.029081 0.010277
# 6 0.006252 0.008189 -0.005023 0.001174 0.010277 0.036403
#
#
# Mechanical properties :
#
#
# Convention : Reuss Voigt Hill
#
# Bulk Modulus (GPa) = 25.05522 32.32453 28.68987
# Shear Modulus (GPa) = 25.27367 33.45217 29.36292
#
# Velocity S-wave (km/s) = 3.13599 3.60789 3.38019
# Velocity P-wave (km/s) = 4.78143 5.47119 5.13790
#
# Compressibility (1/GPa) = 0.03991184
#
# Stress axis : x y z
#
# Youngs Moduli (GPa) = 57.13131 44.36644 68.42863
#
# Poissons Ratio (x) = -0.24434 0.46865
# Poissons Ratio (y) = -0.31464 0.41270
# Poissons Ratio (z) = 0.39127 0.26758
#
# Static dielectric constant tensor:
#      x y z
#    x 1.983230 0.103780 -0.008540 
#    y 0.103780 1.988710 0.114930 
#    z -0.008540 0.114930 2.098160 
# 
# From -- ./inp_files/124261.got.cif
#   From: 2010.05.17/outbox.cif.g08.bks.cpg/sg2_63_cif.got.tgz:124261.got - 2010.06.03 11:33:40.
