data_PCOD9065507
_publ_section_title
;
Structure prediction by ZEFSAII (Michael W. Deem and Ramdas Pophale) SiO2 
 PCOD9065507
Probable space group: P -1
;
_chemical_formula_sum "Si O2"
_cell_formula_units_Z 16
_cell_length_a 13.903645
_cell_length_b 10.896562
_cell_length_c 4.810654
_cell_angle_alpha 65.053882
_cell_angle_beta 98.503870
_cell_angle_gamma 112.357340
_cell_volume 611.084405
_symmetry_space_group_name_H-M "P -1"
_symmetry_group_IT_number 2
_symmetry_cell_setting 'triclinic'
loop_
_space_group_symop_operation_xyz
x,y,z
-x,-y,-z
loop_
_atom_site_type_symbol
_atom_site_label
_atom_site_fract_x
_atom_site_fract_y
_atom_site_fract_z
Si Si1 0.630139 0.877995 0.342893
Si Si2 0.909004 0.750019 0.759217
Si Si3 0.191941 0.684860 0.740071
Si Si4 0.233330 0.121936 0.094673
Si Si5 0.048211 0.835202 0.264090
Si Si6 0.582830 0.127261 0.237702
Si Si7 0.207586 0.523066 0.411913
Si Si8 0.451147 0.625826 0.380158
O O1 0.703996 0.922303 0.595921
O O2 0.527791 0.742694 0.510227
O O3 0.688424 0.823113 0.179636
O O4 0.611117 0.025370 0.115168
O O5 0.815977 0.775484 0.864865
O O6 0.858687 0.616083 0.656343
O O7 0.972900 0.863545 0.439184
O O8 0.989615 0.759761 0.033781
O O9 0.105346 0.744293 0.544086
O O10 0.310600 0.787741 0.633362
O O11 0.172843 0.540163 0.690113
O O12 0.193435 0.651875 0.097800
O O13 0.138825 0.983444 0.085302
O O14 0.500000 0.000000 0.500000
O O15 0.548781 0.253883 0.969779
O O16 0.329093 0.546231 0.457371
O O17 0.500000 0.500000 0.500000
#
# Coordination Sequence:
#
# PCOD9065507 Si02
#       8
#     2   2   2   2   2   2   2   2
#     4  12  25  45  79 110 151 203 253 314 383 461
#     4  12  26  46  70 103 147 200 242 315 381 451
#     4  11  25  44  74 106 145 193 249 315 369 451
#     4  12  26  46  74 109 147 190 258 313 382 450
#     4  12  25  44  74 103 147 189 256 313 381 437
#     4  11  24  48  78 115 154 205 261 317 382 465
#     4  11  26  47  71 104 152 195 252 303 378 464
#     4  11  26  46  74 112 156 201 248 313 388 465
#
# _framework density 26.182962
#
# number of rings (size 3 to 8) (size 9 to 14) (size 15 to 20)
#    0.000    0.500    1.250    6.375    3.500    5.000 
#    0.000    8.125    0.000    0.000    0.000    0.000 
#    0.000    0.000    0.000    0.000    0.000    0.000 
#
# Total GULP energy -89529.021499 kJ/mol
# GULP energy per Si atom -5595.563844 kJ/mol
# Density = 2.612337 g / cm^3
# Si number density = 26.182962 Si / 1000 Ang^3
#
#
#
# Elastic Constant Matrix: (Units=GPa)
#
#
# Indices 1 2 3 4 5 6 
#
# 1 86.6259 45.7263 72.4058 5.0652 10.3923 -2.3150
# 2 45.7263 155.9272 20.9448 16.2002 22.5764 2.5482
# 3 72.4058 20.9448 73.9783 27.1878 44.9834 6.9492
# 4 5.0652 16.2002 27.1878 25.5476 -26.9086 -2.8915
# 5 10.3923 22.5764 44.9834 -26.9086 19.9704 -17.2626
# 6 -2.3150 2.5482 6.9492 -2.8915 -17.2626 37.6345
#
#
#
# Elastic Compliance Matrix: (Units=1/GPa)
#
#
# Indices 1 2 3 4 5 6 
#
# 1 0.019685 -0.001779 -0.006050 -0.011077 -0.013502 -0.004596
# 2 -0.001779 0.006683 -0.002562 0.001805 0.002677 0.001277
# 3 -0.006050 -0.002562 0.006087 0.012476 0.014631 0.006347
# 4 -0.011077 0.001805 0.012476 0.014392 -0.011129 -0.007106
# 5 -0.013502 0.002677 0.014631 -0.011129 0.003601 -0.002917
# 6 -0.004596 0.001277 0.006347 -0.007106 -0.002917 0.023146
#
#
# Mechanical properties :
#
#
# Convention : Reuss Voigt Hill
#
# Bulk Modulus (GPa) = 85.67336 66.07612 75.87474
# Shear Modulus (GPa) = 50.88230 28.46080 39.67155
#
# Velocity S-wave (km/s) = 4.41311 3.30054 3.89674
# Velocity P-wave (km/s) = 7.66547 6.30998 7.02052
#
# Compressibility (1/GPa) = 0.01167224
#
# Stress axis : x y z
#
# Youngs Moduli (GPa) = 50.80054 149.62998 164.29719
#
# Poissons Ratio (x) = 0.26621 0.99406
# Poissons Ratio (y) = 0.09038 0.42087
# Poissons Ratio (z) = 0.30736 0.38330
#
# Static dielectric constant tensor:
#      x y z
#    x 2.133010 -0.032490 0.017920 
#    y -0.032490 2.082140 -0.025340 
#    z 0.017920 -0.025340 2.024200 
# 
# From -- ./inp_files/94683.got.cif
#   From: 2010.05.17/outbox.cif.g08.bks.cpg/sg2_48_cif.got.tgz:94683.got - 2010.06.03 11:33:40.
