data_PCOD9065418
_publ_section_title
;
Structure prediction by ZEFSAII (Michael W. Deem and Ramdas Pophale) SiO2 
 PCOD9065418
Probable space group: P -1
;
_chemical_formula_sum "Si O2"
_cell_formula_units_Z 16
_cell_length_a 11.371781
_cell_length_b 8.958120
_cell_length_c 11.378650
_cell_angle_alpha 49.814235
_cell_angle_beta 64.731473
_cell_angle_gamma 50.349606
_cell_volume 681.592889
_symmetry_space_group_name_H-M "P -1"
_symmetry_group_IT_number 2
_symmetry_cell_setting 'triclinic'
loop_
_space_group_symop_operation_xyz
x,y,z
-x,-y,-z
loop_
_atom_site_type_symbol
_atom_site_label
_atom_site_fract_x
_atom_site_fract_y
_atom_site_fract_z
Si Si1 0.582275 0.385552 0.146991
Si Si2 0.331702 0.046869 0.052430
Si Si3 0.348934 0.024115 0.402819
Si Si4 0.863679 0.650636 0.198139
Si Si5 0.197364 0.433790 0.076090
Si Si6 0.833902 0.227388 0.452523
Si Si7 0.685391 0.860164 0.380346
Si Si8 0.406888 0.586064 0.370009
O O1 0.485042 0.472430 0.267702
O O2 0.641509 0.120323 0.249684
O O3 0.500000 0.500000 0.000000
O O4 0.718138 0.436891 0.065259
O O5 0.199021 0.287055 0.040063
O O6 0.360173 0.844318 0.226459
O O7 0.265907 0.097296 0.924114
O O8 0.500000 0.000000 0.000000
O O9 0.301127 0.221859 0.227148
O O10 0.302664 0.163529 0.473348
O O11 0.264422 0.880220 0.502230
O O12 0.533954 0.856175 0.408353
O O13 0.838780 0.438933 0.283270
O O14 0.833385 0.692456 0.328632
O O15 0.031513 0.586108 0.123850
O O16 0.760859 0.345700 0.549508
O O17 0.000000 0.000000 0.500000
O O18 0.500000 0.500000 0.500000
#
# Coordination Sequence:
#
# PCOD9065418 Si02
#       8
#     2   2   2   2   2   2   2   2
#     4  12  26  47  75 108 152 201 254 309 379 461
#     4  12  23  45  73 106 145 185 251 314 369 442
#     4  11  24  48  73 105 151 197 252 314 369 454
#     4  12  28  47  74 112 151 199 246 316 390 448
#     4  12  25  47  73 106 153 195 247 315 382 449
#     4  12  26  47  74 115 153 193 252 320 384 450
#     4  11  27  46  73 107 149 200 256 308 372 460
#     4  12  26  45  79 108 143 202 258 312 371 450
#
# _framework density 23.474425
#
# number of rings (size 3 to 8) (size 9 to 14) (size 15 to 20)
#    0.000    0.250    5.000    3.375    7.000    1.000 
#    2.250    0.000    0.000    0.000    0.000    0.000 
#    0.000    0.000    0.000    0.000    0.000    0.000 
#
# Total GULP energy -89220.901536 kJ/mol
# GULP energy per Si atom -5576.306346 kJ/mol
# Density = 2.342100 g / cm^3
# Si number density = 23.474425 Si / 1000 Ang^3
#
#
#
# Elastic Constant Matrix: (Units=GPa)
#
#
# Indices 1 2 3 4 5 6 
#
# 1 70.4953 50.0914 29.0257 14.4422 -18.6926 2.3963
# 2 50.0914 151.8620 42.5465 35.1153 -10.3594 -11.9951
# 3 29.0257 42.5465 162.1066 1.2805 -3.0252 1.0251
# 4 14.4422 35.1153 1.2805 46.7796 -0.1030 -10.6963
# 5 -18.6926 -10.3594 -3.0252 -0.1030 38.2961 1.4618
# 6 2.3963 -11.9951 1.0251 -10.6963 1.4618 37.9802
#
#
#
# Elastic Compliance Matrix: (Units=1/GPa)
#
#
# Indices 1 2 3 4 5 6 
#
# 1 0.022585 -0.005661 -0.002323 -0.003679 0.009473 -0.004551
# 2 -0.005661 0.010345 -0.001675 -0.005485 -0.000193 0.002132
# 3 -0.002323 -0.001675 0.006991 0.001774 -0.001029 -0.000032
# 4 -0.003679 -0.005485 0.001774 0.028056 -0.003311 0.006481
# 5 0.009473 -0.000193 -0.001029 -0.003311 0.030698 -0.002745
# 6 -0.004551 0.002132 -0.000032 0.006481 -0.002745 0.029222
#
#
# Mechanical properties :
#
#
# Convention : Reuss Voigt Hill
#
# Bulk Modulus (GPa) = 48.53984 69.75456 59.14720
# Shear Modulus (GPa) = 32.44975 42.13120 37.29048
#
# Velocity S-wave (km/s) = 3.72202 4.24107 3.99000
# Velocity P-wave (km/s) = 6.26050 7.33225 6.81747
#
# Compressibility (1/GPa) = 0.02060163
#
# Stress axis : x y z
#
# Youngs Moduli (GPa) = 44.27757 96.66390 143.03110
#
# Poissons Ratio (x) = 0.54723 0.33232
# Poissons Ratio (y) = 0.25066 0.23962
# Poissons Ratio (z) = 0.10288 0.16194
#
# Static dielectric constant tensor:
#      x y z
#    x 1.975810 0.111400 -0.025360 
#    y 0.111400 2.060600 -0.061920 
#    z -0.025360 -0.061920 2.060300 
# 
# From -- ./inp_files/418858.got.cif
#   From: 2010.05.17/outbox.cif.g08.bks.cpg/sg2_210_cif.got.tgz:418858.got - 2010.06.03 11:33:40.
