data_PCOD9065423
_publ_section_title
;
Structure prediction by ZEFSAII (Michael W. Deem and Ramdas Pophale) SiO2 
 PCOD9065423
Probable space group: P -1
;
_chemical_formula_sum "Si O2"
_cell_formula_units_Z 12
_cell_length_a 9.101690
_cell_length_b 8.929895
_cell_length_c 12.688837
_cell_angle_alpha 35.282460
_cell_angle_beta 122.391419
_cell_angle_gamma 123.348638
_cell_volume 489.461843
_symmetry_space_group_name_H-M "P -1"
_symmetry_group_IT_number 2
_symmetry_cell_setting 'triclinic'
loop_
_space_group_symop_operation_xyz
x,y,z
-x,-y,-z
loop_
_atom_site_type_symbol
_atom_site_label
_atom_site_fract_x
_atom_site_fract_y
_atom_site_fract_z
Si Si1 0.837260 0.353177 0.093505
Si Si2 0.656323 0.366707 0.604477
Si Si3 0.167459 0.225691 0.982609
Si Si4 0.689427 0.078216 0.589200
Si Si5 0.037246 0.149393 0.538325
Si Si6 0.456548 0.154942 0.997439
O O1 0.641172 0.361835 0.974095
O O2 0.840939 0.041996 0.257399
O O3 0.861838 0.500730 0.131831
O O4 0.000000 0.500000 0.000000
O O5 0.500000 0.500000 0.500000
O O6 0.668024 0.327830 0.507394
O O7 0.843086 0.557262 0.596842
O O8 0.602817 0.088950 0.803441
O O9 0.298344 0.296289 0.890838
O O10 0.250019 0.104843 0.188360
O O11 0.000000 0.000000 0.000000
O O12 0.857016 0.127595 0.546742
O O13 0.500000 0.000000 0.500000
O O14 0.000000 0.000000 0.500000
O O15 0.500000 0.000000 0.000000
#
# Coordination Sequence:
#
# PCOD9065423 Si02
#       6
#     2   2   2   2   2   2
#     4  12  25  48  76 108 150 196 253 310 375 444
#     4  11  24  48  73 107 147 195 251 300 376 441
#     4  11  26  49  79 110 149 197 252 308 377 444
#     4  11  26  49  77 110 150 199 249 309 373 448
#     4  12  27  46  76 110 152 199 247 313 373 451
#     4  11  26  46  75 108 147 196 248 313 367 447
#
# _framework density 24.516722999999999
#
# number of rings (size 3 to 8) (size 9 to 14) (size 15 to 20)
#    0.000    0.667    3.333    3.000    9.333    1.333 
#    3.000    0.000    0.000    0.000    0.000    0.000 
#    0.000    0.000    0.000    0.000    0.000    0.000 
#
# Total GULP energy -66942.974627 kJ/mol
# GULP energy per Si atom -5578.581219 kJ/mol
# Density = 2.446092 g / cm^3
# Si number density = 24.516723 Si / 1000 Ang^3
#
#
#
# Elastic Constant Matrix: (Units=GPa)
#
#
# Indices 1 2 3 4 5 6 
#
# 1 267.3086 107.5679 19.3661 18.3373 -16.4600 -24.9443
# 2 107.5679 205.4128 3.4652 24.0466 -3.3744 -6.4245
# 3 19.3661 3.4652 54.9650 13.2139 -9.0649 2.4143
# 4 18.3373 24.0466 13.2139 34.9523 1.5649 6.0174
# 5 -16.4600 -3.3744 -9.0649 1.5649 41.9672 3.3567
# 6 -24.9443 -6.4245 2.4143 6.0174 3.3567 68.3893
#
#
#
# Elastic Compliance Matrix: (Units=1/GPa)
#
#
# Indices 1 2 3 4 5 6 
#
# 1 0.005143 -0.002496 -0.001288 -0.000850 0.001435 0.001691
# 2 -0.002496 0.006589 0.001360 -0.003735 -0.000015 -0.000010
# 3 -0.001288 0.001360 0.021373 -0.008445 0.004582 -0.000578
# 4 -0.000850 -0.003735 -0.008445 0.035548 -0.003518 -0.003318
# 5 0.001435 -0.000015 0.004582 -0.003518 0.025557 -0.000585
# 6 0.001691 -0.000010 -0.000578 -0.003318 -0.000585 0.015579
#
#
# Mechanical properties :
#
#
# Convention : Reuss Voigt Hill
#
# Bulk Modulus (GPa) = 35.38933 87.60941 61.49937
# Shear Modulus (GPa) = 40.30450 55.54758 47.92604
#
# Velocity S-wave (km/s) = 4.05898 4.76510 4.42614
# Velocity P-wave (km/s) = 6.03599 8.12940 7.15962
#
# Compressibility (1/GPa) = 0.02825711
#
# Stress axis : x y z
#
# Youngs Moduli (GPa) = 194.43857 151.77077 46.78820
#
# Poissons Ratio (x) = 0.37875 0.06027
# Poissons Ratio (y) = 0.48523 -0.06362
# Poissons Ratio (z) = 0.25046 -0.20638
#
# Static dielectric constant tensor:
#      x y z
#    x 1.984620 -0.047300 0.200380 
#    y -0.047300 1.922000 0.003090 
#    z 0.200380 0.003090 2.370880 
# 
# From -- ./inp_files/182898.got.cif
#   From: 2010.05.17/outbox.cif.g08.bks.cpg/sg2_92_cif.got.tgz:182898.got - 2010.06.03 11:33:40.
