data_PCOD9065545
_publ_section_title
;
Structure prediction by ZEFSAII (Michael W. Deem and Ramdas Pophale) SiO2 
 PCOD9065545
Probable space group: P -1
;
_chemical_formula_sum "Si O2"
_cell_formula_units_Z 11
_cell_length_a 13.148919
_cell_length_b 19.703148
_cell_length_c 5.743927
_cell_angle_alpha 117.023891
_cell_angle_beta 102.035083
_cell_angle_gamma 26.074509
_cell_volume 501.268664
_symmetry_space_group_name_H-M "P -1"
_symmetry_group_IT_number 2
_symmetry_cell_setting 'triclinic'
loop_
_space_group_symop_operation_xyz
x,y,z
-x,-y,-z
loop_
_atom_site_type_symbol
_atom_site_label
_atom_site_fract_x
_atom_site_fract_y
_atom_site_fract_z
Si Si1 0.793330 0.330000 0.798566
Si Si2 0.922645 0.012791 0.735676
Si Si3 0.000000 0.500000 0.000000
Si Si4 0.703709 0.547328 0.825560
Si Si5 0.567519 0.891739 0.170247
Si Si6 0.928615 0.759903 0.837190
O O1 0.751279 0.434494 0.795021
O O2 0.500000 0.500000 0.000000
O O3 0.935324 0.164972 0.478926
O O4 0.981286 0.231618 0.945559
O O5 0.601474 0.224373 0.923099
O O6 0.000000 0.000000 0.500000
O O7 0.000000 0.000000 0.000000
O O8 0.718522 0.716873 0.071808
O O9 0.095175 0.524898 0.094541
O O10 0.803255 0.461508 0.478648
O O11 0.500000 0.000000 0.500000
O O12 0.284348 0.065514 0.181621
O O13 0.763126 0.803493 0.947369
#
# Coordination Sequence:
#
# PCOD9065545 Si02
#       6
#     2   2   1   2   2   2
#     4  12  26  51  78 109 160 202 266 332 399 470
#     4  12  30  52  80 117 156 212 272 334 401 486
#     4  12  26  46  74 110 158 196 258 330 392 480
#     4  12  28  47  76 116 155 206 266 321 406 468
#     4  11  24  49  69 111 158 201 261 320 397 475
#     4  11  25  47  78 108 156 211 255 329 402 470
#
# _framework density 21.944322
#
# number of rings (size 3 to 8) (size 9 to 14) (size 15 to 20)
#    0.000    0.364    5.455    1.091    7.636    2.182 
#    0.000    0.000    0.000    0.000    0.000    0.000 
#    0.000    0.000    0.000    0.000    0.000    0.000 
#
# Total GULP energy -61256.630162 kJ/mol
# GULP energy per Si atom -5568.784560 kJ/mol
# Density = 2.189438 g / cm^3
# Si number density = 21.944322 Si / 1000 Ang^3
#
#
#
# Elastic Constant Matrix: (Units=GPa)
#
#
# Indices 1 2 3 4 5 6 
#
# 1 133.3613 13.6760 57.5933 11.8264 13.8976 -0.8819
# 2 13.6760 84.9073 42.8984 25.0120 9.4341 -1.2799
# 3 57.5933 42.8984 143.6690 26.6141 -0.6351 -10.6105
# 4 11.8264 25.0120 26.6141 36.9346 9.3636 14.9427
# 5 13.8976 9.4341 -0.6351 9.3636 29.3662 1.1751
# 6 -0.8819 -1.2799 -10.6105 14.9427 1.1751 51.2240
#
#
#
# Elastic Compliance Matrix: (Units=1/GPa)
#
#
# Indices 1 2 3 4 5 6 
#
# 1 0.009809 0.000923 -0.004543 0.001282 -0.005406 -0.000999
# 2 0.000923 0.016428 -0.003394 -0.009234 -0.002943 0.002484
# 3 -0.004543 -0.003394 0.011603 -0.007864 0.005823 0.004401
# 4 0.001282 -0.009234 -0.007864 0.048054 -0.012510 -0.015569
# 5 -0.005406 -0.002943 0.005823 -0.012510 0.041522 0.003736
# 6 -0.000999 0.002484 0.004401 -0.015569 0.003736 0.024934
#
#
# Mechanical properties :
#
#
# Convention : Reuss Voigt Hill
#
# Bulk Modulus (GPa) = 41.99671 65.58590 53.79131
# Shear Modulus (GPa) = 28.68363 40.02295 34.35329
#
# Velocity S-wave (km/s) = 3.61932 4.27528 3.96090
# Velocity P-wave (km/s) = 6.05354 7.37041 6.74419
#
# Compressibility (1/GPa) = 0.02381139
#
# Stress axis : x y z
#
# Youngs Moduli (GPa) = 101.95069 60.86988 86.18744
#
# Poissons Ratio (x) = -0.05620 0.39154
# Poissons Ratio (y) = -0.09412 0.29256
# Poissons Ratio (z) = 0.46315 0.20662
#
# Static dielectric constant tensor:
#      x y z
#    x 1.789970 0.045510 -0.069930 
#    y 0.045510 1.853450 -0.070130 
#    z -0.069930 -0.070130 1.856020 
# 
# From -- ./inp_files/23796.got.cif
#   From: 2010.05.17/outbox.cif.g08.bks.cpg/sg2_12_cif.got.tgz:23796.got - 2010.06.03 11:33:40.
