data_PCOD9065477
_publ_section_title
;
Structure prediction by ZEFSAII (Michael W. Deem and Ramdas Pophale) SiO2 
 PCOD9065477
Probable space group: P -1
;
_chemical_formula_sum "Si O2"
_cell_formula_units_Z 16
_cell_length_a 5.168086
_cell_length_b 10.980649
_cell_length_c 13.810675
_cell_angle_alpha 55.601609
_cell_angle_beta 94.215466
_cell_angle_gamma 109.481347
_cell_volume 602.977544
_symmetry_space_group_name_H-M "P -1"
_symmetry_group_IT_number 2
_symmetry_cell_setting 'triclinic'
loop_
_space_group_symop_operation_xyz
x,y,z
-x,-y,-z
loop_
_atom_site_type_symbol
_atom_site_label
_atom_site_fract_x
_atom_site_fract_y
_atom_site_fract_z
Si Si1 0.276122 0.522109 0.636146
Si Si2 0.315625 0.785561 0.031771
Si Si3 0.683679 0.773243 0.663757
Si Si4 0.828052 0.807881 0.142439
Si Si5 0.246223 0.471185 0.079046
Si Si6 0.744309 0.984537 0.220118
Si Si7 0.047343 0.896007 0.431525
Si Si8 0.744774 0.311035 0.613921
O O1 0.396412 0.649145 0.667791
O O2 0.327102 0.363554 0.736832
O O3 0.407839 0.611652 0.500641
O O4 0.952238 0.441485 0.630890
O O5 0.612807 0.867611 0.052514
O O6 0.310496 0.609585 0.096610
O O7 0.057370 0.785568 0.088768
O O8 0.289849 0.860869 0.893358
O O9 0.782494 0.687568 0.792326
O O10 0.682478 0.945484 0.616278
O O11 0.904876 0.816217 0.562373
O O12 0.942869 0.934611 0.174101
O O13 0.500000 0.500000 0.000000
O O14 0.000000 0.500000 0.000000
O O15 0.458735 0.837440 0.269032
O O16 0.847507 0.970466 0.336022
O O17 0.099656 0.768377 0.420942
#
# Coordination Sequence:
#
# PCOD9065477 Si02
#       8
#     2   2   2   2   2   2   2   2
#     4  11  24  48  75 114 154 201 265 325 399 479
#     4  12  28  47  79 114 160 208 274 332 402 472
#     4  11  26  50  77 113 160 203 273 327 406 483
#     4  12  26  47  77 117 156 215 262 335 400 479
#     4  12  28  51  81 115 155 217 268 331 401 485
#     4  12  26  48  74 115 162 206 268 328 406 481
#     4  11  26  48  76 113 156 210 260 336 405 480
#     4  11  26  44  80 111 157 211 260 331 407 478
#
# _framework density 26.534986
#
# number of rings (size 3 to 8) (size 9 to 14) (size 15 to 20)
#    0.000    0.500    3.750    3.000    5.250    3.500 
#    0.000    0.000    0.000    0.000    0.000    0.000 
#    0.000    0.000    0.000    0.000    0.000    0.000 
#
# Total GULP energy -89598.383713 kJ/mol
# GULP energy per Si atom -5599.898982 kJ/mol
# Density = 2.647459 g / cm^3
# Si number density = 26.534986 Si / 1000 Ang^3
#
#
#
# Elastic Constant Matrix: (Units=GPa)
#
#
# Indices 1 2 3 4 5 6 
#
# 1 128.9276 32.5351 55.2914 12.3886 10.6835 -14.5010
# 2 32.5351 98.8393 21.4138 -23.5258 5.7881 15.9984
# 3 55.2914 21.4138 197.6587 -6.6735 22.8376 -1.8904
# 4 12.3886 -23.5258 -6.6735 52.1035 8.0119 5.4608
# 5 10.6835 5.7881 22.8376 8.0119 44.5556 10.9019
# 6 -14.5010 15.9984 -1.8904 5.4608 10.9019 37.1446
#
#
#
# Elastic Compliance Matrix: (Units=1/GPa)
#
#
# Indices 1 2 3 4 5 6 
#
# 1 0.012369 -0.006483 -0.002708 -0.006897 -0.001696 0.008995
# 2 -0.006483 0.016392 0.000249 0.010110 0.000201 -0.011124
# 3 -0.002708 0.000249 0.006183 0.002018 -0.002838 -0.000314
# 4 -0.006897 0.010110 0.002018 0.027187 -0.003130 -0.010022
# 5 -0.001696 0.000201 -0.002838 -0.003130 0.026878 -0.008322
# 6 0.008995 -0.011124 -0.000314 -0.010022 -0.008322 0.039124
#
#
# Mechanical properties :
#
#
# Convention : Reuss Voigt Hill
#
# Bulk Modulus (GPa) = 58.61645 71.54514 65.08079
# Shear Modulus (GPa) = 32.95877 47.83975 40.39926
#
# Velocity S-wave (km/s) = 3.52815 4.25066 3.90614
# Velocity P-wave (km/s) = 6.22377 7.14926 6.70251
#
# Compressibility (1/GPa) = 0.01706006
#
# Stress axis : x y z
#
# Youngs Moduli (GPa) = 80.84922 61.00356 161.73610
#
# Poissons Ratio (x) = 0.39547 0.43806
# Poissons Ratio (y) = 0.52413 -0.04031
# Poissons Ratio (z) = 0.21898 -0.01520
#
# Static dielectric constant tensor:
#      x y z
#    x 2.082600 0.057310 0.000190 
#    y 0.057310 2.159040 0.032010 
#    z 0.000190 0.032010 2.081540 
# 
# From -- ./inp_files/482645.got.cif
#   From: 2010.05.17/outbox.cif.g08.bks.cpg/sg2_242_cif.got.tgz:482645.got - 2010.06.03 11:33:40.
