data_PCOD9065347
_publ_section_title
;
Structure prediction by ZEFSAII (Michael W. Deem and Ramdas Pophale) SiO2 
 PCOD9065347
Probable space group: P -1
;
_chemical_formula_sum "Si O2"
_cell_formula_units_Z 13
_cell_length_a 12.659224
_cell_length_b 11.368086
_cell_length_c 7.802908
_cell_angle_alpha 106.841234
_cell_angle_beta 87.567701
_cell_angle_gamma 33.073358
_cell_volume 491.344255
_symmetry_space_group_name_H-M "P -1"
_symmetry_group_IT_number 2
_symmetry_cell_setting 'triclinic'
loop_
_space_group_symop_operation_xyz
x,y,z
-x,-y,-z
loop_
_atom_site_type_symbol
_atom_site_label
_atom_site_fract_x
_atom_site_fract_y
_atom_site_fract_z
Si Si1 0.848470 0.831437 0.056454
Si Si2 0.900412 0.980900 0.588945
Si Si3 0.459328 0.075618 0.785796
Si Si4 0.256952 0.497722 0.143045
Si Si5 0.229050 0.424657 0.615125
Si Si6 0.523857 0.335398 0.479260
Si Si7 0.500000 0.500000 0.000000
O O1 0.744119 0.813763 0.129488
O O2 0.057214 0.668051 0.091064
O O3 0.646746 0.137822 0.232587
O O4 0.967478 0.687416 0.805529
O O5 0.680227 0.170798 0.568132
O O6 0.767252 0.158973 0.843739
O O7 0.000000 0.000000 0.500000
O O8 0.102253 0.675685 0.400315
O O9 0.398947 0.210402 0.671866
O O10 0.690150 0.757946 0.608075
O O11 0.435263 0.199828 0.991088
O O12 0.381916 0.493951 0.076902
O O13 0.296285 0.496977 0.611767
O O14 0.500000 0.500000 0.500000
#
# Coordination Sequence:
#
# PCOD9065347 Si02
#       7
#     2   2   2   2   2   2   1
#     4   9  17  29  45  68  98 128 160 200 248 293
#     4   9  18  31  46  66  95 128 163 200 236 283
#     4   9  16  26  45  70  97 126 157 202 253 292
#     4   9  16  26  42  66  95 122 152 196 244 286
#     4   9  16  27  44  69  98 127 158 196 248 295
#     4  10  20  32  47  71 104 136 162 195 244 300
#     4  10  18  28  44  66  94 128 162 196 236 284
#
# _framework density 26.458029
#
# number of rings (size 3 to 8) (size 9 to 14) (size 15 to 20)
#    0.000    2.769    0.000    3.692    0.000    4.308 
#    0.000    0.000    0.000    0.000    0.000   17.231 
#    0.000  182.154    0.000    2.000    0.000    0.000 
#
# Total GULP energy -72426.761355 kJ/mol
# GULP energy per Si atom -5571.289335 kJ/mol
# Density = 2.639781 g / cm^3
# Si number density = 26.458029 Si / 1000 Ang^3
#
#
#
# Elastic Constant Matrix: (Units=GPa)
#
#
# Indices 1 2 3 4 5 6 
#
# 1 156.3687 29.8119 17.1588 -2.7968 -20.8517 27.9173
# 2 29.8119 55.1503 -1.7113 1.3246 6.8445 9.5924
# 3 17.1588 -1.7113 77.0127 26.2964 -22.2869 22.9661
# 4 -2.7968 1.3246 26.2964 33.2551 3.0951 14.6804
# 5 -20.8517 6.8445 -22.2869 3.0951 48.8309 9.2874
# 6 27.9173 9.5924 22.9661 14.6804 9.2874 42.9006
#
#
#
# Elastic Compliance Matrix: (Units=1/GPa)
#
#
# Indices 1 2 3 4 5 6 
#
# 1 0.009569 -0.004593 0.001045 0.003205 0.006578 -0.008280
# 2 -0.004593 0.021372 0.000955 -0.001163 -0.004261 -0.000980
# 3 0.001045 0.000955 0.027347 -0.017288 0.016394 -0.013166
# 4 0.003205 -0.001163 -0.017288 0.048010 -0.008021 -0.007263
# 5 0.006578 -0.004261 0.016394 -0.008021 0.035101 -0.016958
# 6 -0.008280 -0.000980 -0.013166 -0.007263 -0.016958 0.042122
#
#
# Mechanical properties :
#
#
# Convention : Reuss Voigt Hill
#
# Bulk Modulus (GPa) = 18.83255 42.11673 30.47464
# Shear Modulus (GPa) = 24.22371 41.21546 32.71959
#
# Velocity S-wave (km/s) = 3.02909 3.95114 3.52043
# Velocity P-wave (km/s) = 4.40082 6.06368 5.29790
#
# Compressibility (1/GPa) = 0.05309955
#
# Stress axis : x y z
#
# Youngs Moduli (GPa) = 104.50337 46.78981 36.56713
#
# Poissons Ratio (x) = 0.21493 -0.03820
# Poissons Ratio (y) = 0.48003 -0.03491
# Poissons Ratio (z) = -0.10916 -0.04466
#
# Static dielectric constant tensor:
#      x y z
#    x 2.044010 0.023770 0.061000 
#    y 0.023770 2.143620 -0.013080 
#    z 0.061000 -0.013080 2.227980 
# 
# From -- ./inp_files/255764.got.cif
#   From: 2010.05.17/outbox.cif.g08.bks.cpg/sg2_128_cif.got.tgz:255764.got - 2010.06.03 11:33:40.
