data_PCOD9065566
_publ_section_title
;
Structure prediction by ZEFSAII (Michael W. Deem and Ramdas Pophale) SiO2 
 PCOD9065566
Probable space group: P -1
;
_chemical_formula_sum "Si O2"
_cell_formula_units_Z 13
_cell_length_a 11.906674
_cell_length_b 16.641099
_cell_length_c 10.310869
_cell_angle_alpha 34.943241
_cell_angle_beta 41.146930
_cell_angle_gamma 24.729738
_cell_volume 489.214906
_symmetry_space_group_name_H-M "P -1"
_symmetry_group_IT_number 2
_symmetry_cell_setting 'triclinic'
loop_
_space_group_symop_operation_xyz
x,y,z
-x,-y,-z
loop_
_atom_site_type_symbol
_atom_site_label
_atom_site_fract_x
_atom_site_fract_y
_atom_site_fract_z
Si Si1 0.641878 0.343062 0.709084
Si Si2 0.844672 0.892244 0.838303
Si Si3 0.408904 0.139207 0.693884
Si Si4 0.875780 0.126230 0.178992
Si Si5 0.696581 0.500670 0.699246
Si Si6 0.809690 0.580259 0.937244
Si Si7 0.500000 0.000000 0.500000
O O1 0.500000 0.500000 0.500000
O O2 0.611111 0.472294 0.681693
O O3 0.481113 0.300900 0.930131
O O4 0.955902 0.101192 0.738167
O O5 0.981151 0.938228 0.723955
O O6 0.689390 0.014432 0.678500
O O7 0.652015 0.952481 0.037999
O O8 0.054476 0.636498 0.966224
O O9 0.220112 0.394089 0.542480
O O10 0.428091 0.088843 0.595442
O O11 0.556451 0.315871 0.224813
O O12 0.896973 0.262892 0.905223
O O13 0.751657 0.746055 0.675305
O O14 0.000000 0.500000 0.000000
#
# Coordination Sequence:
#
# PCOD9065566 Si02
#       7
#     2   2   2   2   2   2   1
#     4  12  28  48  75 113 154 204 253 321 396 462
#     4  11  24  49  72 109 154 200 253 322 383 463
#     4  11  26  45  78 108 149 202 256 316 391 454
#     4  11  25  47  75 104 151 192 256 316 381 456
#     4  11  26  48  72 111 144 200 253 316 382 463
#     4  12  27  49  75 115 155 201 265 318 385 468
#     4  12  26  46  76 114 146 200 258 324 376 458
#
# _framework density 26.573191000000001
#
# number of rings (size 3 to 8) (size 9 to 14) (size 15 to 20)
#    0.000    0.615    3.077    3.231    8.615    4.923 
#    2.769    0.000    0.000    0.000    0.000    0.000 
#    0.000    0.000    0.000    0.000    0.000    0.000 
#
# Total GULP energy -72605.142418 kJ/mol
# GULP energy per Si atom -5585.010955 kJ/mol
# Density = 2.651271 g / cm^3
# Si number density = 26.573191 Si / 1000 Ang^3
#
#
#
# Elastic Constant Matrix: (Units=GPa)
#
#
# Indices 1 2 3 4 5 6 
#
# 1 115.9141 26.0827 37.4199 24.3172 34.2026 14.6714
# 2 26.0827 151.4690 25.1383 -18.3634 1.1505 22.9704
# 3 37.4199 25.1383 100.2285 -15.8238 39.5242 8.0855
# 4 24.3172 -18.3634 -15.8238 39.1090 -1.4366 4.2257
# 5 34.2026 1.1505 39.5242 -1.4366 59.6122 -2.5321
# 6 14.6714 22.9704 8.0855 4.2257 -2.5321 44.8618
#
#
#
# Elastic Compliance Matrix: (Units=1/GPa)
#
#
# Indices 1 2 3 4 5 6 
#
# 1 0.015625 -0.003218 -0.004441 -0.013063 -0.006349 -0.001790
# 2 -0.003218 0.008542 -0.000410 0.006320 0.001947 -0.003733
# 3 -0.004441 -0.000410 0.016762 0.009334 -0.008448 -0.002715
# 4 -0.013063 0.006320 0.009334 0.040984 0.001985 -0.004395
# 5 -0.006349 0.001947 -0.008448 0.001985 0.026195 0.003894
# 6 -0.001790 -0.003733 -0.002715 -0.004395 0.003894 0.025911
#
#
# Mechanical properties :
#
#
# Convention : Reuss Voigt Hill
#
# Bulk Modulus (GPa) = 40.33433 60.54372 50.43902
# Shear Modulus (GPa) = 31.56206 47.31463 39.43835
#
# Velocity S-wave (km/s) = 3.45010 4.22422 3.85663
# Velocity P-wave (km/s) = 5.57516 6.82827 6.23329
#
# Compressibility (1/GPa) = 0.02479278
#
# Stress axis : x y z
#
# Youngs Moduli (GPa) = 63.99961 117.07361 59.65904
#
# Poissons Ratio (x) = 0.37670 0.26492
# Poissons Ratio (y) = 0.20593 0.02444
# Poissons Ratio (z) = 0.28420 0.04797
#
# Static dielectric constant tensor:
#      x y z
#    x 2.109900 -0.106230 -0.061360 
#    y -0.106230 2.112500 0.061990 
#    z -0.061360 0.061990 2.164060 
# 
# From -- ./inp_files/271438.got.cif
#   From: 2010.05.17/outbox.cif.g08.bks.cpg/sg2_136_cif.got.tgz:271438.got - 2010.06.03 11:33:40.
