data_PCOD9065720
_publ_section_title
;
Structure prediction by ZEFSAII (Michael W. Deem and Ramdas Pophale) SiO2 
 PCOD9065720
Probable space group: P -1
;
_chemical_formula_sum "Si O2"
_cell_formula_units_Z 14
_cell_length_a 9.283591
_cell_length_b 5.317885
_cell_length_c 23.660560
_cell_angle_alpha 90.151264
_cell_angle_beta 142.498232
_cell_angle_gamma 106.798579
_cell_volume 624.553426
_symmetry_space_group_name_H-M "P -1"
_symmetry_group_IT_number 2
_symmetry_cell_setting 'triclinic'
loop_
_space_group_symop_operation_xyz
x,y,z
-x,-y,-z
loop_
_atom_site_type_symbol
_atom_site_label
_atom_site_fract_x
_atom_site_fract_y
_atom_site_fract_z
Si Si1 0.083805 0.110438 0.414265
Si Si2 0.287455 0.125702 0.269329
Si Si3 0.028692 0.764542 0.737426
Si Si4 0.222376 0.162683 0.956173
Si Si5 0.576421 0.233351 0.954580
Si Si6 0.386569 0.828747 0.405835
Si Si7 0.150043 0.515933 0.605246
O O1 0.917337 0.272679 0.378868
O O2 0.074736 0.104297 0.343728
O O3 0.392024 0.284266 0.531996
O O4 0.962225 0.797476 0.403295
O O5 0.122526 0.256325 0.251073
O O6 0.534666 0.343668 0.309446
O O7 0.398614 0.003521 0.353820
O O8 0.053642 0.883963 0.158322
O O9 0.913141 0.435899 0.683787
O O10 0.338332 0.986398 0.843806
O O11 0.441455 0.221442 0.974309
O O12 0.324733 0.436141 0.029326
O O13 0.198643 0.869742 0.973637
O O14 0.500000 0.000000 0.500000
O O15 0.000000 0.500000 0.500000
#
# Coordination Sequence:
#
# PCOD9065720 Si02
#       7
#     2   2   2   2   2   2   2
#     4  12  26  44  63  91 136 170 214 256 320 382
#     4  11  25  39  69  94 129 170 219 261 325 372
#     4  11  25  40  69  95 126 174 213 269 319 382
#     4   9  20  36  59  95 124 158 203 274 316 374
#     4   9  20  37  61  91 128 153 211 264 327 366
#     4  12  24  40  63  99 133 168 216 268 313 383
#     4  12  26  44  62  92 132 177 210 261 313 383
#
# _framework density 22.416017
#
# number of rings (size 3 to 8) (size 9 to 14) (size 15 to 20)
#    0.000    1.143    2.857    2.571   12.000    0.000 
#    0.000    0.000    0.000    5.143    0.000    0.000 
#    0.000    0.000    0.000    0.000    0.000    0.000 
#
# Total GULP energy -78148.238792 kJ/mol
# GULP energy per Si atom -5582.017057 kJ/mol
# Density = 2.236500 g / cm^3
# Si number density = 22.416017 Si / 1000 Ang^3
#
#
#
# Elastic Constant Matrix: (Units=GPa)
#
#
# Indices 1 2 3 4 5 6 
#
# 1 47.0724 20.0174 19.6286 13.9089 10.1916 0.9730
# 2 20.0174 130.3442 32.4253 21.3830 -9.5524 -4.9461
# 3 19.6286 32.4253 101.6556 17.5620 0.2946 -11.1747
# 4 13.9089 21.3830 17.5620 32.7719 -7.1513 -1.9811
# 5 10.1916 -9.5524 0.2946 -7.1513 16.7126 3.1871
# 6 0.9730 -4.9461 -11.1747 -1.9811 3.1871 24.6478
#
#
#
# Elastic Compliance Matrix: (Units=1/GPa)
#
#
# Indices 1 2 3 4 5 6 
#
# 1 0.036715 -0.004402 -0.002462 -0.018563 -0.032669 -0.000717
# 2 -0.004402 0.009672 -0.001937 -0.001767 0.007466 0.000129
# 3 -0.002462 -0.001937 0.012310 -0.004577 -0.002788 0.005282
# 4 -0.018563 -0.001767 -0.004577 0.048786 0.031621 -0.001865
# 5 -0.032669 0.007466 -0.002788 0.031621 0.099277 -0.008772
# 6 -0.000717 0.000129 0.005282 -0.001865 -0.008772 0.044005
#
#
# Mechanical properties :
#
#
# Convention : Reuss Voigt Hill
#
# Bulk Modulus (GPa) = 24.33451 47.02386 35.67919
# Shear Modulus (GPa) = 17.72634 28.62653 23.17643
#
# Velocity S-wave (km/s) = 2.81515 3.57747 3.21896
# Velocity P-wave (km/s) = 4.63100 6.17153 5.45591
#
# Compressibility (1/GPa) = 0.04109390
#
# Stress axis : x y z
#
# Youngs Moduli (GPa) = 27.23650 103.39221 81.23507
#
# Poissons Ratio (x) = 0.45513 0.20004
# Poissons Ratio (y) = 0.11990 0.15737
# Poissons Ratio (z) = 0.06707 0.20029
#
# Static dielectric constant tensor:
#      x y z
#    x 1.957830 -0.089830 -0.021810 
#    y -0.089830 1.921470 0.024080 
#    z -0.021810 0.024080 1.858070 
# 
# From -- ./inp_files/138507.got.cif
#   From: 2010.05.17/outbox.cif.g08.bks.cpg/sg2_70_cif.got.tgz:138507.got - 2010.06.03 11:33:40.
