data_PCOD9065436
_publ_section_title
;
Structure prediction by ZEFSAII (Michael W. Deem and Ramdas Pophale) SiO2 
 PCOD9065436
Probable space group: P -1
;
_chemical_formula_sum "Si O2"
_cell_formula_units_Z 16
_cell_length_a 13.984658
_cell_length_b 11.696894
_cell_length_c 9.123216
_cell_angle_alpha 67.992083
_cell_angle_beta 149.568661
_cell_angle_gamma 108.849593
_cell_volume 700.803237
_symmetry_space_group_name_H-M "P -1"
_symmetry_group_IT_number 2
_symmetry_cell_setting 'triclinic'
loop_
_space_group_symop_operation_xyz
x,y,z
-x,-y,-z
loop_
_atom_site_type_symbol
_atom_site_label
_atom_site_fract_x
_atom_site_fract_y
_atom_site_fract_z
Si Si1 0.787188 0.176613 0.723128
Si Si2 0.214988 0.217314 0.758566
Si Si3 0.499233 0.614323 0.831959
Si Si4 0.196990 0.244697 0.226360
Si Si5 0.193327 0.757988 0.940182
Si Si6 0.453616 0.140664 0.837427
Si Si7 0.313667 0.509844 0.342584
Si Si8 0.694066 0.926414 0.777497
O O1 0.621635 0.255849 0.390281
O O2 0.802307 0.031629 0.780260
O O3 0.780487 0.183869 0.890036
O O4 0.981955 0.236101 0.902204
O O5 0.374267 0.204685 0.848418
O O6 0.007297 0.216814 0.413617
O O7 0.285131 0.336369 0.887084
O O8 0.226174 0.105688 0.942852
O O9 0.392817 0.553511 0.581368
O O10 0.500000 0.500000 0.000000
O O11 0.270539 0.147965 0.488592
O O12 0.224202 0.375958 0.275767
O O13 0.318841 0.201102 0.268580
O O14 0.369847 0.795671 0.048101
O O15 0.192352 0.613661 0.051722
O O16 0.500000 0.000000 0.000000
O O17 0.500000 0.500000 0.500000
O O18 0.500000 0.000000 0.500000
#
# Coordination Sequence:
#
# PCOD9065436 Si02
#       8
#     2   2   2   2   2   2   2   2
#     4  11  25  46  76 107 147 195 243 297 369 436
#     4  12  26  47  73 109 148 194 245 306 368 425
#     4  11  26  44  72 108 147 187 241 308 361 425
#     4  12  25  46  75 106 142 198 244 294 372 441
#     4  11  26  46  76 109 148 199 244 300 367 441
#     4  12  26  44  73 108 149 194 250 304 364 438
#     4  11  24  48  74 101 147 196 245 294 366 444
#     4  12  25  48  72 105 150 190 241 304 367 433
#
# _framework density 22.830943999999999
#
# number of rings (size 3 to 8) (size 9 to 14) (size 15 to 20)
#    0.000    0.500    3.750    4.125    3.500    3.000 
#    0.000    1.250    0.000    0.000    0.000    0.000 
#    0.000    0.000    0.000    0.000    0.000    0.000 
#
# Total GULP energy -89208.588027 kJ/mol
# GULP energy per Si atom -5575.536752 kJ/mol
# Density = 2.277898 g / cm^3
# Si number density = 22.830944 Si / 1000 Ang^3
#
#
#
# Elastic Constant Matrix: (Units=GPa)
#
#
# Indices 1 2 3 4 5 6 
#
# 1 73.8402 25.1368 39.9029 -7.3513 -6.9203 -10.3989
# 2 25.1368 109.5617 40.5887 -12.2443 -13.1168 4.0475
# 3 39.9029 40.5887 180.3866 -19.0804 -14.9809 -0.9329
# 4 -7.3513 -12.2443 -19.0804 45.2995 14.0591 -7.1327
# 5 -6.9203 -13.1168 -14.9809 14.0591 39.1302 0.3611
# 6 -10.3989 4.0475 -0.9329 -7.1327 0.3611 27.8166
#
#
#
# Elastic Compliance Matrix: (Units=1/GPa)
#
#
# Indices 1 2 3 4 5 6 
#
# 1 0.017356 -0.002932 -0.002925 0.001870 0.000228 0.007293
# 2 -0.002932 0.010815 -0.001535 0.000682 0.002298 -0.002576
# 3 -0.002925 -0.001535 0.006789 0.001627 0.000985 -0.000238
# 4 0.001870 0.000682 0.001627 0.027147 -0.008643 0.007728
# 5 0.000228 0.002298 0.000985 -0.008643 0.029875 -0.002820
# 6 0.007293 -0.002576 -0.000238 0.007728 -0.002820 0.041061
#
#
# Mechanical properties :
#
#
# Convention : Reuss Voigt Hill
#
# Bulk Modulus (GPa) = 49.56447 63.89394 56.72920
# Shear Modulus (GPa) = 32.35134 39.65992 36.00563
#
# Velocity S-wave (km/s) = 3.76838 4.17239 3.97552
# Velocity P-wave (km/s) = 6.37893 7.15948 6.78045
#
# Compressibility (1/GPa) = 0.02017574
#
# Stress axis : x y z
#
# Youngs Moduli (GPa) = 57.61646 92.46295 147.30068
#
# Poissons Ratio (x) = 0.27106 0.43090
# Poissons Ratio (y) = 0.16890 0.22616
# Poissons Ratio (z) = 0.16854 0.14197
#
# Static dielectric constant tensor:
#      x y z
#    x 1.989340 0.054660 0.015860 
#    y 0.054660 1.778020 0.061630 
#    z 0.015860 0.061630 1.841880 
# 
# From -- ./inp_files/307220.got.cif
#   From: 2010.05.17/outbox.cif.g08.bks.cpg/sg2_154_cif.got.tgz:307220.got - 2010.06.03 11:33:40.
