data_PCOD9065487
_publ_section_title
;
Structure prediction by ZEFSAII (Michael W. Deem and Ramdas Pophale) SiO2 
 PCOD9065487
Probable space group: P -1
;
_chemical_formula_sum "Si O2"
_cell_formula_units_Z 13
_cell_length_a 9.397702
_cell_length_b 9.507469
_cell_length_c 9.376867
_cell_angle_alpha 44.126855
_cell_angle_beta 61.576514
_cell_angle_gamma 63.393102
_cell_volume 505.229984
_symmetry_space_group_name_H-M "P -1"
_symmetry_group_IT_number 2
_symmetry_cell_setting 'triclinic'
loop_
_space_group_symop_operation_xyz
x,y,z
-x,-y,-z
loop_
_atom_site_type_symbol
_atom_site_label
_atom_site_fract_x
_atom_site_fract_y
_atom_site_fract_z
Si Si1 0.217898 0.395341 0.252238
Si Si2 0.424223 0.324636 0.456450
Si Si3 0.500000 0.000000 0.500000
Si Si4 0.826195 0.956358 0.930547
Si Si5 0.292824 0.411423 0.876311
Si Si6 0.851839 0.372717 0.473328
Si Si7 0.806207 0.147100 0.105024
O O1 0.367347 0.261994 0.365613
O O2 0.045258 0.354783 0.421838
O O3 0.238901 0.380691 0.085028
O O4 0.233726 0.627837 0.108535
O O5 0.507647 0.092613 0.608451
O O6 0.541503 0.492416 0.277315
O O7 0.262206 0.435872 0.532871
O O8 0.665545 0.107110 0.304853
O O9 0.796592 0.167554 0.703799
O O10 0.819172 0.996770 0.073670
O O11 0.020414 0.862074 0.889912
O O12 0.710880 0.802679 0.044268
O O13 0.171193 0.576336 0.719749
#
# Coordination Sequence:
#
# PCOD9065487 Si02
#       7
#     2   2   1   2   2   2   2
#     4  12  25  49  78 104 153 198 253 308 369 440
#     4  12  27  48  73 110 148 203 245 310 371 449
#     4  12  26  42  74 110 146 188 254 304 368 434
#     4  11  26  48  80 109 150 203 250 301 380 445
#     4  12  27  48  71 115 158 189 247 321 368 433
#     4  12  26  48  78 109 150 198 251 305 376 443
#     4  11  24  48  76 112 147 198 256 307 363 459
#
# _framework density 25.730854000000001
#
# number of rings (size 3 to 8) (size 9 to 14) (size 15 to 20)
#    0.000    0.308    4.615    3.692    2.154    2.462 
#    0.000    0.000    0.000    0.000    0.000    0.000 
#    0.000    0.000    0.000    0.000    0.000    0.000 
#
# Total GULP energy -72648.041078 kJ/mol
# GULP energy per Si atom -5588.310852 kJ/mol
# Density = 2.567229 g / cm^3
# Si number density = 25.730854 Si / 1000 Ang^3
#
#
#
# Elastic Constant Matrix: (Units=GPa)
#
#
# Indices 1 2 3 4 5 6 
#
# 1 118.1928 67.7117 30.2941 1.4567 -12.5335 3.0085
# 2 67.7117 116.5934 22.5003 -7.2686 -6.7110 0.5020
# 3 30.2941 22.5003 85.4024 -22.7779 4.2568 0.6431
# 4 1.4567 -7.2686 -22.7779 54.9475 2.0206 -8.2128
# 5 -12.5335 -6.7110 4.2568 2.0206 32.5836 5.8879
# 6 3.0085 0.5020 0.6431 -8.2128 5.8879 46.0958
#
#
#
# Elastic Compliance Matrix: (Units=1/GPa)
#
#
# Indices 1 2 3 4 5 6 
#
# 1 0.014562 -0.007525 -0.004423 -0.003728 0.005248 -0.002141
# 2 -0.007525 0.013088 -0.000241 0.001959 -0.000425 0.000755
# 3 -0.004423 -0.000241 0.015398 0.006917 -0.004533 0.001888
# 4 -0.003728 0.001959 0.006917 0.022268 -0.004150 0.004623
# 5 0.005248 -0.000425 -0.004533 -0.004150 0.034449 -0.005414
# 6 -0.002141 0.000755 0.001888 0.004623 -0.005414 0.023314
#
#
# Mechanical properties :
#
#
# Convention : Reuss Voigt Hill
#
# Bulk Modulus (GPa) = 53.55717 62.35563 57.95640
# Shear Modulus (GPa) = 32.53518 40.03754 36.28636
#
# Velocity S-wave (km/s) = 3.55976 3.94891 3.75937
# Velocity P-wave (km/s) = 6.14454 6.71404 6.43559
#
# Compressibility (1/GPa) = 0.01867164
#
# Stress axis : x y z
#
# Youngs Moduli (GPa) = 68.67194 76.40827 64.94251
#
# Poissons Ratio (x) = 0.57494 0.28722
# Poissons Ratio (y) = 0.51672 0.01564
# Poissons Ratio (z) = 0.30372 0.01840
#
# Static dielectric constant tensor:
#      x y z
#    x 2.048070 -0.022390 0.052750 
#    y -0.022390 2.182530 0.049610 
#    z 0.052750 0.049610 2.101490 
# 
# From -- ./inp_files/156388.got.cif
#   From: 2010.05.17/outbox.cif.g08.bks.cpg/sg2_79_cif.got.tgz:156388.got - 2010.06.03 11:33:40.
