data_PCOD9065316
_publ_section_title
;
Structure prediction by ZEFSAII (Michael W. Deem and Ramdas Pophale) SiO2 
 PCOD9065316
Probable space group: P -1
;
_chemical_formula_sum "Si O2"
_cell_formula_units_Z 12
_cell_length_a 13.131579
_cell_length_b 8.523612
_cell_length_c 5.150639
_cell_angle_alpha 95.301907
_cell_angle_beta 123.660929
_cell_angle_gamma 102.028648
_cell_volume 453.741466
_symmetry_space_group_name_H-M "P -1"
_symmetry_group_IT_number 2
_symmetry_cell_setting 'triclinic'
loop_
_space_group_symop_operation_xyz
x,y,z
-x,-y,-z
loop_
_atom_site_type_symbol
_atom_site_label
_atom_site_fract_x
_atom_site_fract_y
_atom_site_fract_z
Si Si1 0.487534 0.262583 0.547518
Si Si2 0.749094 0.247575 0.064433
Si Si3 0.069625 0.100140 0.361901
Si Si4 0.096837 0.473354 0.353698
Si Si5 0.395383 0.533276 0.661680
Si Si6 0.295297 0.976440 0.528218
O O1 0.397890 0.380641 0.450761
O O2 0.529247 0.280712 0.308628
O O3 0.418508 0.092669 0.567281
O O4 0.632271 0.324921 0.878231
O O5 0.703982 0.119521 0.218697
O O6 0.875302 0.390743 0.356501
O O7 0.767128 0.156048 0.810933
O O8 0.066670 0.285637 0.376186
O O9 0.213875 0.095274 0.524012
O O10 0.000000 0.000000 0.500000
O O11 0.000000 0.000000 0.000000
O O12 0.245654 0.514425 0.467909
O O13 0.000000 0.500000 0.000000
O O14 0.500000 0.500000 0.000000
#
# Coordination Sequence:
#
# PCOD9065316 Si02
#       6
#     2   2   2   2   2   2
#     4  11  25  45  82 122 167 212 275 342 416 494
#     4  12  27  49  82 125 166 213 273 341 422 495
#     4  12  29  53  80 112 158 223 279 334 409 496
#     4  12  28  55  85 119 171 225 280 345 415 501
#     4  11  24  47  81 121 163 216 278 344 414 487
#     4  12  27  50  81 123 169 213 271 350 417 488
#
# _framework density 26.446781999999999
#
# number of rings (size 3 to 8) (size 9 to 14) (size 15 to 20)
#    0.000    0.333    3.333    4.000    2.333    5.333 
#    0.000    8.333    0.000    0.000    0.000    0.000 
#    0.000    0.000    0.000    0.000    0.000    0.000 
#
# Total GULP energy -67102.178071 kJ/mol
# GULP energy per Si atom -5591.848173 kJ/mol
# Density = 2.638659 g / cm^3
# Si number density = 26.446782 Si / 1000 Ang^3
#
#
#
# Elastic Constant Matrix: (Units=GPa)
#
#
# Indices 1 2 3 4 5 6 
#
# 1 176.7063 60.9805 56.8678 -11.6287 10.5324 -18.2219
# 2 60.9805 178.0781 60.5213 -31.4643 2.9858 17.0170
# 3 56.8678 60.5213 156.5172 -21.5734 3.3004 4.6922
# 4 -11.6287 -31.4643 -21.5734 52.0355 6.2354 -3.9795
# 5 10.5324 2.9858 3.3004 6.2354 51.1499 -9.1509
# 6 -18.2219 17.0170 4.6922 -3.9795 -9.1509 65.2019
#
#
#
# Elastic Compliance Matrix: (Units=1/GPa)
#
#
# Indices 1 2 3 4 5 6 
#
# 1 0.007313 -0.002114 -0.001922 -0.000148 -0.000772 0.002617
# 2 -0.002114 0.007755 -0.001670 0.003432 -0.000756 -0.002391
# 3 -0.001922 -0.001670 0.008019 0.001882 -0.000363 -0.000615
# 4 -0.000148 0.003432 0.001882 0.022395 -0.003045 -0.000133
# 5 -0.000772 -0.000756 -0.000363 -0.003045 0.020634 0.002718
# 6 0.002617 -0.002391 -0.000615 -0.000133 0.002718 0.017110
#
#
# Mechanical properties :
#
#
# Convention : Reuss Voigt Hill
#
# Bulk Modulus (GPa) = 85.66021 96.44899 91.05460
# Shear Modulus (GPa) = 50.74634 55.87293 53.30964
#
# Velocity S-wave (km/s) = 4.38517 4.60135 4.49456
# Velocity P-wave (km/s) = 7.62231 8.04849 7.83830
#
# Compressibility (1/GPa) = 0.01167403
#
# Stress axis : x y z
#
# Youngs Moduli (GPa) = 136.73345 128.95651 124.71081
#
# Poissons Ratio (x) = 0.27267 0.23973
# Poissons Ratio (y) = 0.28911 0.20822
# Poissons Ratio (z) = 0.26284 0.21530
#
# Static dielectric constant tensor:
#      x y z
#    x 2.367710 -0.031310 -0.110660 
#    y -0.031310 2.138310 0.002150 
#    z -0.110660 0.002150 2.219590 
# 
# From -- ./inp_files/60563.got.cif
#   From: 2010.05.17/outbox.cif.g08.bks.cpg/sg2_31_cif.got.tgz:60563.got - 2010.06.03 11:33:40.
