data_PCOD9065890
_publ_section_title
;
Structure prediction by ZEFSAII (Michael W. Deem and Ramdas Pophale) SiO2 
 PCOD9065890
Probable space group: P -1
;
_chemical_formula_sum "Si O2"
_cell_formula_units_Z 12
_cell_length_a 11.590908
_cell_length_b 10.377766
_cell_length_c 6.453967
_cell_angle_alpha 116.809333
_cell_angle_beta 138.833686
_cell_angle_gamma 70.659525
_cell_volume 456.044600
_symmetry_space_group_name_H-M "P -1"
_symmetry_group_IT_number 2
_symmetry_cell_setting 'triclinic'
loop_
_space_group_symop_operation_xyz
x,y,z
-x,-y,-z
loop_
_atom_site_type_symbol
_atom_site_label
_atom_site_fract_x
_atom_site_fract_y
_atom_site_fract_z
Si Si1 0.859675 0.588798 0.213253
Si Si2 0.634267 0.724050 0.650463
Si Si3 0.804821 0.021844 0.155833
Si Si4 0.689489 0.233890 0.458556
Si Si5 0.955013 0.167489 0.103523
Si Si6 0.739583 0.474258 0.353464
O O1 0.740319 0.478128 0.105415
O O2 0.902107 0.728022 0.519567
O O3 0.759629 0.641763 0.918984
O O4 0.045807 0.527211 0.346919
O O5 0.461167 0.752055 0.567138
O O6 0.635067 0.618098 0.380110
O O7 0.726971 0.877697 0.845762
O O8 0.686883 0.081462 0.224225
O O9 0.816036 0.145390 0.086421
O O10 0.000000 0.000000 0.500000
O O11 0.682716 0.355390 0.359716
O O12 0.871869 0.232269 0.831789
O O13 0.000000 0.000000 0.000000
#
# Coordination Sequence:
#
# PCOD9065890 Si02
#       6
#     2   2   2   2   2   2
#     4  11  25  43  73  98 133 186 234 272 333 407
#     4  12  26  45  70 103 142 179 221 283 349 401
#     4  12  23  45  71  98 136 179 233 280 327 408
#     4  12  27  44  69 105 142 175 224 287 346 398
#     4  12  24  42  72 101 131 180 231 280 335 400
#     4  11  26  45  70 102 139 180 231 278 335 411
#
# _framework density 26.313213000000001
#
# number of rings (size 3 to 8) (size 9 to 14) (size 15 to 20)
#    0.000    0.333    5.000    2.500    7.000    2.667 
#    0.000    0.000    0.000    0.000    0.000    0.000 
#    0.000    0.000    0.000    0.000    0.000    0.000 
#
# Total GULP energy -67180.333403 kJ/mol
# GULP energy per Si atom -5598.361117 kJ/mol
# Density = 2.625332 g / cm^3
# Si number density = 26.313213 Si / 1000 Ang^3
#
#
#
# Elastic Constant Matrix: (Units=GPa)
#
#
# Indices 1 2 3 4 5 6 
#
# 1 142.3762 32.6031 -2.9206 -0.2876 12.1770 -4.1759
# 2 32.6031 111.1218 12.2557 17.8763 2.9525 3.5068
# 3 -2.9206 12.2557 23.0108 12.1979 -7.9763 7.8254
# 4 -0.2876 17.8763 12.1979 37.0182 2.6803 -17.3461
# 5 12.1770 2.9525 -7.9763 2.6803 32.9710 -5.1706
# 6 -4.1759 3.5068 7.8254 -17.3461 -5.1706 71.3900
#
#
#
# Elastic Compliance Matrix: (Units=1/GPa)
#
#
# Indices 1 2 3 4 5 6 
#
# 1 0.007872 -0.002580 0.000227 0.001803 -0.002641 0.000809
# 2 -0.002580 0.010977 -0.003241 -0.004948 -0.000660 -0.001585
# 3 0.000227 -0.003241 0.071842 -0.029795 0.017868 -0.013648
# 4 0.001803 -0.004948 -0.029795 0.046577 -0.008977 0.014281
# 5 -0.002641 -0.000660 0.017868 -0.008977 0.036159 -0.001643
# 6 0.000809 -0.001585 -0.013648 0.014281 -0.001643 0.018980
#
#
# Mechanical properties :
#
#
# Convention : Reuss Voigt Hill
#
# Bulk Modulus (GPa) = 12.57811 40.04279 26.31045
# Shear Modulus (GPa) = 21.73007 43.91387 32.82197
#
# Velocity S-wave (km/s) = 2.87683 4.08964 3.53563
# Velocity P-wave (km/s) = 3.97812 6.12788 5.16606
#
# Compressibility (1/GPa) = 0.07950322
#
# Stress axis : x y z
#
# Youngs Moduli (GPa) = 127.02593 91.09831 13.91949
#
# Poissons Ratio (x) = 0.23505 -0.00316
# Poissons Ratio (y) = 0.32775 0.04511
# Poissons Ratio (z) = -0.02886 0.29526
#
# Static dielectric constant tensor:
#      x y z
#    x 2.074870 -0.056680 -0.004280 
#    y -0.056680 2.129180 0.068590 
#    z -0.004280 0.068590 2.103420 
# 
# From -- ./inp_files/72098.got.cif
#   From: 2010.05.17/outbox.cif.g08.bks.cpg/sg2_37_cif.got.tgz:72098.got - 2010.06.03 11:33:40.
