data_PCOD9065419
_publ_section_title
;
Structure prediction by ZEFSAII (Michael W. Deem and Ramdas Pophale) SiO2 
 PCOD9065419
Probable space group: P -1
;
_chemical_formula_sum "Si O2"
_cell_formula_units_Z 13
_cell_length_a 5.450118
_cell_length_b 8.360614
_cell_length_c 17.304795
_cell_angle_alpha 128.866899
_cell_angle_beta 116.356799
_cell_angle_gamma 58.389659
_cell_volume 514.922853
_symmetry_space_group_name_H-M "P -1"
_symmetry_group_IT_number 2
_symmetry_cell_setting 'triclinic'
loop_
_space_group_symop_operation_xyz
x,y,z
-x,-y,-z
loop_
_atom_site_type_symbol
_atom_site_label
_atom_site_fract_x
_atom_site_fract_y
_atom_site_fract_z
Si Si1 0.977959 0.703381 0.358483
Si Si2 0.534113 0.146791 0.479043
Si Si3 0.099576 0.696896 0.046167
Si Si4 0.041519 0.300957 0.331768
Si Si5 0.525499 0.104812 0.204271
Si Si6 0.684245 0.631111 0.148832
Si Si7 0.500000 0.000000 0.000000
O O1 0.911210 0.606175 0.240316
O O2 0.302211 0.694554 0.419758
O O3 0.904182 0.558753 0.370547
O O4 0.772837 0.958974 0.403465
O O5 0.245818 0.254223 0.421479
O O6 0.500000 0.000000 0.500000
O O7 0.340196 0.705074 0.144264
O O8 0.256148 0.598209 0.956607
O O9 0.000000 0.500000 0.000000
O O10 0.835171 0.911956 0.054080
O O11 0.269738 0.199286 0.261520
O O12 0.780402 0.207455 0.276568
O O13 0.672333 0.841915 0.160814
O O14 0.393553 0.130545 0.107524
#
# Coordination Sequence:
#
# PCOD9065419 Si02
#       7
#     2   2   2   2   2   2   1
#     4  11  26  46  75 106 148 197 250 313 378 453
#     4  11  26  47  77 109 148 196 249 318 379 451
#     4  11  25  43  71 105 146 200 248 312 371 451
#     4  12  28  49  76 112 151 200 252 309 383 453
#     4  12  27  47  77 108 154 200 249 314 373 453
#     4  11  24  48  73 105 155 198 253 312 386 445
#     4  12  26  46  74 108 154 192 264 300 380 442
#
# _framework density 25.246499
#
# number of rings (size 3 to 8) (size 9 to 14) (size 15 to 20)
#    0.000    0.615    3.077    3.231    6.462    4.308 
#    0.000    0.000    0.000    0.000    0.000    0.000 
#    0.000    0.000    0.000    0.000    0.000    0.000 
#
# Total GULP energy -72489.018838 kJ/mol
# GULP energy per Si atom -5576.078372 kJ/mol
# Density = 2.518904 g / cm^3
# Si number density = 25.246499 Si / 1000 Ang^3
#
#
#
# Elastic Constant Matrix: (Units=GPa)
#
#
# Indices 1 2 3 4 5 6 
#
# 1 110.1600 9.1259 32.6008 8.3993 22.3987 0.9210
# 2 9.1259 88.5357 21.9738 3.2864 13.4783 -14.1068
# 3 32.6008 21.9738 132.3637 -22.8157 11.6834 3.2166
# 4 8.3993 3.2864 -22.8157 37.9651 4.4026 -4.8048
# 5 22.3987 13.4783 11.6834 4.4026 49.6108 21.2725
# 6 0.9210 -14.1068 3.2166 -4.8048 21.2725 37.6560
#
#
#
# Elastic Compliance Matrix: (Units=1/GPa)
#
#
# Indices 1 2 3 4 5 6 
#
# 1 0.011315 0.001130 -0.003131 -0.003405 -0.005763 0.003236
# 2 0.001130 0.014686 -0.002350 -0.000672 -0.008292 0.010273
# 3 -0.003131 -0.002350 0.009990 0.006948 -0.000774 -0.000333
# 4 -0.003405 -0.000672 0.006948 0.032824 -0.005672 0.006631
# 5 -0.005763 -0.008292 -0.000774 -0.005672 0.035962 -0.023939
# 6 0.003236 0.010273 -0.000333 0.006631 -0.023939 0.044724
#
#
# Mechanical properties :
#
#
# Convention : Reuss Voigt Hill
#
# Bulk Modulus (GPa) = 36.64452 50.94005 43.79229
# Shear Modulus (GPa) = 29.88649 42.87031 36.37840
#
# Velocity S-wave (km/s) = 3.44435 4.12523 3.80007
# Velocity P-wave (km/s) = 5.51038 6.55065 6.05290
#
# Compressibility (1/GPa) = 0.02728921
#
# Stress axis : x y z
#
# Youngs Moduli (GPa) = 88.37622 68.09288 100.09695
#
# Poissons Ratio (x) = -0.07696 0.31344
# Poissons Ratio (y) = -0.09988 0.23522
# Poissons Ratio (z) = 0.27674 0.16001
#
# Static dielectric constant tensor:
#      x y z
#    x 2.146750 -0.041950 -0.120050 
#    y -0.041950 2.007860 0.101820 
#    z -0.120050 0.101820 2.019300 
# 
# From -- ./inp_files/100534.got.cif
#   From: 2010.05.17/outbox.cif.g08.bks.cpg/sg2_51_cif.got.tgz:100534.got - 2010.06.03 11:33:40.
