data_PCOD9065539
_publ_section_title
;
Structure prediction by ZEFSAII (Michael W. Deem and Ramdas Pophale) SiO2 
 PCOD9065539
Probable space group: P -1
;
_chemical_formula_sum "Si O2"
_cell_formula_units_Z 16
_cell_length_a 9.275175
_cell_length_b 20.425920
_cell_length_c 11.553034
_cell_angle_alpha 44.520677
_cell_angle_beta 125.069000
_cell_angle_gamma 151.863498
_cell_volume 713.939141
_symmetry_space_group_name_H-M "P -1"
_symmetry_group_IT_number 2
_symmetry_cell_setting 'triclinic'
loop_
_space_group_symop_operation_xyz
x,y,z
-x,-y,-z
loop_
_atom_site_type_symbol
_atom_site_label
_atom_site_fract_x
_atom_site_fract_y
_atom_site_fract_z
Si Si1 0.069870 0.673071 0.505987
Si Si2 0.237014 0.541869 0.734068
Si Si3 0.941986 0.870797 0.680170
Si Si4 0.412323 0.959997 0.646722
Si Si5 0.599215 0.226223 0.969216
Si Si6 0.199836 0.516797 0.147868
Si Si7 0.232602 0.958570 0.950381
Si Si8 0.307306 0.408695 0.752033
O O1 0.168085 0.617500 0.563519
O O2 0.011647 0.618063 0.679937
O O3 0.765899 0.582639 0.419744
O O4 0.337270 0.866406 0.389380
O O5 0.577499 0.694004 0.755874
O O6 0.260548 0.475536 0.729605
O O7 0.950542 0.385552 0.879914
O O8 0.088399 0.865323 0.658052
O O9 0.115973 0.938556 0.796676
O O10 0.000000 0.000000 0.500000
O O11 0.500000 0.000000 0.500000
O O12 0.423238 0.861688 0.830808
O O13 0.546881 0.305739 0.897285
O O14 0.373137 0.099112 0.920958
O O15 0.373087 0.505238 0.187218
O O16 0.000000 0.500000 0.000000
O O17 0.955403 0.781974 0.104216
O O18 0.500000 0.000000 0.000000
#
# Coordination Sequence:
#
# PCOD9065539 Si02
#       8
#     2   2   2   2   2   2   2   2
#     4  11  24  49  68 107 149 189 248 305 375 440
#     4  11  26  44  82 109 143 194 253 312 371 435
#     4  12  27  46  73 113 148 190 255 306 376 440
#     4  12  25  45  73 103 153 197 238 307 375 442
#     4  11  25  50  75 106 150 199 247 304 375 437
#     4  11  28  46  71 107 155 194 251 307 366 451
#     4  12  24  46  76 106 148 192 252 314 366 438
#     4  12  25  45  79 104 146 198 248 307 377 441
#
# _framework density 22.410874
#
# number of rings (size 3 to 8) (size 9 to 14) (size 15 to 20)
#    0.000    0.500    5.000    1.500    7.000    4.500 
#    2.250    0.000    0.000    0.000    0.000    0.000 
#    0.000    0.000    0.000    0.000    0.000    0.000 
#
# Total GULP energy -89509.971943 kJ/mol
# GULP energy per Si atom -5594.373246 kJ/mol
# Density = 2.235987 g / cm^3
# Si number density = 22.410874 Si / 1000 Ang^3
#
#
#
# Elastic Constant Matrix: (Units=GPa)
#
#
# Indices 1 2 3 4 5 6 
#
# 1 108.8155 30.4813 28.9576 4.7079 10.2789 -3.3554
# 2 30.4813 116.8023 53.0358 3.5674 -0.2334 -10.2057
# 3 28.9576 53.0358 125.8047 14.4255 -0.6147 0.3549
# 4 4.7079 3.5674 14.4255 47.9201 -9.1304 11.1950
# 5 10.2789 -0.2334 -0.6147 -9.1304 27.5550 2.2561
# 6 -3.3554 -10.2057 0.3549 11.1950 2.2561 33.4175
#
#
#
# Elastic Compliance Matrix: (Units=1/GPa)
#
#
# Indices 1 2 3 4 5 6 
#
# 1 0.010689 -0.001961 -0.001468 -0.001679 -0.004705 0.001370
# 2 -0.001961 0.011327 -0.004327 -0.000030 0.000452 0.003288
# 3 -0.001468 -0.004327 0.010399 -0.002495 -0.000023 -0.000742
# 4 -0.001679 -0.000030 -0.002495 0.025897 0.009929 -0.009497
# 5 -0.004705 0.000452 -0.000023 0.009929 0.041871 -0.006487
# 6 0.001370 0.003288 -0.000742 -0.009497 -0.006487 0.034694
#
#
# Mechanical properties :
#
#
# Convention : Reuss Voigt Hill
#
# Bulk Modulus (GPa) = 59.16402 64.04133 61.60268
# Shear Modulus (GPa) = 32.04622 37.70836 34.87729
#
# Velocity S-wave (km/s) = 3.78556 4.10639 3.94923
# Velocity P-wave (km/s) = 6.75013 7.14992 6.95290
#
# Compressibility (1/GPa) = 0.01690217
#
# Stress axis : x y z
#
# Youngs Moduli (GPa) = 93.55170 88.28161 96.16168
#
# Poissons Ratio (x) = 0.17316 0.14116
# Poissons Ratio (y) = 0.18349 0.41614
# Poissons Ratio (z) = 0.13733 0.38204
#
# Static dielectric constant tensor:
#      x y z
#    x 1.771450 -0.041060 0.064500 
#    y -0.041060 1.880620 0.049560 
#    z 0.064500 0.049560 1.716510 
# 
# From -- ./inp_files/405442.got.cif
#   From: 2010.05.17/outbox.cif.g08.bks.cpg/sg2_203_cif.got.tgz:405442.got - 2010.06.03 11:33:40.
