data_PCOD9065253
_publ_section_title
;
Structure prediction by ZEFSAII (Michael W. Deem and Ramdas Pophale) SiO2 
 PCOD9065253
Probable space group: P -1
;
_chemical_formula_sum "Si O2"
_cell_formula_units_Z 12
_cell_length_a 11.478144
_cell_length_b 8.071452
_cell_length_c 8.310690
_cell_angle_alpha 114.684311
_cell_angle_beta 132.115242
_cell_angle_gamma 50.159879
_cell_volume 438.446972
_symmetry_space_group_name_H-M "P -1"
_symmetry_group_IT_number 2
_symmetry_cell_setting 'triclinic'
loop_
_space_group_symop_operation_xyz
x,y,z
-x,-y,-z
loop_
_atom_site_type_symbol
_atom_site_label
_atom_site_fract_x
_atom_site_fract_y
_atom_site_fract_z
Si Si1 0.051256 0.753493 0.372974
Si Si2 0.322914 0.381137 0.697053
Si Si3 0.727351 0.922079 0.711028
Si Si4 0.639449 0.038972 0.035874
Si Si5 0.901314 0.466266 0.142747
Si Si6 0.313674 0.667106 0.306618
O O1 0.005277 0.573269 0.207752
O O2 0.213837 0.611935 0.598432
O O3 0.147781 0.793132 0.331076
O O4 0.836880 0.959523 0.276770
O O5 0.345075 0.195469 0.519668
O O6 0.511460 0.278390 0.935995
O O7 0.173614 0.419312 0.710325
O O8 0.945796 0.785458 0.814279
O O9 0.699900 0.904530 0.868447
O O10 0.662261 0.163707 0.700555
O O11 0.500000 0.000000 0.000000
O O12 0.733517 0.479150 0.901544
O O13 0.500000 0.500000 0.500000
#
# Coordination Sequence:
#
# PCOD9065253 Si02
#       6
#     2   2   2   2   2   2
#     4  11  24  47  76 109 150 202 254 306 373 457
#     4  11  26  47  76 114 148 197 261 312 368 461
#     4  11  25  47  75 110 155 193 253 323 382 439
#     4  12  25  42  79 111 150 198 263 301 377 448
#     4  11  24  48  78 107 153 201 254 313 375 457
#     4  12  27  47  77 114 157 198 247 321 397 443
#
# _framework density 27.369330000000001
#
# number of rings (size 3 to 8) (size 9 to 14) (size 15 to 20)
#    0.000    0.667    3.333    4.500    4.667    0.000 
#    0.000    8.333    0.000    0.000    0.000    0.000 
#    0.000    0.000    0.000    0.000    0.000    0.000 
#
# Total GULP energy -67087.597398 kJ/mol
# GULP energy per Si atom -5590.633117 kJ/mol
# Density = 2.730704 g / cm^3
# Si number density = 27.369330 Si / 1000 Ang^3
#
#
#
# Elastic Constant Matrix: (Units=GPa)
#
#
# Indices 1 2 3 4 5 6 
#
# 1 188.3463 38.3386 40.0982 2.3920 -16.3923 -4.8224
# 2 38.3386 143.4157 50.3807 -27.6694 -9.1848 19.3042
# 3 40.0982 50.3807 137.3533 -26.0519 4.8635 3.7912
# 4 2.3920 -27.6694 -26.0519 69.8110 -12.5897 -7.3511
# 5 -16.3923 -9.1848 4.8635 -12.5897 38.0029 -3.3815
# 6 -4.8224 19.3042 3.7912 -7.3511 -3.3815 46.5679
#
#
#
# Elastic Compliance Matrix: (Units=1/GPa)
#
#
# Indices 1 2 3 4 5 6 
#
# 1 0.006161 -0.001249 -0.001601 -0.000721 0.002442 0.001349
# 2 -0.001249 0.009364 -0.002516 0.002982 0.002755 -0.003135
# 3 -0.001601 -0.002516 0.009138 0.002197 -0.001708 0.000356
# 4 -0.000721 0.002982 0.002197 0.017639 0.006127 0.001740
# 5 0.002442 0.002755 -0.001708 0.006127 0.030498 0.002431
# 6 0.001349 -0.003135 0.000356 0.001740 0.002431 0.023336
#
#
# Mechanical properties :
#
#
# Convention : Reuss Voigt Hill
#
# Bulk Modulus (GPa) = 71.77644 80.75001 76.26322
# Shear Modulus (GPa) = 44.83908 53.56288 49.20098
#
# Velocity S-wave (km/s) = 4.05198 4.42864 4.24449
# Velocity P-wave (km/s) = 6.94071 7.46448 7.20735
#
# Compressibility (1/GPa) = 0.01393215
#
# Stress axis : x y z
#
# Youngs Moduli (GPa) = 162.32148 106.79015 109.43366
#
# Poissons Ratio (x) = 0.13337 0.17519
# Poissons Ratio (y) = 0.20273 0.27528
# Poissons Ratio (z) = 0.25986 0.26863
#
# Static dielectric constant tensor:
#      x y z
#    x 2.098890 -0.096630 0.025430 
#    y -0.096630 2.185440 -0.081940 
#    z 0.025430 -0.081940 2.190000 
# 
# From -- ./inp_files/240729.got.cif
#   From: 2010.05.17/outbox.cif.g08.bks.cpg/sg2_121_cif.got.tgz:240729.got - 2010.06.03 11:33:40.
