data_PCOD9065833
_publ_section_title
;
Structure prediction by ZEFSAII (Michael W. Deem and Ramdas Pophale) SiO2 
 PCOD9065833
Probable space group: P -1
;
_chemical_formula_sum "Si O2"
_cell_formula_units_Z 12
_cell_length_a 7.112003
_cell_length_b 12.573129
_cell_length_c 12.903242
_cell_angle_alpha 47.548876
_cell_angle_beta 54.844559
_cell_angle_gamma 91.746987
_cell_volume 500.626133
_symmetry_space_group_name_H-M "P -1"
_symmetry_group_IT_number 2
_symmetry_cell_setting 'triclinic'
loop_
_space_group_symop_operation_xyz
x,y,z
-x,-y,-z
loop_
_atom_site_type_symbol
_atom_site_label
_atom_site_fract_x
_atom_site_fract_y
_atom_site_fract_z
Si Si1 0.722619 0.231138 0.258994
Si Si2 0.334395 0.321126 0.253818
Si Si3 0.094948 0.583551 0.298355
Si Si4 0.731552 0.219936 0.490861
Si Si5 0.374183 0.384896 0.864885
Si Si6 0.964218 0.142360 0.964774
O O1 0.533319 0.261130 0.228521
O O2 0.769220 0.312605 0.306557
O O3 0.500000 0.000000 0.500000
O O4 0.053107 0.307407 0.067615
O O5 0.369191 0.392136 0.315615
O O6 0.961118 0.179006 0.443366
O O7 0.500000 0.500000 0.000000
O O8 0.464457 0.693143 0.095573
O O9 0.000000 0.500000 0.500000
O O10 0.871961 0.394159 0.415418
O O11 0.064496 0.739133 0.184183
O O12 0.369723 0.015494 0.762450
O O13 0.267963 0.313567 0.828048
O O14 0.000000 0.000000 0.000000
#
# Coordination Sequence:
#
# PCOD9065833 Si02
#       6
#     2   2   2   2   2   2
#     4  12  25  42  72 111 144 181 230 287 360 425
#     4  11  25  43  70 105 147 186 228 279 355 428
#     4  11  28  51  73 104 141 190 244 297 352 414
#     4  11  26  45  75 107 145 187 233 293 356 426
#     4  11  25  44  74 103 143 184 232 289 350 424
#     4  12  28  48  75 104 141 189 245 296 352 418
#
# _framework density 23.969982999999999
#
# number of rings (size 3 to 8) (size 9 to 14) (size 15 to 20)
#    0.000    0.667    3.333    2.500    7.000    8.667 
#    0.000    0.000    0.000    0.000    0.000    0.000 
#    0.000    0.000    0.000    0.000    0.000    0.000 
#
# Total GULP energy -67064.319485 kJ/mol
# GULP energy per Si atom -5588.693290 kJ/mol
# Density = 2.391543 g / cm^3
# Si number density = 23.969983 Si / 1000 Ang^3
#
#
#
# Elastic Constant Matrix: (Units=GPa)
#
#
# Indices 1 2 3 4 5 6 
#
# 1 191.6778 63.7862 44.9182 -6.6689 9.2246 -22.3024
# 2 63.7862 107.0604 23.6881 7.7430 20.4078 3.0215
# 3 44.9182 23.6881 64.8964 -1.4813 -1.9212 -15.5292
# 4 -6.6689 7.7430 -1.4813 29.6219 -0.1198 6.6091
# 5 9.2246 20.4078 -1.9212 -0.1198 44.1131 -4.3910
# 6 -22.3024 3.0215 -15.5292 6.6091 -4.3910 38.4218
#
#
#
# Elastic Compliance Matrix: (Units=1/GPa)
#
#
# Indices 1 2 3 4 5 6 
#
# 1 0.007785 -0.004345 -0.002924 0.001985 0.000599 0.003406
# 2 -0.004345 0.014425 -0.003799 -0.003787 -0.006466 -0.005280
# 3 -0.002924 -0.003799 0.020724 -0.000283 0.004016 0.007485
# 4 0.001985 -0.003787 -0.000283 0.036255 0.000946 -0.004793
# 5 0.000599 -0.006466 0.004016 0.000946 0.026242 0.005316
# 6 0.003406 -0.005280 0.007485 -0.004793 0.005316 0.032876
#
#
# Mechanical properties :
#
#
# Convention : Reuss Voigt Hill
#
# Bulk Modulus (GPa) = 48.08503 69.82441 58.95472
# Shear Modulus (GPa) = 29.87298 37.84750 33.86024
#
# Velocity S-wave (km/s) = 3.53408 3.97792 3.76255
# Velocity P-wave (km/s) = 6.06276 7.09166 6.59730
#
# Compressibility (1/GPa) = 0.02079649
#
# Stress axis : x y z
#
# Youngs Moduli (GPa) = 128.45621 69.32231 48.25432
#
# Poissons Ratio (x) = 0.30120 0.14111
# Poissons Ratio (y) = 0.55814 0.18333
# Poissons Ratio (z) = 0.37564 0.26338
#
# Static dielectric constant tensor:
#      x y z
#    x 1.923110 0.036740 -0.010540 
#    y 0.036740 2.049340 0.021910 
#    z -0.010540 0.021910 1.915250 
# 
# From -- ./inp_files/363603.got.cif
#   From: 2010.05.17/outbox.cif.g08.bks.cpg/sg2_182_cif.got.tgz:363603.got - 2010.06.03 11:33:40.
