data_PCOD9065226
_publ_section_title
;
Structure prediction by ZEFSAII (Michael W. Deem and Ramdas Pophale) SiO2 
 PCOD9065226
Probable space group: P -1
;
_chemical_formula_sum "Si O2"
_cell_formula_units_Z 13
_cell_length_a 10.753690
_cell_length_b 9.362493
_cell_length_c 13.633014
_cell_angle_alpha 45.843061
_cell_angle_beta 146.852250
_cell_angle_gamma 119.332214
_cell_volume 522.978033
_symmetry_space_group_name_H-M "P -1"
_symmetry_group_IT_number 2
_symmetry_cell_setting 'triclinic'
loop_
_space_group_symop_operation_xyz
x,y,z
-x,-y,-z
loop_
_atom_site_type_symbol
_atom_site_label
_atom_site_fract_x
_atom_site_fract_y
_atom_site_fract_z
Si Si1 0.448758 0.715117 0.804914
Si Si2 0.268036 0.423198 0.366136
Si Si3 0.038507 0.226209 0.911088
Si Si4 0.325496 0.056925 0.709161
Si Si5 0.000000 0.500000 0.000000
Si Si6 0.212591 0.554635 0.553888
Si Si7 0.326774 0.803534 0.015416
O O1 0.318365 0.698948 0.625948
O O2 0.306515 0.885307 0.701723
O O3 0.500000 0.500000 0.000000
O O4 0.694392 0.772057 0.923982
O O5 0.500000 0.500000 0.500000
O O6 0.051599 0.626219 0.123791
O O7 0.211078 0.272072 0.481319
O O8 0.253286 0.350585 0.281517
O O9 0.887028 0.340632 0.664468
O O10 0.000000 0.000000 0.000000
O O11 0.593188 0.082140 0.892267
O O12 0.251266 0.977256 0.800428
O O13 0.144406 0.667176 0.972746
O O14 0.425200 0.353169 0.775608
O O15 0.000000 0.500000 0.500000
#
# Coordination Sequence:
#
# PCOD9065226 Si02
#       7
#     2   2   2   2   1   2   2
#     4  12  25  47  73 110 144 188 244 302 365 434
#     4  12  25  47  71 106 148 190 240 301 362 433
#     4  12  27  46  75 103 149 193 237 305 370 432
#     4  11  24  47  75 105 149 188 247 302 360 439
#     4  12  26  44  74 106 148 188 246 302 362 434
#     4  12  24  48  78 103 144 195 245 300 364 438
#     4  11  24  47  76 108 145 193 248 300 367 442
#
# _framework density 24.857638000000001
#
# number of rings (size 3 to 8) (size 9 to 14) (size 15 to 20)
#    0.000    0.308    6.154    1.846    0.000    2.462 
#    5.538    0.000    0.000    0.000    0.000    0.000 
#    0.000    0.000    0.000    0.000    0.000    0.000 
#
# Total GULP energy -72589.315330 kJ/mol
# GULP energy per Si atom -5583.793487 kJ/mol
# Density = 2.480106 g / cm^3
# Si number density = 24.857638 Si / 1000 Ang^3
#
#
#
# Elastic Constant Matrix: (Units=GPa)
#
#
# Indices 1 2 3 4 5 6 
#
# 1 69.3065 41.7859 37.9741 -10.8097 -13.5950 27.7296
# 2 41.7859 177.3710 51.9218 -0.3384 -7.6181 33.5351
# 3 37.9741 51.9218 113.3400 7.2070 -27.6380 19.7017
# 4 -10.8097 -0.3384 7.2070 59.9228 10.1500 -4.4287
# 5 -13.5950 -7.6181 -27.6380 10.1500 38.4894 -3.8290
# 6 27.7296 33.5351 19.7017 -4.4287 -3.8290 65.3215
#
#
#
# Elastic Compliance Matrix: (Units=1/GPa)
#
#
# Indices 1 2 3 4 5 6 
#
# 1 0.022127 -0.002500 -0.004878 0.003727 0.002213 -0.006256
# 2 -0.002500 0.007275 -0.002494 -0.000016 -0.001429 -0.002006
# 3 -0.004878 -0.002494 0.014177 -0.004173 0.008996 -0.000680
# 4 0.003727 -0.000016 -0.004173 0.019031 -0.006644 0.000586
# 5 0.002213 -0.001429 0.008996 -0.006644 0.034558 -0.001344
# 6 -0.006256 -0.002006 -0.000680 0.000586 -0.001344 0.019161
#
#
# Mechanical properties :
#
#
# Convention : Reuss Voigt Hill
#
# Bulk Modulus (GPa) = 41.95465 69.26457 55.60961
# Shear Modulus (GPa) = 34.71779 47.96913 41.34346
#
# Velocity S-wave (km/s) = 3.74125 4.39766 4.08267
# Velocity P-wave (km/s) = 5.96467 7.32877 6.68162
#
# Compressibility (1/GPa) = 0.02383526
#
# Stress axis : x y z
#
# Youngs Moduli (GPa) = 45.19332 137.46215 70.53499
#
# Poissons Ratio (x) = 0.34363 0.34410
# Poissons Ratio (y) = 0.11297 0.17590
# Poissons Ratio (z) = 0.22047 0.34280
#
# Static dielectric constant tensor:
#      x y z
#    x 1.833600 0.040410 0.080370 
#    y 0.040410 1.869990 -0.075990 
#    z 0.080370 -0.075990 1.903130 
# 
# From -- ./inp_files/308646.got.cif
#   From: 2010.05.17/outbox.cif.g08.bks.cpg/sg2_155_cif.got.tgz:308646.got - 2010.06.03 11:33:40.
