data_PCOD9065287
_publ_section_title
;
Structure prediction by ZEFSAII (Michael W. Deem and Ramdas Pophale) SiO2 
 PCOD9065287
Probable space group: P -1
;
_chemical_formula_sum "Si O2"
_cell_formula_units_Z 16
_cell_length_a 9.488031
_cell_length_b 13.283018
_cell_length_c 14.316880
_cell_angle_alpha 145.390645
_cell_angle_beta 115.679378
_cell_angle_gamma 88.320118
_cell_volume 710.079676
_symmetry_space_group_name_H-M "P -1"
_symmetry_group_IT_number 2
_symmetry_cell_setting 'triclinic'
loop_
_space_group_symop_operation_xyz
x,y,z
-x,-y,-z
loop_
_atom_site_type_symbol
_atom_site_label
_atom_site_fract_x
_atom_site_fract_y
_atom_site_fract_z
Si Si1 0.887285 0.680195 0.553058
Si Si2 0.016712 0.179830 0.943191
Si Si3 0.120346 0.511032 0.398567
Si Si4 0.611974 0.411445 0.111981
Si Si5 0.410232 0.079509 0.466083
Si Si6 0.706320 0.574854 0.961706
Si Si7 0.390076 0.901980 0.645014
Si Si8 0.027095 0.226544 0.650672
O O1 0.864321 0.600556 0.591452
O O2 0.674097 0.528680 0.321110
O O3 0.003718 0.605392 0.472992
O O4 0.986563 0.948297 0.781252
O O5 0.824411 0.091878 0.756063
O O6 0.031141 0.324079 0.145636
O O7 0.208339 0.339329 0.051519
O O8 0.330204 0.740675 0.593122
O O9 0.385407 0.307352 0.938669
O O10 0.791381 0.603206 0.240979
O O11 0.570226 0.171651 0.922909
O O12 0.497510 0.318036 0.718588
O O13 0.524645 0.149006 0.454129
O O14 0.500000 0.000000 0.500000
O O15 0.882406 0.623929 0.114315
O O16 0.176171 0.830369 0.490865
O O17 0.000000 0.000000 0.500000
#
# Coordination Sequence:
#
# PCOD9065287 Si02
#       8
#     2   2   2   2   2   2   2   2
#     4  11  24  47  78 101 139 190 240 299 365 418
#     4  12  25  50  71 104 149 187 235 301 355 422
#     4  11  25  47  74 107 137 189 242 298 364 417
#     4  12  24  44  70 104 139 185 240 294 352 428
#     4  12  27  41  67 102 143 189 231 284 358 425
#     4  12  25  41  69 101 139 186 235 283 356 433
#     4  12  25  44  68 102 143 181 237 296 350 424
#     4  12  25  41  70 103 140 187 234 292 357 428
#
# _framework density 22.532682999999999
#
# number of rings (size 3 to 8) (size 9 to 14) (size 15 to 20)
#    0.000    0.250    5.000    4.500    3.500    1.500 
#    0.000    3.750    0.000    0.000    0.000    0.000 
#    0.000    0.000    0.000    0.000    0.000    0.000 
#
# Total GULP energy -89291.486749 kJ/mol
# GULP energy per Si atom -5580.717922 kJ/mol
# Density = 2.248140 g / cm^3
# Si number density = 22.532683 Si / 1000 Ang^3
#
#
#
# Elastic Constant Matrix: (Units=GPa)
#
#
# Indices 1 2 3 4 5 6 
#
# 1 81.7967 24.3177 23.8995 10.3874 10.6622 12.4490
# 2 24.3177 126.0021 37.4136 9.3139 0.2946 11.3607
# 3 23.8995 37.4136 118.9885 13.9404 -6.4397 6.3685
# 4 10.3874 9.3139 13.9404 30.6389 -0.1637 -4.6971
# 5 10.6622 0.2946 -6.4397 -0.1637 33.4509 2.9774
# 6 12.4490 11.3607 6.3685 -4.6971 2.9774 31.4084
#
#
#
# Elastic Compliance Matrix: (Units=1/GPa)
#
#
# Indices 1 2 3 4 5 6 
#
# 1 0.015297 -0.001514 -0.002025 -0.004649 -0.004799 -0.005345
# 2 -0.001514 0.009253 -0.002264 -0.001660 0.000184 -0.002554
# 3 -0.002025 -0.002264 0.010132 -0.003404 0.002706 -0.001198
# 4 -0.004649 -0.001660 -0.003404 0.037608 0.000248 0.008734
# 5 -0.004799 0.000184 0.002706 0.000248 0.032098 -0.001719
# 6 -0.005345 -0.002554 -0.001198 0.008734 -0.001719 0.036593
#
#
# Mechanical properties :
#
#
# Convention : Reuss Voigt Hill
#
# Bulk Modulus (GPa) = 43.33651 55.33878 49.33764
# Shear Modulus (GPa) = 31.19520 35.17673 33.18596
#
# Velocity S-wave (km/s) = 3.72485 3.95542 3.84186
# Velocity P-wave (km/s) = 6.14604 6.74337 6.45162
#
# Compressibility (1/GPa) = 0.02307523
#
# Stress axis : x y z
#
# Youngs Moduli (GPa) = 65.37310 108.06822 98.69323
#
# Poissons Ratio (x) = 0.16361 0.19989
# Poissons Ratio (y) = 0.09897 0.22348
# Poissons Ratio (z) = 0.13240 0.24470
#
# Static dielectric constant tensor:
#      x y z
#    x 1.904160 -0.114010 -0.107490 
#    y -0.114010 1.925020 0.096660 
#    z -0.107490 0.096660 1.956380 
# 
# From -- ./inp_files/337750.got.cif
#   From: 2010.05.17/outbox.cif.g08.bks.cpg/sg2_169_cif.got.tgz:337750.got - 2010.06.03 11:33:40.
