data_PCOD9065701
_publ_section_title
;
Structure prediction by ZEFSAII (Michael W. Deem and Ramdas Pophale) SiO2 
 PCOD9065701
Probable space group: P -1
;
_chemical_formula_sum "Si O2"
_cell_formula_units_Z 12
_cell_length_a 4.919997
_cell_length_b 16.723988
_cell_length_c 13.608079
_cell_angle_alpha 25.544600
_cell_angle_beta 72.007208
_cell_angle_gamma 68.955474
_cell_volume 450.308617
_symmetry_space_group_name_H-M "P -1"
_symmetry_group_IT_number 2
_symmetry_cell_setting 'triclinic'
loop_
_space_group_symop_operation_xyz
x,y,z
-x,-y,-z
loop_
_atom_site_type_symbol
_atom_site_label
_atom_site_fract_x
_atom_site_fract_y
_atom_site_fract_z
Si Si1 0.307414 0.923294 0.826918
Si Si2 0.340324 0.394501 0.714449
Si Si3 0.063341 0.583295 0.728279
Si Si4 0.167368 0.063772 0.001481
Si Si5 0.418644 0.631374 0.979526
Si Si6 0.777169 0.139357 0.440969
O O1 0.466066 0.779567 0.053028
O O2 0.244624 0.797140 0.883281
O O3 0.999049 0.024167 0.795005
O O4 0.540799 0.039893 0.631533
O O5 0.500000 0.500000 0.500000
O O6 0.211731 0.544869 0.646926
O O7 0.134947 0.282288 0.797980
O O8 0.257144 0.417072 0.959135
O O9 0.067193 0.758257 0.606187
O O10 0.746567 0.539504 0.794083
O O11 0.500000 0.000000 0.000000
O O12 0.000000 0.000000 0.000000
O O13 0.618601 0.294064 0.208557
O O14 0.000000 0.000000 0.500000
#
# Coordination Sequence:
#
# PCOD9065701 Si02
#       6
#     2   2   2   2   2   2
#     4  11  26  50  76 116 157 200 259 322 384 464
#     4  11  26  51  77 110 153 207 259 319 388 465
#     4  11  26  50  77 112 158 204 258 315 384 464
#     4  12  26  50  79 111 152 198 258 327 389 454
#     4  11  24  51  77 111 155 207 253 315 380 468
#     4  12  27  48  82 118 158 207 260 320 388 456
#
# _framework density 26.648392000000001
#
# number of rings (size 3 to 8) (size 9 to 14) (size 15 to 20)
#    0.000    0.667    3.333    3.500    2.333    3.333 
#    3.000    0.000    0.000    0.000    0.000    0.000 
#    0.000    0.000    0.000    0.000    0.000    0.000 
#
# Total GULP energy -67193.915983 kJ/mol
# GULP energy per Si atom -5599.492999 kJ/mol
# Density = 2.658774 g / cm^3
# Si number density = 26.648392 Si / 1000 Ang^3
#
#
#
# Elastic Constant Matrix: (Units=GPa)
#
#
# Indices 1 2 3 4 5 6 
#
# 1 93.9239 45.4927 40.2274 4.8339 -20.2942 6.2913
# 2 45.4927 250.6734 96.6983 -7.3680 -28.2236 7.4469
# 3 40.2274 96.6983 153.4745 20.3600 -17.5850 8.0247
# 4 4.8339 -7.3680 20.3600 66.9081 7.1007 -10.8241
# 5 -20.2942 -28.2236 -17.5850 7.1007 58.8772 -1.6715
# 6 6.2913 7.4469 8.0247 -10.8241 -1.6715 66.1841
#
#
#
# Elastic Compliance Matrix: (Units=1/GPa)
#
#
# Indices 1 2 3 4 5 6 
#
# 1 0.012946 -0.001158 -0.002108 -0.000926 0.003363 -0.000911
# 2 -0.001158 0.005667 -0.003366 0.001642 0.001119 0.000177
# 3 -0.002108 -0.003366 0.009827 -0.003501 0.000984 -0.001160
# 4 -0.000926 0.001642 -0.003501 0.017022 -0.002544 0.003047
# 5 0.003363 0.001119 0.000984 -0.002544 0.019267 -0.000494
# 6 -0.000911 0.000177 -0.001160 0.003047 -0.000494 0.015803
#
#
# Mechanical properties :
#
#
# Convention : Reuss Voigt Hill
#
# Bulk Modulus (GPa) = 65.89172 95.87875 80.88523
# Shear Modulus (GPa) = 50.58035 59.43743 55.00889
#
# Velocity S-wave (km/s) = 4.36140 4.72787 4.54833
# Velocity P-wave (km/s) = 7.08114 8.11548 7.61589
#
# Compressibility (1/GPa) = 0.01517641
#
# Stress axis : x y z
#
# Youngs Moduli (GPa) = 77.24423 176.46917 101.76305
#
# Poissons Ratio (x) = 0.20430 0.21452
# Poissons Ratio (y) = 0.08943 0.34251
# Poissons Ratio (z) = 0.16283 0.59395
#
# Static dielectric constant tensor:
#      x y z
#    x 2.166320 -0.090690 0.104590 
#    y -0.090690 2.119950 -0.080090 
#    z 0.104590 -0.080090 2.163920 
# 
# From -- ./inp_files/484055.got.cif
#   From: 2010.05.17/outbox.cif.g08.bks.cpg/sg2_243_cif.got.tgz:484055.got - 2010.06.03 11:33:40.
