data_PCOD9065169
_publ_section_title
;
Structure prediction by ZEFSAII (Michael W. Deem and Ramdas Pophale) SiO2 
 PCOD9065169
Probable space group: P -1
;
_chemical_formula_sum "Si O2"
_cell_formula_units_Z 14
_cell_length_a 5.887810
_cell_length_b 17.317168
_cell_length_c 15.099424
_cell_angle_alpha 30.964352
_cell_angle_beta 126.701966
_cell_angle_gamma 116.140962
_cell_volume 625.349809
_symmetry_space_group_name_H-M "P -1"
_symmetry_group_IT_number 2
_symmetry_cell_setting 'triclinic'
loop_
_space_group_symop_operation_xyz
x,y,z
-x,-y,-z
loop_
_atom_site_type_symbol
_atom_site_label
_atom_site_fract_x
_atom_site_fract_y
_atom_site_fract_z
Si Si1 0.650227 0.417043 0.701475
Si Si2 0.485642 0.826744 0.686123
Si Si3 0.330124 0.106213 0.158466
Si Si4 0.701754 0.597142 0.805176
Si Si5 0.706065 0.577476 0.212576
Si Si6 0.737050 0.044337 0.079358
Si Si7 0.818555 0.859831 0.465271
O O1 0.500000 0.500000 0.500000
O O2 0.433899 0.473372 0.678213
O O3 0.685676 0.230576 0.891991
O O4 0.971173 0.458322 0.718258
O O5 0.693001 0.803062 0.843105
O O6 0.599773 0.711292 0.748946
O O7 0.144885 0.827562 0.607500
O O8 0.500000 0.000000 0.500000
O O9 0.626418 0.990969 0.348667
O O10 0.342966 0.240912 0.961840
O O11 0.076878 0.017736 0.159059
O O12 0.490388 0.480989 0.849761
O O13 0.715803 0.702115 0.618580
O O14 0.000000 0.500000 0.000000
O O15 0.500000 0.000000 0.000000
O O16 0.758392 0.936176 0.278738
#
# Coordination Sequence:
#
# PCOD9065169 Si02
#       7
#     2   2   2   2   2   2   2
#     4  11  26  50  76 107 151 204 252 320 381 450
#     4  12  25  44  74 106 148 195 247 306 383 452
#     4  11  24  47  73 106 148 197 248 315 378 462
#     4  12  30  44  72 114 152 197 248 317 381 462
#     4  11  27  48  76 108 156 195 254 309 393 450
#     4  11  26  45  73 107 144 197 259 315 375 453
#     4  12  24  46  73 105 146 195 252 310 383 452
#
# _framework density 22.387467000000001
#
# number of rings (size 3 to 8) (size 9 to 14) (size 15 to 20)
#    0.000    0.571    4.286    1.714   10.000    2.857 
#    0.000    0.000    0.000    0.000    0.000    0.000 
#    0.000    0.000    0.000    0.000    0.000    0.000 
#
# Total GULP energy -77946.385383 kJ/mol
# GULP energy per Si atom -5567.598956 kJ/mol
# Density = 2.233651 g / cm^3
# Si number density = 22.387467 Si / 1000 Ang^3
#
#
#
# Elastic Constant Matrix: (Units=GPa)
#
#
# Indices 1 2 3 4 5 6 
#
# 1 136.0516 68.8525 42.1604 12.8335 -1.7092 19.1707
# 2 68.8525 122.7552 18.5218 25.0276 2.2736 33.3014
# 3 42.1604 18.5218 87.2064 21.3065 -3.6244 13.3239
# 4 12.8335 25.0276 21.3065 35.6627 3.4567 2.5952
# 5 -1.7092 2.2736 -3.6244 3.4567 34.5666 3.9446
# 6 19.1707 33.3014 13.3239 2.5952 3.9446 35.6450
#
#
#
# Elastic Compliance Matrix: (Units=1/GPa)
#
#
# Indices 1 2 3 4 5 6 
#
# 1 0.012131 -0.007364 -0.005622 0.004018 -0.000156 0.002182
# 2 -0.007364 0.017617 0.004855 -0.011788 0.001722 -0.013646
# 3 -0.005622 0.004855 0.017224 -0.011441 0.003205 -0.007472
# 4 0.004018 -0.011788 -0.011441 0.041465 -0.005597 0.010729
# 5 -0.000156 0.001722 0.003205 -0.005597 0.030352 -0.005675
# 6 0.002182 -0.013646 -0.007472 0.010729 -0.005675 0.042269
#
#
# Mechanical properties :
#
#
# Convention : Reuss Voigt Hill
#
# Bulk Modulus (GPa) = 32.56256 67.23140 49.89698
# Shear Modulus (GPa) = 26.65857 35.60677 31.13267
#
# Velocity S-wave (km/s) = 3.45451 3.99241 3.73316
# Velocity P-wave (km/s) = 5.52160 7.16578 6.39674
#
# Compressibility (1/GPa) = 0.03071012
#
# Stress axis : x y z
#
# Youngs Moduli (GPa) = 82.43590 56.76193 58.05800
#
# Poissons Ratio (x) = 0.41799 0.32641
# Poissons Ratio (y) = 0.60705 -0.28186
# Poissons Ratio (z) = 0.46346 -0.27557
#
# Static dielectric constant tensor:
#      x y z
#    x 1.948650 -0.107330 -0.068730 
#    y -0.107330 1.365930 0.004050 
#    z -0.068730 0.004050 1.727610 
# 
# From -- ./inp_files/485189.got.cif
#   From: 2010.05.17/outbox.cif.g08.bks.cpg/sg2_243_cif.got.tgz:485189.got - 2010.06.03 11:33:40.
