data_PCOD9065184
_publ_section_title
;
Structure prediction by ZEFSAII (Michael W. Deem and Ramdas Pophale) SiO2 
 PCOD9065184
Probable space group: P -1
;
_chemical_formula_sum "Si O2"
_cell_formula_units_Z 14
_cell_length_a 9.252724
_cell_length_b 7.690271
_cell_length_c 14.525400
_cell_angle_alpha 127.352150
_cell_angle_beta 118.033797
_cell_angle_gamma 50.253359
_cell_volume 625.995800
_symmetry_space_group_name_H-M "P -1"
_symmetry_group_IT_number 2
_symmetry_cell_setting 'triclinic'
loop_
_space_group_symop_operation_xyz
x,y,z
-x,-y,-z
loop_
_atom_site_type_symbol
_atom_site_label
_atom_site_fract_x
_atom_site_fract_y
_atom_site_fract_z
Si Si1 0.742167 0.714722 0.729135
Si Si2 0.004813 0.295094 0.365673
Si Si3 0.933785 0.844613 0.993552
Si Si4 0.670401 0.282491 0.197571
Si Si5 0.045321 0.852443 0.370177
Si Si6 0.652562 0.959064 0.235213
Si Si7 0.632212 0.548087 0.982046
O O1 0.856862 0.744007 0.689203
O O2 0.818545 0.762136 0.864641
O O3 0.779072 0.429978 0.655480
O O4 0.524907 0.928949 0.715266
O O5 0.000000 0.500000 0.500000
O O6 0.799767 0.404703 0.290959
O O7 0.052454 0.035999 0.352091
O O8 0.141080 0.626857 0.018354
O O9 0.799400 0.030116 0.092814
O O10 0.000000 0.000000 0.000000
O O11 0.638080 0.202243 0.260790
O O12 0.471994 0.437224 0.138169
O O13 0.000000 0.000000 0.500000
O O14 0.866835 0.808654 0.285359
O O15 0.614183 0.804483 0.096740
O O16 0.500000 0.500000 0.000000
#
# Coordination Sequence:
#
# PCOD9065184 Si02
#       7
#     2   2   2   2   2   2   2
#     4  12  23  46  72  99 141 178 232 282 343 408
#     4  11  24  47  73  98 138 183 228 286 339 411
#     4  12  22  40  67 101 138 182 220 280 345 407
#     4  11  25  43  65 101 138 178 227 276 346 403
#     4  11  25  47  72  99 136 186 228 282 350 400
#     4  11  26  44  65 101 139 176 227 291 335 406
#     4  12  22  38  67  98 135 179 223 274 342 409
#
# _framework density 22.364367000000001
#
# number of rings (size 3 to 8) (size 9 to 14) (size 15 to 20)
#    0.000    0.571    7.143    0.429    0.000    3.429 
#    0.000    0.714    0.000    0.000    0.000    0.000 
#    0.000    0.000    0.000    0.000    0.000    0.000 
#
# Total GULP energy -78198.244651 kJ/mol
# GULP energy per Si atom -5585.588904 kJ/mol
# Density = 2.231346 g / cm^3
# Si number density = 22.364367 Si / 1000 Ang^3
#
#
#
# Elastic Constant Matrix: (Units=GPa)
#
#
# Indices 1 2 3 4 5 6 
#
# 1 96.8979 16.7875 19.1181 -2.5597 5.7353 -7.9083
# 2 16.7875 73.8357 1.4825 5.6709 -2.0255 -13.1686
# 3 19.1181 1.4825 94.8343 10.3719 -0.5619 -8.5357
# 4 -2.5597 5.6709 10.3719 22.4752 13.0976 1.4707
# 5 5.7353 -2.0255 -0.5619 13.0976 16.8361 5.2484
# 6 -7.9083 -13.1686 -8.5357 1.4707 5.2484 32.0472
#
#
#
# Elastic Compliance Matrix: (Units=1/GPa)
#
#
# Indices 1 2 3 4 5 6 
#
# 1 0.013431 -0.004048 -0.004055 0.014209 -0.017099 0.002719
# 2 -0.004048 0.016687 0.002545 -0.013301 0.012215 0.005146
# 3 -0.004055 0.002545 0.013232 -0.015012 0.013152 0.002105
# 4 0.014209 -0.013301 -0.015012 0.111524 -0.095104 0.004499
# 5 -0.017099 0.012215 0.013152 -0.095104 0.145860 -0.015220
# 6 0.002719 0.005146 0.002105 0.004499 -0.015220 0.036836
#
#
# Mechanical properties :
#
#
# Convention : Reuss Voigt Hill
#
# Bulk Modulus (GPa) = 31.02172 37.81600 34.41886
# Shear Modulus (GPa) = 13.91094 29.48369 21.69731
#
# Velocity S-wave (km/s) = 2.49673 3.63483 3.11814
# Velocity P-wave (km/s) = 4.71303 5.87892 5.32796
#
# Compressibility (1/GPa) = 0.03223547
#
# Stress axis : x y z
#
# Youngs Moduli (GPa) = 74.45601 59.92596 75.57687
#
# Poissons Ratio (x) = 0.24256 0.30645
# Poissons Ratio (y) = 0.30137 -0.19237
# Poissons Ratio (z) = 0.30191 -0.15254
#
# Static dielectric constant tensor:
#      x y z
#    x 1.924800 0.011380 0.039670 
#    y 0.011380 1.794690 -0.032810 
#    z 0.039670 -0.032810 1.830370 
# 
# From -- ./inp_files/179756.got.cif
#   From: 2010.05.17/outbox.cif.g08.bks.cpg/sg2_90_cif.got.tgz:179756.got - 2010.06.03 11:33:40.
