data_PCOD9065867
_publ_section_title
;
Structure prediction by ZEFSAII (Michael W. Deem and Ramdas Pophale) SiO2 
 PCOD9065867
Probable space group: P -1
;
_chemical_formula_sum "Si O2"
_cell_formula_units_Z 13
_cell_length_a 9.684293
_cell_length_b 10.865266
_cell_length_c 17.466052
_cell_angle_alpha 133.410516
_cell_angle_beta 153.153979
_cell_angle_gamma 39.938392
_cell_volume 532.766244
_symmetry_space_group_name_H-M "P -1"
_symmetry_group_IT_number 2
_symmetry_cell_setting 'triclinic'
loop_
_space_group_symop_operation_xyz
x,y,z
-x,-y,-z
loop_
_atom_site_type_symbol
_atom_site_label
_atom_site_fract_x
_atom_site_fract_y
_atom_site_fract_z
Si Si1 0.774212 0.171814 0.018665
Si Si2 0.000000 0.500000 0.000000
Si Si3 0.029188 0.490657 0.737935
Si Si4 0.030489 0.993335 0.604907
Si Si5 0.296213 0.077504 0.010515
Si Si6 0.876280 0.392947 0.454358
Si Si7 0.191081 0.599542 0.265655
O O1 0.897535 0.331590 0.148969
O O2 0.373661 0.292517 0.844547
O O3 0.839213 0.064807 0.086160
O O4 0.000000 0.000000 0.000000
O O5 0.025863 0.296826 0.961913
O O6 0.859106 0.612827 0.063470
O O7 0.900536 0.471595 0.583153
O O8 0.762747 0.517110 0.684706
O O9 0.427211 0.933440 0.794163
O O10 0.956333 0.834958 0.545142
O O11 0.000000 0.000000 0.500000
O O12 0.825656 0.201186 0.633274
O O13 0.500000 0.000000 0.000000
O O14 0.457400 0.471832 0.274272
O O15 0.000000 0.500000 0.500000
#
# Coordination Sequence:
#
# PCOD9065867 Si02
#       7
#     2   1   2   2   2   2   2
#     4  11  25  43  72 105 141 186 242 302 360 433
#     4  12  24  40  76 108 140 186 256 296 376 424
#     4  11  25  47  69 107 147 192 246 297 372 451
#     4  12  25  47  77 104 145 197 252 293 372 452
#     4  12  24  44  71 106 143 190 241 305 363 437
#     4  12  29  45  72 109 150 189 245 312 370 440
#     4  12  25  46  76 104 145 203 239 302 372 453
#
# _framework density 24.400945
#
# number of rings (size 3 to 8) (size 9 to 14) (size 15 to 20)
#    0.000    0.308    6.154    1.385    2.154    6.769 
#    0.000    0.000    0.000    0.000    0.000    0.000 
#    0.000    0.000    0.000    0.000    0.000    0.000 
#
# Total GULP energy -72473.102086 kJ/mol
# GULP energy per Si atom -5574.854007 kJ/mol
# Density = 2.434541 g / cm^3
# Si number density = 24.400945 Si / 1000 Ang^3
#
#
#
# Elastic Constant Matrix: (Units=GPa)
#
#
# Indices 1 2 3 4 5 6 
#
# 1 138.1452 81.1016 11.3626 8.9665 -21.2921 33.5014
# 2 81.1016 238.8306 24.9908 13.5895 -8.5978 31.1325
# 3 11.3626 24.9908 61.4857 -3.3380 -31.1711 5.8557
# 4 8.9665 13.5895 -3.3380 37.9582 -0.9852 -4.7961
# 5 -21.2921 -8.5978 -31.1711 -0.9852 44.3095 1.5910
# 6 33.5014 31.1325 5.8557 -4.7961 1.5910 56.4738
#
#
#
# Elastic Compliance Matrix: (Units=1/GPa)
#
#
# Indices 1 2 3 4 5 6 
#
# 1 0.011464 -0.003118 0.003377 -0.001834 0.007447 -0.005798
# 2 -0.003118 0.005711 -0.003012 -0.001773 -0.002511 -0.001066
# 3 0.003377 -0.003012 0.027952 0.002828 0.020893 -0.003589
# 4 -0.001834 -0.001773 0.002828 0.028216 0.001243 0.004133
# 5 0.007447 -0.002511 0.020893 0.001243 0.040610 -0.006238
# 6 -0.005798 -0.001066 -0.003589 0.004133 -0.006238 0.022633
#
#
# Mechanical properties :
#
#
# Convention : Reuss Voigt Hill
#
# Bulk Modulus (GPa) = 25.24048 74.81907 50.02978
# Shear Modulus (GPa) = 32.19585 49.14875 40.67230
#
# Velocity S-wave (km/s) = 3.63637 4.49287 4.08712
# Velocity P-wave (km/s) = 5.29126 7.59233 6.54373
#
# Compressibility (1/GPa) = 0.03961889
#
# Stress axis : x y z
#
# Youngs Moduli (GPa) = 87.22646 175.11454 35.77575
#
# Poissons Ratio (x) = 0.54604 -0.12080
# Poissons Ratio (y) = 0.27199 0.10777
# Poissons Ratio (z) = -0.29452 0.52750
#
# Static dielectric constant tensor:
#      x y z
#    x 1.976470 0.015780 -0.088610 
#    y 0.015780 1.946210 0.069370 
#    z -0.088610 0.069370 1.632560 
# 
# From -- ./inp_files/241464.got.cif
#   From: 2010.05.17/outbox.cif.g08.bks.cpg/sg2_121_cif.got.tgz:241464.got - 2010.06.03 11:33:40.
