data_PCOD9065741
_publ_section_title
;
Structure prediction by ZEFSAII (Michael W. Deem and Ramdas Pophale) SiO2 
 PCOD9065741
Probable space group: P -1
;
_chemical_formula_sum "Si O2"
_cell_formula_units_Z 16
_cell_length_a 9.023062
_cell_length_b 13.777848
_cell_length_c 14.724131
_cell_angle_alpha 30.279544
_cell_angle_beta 97.604024
_cell_angle_gamma 78.091433
_cell_volume 701.782406
_symmetry_space_group_name_H-M "P -1"
_symmetry_group_IT_number 2
_symmetry_cell_setting 'triclinic'
loop_
_space_group_symop_operation_xyz
x,y,z
-x,-y,-z
loop_
_atom_site_type_symbol
_atom_site_label
_atom_site_fract_x
_atom_site_fract_y
_atom_site_fract_z
Si Si1 0.850368 0.182108 0.034636
Si Si2 0.899213 0.683450 0.136871
Si Si3 0.893132 0.446597 0.164082
Si Si4 0.521009 0.167616 0.775006
Si Si5 0.550758 0.457120 0.383704
Si Si6 0.119914 0.916304 0.427215
Si Si7 0.132502 0.269206 0.629429
Si Si8 0.273743 0.188310 0.303832
O O1 0.889837 0.938457 0.194055
O O2 0.627236 0.408866 0.809622
O O3 0.914505 0.123750 0.192264
O O4 0.981661 0.230084 0.955794
O O5 0.805293 0.657080 0.064108
O O6 0.046880 0.408004 0.413831
O O7 0.729457 0.893157 0.020401
O O8 0.887477 0.234470 0.371622
O O9 0.118150 0.323678 0.264259
O O10 0.779836 0.592016 0.945419
O O11 0.537333 0.297742 0.585194
O O12 0.466263 0.338248 0.720918
O O13 0.353033 0.155621 0.748944
O O14 0.744841 0.279752 0.483977
O O15 0.212302 0.039895 0.368639
O O16 0.000000 0.500000 0.500000
O O17 0.500000 0.000000 0.500000
#
# Coordination Sequence:
#
# PCOD9065741 Si02
#       8
#     2   2   2   2   2   2   2   2
#     4  12  25  43  69 100 136 189 234 285 348 409
#     4  12  25  46  71  99 148 186 234 293 347 410
#     4  11  26  47  75 105 140 180 228 292 354 423
#     4  11  25  43  66 100 144 191 241 289 338 406
#     4  11  25  41  71  99 142 190 239 285 347 403
#     4  12  25  48  71 104 141 179 235 286 351 423
#     4  12  27  42  69 101 139 191 248 288 343 403
#     4  11  27  48  78 106 138 175 228 291 363 425
#
# _framework density 22.799088000000001
#
# number of rings (size 3 to 8) (size 9 to 14) (size 15 to 20)
#    0.000    0.500    5.000    1.875    5.250    4.500 
#    0.000    0.000    0.000    0.000    0.000    0.000 
#    0.000    0.000    0.000    0.000    0.000    0.000 
#
# Total GULP energy -89629.862803 kJ/mol
# GULP energy per Si atom -5601.866425 kJ/mol
# Density = 2.274720 g / cm^3
# Si number density = 22.799088 Si / 1000 Ang^3
#
#
#
# Elastic Constant Matrix: (Units=GPa)
#
#
# Indices 1 2 3 4 5 6 
#
# 1 87.9098 15.0484 52.6964 10.7563 -2.4270 8.5297
# 2 15.0484 86.1421 20.5229 -1.9015 -7.8513 0.9785
# 3 52.6964 20.5229 138.2097 23.1321 4.2109 -7.2671
# 4 10.7563 -1.9015 23.1321 38.4862 0.0113 -5.0016
# 5 -2.4270 -7.8513 4.2109 0.0113 45.0042 10.1428
# 6 8.5297 0.9785 -7.2671 -5.0016 10.1428 30.5447
#
#
#
# Elastic Compliance Matrix: (Units=1/GPa)
#
#
# Indices 1 2 3 4 5 6 
#
# 1 0.016292 -0.001056 -0.006223 -0.001810 0.002913 -0.007260
# 2 -0.001056 0.012538 -0.001917 0.001923 0.002556 -0.001097
# 3 -0.006223 -0.001917 0.010943 -0.004334 -0.002729 0.004599
# 4 -0.001810 0.001923 -0.004334 0.029762 -0.000357 0.004404
# 5 0.002913 0.002556 -0.002729 -0.000357 0.025336 -0.010016
# 6 -0.007260 -0.001097 0.004599 0.004404 -0.010016 0.039943
#
#
# Mechanical properties :
#
#
# Convention : Reuss Voigt Hill
#
# Bulk Modulus (GPa) = 46.76616 54.31079 50.53848
# Shear Modulus (GPa) = 31.18528 37.73996 34.46262
#
# Velocity S-wave (km/s) = 3.70243 4.07299 3.89212
# Velocity P-wave (km/s) = 6.23171 6.78175 6.51254
#
# Compressibility (1/GPa) = 0.02138298
#
# Stress axis : x y z
#
# Youngs Moduli (GPa) = 61.37794 79.75955 91.38220
#
# Poissons Ratio (x) = 0.08419 0.56866
# Poissons Ratio (y) = 0.06479 0.17515
# Poissons Ratio (z) = 0.38195 0.15288
#
# Static dielectric constant tensor:
#      x y z
#    x 1.792870 0.014050 -0.011510 
#    y 0.014050 1.900290 0.026920 
#    z -0.011510 0.026920 1.860220 
# 
# From -- ./inp_files/505000.got.cif
#   From: 2010.05.17/outbox.cif.g08.bks.cpg/sg2_253_cif.got.tgz:505000.got - 2010.06.03 11:33:40.
