data_PCOD9065471
_publ_section_title
;
Structure prediction by ZEFSAII (Michael W. Deem and Ramdas Pophale) SiO2 
 PCOD9065471
Probable space group: P -1
;
_chemical_formula_sum "Si O2"
_cell_formula_units_Z 13
_cell_length_a 9.394386
_cell_length_b 5.373148
_cell_length_c 11.128567
_cell_angle_alpha 93.776890
_cell_angle_beta 101.641927
_cell_angle_gamma 110.912216
_cell_volume 508.072224
_symmetry_space_group_name_H-M "P -1"
_symmetry_group_IT_number 2
_symmetry_cell_setting 'triclinic'
loop_
_space_group_symop_operation_xyz
x,y,z
-x,-y,-z
loop_
_atom_site_type_symbol
_atom_site_label
_atom_site_fract_x
_atom_site_fract_y
_atom_site_fract_z
Si Si1 0.582460 0.964679 0.887554
Si Si2 0.500000 0.500000 0.000000
Si Si3 0.806098 0.651615 0.204147
Si Si4 0.837729 0.195073 0.789321
Si Si5 0.297309 0.407016 0.353402
Si Si6 0.609127 0.864960 0.343064
Si Si7 0.183578 0.585645 0.558453
O O1 0.553361 0.653328 0.883234
O O2 0.763440 0.153065 0.909254
O O3 0.494512 0.050064 0.770250
O O4 0.500000 0.000000 0.000000
O O5 0.316849 0.418952 0.926468
O O6 0.748974 0.837551 0.286770
O O7 0.794938 0.427338 0.295202
O O8 0.981938 0.759592 0.190388
O O9 0.800460 0.435110 0.726935
O O10 0.742758 0.895479 0.708999
O O11 0.478897 0.604260 0.373804
O O12 0.237369 0.389793 0.479767
O O13 0.697417 0.118735 0.451131
O O14 0.000000 0.500000 0.500000
#
# Coordination Sequence:
#
# PCOD9065471 Si02
#       7
#     2   1   2   2   2   2   2
#     4  11  24  48  75 106 144 200 255 311 380 450
#     4  12  24  46  74 106 144 200 252 314 378 446
#     4  12  26  45  77 107 157 199 257 312 384 451
#     4  11  27  48  76 114 154 199 251 321 384 454
#     4  11  26  48  75 113 156 200 252 312 386 458
#     4  11  25  45  73 110 149 205 252 317 379 456
#     4  12  25  45  75 111 152 203 253 311 379 454
#
# _framework density 25.586911000000001
#
# number of rings (size 3 to 8) (size 9 to 14) (size 15 to 20)
#    0.000    0.615    4.615    2.308    6.462    2.462 
#    0.000    0.769    0.000    0.000    0.000    0.000 
#    0.000    0.000    0.000    0.000    0.000    0.000 
#
# Total GULP energy -72468.777685 kJ/mol
# GULP energy per Si atom -5574.521360 kJ/mol
# Density = 2.552867 g / cm^3
# Si number density = 25.586911 Si / 1000 Ang^3
#
#
#
# Elastic Constant Matrix: (Units=GPa)
#
#
# Indices 1 2 3 4 5 6 
#
# 1 179.6416 22.7902 51.4176 -16.2151 -1.5823 14.5437
# 2 22.7902 96.8268 33.1684 -11.4395 5.4869 -2.9927
# 3 51.4176 33.1684 82.5454 -21.4171 -1.9549 10.2139
# 4 -16.2151 -11.4395 -21.4171 46.2305 -5.1678 -12.8839
# 5 -1.5823 5.4869 -1.9549 -5.1678 51.3896 -3.8795
# 6 14.5437 -2.9927 10.2139 -12.8839 -3.8795 42.7475
#
#
#
# Elastic Compliance Matrix: (Units=1/GPa)
#
#
# Indices 1 2 3 4 5 6 
#
# 1 0.006857 -0.000287 -0.003955 0.000119 0.000000 -0.001372
# 2 -0.000287 0.012318 -0.004764 0.001267 -0.001199 0.002372
# 3 -0.003955 -0.004764 0.018168 0.005603 0.001528 -0.001501
# 4 0.000119 0.001267 0.005603 0.026942 0.003329 0.007132
# 5 0.000000 -0.001199 0.001528 0.003329 0.020160 0.002384
# 6 -0.001372 0.002372 -0.001501 0.007132 0.002384 0.026751
#
#
# Mechanical properties :
#
#
# Convention : Reuss Voigt Hill
#
# Bulk Modulus (GPa) = 51.73057 63.75182 57.74119
# Shear Modulus (GPa) = 36.85927 44.84935 40.85431
#
# Velocity S-wave (km/s) = 3.79958 4.19122 4.00019
# Velocity P-wave (km/s) = 6.28574 6.95641 6.62956
#
# Compressibility (1/GPa) = 0.01933093
#
# Stress axis : x y z
#
# Youngs Moduli (GPa) = 145.83719 81.18112 55.04187
#
# Poissons Ratio (x) = 0.02333 0.21769
# Poissons Ratio (y) = 0.04192 0.26220
# Poissons Ratio (z) = 0.57678 0.38672
#
# Static dielectric constant tensor:
#      x y z
#    x 1.833400 0.427450 0.216070 
#    y 0.427450 0.679140 -0.656230 
#    z 0.216070 -0.656230 1.741100 
# 
# From -- ./inp_files/287386.got.cif
#   From: 2010.05.17/outbox.cif.g08.bks.cpg/sg2_144_cif.got.tgz:287386.got - 2010.06.03 11:33:40.
