data_PCOD9065983
_publ_section_title
;
Structure prediction by ZEFSAII (Michael W. Deem and Ramdas Pophale) SiO2 
 PCOD9065983
Probable space group: P -1
;
_chemical_formula_sum "Si O2"
_cell_formula_units_Z 9
_cell_length_a 11.327376
_cell_length_b 4.934668
_cell_length_c 11.348674
_cell_angle_alpha 78.980509
_cell_angle_beta 28.610454
_cell_angle_gamma 81.024567
_cell_volume 298.067636
_symmetry_space_group_name_H-M "P -1"
_symmetry_group_IT_number 2
_symmetry_cell_setting 'triclinic'
loop_
_space_group_symop_operation_xyz
x,y,z
-x,-y,-z
loop_
_atom_site_type_symbol
_atom_site_label
_atom_site_fract_x
_atom_site_fract_y
_atom_site_fract_z
Si Si1 0.981167 0.106473 0.823495
Si Si2 0.503855 0.848250 0.158652
Si Si3 0.765980 0.646919 0.638891
Si Si4 0.407157 0.738368 0.526444
Si Si5 0.000000 0.500000 0.000000
O O1 0.765281 0.994136 0.937585
O O2 0.907846 0.317208 0.971189
O O3 0.086442 0.820056 0.811906
O O4 0.165952 0.270064 0.561892
O O5 0.466923 0.563233 0.148063
O O6 0.421007 0.785584 0.370891
O O7 0.314478 0.069456 0.255503
O O8 0.000000 0.500000 0.500000
O O9 0.310655 0.438583 0.697501
O O10 0.500000 0.000000 0.500000
#
# Coordination Sequence:
#
# PCOD9065983 Si02
#       5
#     2   2   2   2   1
#     4  11  27  46  73 112 151 197 251 294 377 441
#     4  11  26  47  76 109 148 194 247 310 370 444
#     4  11  26  51  77 107 146 191 252 316 374 437
#     4  11  25  44  70 107 153 195 244 299 363 443
#     4  12  24  44  70 104 160 194 242 300 366 448
#
# _framework density 30.194489000000001
#
# number of rings (size 3 to 8) (size 9 to 14) (size 15 to 20)
#    0.000    0.889    2.222    2.667    6.222    3.556 
#    0.000    0.000    0.000    0.000    0.000    0.000 
#    0.000    0.000    0.000    0.000    0.000    0.000 
#
# Total GULP energy -50520.650312 kJ/mol
# GULP energy per Si atom -5613.405590 kJ/mol
# Density = 3.012576 g / cm^3
# Si number density = 30.194489 Si / 1000 Ang^3
#
#
#
# Elastic Constant Matrix: (Units=GPa)
#
#
# Indices 1 2 3 4 5 6 
#
# 1 180.7735 103.0415 43.1765 -3.9928 -15.2578 -6.8773
# 2 103.0415 292.4735 48.5229 12.2458 -9.7943 1.4526
# 3 43.1765 48.5229 169.8290 -28.4921 -9.5833 18.5338
# 4 -3.9928 12.2458 -28.4921 65.5735 5.8182 -10.3382
# 5 -15.2578 -9.7943 -9.5833 5.8182 82.4555 1.6042
# 6 -6.8773 1.4526 18.5338 -10.3382 1.6042 82.2482
#
#
#
# Elastic Compliance Matrix: (Units=1/GPa)
#
#
# Indices 1 2 3 4 5 6 
#
# 1 0.007276 -0.002367 -0.001151 0.000457 0.000881 0.000950
# 2 -0.002367 0.004462 -0.000876 -0.001407 0.000095 -0.000258
# 3 -0.001151 -0.000876 0.007085 0.002936 0.000325 -0.001315
# 4 0.000457 -0.001407 0.002936 0.017152 -0.000982 0.001577
# 5 0.000881 0.000095 0.000325 -0.000982 0.012416 -0.000367
# 6 0.000950 -0.000258 -0.001315 0.001577 -0.000367 0.012744
#
#
# Mechanical properties :
#
#
# Convention : Reuss Voigt Hill
#
# Bulk Modulus (GPa) = 99.63587 114.72865 107.18226
# Shear Modulus (GPa) = 68.24265 75.94444 72.09354
#
# Velocity S-wave (km/s) = 4.75921 5.02059 4.89165
# Velocity P-wave (km/s) = 7.95423 8.46685 8.21454
#
# Compressibility (1/GPa) = 0.01003655
#
# Stress axis : x y z
#
# Youngs Moduli (GPa) = 137.43026 224.13415 141.13464
#
# Poissons Ratio (x) = 0.53051 0.16245
# Poissons Ratio (y) = 0.32529 0.12357
# Poissons Ratio (z) = 0.15818 0.19623
#
# Static dielectric constant tensor:
#      x y z
#    x 2.278620 -0.167610 -0.110400 
#    y -0.167610 2.339650 -0.005200 
#    z -0.110400 -0.005200 2.659830 
# 
# From -- ./inp_files/408304.got.cif
#   From: 2010.05.17/outbox.cif.g08.bks.cpg/sg2_205_cif.got.tgz:408304.got - 2010.06.03 11:33:40.
