data_PCOD9065181
_publ_section_title
;
Structure prediction by ZEFSAII (Michael W. Deem and Ramdas Pophale) SiO2 
 PCOD9065181
Probable space group: P -1
;
_chemical_formula_sum "Si O2"
_cell_formula_units_Z 16
_cell_length_a 11.751805
_cell_length_b 10.966293
_cell_length_c 10.453802
_cell_angle_alpha 144.142922
_cell_angle_beta 106.808851
_cell_angle_gamma 59.163188
_cell_volume 655.891911
_symmetry_space_group_name_H-M "P -1"
_symmetry_group_IT_number 2
_symmetry_cell_setting 'triclinic'
loop_
_space_group_symop_operation_xyz
x,y,z
-x,-y,-z
loop_
_atom_site_type_symbol
_atom_site_label
_atom_site_fract_x
_atom_site_fract_y
_atom_site_fract_z
Si Si1 0.761618 0.784367 0.420687
Si Si2 0.919962 0.047705 0.646566
Si Si3 0.286012 0.554262 0.718040
Si Si4 0.909904 0.004765 0.095171
Si Si5 0.492461 0.275657 0.363787
Si Si6 0.271752 0.199652 0.071707
Si Si7 0.712469 0.576539 0.970031
Si Si8 0.427854 0.737653 0.092239
O O1 0.789053 0.568438 0.341022
O O2 0.731368 0.712654 0.211966
O O3 0.881934 0.845318 0.496688
O O4 0.634229 0.022831 0.641519
O O5 0.780550 0.299764 0.795564
O O6 0.000000 0.000000 0.500000
O O7 0.005937 0.065606 0.806800
O O8 0.207911 0.715474 0.708136
O O9 0.437354 0.348489 0.551561
O O10 0.307729 0.729602 0.968501
O O11 0.838178 0.841763 0.923580
O O12 0.000000 0.000000 0.000000
O O13 0.500000 0.500000 0.500000
O O14 0.636795 0.042632 0.187155
O O15 0.376669 0.232787 0.223354
O O16 0.216976 0.402291 0.117654
O O17 0.548524 0.703851 0.006732
O O18 0.500000 0.500000 0.000000
#
# Coordination Sequence:
#
# PCOD9065181 Si02
#       8
#     2   2   2   2   2   2   2   2
#     4  12  25  46  75 111 144 198 243 313 384 442
#     4  12  30  51  74 106 152 203 262 310 362 447
#     4  12  27  44  76 109 150 191 251 307 381 448
#     4  12  28  51  73 106 156 201 257 306 360 452
#     4  11  24  47  73 112 147 189 245 310 390 442
#     4  11  27  45  76 108 149 194 244 314 375 448
#     4  12  26  47  76 110 149 193 250 307 381 451
#     4  12  24  44  75 114 153 182 243 319 387 451
#
# _framework density 24.394265999999998
#
# number of rings (size 3 to 8) (size 9 to 14) (size 15 to 20)
#    0.000    0.250    3.750    4.125    8.750    5.500 
#    0.000    0.000    0.000    0.000    0.000    0.000 
#    0.000    0.000    0.000    0.000    0.000    0.000 
#
# Total GULP energy -89675.270468 kJ/mol
# GULP energy per Si atom -5604.704404 kJ/mol
# Density = 2.433874 g / cm^3
# Si number density = 24.394266 Si / 1000 Ang^3
#
#
#
# Elastic Constant Matrix: (Units=GPa)
#
#
# Indices 1 2 3 4 5 6 
#
# 1 158.3036 31.0027 26.2506 -2.8428 21.7887 24.7381
# 2 31.0027 89.8973 3.2779 8.2149 11.7053 21.1635
# 3 26.2506 3.2779 68.6686 -4.3091 4.6415 2.9634
# 4 -2.8428 8.2149 -4.3091 26.8399 9.6441 -3.2969
# 5 21.7887 11.7053 4.6415 9.6441 49.6754 8.4058
# 6 24.7381 21.1635 2.9634 -3.2969 8.4058 37.1324
#
#
#
# Elastic Compliance Matrix: (Units=1/GPa)
#
#
# Indices 1 2 3 4 5 6 
#
# 1 0.007984 -0.001639 -0.002561 0.001432 -0.002567 -0.003472
# 2 -0.001639 0.013908 -0.000030 -0.005207 -0.000323 -0.007222
# 3 -0.002561 -0.000030 0.015745 0.002754 -0.001036 0.000946
# 4 0.001432 -0.005207 0.002754 0.043818 -0.009491 0.007833
# 5 -0.002567 -0.000323 -0.001036 -0.009491 0.023999 -0.004299
# 6 -0.003472 -0.007222 0.000946 0.007833 -0.004299 0.034953
#
#
# Mechanical properties :
#
#
# Convention : Reuss Voigt Hill
#
# Bulk Modulus (GPa) = 34.27432 48.65907 41.46669
# Shear Modulus (GPa) = 31.52696 39.81877 35.67287
#
# Velocity S-wave (km/s) = 3.59889 4.04456 3.82821
# Velocity P-wave (km/s) = 5.59910 6.46541 6.04779
#
# Compressibility (1/GPa) = 0.02917636
#
# Stress axis : x y z
#
# Youngs Moduli (GPa) = 125.24546 71.90033 63.51182
#
# Poissons Ratio (x) = 0.11787 0.16264
# Poissons Ratio (y) = 0.20532 0.00194
# Poissons Ratio (z) = 0.32072 0.00219
#
# Static dielectric constant tensor:
#      x y z
#    x 2.002480 -0.008220 -0.035840 
#    y -0.008220 1.916940 0.017210 
#    z -0.035840 0.017210 1.938230 
# 
# From -- ./inp_files/429266.got.cif
#   From: 2010.05.17/outbox.cif.g08.bks.cpg/sg2_215_cif.got.tgz:429266.got - 2010.06.03 11:33:40.
