data_PCOD9065667
_publ_section_title
;
Structure prediction by ZEFSAII (Michael W. Deem and Ramdas Pophale) SiO2 
 PCOD9065667
Probable space group: P -1
;
_chemical_formula_sum "Si O2"
_cell_formula_units_Z 16
_cell_length_a 18.873040
_cell_length_b 12.501659
_cell_length_c 9.410575
_cell_angle_alpha 142.807673
_cell_angle_beta 37.500648
_cell_angle_gamma 144.628713
_cell_volume 708.348871
_symmetry_space_group_name_H-M "P -1"
_symmetry_group_IT_number 2
_symmetry_cell_setting 'triclinic'
loop_
_space_group_symop_operation_xyz
x,y,z
-x,-y,-z
loop_
_atom_site_type_symbol
_atom_site_label
_atom_site_fract_x
_atom_site_fract_y
_atom_site_fract_z
Si Si1 0.686029 0.810944 0.141382
Si Si2 0.617533 0.012746 0.931300
Si Si3 0.858862 0.274547 0.426069
Si Si4 0.146214 0.542629 0.865219
Si Si5 0.495004 0.177911 0.786150
Si Si6 0.622496 0.671616 0.395678
Si Si7 0.213893 0.467389 0.374715
Si Si8 0.859197 0.577182 0.947197
O O1 0.606548 0.768817 0.076786
O O2 0.592843 0.698935 0.307951
O O3 0.748961 0.049732 0.323332
O O4 0.799833 0.746813 0.873981
O O5 0.671672 0.883829 0.623630
O O6 0.739199 0.231229 0.023492
O O7 0.500000 0.000000 0.000000
O O8 0.546203 0.893599 0.063702
O O9 0.872854 0.442920 0.465158
O O10 0.824290 0.353839 0.708070
O O11 0.000569 0.282137 0.205910
O O12 0.205616 0.486369 0.575771
O O13 0.121063 0.405103 0.897620
O O14 0.000000 0.500000 0.000000
O O15 0.639725 0.373107 0.748189
O O16 0.500000 0.000000 0.500000
O O17 0.500000 0.500000 0.500000
O O18 0.740235 0.618103 0.144729
#
# Coordination Sequence:
#
# PCOD9065667 Si02
#       8
#     2   2   2   2   2   2   2   2
#     4  12  26  45  77 106 144 199 248 311 375 454
#     4  12  27  47  77 111 148 201 255 309 385 451
#     4  11  24  50  75 102 142 200 254 307 374 448
#     4  12  26  46  72 107 150 197 240 311 384 443
#     4  12  24  44  74 104 147 195 246 306 374 451
#     4  12  27  45  74 113 152 191 256 318 379 451
#     4  12  25  47  70 107 149 191 253 305 378 450
#     4  11  26  47  72 103 151 194 252 316 369 454
#
# _framework density 22.587741000000001
#
# number of rings (size 3 to 8) (size 9 to 14) (size 15 to 20)
#    0.000    0.250    5.000    3.375    5.250    1.500 
#    0.000    1.250    0.000    0.000    0.000    0.000 
#    0.000    0.000    0.000    0.000    0.000    0.000 
#
# Total GULP energy -89470.724230 kJ/mol
# GULP energy per Si atom -5591.920264 kJ/mol
# Density = 2.253633 g / cm^3
# Si number density = 22.587741 Si / 1000 Ang^3
#
#
#
# Elastic Constant Matrix: (Units=GPa)
#
#
# Indices 1 2 3 4 5 6 
#
# 1 151.5583 44.8948 46.8123 -19.8094 9.8584 -14.0501
# 2 44.8948 55.2767 35.0722 -4.6822 0.2507 4.4760
# 3 46.8123 35.0722 136.2076 -8.0861 12.2512 -10.5728
# 4 -19.8094 -4.6822 -8.0861 35.0131 0.3926 6.3548
# 5 9.8584 0.2507 12.2512 0.3926 52.5553 -12.2188
# 6 -14.0501 4.4760 -10.5728 6.3548 -12.2188 41.8047
#
#
#
# Elastic Compliance Matrix: (Units=1/GPa)
#
#
# Indices 1 2 3 4 5 6 
#
# 1 0.009922 -0.007357 -0.000968 0.003869 -0.000928 0.003018
# 2 -0.007357 0.027882 -0.005268 -0.000495 0.000984 -0.006427
# 3 -0.000968 -0.005268 0.009360 0.000547 -0.001494 0.002086
# 4 0.003869 -0.000495 0.000547 0.031537 -0.001990 -0.003884
# 5 -0.000928 0.000984 -0.001494 -0.001990 0.020863 0.005605
# 6 0.003018 -0.006427 0.002086 -0.003884 0.005605 0.028380
#
#
# Mechanical properties :
#
#
# Convention : Reuss Voigt Hill
#
# Bulk Modulus (GPa) = 50.05429 66.28901 58.17165
# Shear Modulus (GPa) = 30.90429 40.29217 35.59823
#
# Velocity S-wave (km/s) = 3.70292 4.22810 3.97419
# Velocity P-wave (km/s) = 6.36319 7.29704 6.84606
#
# Compressibility (1/GPa) = 0.01997831
#
# Stress axis : x y z
#
# Youngs Moduli (GPa) = 100.78312 35.86508 106.84004
#
# Poissons Ratio (x) = 0.26385 0.10347
# Poissons Ratio (y) = 0.74144 0.56282
# Poissons Ratio (z) = 0.09760 0.18893
#
# Static dielectric constant tensor:
#      x y z
#    x 1.123000 -0.123680 0.174000 
#    y -0.123680 1.842620 0.056010 
#    z 0.174000 0.056010 1.795200 
# 
# From -- ./inp_files/333885.got.cif
#   From: 2010.05.17/outbox.cif.g08.bks.cpg/sg2_167_cif.got.tgz:333885.got - 2010.06.03 11:33:40.
