data_PCOD9065333
_publ_section_title
;
Structure prediction by ZEFSAII (Michael W. Deem and Ramdas Pophale) SiO2 
 PCOD9065333
Probable space group: P -1
;
_chemical_formula_sum "Si O2"
_cell_formula_units_Z 16
_cell_length_a 24.202345
_cell_length_b 13.371703
_cell_length_c 15.626847
_cell_angle_alpha 154.236256
_cell_angle_beta 23.090863
_cell_angle_gamma 156.735423
_cell_volume 731.385737
_symmetry_space_group_name_H-M "P -1"
_symmetry_group_IT_number 2
_symmetry_cell_setting 'triclinic'
loop_
_space_group_symop_operation_xyz
x,y,z
-x,-y,-z
loop_
_atom_site_type_symbol
_atom_site_label
_atom_site_fract_x
_atom_site_fract_y
_atom_site_fract_z
Si Si1 0.111293 0.753905 0.976665
Si Si2 0.985332 0.085660 0.319293
Si Si3 0.346283 0.695029 0.470914
Si Si4 0.261610 0.909743 0.203739
Si Si5 0.160035 0.038997 0.754451
Si Si6 0.437465 0.587879 0.738356
Si Si7 0.351491 0.166207 0.094570
Si Si8 0.285602 0.646938 0.318303
O O1 0.195023 0.673360 0.722088
O O2 0.000000 0.500000 0.000000
O O3 0.005868 0.863606 0.167220
O O4 0.254077 0.995009 0.017423
O O5 0.164141 0.333461 0.225712
O O6 0.873467 0.971806 0.307343
O O7 0.903958 0.193526 0.585184
O O8 0.374461 0.460366 0.283032
O O9 0.312576 0.652942 0.385895
O O10 0.500000 0.000000 0.500000
O O11 0.405943 0.178321 0.253235
O O12 0.250425 0.998032 0.192183
O O13 0.323604 0.701842 0.957542
O O14 0.196298 0.807553 0.547026
O O15 0.324360 0.330591 0.761588
O O16 0.000000 0.000000 0.000000
O O17 0.500000 0.500000 0.500000
O O18 0.534490 0.213090 0.873528
#
# Coordination Sequence:
#
# PCOD9065333 Si02
#       8
#     2   2   2   2   2   2   2   2
#     4  12  28  46  74 104 143 186 235 291 351 421
#     4  12  26  48  69 106 144 184 232 292 353 418
#     4  12  25  47  72 102 140 186 235 288 352 413
#     4  11  27  43  73 102 143 182 231 290 351 411
#     4  12  27  44  72 105 142 185 236 286 352 421
#     4  11  24  48  69 100 141 187 232 286 343 418
#     4  12  27  47  72 108 138 184 241 289 349 420
#     4  12  26  46  73 100 144 182 234 294 346 417
#
# _framework density 21.876280999999999
#
# number of rings (size 3 to 8) (size 9 to 14) (size 15 to 20)
#    0.000    0.250    3.750    4.500    8.750    3.000 
#    0.000    0.000    0.000    0.000    0.000    0.000 
#    0.000    0.000    0.000    0.000    0.000    0.000 
#
# Total GULP energy -89670.697359 kJ/mol
# GULP energy per Si atom -5604.418585 kJ/mol
# Density = 2.182649 g / cm^3
# Si number density = 21.876281 Si / 1000 Ang^3
#
#
#
# Elastic Constant Matrix: (Units=GPa)
#
#
# Indices 1 2 3 4 5 6 
#
# 1 63.0235 -15.4455 14.7501 2.2834 -12.0589 -12.1266
# 2 -15.4455 69.9779 -4.1269 3.4229 -1.5442 -13.5691
# 3 14.7501 -4.1269 119.4680 -4.6305 -4.8828 -14.8322
# 4 2.2834 3.4229 -4.6305 42.8337 -11.9782 1.0924
# 5 -12.0589 -1.5442 -4.8828 -11.9782 42.5534 2.5484
# 6 -12.1266 -13.5691 -14.8322 1.0924 2.5484 32.5270
#
#
#
# Elastic Compliance Matrix: (Units=1/GPa)
#
#
# Indices 1 2 3 4 5 6 
#
# 1 0.020521 0.006461 -0.000933 -0.000490 0.005234 0.009527
# 2 0.006461 0.017886 0.001106 -0.001477 0.001574 0.010301
# 3 -0.000933 0.001106 0.009119 0.001087 0.000879 0.004167
# 4 -0.000490 -0.001477 0.001087 0.025684 0.007266 -0.001735
# 5 0.005234 0.001574 0.000879 0.007266 0.027148 0.000638
# 6 0.009527 0.010301 0.004167 -0.001735 0.000638 0.040501
#
#
# Mechanical properties :
#
#
# Convention : Reuss Voigt Hill
#
# Bulk Modulus (GPa) = 16.44846 26.98052 21.71449
# Shear Modulus (GPa) = 33.81685 40.73560 37.27622
#
# Velocity S-wave (km/s) = 3.93596 4.31988 4.13238
# Velocity P-wave (km/s) = 5.30951 6.10260 5.71982
#
# Compressibility (1/GPa) = 0.06079598
#
# Stress axis : x y z
#
# Youngs Moduli (GPa) = 48.72966 55.90968 109.65957
#
# Poissons Ratio (x) = -0.36125 0.10228
# Poissons Ratio (y) = -0.31486 -0.12130
# Poissons Ratio (z) = 0.04545 -0.06184
#
# Static dielectric constant tensor:
#      x y z
#    x 1.758500 0.027370 0.012310 
#    y 0.027370 1.835090 -0.004120 
#    z 0.012310 -0.004120 1.762440 
# 
# From -- ./inp_files/94430.got.cif
#   From: 2010.05.17/outbox.cif.g08.bks.cpg/sg2_48_cif.got.tgz:94430.got - 2010.06.03 11:33:40.
