data_PCOD9065321
_publ_section_title
;
Structure prediction by ZEFSAII (Michael W. Deem and Ramdas Pophale) SiO2 
 PCOD9065321
Probable space group: P -1
;
_chemical_formula_sum "Si O2"
_cell_formula_units_Z 14
_cell_length_a 9.225473
_cell_length_b 12.565587
_cell_length_c 7.839481
_cell_angle_alpha 59.361622
_cell_angle_beta 93.187262
_cell_angle_gamma 55.582022
_cell_volume 564.386190
_symmetry_space_group_name_H-M "P -1"
_symmetry_group_IT_number 2
_symmetry_cell_setting 'triclinic'
loop_
_space_group_symop_operation_xyz
x,y,z
-x,-y,-z
loop_
_atom_site_type_symbol
_atom_site_label
_atom_site_fract_x
_atom_site_fract_y
_atom_site_fract_z
Si Si1 0.670076 0.999320 0.059134
Si Si2 0.186522 0.421642 0.196221
Si Si3 0.165376 0.953793 0.275137
Si Si4 0.581722 0.086332 0.375102
Si Si5 0.304595 0.607312 0.680812
Si Si6 0.024844 0.361863 0.511792
Si Si7 0.764425 0.330291 0.968387
O O1 0.877851 0.802691 0.239202
O O2 0.696772 0.081132 0.843494
O O3 0.634732 0.062932 0.198723
O O4 0.500000 0.000000 0.000000
O O5 0.400247 0.289252 0.227299
O O6 0.183057 0.312002 0.419875
O O7 0.163329 0.572184 0.147089
O O8 0.000000 0.500000 0.000000
O O9 0.933564 0.131134 0.091860
O O10 0.240209 0.979381 0.432072
O O11 0.209547 0.783955 0.441783
O O12 0.500000 0.000000 0.500000
O O13 0.539189 0.450502 0.784275
O O14 0.177893 0.564523 0.647275
O O15 0.265675 0.652356 0.842452
O O16 0.000000 0.500000 0.500000
#
# Coordination Sequence:
#
# PCOD9065321 Si02
#       7
#     2   2   2   2   2   2   2
#     4  12  27  46  76 120 153 207 267 318 397 465
#     4  12  23  45  79 112 153 203 266 318 389 466
#     4  12  25  51  80 113 163 209 263 323 397 472
#     4  12  23  46  79 114 158 203 259 331 383 466
#     4  11  26  50  77 118 161 207 263 323 402 467
#     4  12  27  49  75 116 159 198 260 331 390 474
#     4  11  24  47  82 120 150 212 264 322 394 467
#
# _framework density 24.805710999999999
#
# number of rings (size 3 to 8) (size 9 to 14) (size 15 to 20)
#    0.000    0.286    5.714    3.000    2.000    0.571 
#    2.571    4.286    0.000    0.000    0.000    0.000 
#    0.000    0.000    0.000    0.000    0.000    0.000 
#
# Total GULP energy -78524.221198 kJ/mol
# GULP energy per Si atom -5608.872943 kJ/mol
# Density = 2.474925 g / cm^3
# Si number density = 24.805711 Si / 1000 Ang^3
#
#
#
# Elastic Constant Matrix: (Units=GPa)
#
#
# Indices 1 2 3 4 5 6 
#
# 1 143.4389 54.0003 55.0896 1.7210 4.6600 4.0643
# 2 54.0003 122.4661 46.0642 -0.4049 10.6363 -14.8867
# 3 55.0896 46.0642 101.3695 -10.7193 -0.5935 -2.2950
# 4 1.7210 -0.4049 -10.7193 47.0133 -10.1942 0.8030
# 5 4.6600 10.6363 -0.5935 -10.1942 53.9137 -5.8482
# 6 4.0643 -14.8867 -2.2950 0.8030 -5.8482 33.3730
#
#
#
# Elastic Compliance Matrix: (Units=1/GPa)
#
#
# Indices 1 2 3 4 5 6 
#
# 1 0.009869 -0.003059 -0.004204 -0.001490 -0.000901 -0.002978
# 2 -0.003059 0.011642 -0.003638 -0.001078 -0.001730 0.005038
# 3 -0.004204 -0.003638 0.014217 0.003789 0.001967 0.000120
# 4 -0.001490 -0.001078 0.003789 0.023216 0.004799 0.000243
# 5 -0.000901 -0.001730 0.001967 0.004799 0.020211 0.002900
# 6 -0.002978 0.005038 0.000120 0.000243 0.002900 0.033085
#
#
# Mechanical properties :
#
#
# Convention : Reuss Voigt Hill
#
# Bulk Modulus (GPa) = 71.80232 75.28698 73.54465
# Shear Modulus (GPa) = 36.05305 41.00136 38.52721
#
# Velocity S-wave (km/s) = 3.81651 4.07000 3.94529
# Velocity P-wave (km/s) = 6.95914 7.24590 7.10397
#
# Compressibility (1/GPa) = 0.01392713
#
# Stress axis : x y z
#
# Youngs Moduli (GPa) = 101.32427 85.89633 70.33679
#
# Poissons Ratio (x) = 0.26278 0.29567
# Poissons Ratio (y) = 0.30998 0.25587
# Poissons Ratio (z) = 0.42593 0.31247
#
# Static dielectric constant tensor:
#      x y z
#    x 1.961530 -0.014080 -0.013240 
#    y -0.014080 1.863130 -0.068820 
#    z -0.013240 -0.068820 1.878480 
# 
# From -- ./inp_files/185202.got.cif
#   From: 2010.05.17/outbox.cif.g08.bks.cpg/sg2_93_cif.got.tgz:185202.got - 2010.06.03 11:33:40.
