data_PCOD9065199
_publ_section_title
;
Structure prediction by ZEFSAII (Michael W. Deem and Ramdas Pophale) SiO2 
 PCOD9065199
Probable space group: P -1
;
_chemical_formula_sum "Si O2"
_cell_formula_units_Z 14
_cell_length_a 14.859125
_cell_length_b 11.830022
_cell_length_c 9.305243
_cell_angle_alpha 32.311238
_cell_angle_beta 126.484980
_cell_angle_gamma 136.508173
_cell_volume 600.986158
_symmetry_space_group_name_H-M "P -1"
_symmetry_group_IT_number 2
_symmetry_cell_setting 'triclinic'
loop_
_space_group_symop_operation_xyz
x,y,z
-x,-y,-z
loop_
_atom_site_type_symbol
_atom_site_label
_atom_site_fract_x
_atom_site_fract_y
_atom_site_fract_z
Si Si1 0.351055 0.423239 0.904284
Si Si2 0.021610 0.029726 0.321499
Si Si3 0.416422 0.824162 0.741550
Si Si4 0.779672 0.029768 0.557908
Si Si5 0.980738 0.442817 0.711221
Si Si6 0.770124 0.513400 0.556865
Si Si7 0.456399 0.713636 0.202646
O O1 0.321257 0.574443 0.831840
O O2 0.327920 0.493660 0.650013
O O3 0.500000 0.500000 0.000000
O O4 0.255923 0.132734 0.156603
O O5 0.169205 0.089324 0.377124
O O6 0.000000 0.000000 0.500000
O O7 0.898359 0.783349 0.402426
O O8 0.011181 0.240783 0.007869
O O9 0.344321 0.949813 0.612355
O O10 0.500000 0.000000 0.500000
O O11 0.479674 0.763937 0.999489
O O12 0.903950 0.301434 0.390152
O O13 0.837272 0.366721 0.715886
O O14 0.000000 0.500000 0.500000
O O15 0.691423 0.427825 0.722480
O O16 0.500000 0.500000 0.500000
O O17 0.500000 0.000000 0.000000
#
# Coordination Sequence:
#
# PCOD9065199 Si02
#       7
#     2   2   2   2   2   2   2
#     4  12  24  46  74 110 152 199 262 324 394 483
#     4  11  27  46  74 105 153 200 255 332 394 476
#     4  12  26  45  77 108 150 205 259 323 390 486
#     4  11  25  42  73 104 145 193 262 310 400 458
#     4  11  24  47  74 105 145 199 263 329 392 468
#     4  11  27  46  77 110 155 204 264 330 404 473
#     4  12  31  51  78 117 163 210 262 330 407 478
#
# _framework density 23.295048000000001
#
# number of rings (size 3 to 8) (size 9 to 14) (size 15 to 20)
#    0.000    0.571    1.429    5.143   10.000    3.429 
#    0.000    0.000    0.000    0.000    0.000    0.000 
#    0.000    0.000    0.000    0.000    0.000    0.000 
#
# Total GULP energy -78009.859698 kJ/mol
# GULP energy per Si atom -5572.132836 kJ/mol
# Density = 2.324203 g / cm^3
# Si number density = 23.295048 Si / 1000 Ang^3
#
#
#
# Elastic Constant Matrix: (Units=GPa)
#
#
# Indices 1 2 3 4 5 6 
#
# 1 170.6168 6.6802 61.1264 11.8238 7.8673 14.8755
# 2 6.6802 59.4105 33.9008 6.4955 2.5119 -3.3230
# 3 61.1264 33.9008 148.1839 4.0171 6.3887 -3.1053
# 4 11.8238 6.4955 4.0171 49.3853 0.6374 -9.4545
# 5 7.8673 2.5119 6.3887 0.6374 38.7564 -0.0873
# 6 14.8755 -3.3230 -3.1053 -9.4545 -0.0873 30.8025
#
#
#
# Elastic Compliance Matrix: (Units=1/GPa)
#
#
# Indices 1 2 3 4 5 6 
#
# 1 0.007680 0.001149 -0.003415 -0.002605 -0.001038 -0.004732
# 2 0.001149 0.019813 -0.004905 -0.002407 -0.000668 0.000347
# 3 -0.003415 -0.004905 0.009321 0.001175 -0.000539 0.002419
# 4 -0.002605 -0.002407 0.001175 0.022636 0.000137 0.008065
# 5 -0.001038 -0.000668 -0.000539 0.000137 0.026144 0.000491
# 6 -0.004732 0.000347 0.002419 0.008065 0.000491 0.037508
#
#
# Mechanical properties :
#
#
# Convention : Reuss Voigt Hill
#
# Bulk Modulus (GPa) = 44.49938 64.62510 54.56224
# Shear Modulus (GPa) = 34.49810 42.22244 38.36027
#
# Velocity S-wave (km/s) = 3.85245 4.26197 4.06237
# Velocity P-wave (km/s) = 6.23959 7.21259 6.74366
#
# Compressibility (1/GPa) = 0.02247222
#
# Stress axis : x y z
#
# Youngs Moduli (GPa) = 130.20015 50.47264 107.28103
#
# Poissons Ratio (x) = -0.05799 0.36635
# Poissons Ratio (y) = -0.14960 0.52624
# Poissons Ratio (z) = 0.44462 0.24758
#
# Static dielectric constant tensor:
#      x y z
#    x 1.993630 -0.062840 0.101250 
#    y -0.062840 1.931210 -0.084620 
#    z 0.101250 -0.084620 1.910790 
# 
# From -- ./inp_files/306113.got.cif
#   From: 2010.05.17/outbox.cif.g08.bks.cpg/sg2_154_cif.got.tgz:306113.got - 2010.06.03 11:33:40.
