data_PCOD9065852
_publ_section_title
;
Structure prediction by ZEFSAII (Michael W. Deem and Ramdas Pophale) SiO2 
 PCOD9065852
Probable space group: P -1
;
_chemical_formula_sum "Si O2"
_cell_formula_units_Z 16
_cell_length_a 12.936864
_cell_length_b 14.216638
_cell_length_c 11.905928
_cell_angle_alpha 159.484411
_cell_angle_beta 104.535153
_cell_angle_gamma 78.518368
_cell_volume 738.658055
_symmetry_space_group_name_H-M "P -1"
_symmetry_group_IT_number 2
_symmetry_cell_setting 'triclinic'
loop_
_space_group_symop_operation_xyz
x,y,z
-x,-y,-z
loop_
_atom_site_type_symbol
_atom_site_label
_atom_site_fract_x
_atom_site_fract_y
_atom_site_fract_z
Si Si1 0.908239 0.947021 0.138338
Si Si2 0.387203 0.819877 0.283493
Si Si3 0.286337 0.363118 0.894476
Si Si4 0.222224 0.554089 0.333239
Si Si5 0.570587 0.248479 0.240894
Si Si6 0.863904 0.823830 0.541853
Si Si7 0.698975 0.220548 0.026134
Si Si8 0.101488 0.367900 0.426266
O O1 0.855089 0.215129 0.451331
O O2 0.842821 0.693375 0.896167
O O3 0.897370 0.898976 0.946878
O O4 0.033073 0.973508 0.236816
O O5 0.500000 0.000000 0.500000
O O6 0.312709 0.053073 0.558155
O O7 0.375830 0.576505 0.097649
O O8 0.350474 0.701803 0.019453
O O9 0.184468 0.355076 0.773767
O O10 0.263810 0.457215 0.117461
O O11 0.323313 0.672574 0.567908
O O12 0.500000 0.500000 0.500000
O O13 0.608804 0.168034 0.037231
O O14 0.500000 0.000000 0.000000
O O15 0.907803 0.667151 0.482894
O O16 0.767639 0.974795 0.738052
O O17 0.786339 0.450042 0.354788
O O18 0.000000 0.500000 0.500000
#
# Coordination Sequence:
#
# PCOD9065852 Si02
#       8
#     2   2   2   2   2   2   2   2
#     4  12  25  42  72 104 139 181 226 277 350 414
#     4  11  25  45  73 101 131 183 241 295 341 390
#     4  11  26  46  69  98 143 181 231 286 338 414
#     4  12  27  47  68 100 143 186 229 277 340 425
#     4  12  29  46  69  98 138 184 228 282 345 412
#     4  11  25  43  71 105 139 175 231 286 349 405
#     4  11  25  44  72 102 141 173 234 291 344 407
#     4  12  22  42  70 105 140 177 222 292 352 408
#
# _framework density 21.660902
#
# number of rings (size 3 to 8) (size 9 to 14) (size 15 to 20)
#    0.000    0.500    3.750    3.750    5.250    1.000 
#    0.000    0.000    0.000    0.000    0.000    0.000 
#    0.000    0.000    0.000    0.000    0.000    0.000 
#
# Total GULP energy -89539.139859 kJ/mol
# GULP energy per Si atom -5596.196241 kJ/mol
# Density = 2.161160 g / cm^3
# Si number density = 21.660902 Si / 1000 Ang^3
#
#
#
# Elastic Constant Matrix: (Units=GPa)
#
#
# Indices 1 2 3 4 5 6 
#
# 1 101.7641 23.2117 25.9459 4.2308 7.3887 22.3155
# 2 23.2117 63.8877 22.2162 -4.2531 -1.9864 20.7679
# 3 25.9459 22.2162 78.2906 -0.8113 -7.6258 15.5715
# 4 4.2308 -4.2531 -0.8113 48.1824 9.0836 2.0906
# 5 7.3887 -1.9864 -7.6258 9.0836 42.4048 3.0162
# 6 22.3155 20.7679 15.5715 2.0906 3.0162 34.9867
#
#
#
# Elastic Compliance Matrix: (Units=1/GPa)
#
#
# Indices 1 2 3 4 5 6 
#
# 1 0.012298 -0.001928 -0.002702 -0.000651 -0.002205 -0.005268
# 2 -0.001928 0.020876 -0.003186 0.002206 0.000977 -0.009960
# 3 -0.002702 -0.003186 0.015626 -0.000274 0.003448 -0.003621
# 4 -0.000651 0.002206 -0.000274 0.021906 -0.004404 -0.001702
# 5 -0.002205 0.000977 0.003448 -0.004404 0.025765 -0.002666
# 6 -0.005268 -0.009960 -0.003621 -0.001702 -0.002666 0.039798
#
#
# Mechanical properties :
#
#
# Convention : Reuss Voigt Hill
#
# Bulk Modulus (GPa) = 30.15040 42.96556 36.55798
# Shear Modulus (GPa) = 30.68327 36.61935 33.65131
#
# Velocity S-wave (km/s) = 3.76776 4.11612 3.94579
# Velocity P-wave (km/s) = 5.73389 6.51679 6.13784
#
# Compressibility (1/GPa) = 0.03316705
#
# Stress axis : x y z
#
# Youngs Moduli (GPa) = 81.31642 47.90243 63.99749
#
# Poissons Ratio (x) = 0.09235 0.17294
# Poissons Ratio (y) = 0.15677 0.20389
# Poissons Ratio (z) = 0.21974 0.15261
#
# Static dielectric constant tensor:
#      x y z
#    x 1.809080 -0.002010 0.026110 
#    y -0.002010 1.779840 0.044660 
#    z 0.026110 0.044660 1.757410 
# 
# From -- ./inp_files/434130.got.cif
#   From: 2010.05.17/outbox.cif.g08.bks.cpg/sg2_218_cif.got.tgz:434130.got - 2010.06.03 11:33:40.
