data_PCOD9065125
_publ_section_title
;
Structure prediction by ZEFSAII (Michael W. Deem and Ramdas Pophale) SiO2 
 PCOD9065125
Probable space group: P -1
;
_chemical_formula_sum "Si O2"
_cell_formula_units_Z 9
_cell_length_a 4.936541
_cell_length_b 7.684001
_cell_length_c 11.857432
_cell_angle_alpha 96.761927
_cell_angle_beta 104.820522
_cell_angle_gamma 119.699489
_cell_volume 361.336895
_symmetry_space_group_name_H-M "P -1"
_symmetry_group_IT_number 2
_symmetry_cell_setting 'triclinic'
loop_
_space_group_symop_operation_xyz
x,y,z
-x,-y,-z
loop_
_atom_site_type_symbol
_atom_site_label
_atom_site_fract_x
_atom_site_fract_y
_atom_site_fract_z
Si Si1 0.000000 0.000000 0.000000
Si Si2 0.886918 0.324403 0.126753
Si Si3 0.991043 0.456531 0.626928
Si Si4 0.366590 0.802346 0.126754
Si Si5 0.262800 0.170401 0.626927
O O1 0.039598 0.188841 0.104453
O O2 0.830697 0.084395 0.895549
O O3 0.850107 0.349859 0.255498
O O4 0.125747 0.562869 0.125743
O O5 0.551033 0.216013 0.000000
O O6 0.161081 0.330545 0.661100
O O7 0.000000 0.500000 0.500000
O O8 0.393840 0.696906 0.393832
O O9 0.660886 0.905635 0.255499
O O10 0.000000 0.000000 0.500000
#
# Coordination Sequence:
#
# PCOD9065125 Si02
#       5
#     1   2   2   2   2
#     4   8  14  36  70 108 138 184 244 308 366 438
#     4   8  17  37  69 105 140 184 241 310 365 425
#     4  11  24  47  72 104 151 197 242 302 368 445
#     4   8  17  37  69 105 140 184 241 310 365 425
#     4  11  24  47  72 104 151 197 242 302 368 445
#
# _framework density 24.907505
#
# number of rings (size 3 to 8) (size 9 to 14) (size 15 to 20)
#    1.333    1.333    0.000    1.333    0.000    0.889 
#   20.000    0.000    0.000   13.333    0.000    0.000 
#    0.000    0.000    0.000    0.000    0.000    0.000 
#
# Total GULP energy -50139.340235 kJ/mol
# GULP energy per Si atom -5571.037804 kJ/mol
# Density = 2.485081 g / cm^3
# Si number density = 24.907505 Si / 1000 Ang^3
#
#
#
# Elastic Constant Matrix: (Units=GPa)
#
#
# Indices 1 2 3 4 5 6 
#
# 1 117.4071 65.1466 74.7453 1.1427 3.8595 -31.9500
# 2 65.1466 230.6841 89.6289 -5.3212 6.2055 -42.8001
# 3 74.7453 89.6289 294.1995 13.1868 2.2205 -27.1107
# 4 1.1427 -5.3212 13.1868 51.8365 3.5162 2.4851
# 5 3.8595 6.2055 2.2205 3.5162 50.6739 -2.2952
# 6 -31.9500 -42.8001 -27.1107 2.4851 -2.2952 68.9102
#
#
#
# Elastic Compliance Matrix: (Units=1/GPa)
#
#
# Indices 1 2 3 4 5 6 
#
# 1 0.011869 -0.001870 -0.002118 -0.000054 -0.000420 0.003496
# 2 -0.001870 0.005734 -0.001101 0.000836 -0.000469 0.002215
# 3 -0.002118 -0.001101 0.004332 -0.001186 0.000193 0.000088
# 4 -0.000054 0.000836 -0.001186 0.019814 -0.001454 -0.000735
# 5 -0.000420 -0.000469 0.000193 -0.001454 0.019930 0.000306
# 6 0.003496 0.002215 0.000088 -0.000735 0.000306 0.017580
#
#
# Mechanical properties :
#
#
# Convention : Reuss Voigt Hill
#
# Bulk Modulus (GPa) = 85.06169 122.37027 103.71598
# Shear Modulus (GPa) = 53.55756 61.80210 57.67983
#
# Velocity S-wave (km/s) = 4.64212 4.98663 4.81746
# Velocity P-wave (km/s) = 7.93458 9.07700 8.52495
#
# Compressibility (1/GPa) = 0.01175617
#
# Stress axis : x y z
#
# Youngs Moduli (GPa) = 84.25082 174.39947 230.81398
#
# Poissons Ratio (x) = 0.32618 0.48886
# Poissons Ratio (y) = 0.15758 0.25424
# Poissons Ratio (z) = 0.17844 0.19210
#
# Static dielectric constant tensor:
#      x y z
#    x 1.674510 0.032930 -0.004550 
#    y 0.032930 1.930460 0.014460 
#    z -0.004550 0.014460 2.045640 
# 
# From -- ./inp_files/62896.got.cif
#   From: 2010.05.17/outbox.cif.g08.bks.cpg/sg2_32_cif.got.tgz:62896.got - 2010.06.03 11:33:40.
