data_PCOD9065360
_publ_section_title
;
Structure prediction by ZEFSAII (Michael W. Deem and Ramdas Pophale) SiO2 
 PCOD9065360
Probable space group: P -1
;
_chemical_formula_sum "Si O2"
_cell_formula_units_Z 16
_cell_length_a 16.819384
_cell_length_b 10.711071
_cell_length_c 7.920946
_cell_angle_alpha 123.277753
_cell_angle_beta 96.661428
_cell_angle_gamma 41.005501
_cell_volume 657.110127
_symmetry_space_group_name_H-M "P -1"
_symmetry_group_IT_number 2
_symmetry_cell_setting 'triclinic'
loop_
_space_group_symop_operation_xyz
x,y,z
-x,-y,-z
loop_
_atom_site_type_symbol
_atom_site_label
_atom_site_fract_x
_atom_site_fract_y
_atom_site_fract_z
Si Si1 0.221876 0.314182 0.532836
Si Si2 0.532825 0.783483 0.908311
Si Si3 0.344087 0.685068 0.548453
Si Si4 0.900577 0.262980 0.777508
Si Si5 0.646314 0.609812 0.185150
Si Si6 0.415262 0.748466 0.285501
Si Si7 0.926802 0.775228 0.995145
Si Si8 0.771267 0.721044 0.880983
O O1 0.318204 0.289677 0.636570
O O2 0.210433 0.359043 0.365585
O O3 0.295151 0.040712 0.386298
O O4 0.056925 0.574083 0.746540
O O5 0.651223 0.496190 0.636500
O O6 0.554394 0.751333 0.091470
O O7 0.500000 0.000000 0.000000
O O8 0.379917 0.956629 0.931199
O O9 0.500000 0.500000 0.500000
O O10 0.329949 0.795928 0.448477
O O11 0.226619 0.903977 0.824220
O O12 0.784911 0.550804 0.868683
O O13 0.007283 0.222914 0.843660
O O14 0.806936 0.320895 0.939483
O O15 0.000000 0.000000 0.500000
O O16 0.546999 0.654746 0.306366
O O17 0.500000 0.500000 0.000000
O O18 0.884212 0.669362 0.933244
#
# Coordination Sequence:
#
# PCOD9065360 Si02
#       8
#     2   2   2   2   2   2   2   2
#     4  11  27  47  74 107 150 197 242 301 372 435
#     4  12  24  44  75 109 143 187 250 297 361 433
#     4  12  27  46  74 109 143 189 246 305 364 435
#     4  11  26  47  74 105 147 192 245 301 364 437
#     4  11  24  48  71 107 145 195 241 294 369 426
#     4  12  26  45  73 108 150 189 243 307 357 426
#     4  11  27  48  71 107 145 191 247 296 374 434
#     4  12  24  45  73 105 145 195 242 303 359 439
#
# _framework density 24.349038
#
# number of rings (size 3 to 8) (size 9 to 14) (size 15 to 20)
#    0.000    0.500    5.000    1.875    7.000    0.000 
#    2.250    1.250    0.000    0.000    0.000    0.000 
#    0.000    0.000    0.000    0.000    0.000    0.000 
#
# Total GULP energy -89281.947523 kJ/mol
# GULP energy per Si atom -5580.121720 kJ/mol
# Density = 2.429362 g / cm^3
# Si number density = 24.349038 Si / 1000 Ang^3
#
#
#
# Elastic Constant Matrix: (Units=GPa)
#
#
# Indices 1 2 3 4 5 6 
#
# 1 115.4102 15.2607 31.6441 8.8932 0.1569 -8.9592
# 2 15.2607 53.0561 7.8961 10.0171 2.0060 -13.7130
# 3 31.6441 7.8961 145.9771 28.1084 -4.5705 3.7604
# 4 8.8932 10.0171 28.1084 23.0315 -12.1988 -3.4010
# 5 0.1569 2.0060 -4.5705 -12.1988 30.7406 3.2866
# 6 -8.9592 -13.7130 3.7604 -3.4010 3.2866 27.5420
#
#
#
# Elastic Compliance Matrix: (Units=1/GPa)
#
#
# Indices 1 2 3 4 5 6 
#
# 1 0.009679 -0.001674 -0.001982 -0.000606 -0.000753 0.002601
# 2 -0.001674 0.025056 0.001286 -0.014666 -0.008426 0.010949
# 3 -0.001982 0.001286 0.009936 -0.014459 -0.004049 -0.002663
# 4 -0.000606 -0.014666 -0.014459 0.085017 0.032430 0.001103
# 5 -0.000753 -0.008426 -0.004049 0.032430 0.045924 -0.005363
# 6 0.002601 0.010949 -0.002663 0.001103 -0.005363 0.043746
#
#
# Mechanical properties :
#
#
# Convention : Reuss Voigt Hill
#
# Bulk Modulus (GPa) = 25.04295 47.11611 36.07953
# Shear Modulus (GPa) = 21.06080 33.57233 27.31656
#
# Velocity S-wave (km/s) = 2.94420 3.71724 3.35307
# Velocity P-wave (km/s) = 4.67601 6.14948 5.46266
#
# Compressibility (1/GPa) = 0.03993141
#
# Stress axis : x y z
#
# Youngs Moduli (GPa) = 103.31631 39.91100 100.64132
#
# Poissons Ratio (x) = 0.06681 0.19942
# Poissons Ratio (y) = 0.17296 -0.12940
# Poissons Ratio (z) = 0.20472 -0.05132
#
# Static dielectric constant tensor:
#      x y z
#    x 2.081840 -0.076750 -0.059710 
#    y -0.076750 2.159550 0.061340 
#    z -0.059710 0.061340 1.991430 
# 
# From -- ./inp_files/333780.got.cif
#   From: 2010.05.17/outbox.cif.g08.bks.cpg/sg2_167_cif.got.tgz:333780.got - 2010.06.03 11:33:40.
