data_PCOD9065349
_publ_section_title
;
Structure prediction by ZEFSAII (Michael W. Deem and Ramdas Pophale) SiO2 
 PCOD9065349
Probable space group: P -1
;
_chemical_formula_sum "Si O2"
_cell_formula_units_Z 14
_cell_length_a 8.599412
_cell_length_b 14.371301
_cell_length_c 13.727661
_cell_angle_alpha 149.854409
_cell_angle_beta 45.566263
_cell_angle_gamma 133.510727
_cell_volume 591.819267
_symmetry_space_group_name_H-M "P -1"
_symmetry_group_IT_number 2
_symmetry_cell_setting 'triclinic'
loop_
_space_group_symop_operation_xyz
x,y,z
-x,-y,-z
loop_
_atom_site_type_symbol
_atom_site_label
_atom_site_fract_x
_atom_site_fract_y
_atom_site_fract_z
Si Si1 0.351381 0.226855 0.572200
Si Si2 0.872468 0.607478 0.347323
Si Si3 0.670163 0.447183 0.800353
Si Si4 0.978024 0.970577 0.310953
Si Si5 0.882472 0.855925 0.047134
Si Si6 0.628224 0.199987 0.071766
Si Si7 0.664978 0.028695 0.136367
O O1 0.206633 0.358714 0.699309
O O2 0.528066 0.313452 0.658479
O O3 0.172689 0.059870 0.554825
O O4 0.488160 0.145781 0.354909
O O5 0.698146 0.411559 0.277185
O O6 0.122635 0.594613 0.262980
O O7 0.878437 0.816268 0.577340
O O8 0.500000 0.500000 0.000000
O O9 0.775456 0.641692 0.874345
O O10 0.823965 0.905798 0.226501
O O11 0.145490 0.830789 0.106149
O O12 0.804688 0.004049 0.147377
O O13 0.146894 0.875712 0.936937
O O14 0.500000 0.000000 0.000000
O O15 0.454463 0.179496 0.039614
#
# Coordination Sequence:
#
# PCOD9065349 Si02
#       7
#     2   2   2   2   2   2   2
#     4  12  27  47  73 114 146 194 249 305 366 437
#     4  12  27  45  76 114 143 195 249 301 363 448
#     4  12  25  46  73 106 151 195 239 304 375 427
#     4  12  25  48  72 108 150 187 251 300 358 445
#     4  11  24  48  70 105 149 193 246 304 360 446
#     4  12  24  49  72 105 153 191 239 306 370 433
#     4  11  25  45  74 100 150 193 239 311 366 425
#
# _framework density 23.655871000000001
#
# number of rings (size 3 to 8) (size 9 to 14) (size 15 to 20)
#    0.000    0.286    5.714    2.143    2.000    4.571 
#    2.571    0.000    0.000    0.000    0.000    0.000 
#    0.000    0.000    0.000    0.000    0.000    0.000 
#
# Total GULP energy -77960.636318 kJ/mol
# GULP energy per Si atom -5568.616880 kJ/mol
# Density = 2.360203 g / cm^3
# Si number density = 23.655871 Si / 1000 Ang^3
#
#
#
# Elastic Constant Matrix: (Units=GPa)
#
#
# Indices 1 2 3 4 5 6 
#
# 1 144.1711 40.0444 33.2071 5.2412 1.1217 11.0295
# 2 40.0444 87.2823 36.6717 19.1960 1.2023 11.3040
# 3 33.2071 36.6717 81.5537 8.0875 -0.7194 12.0095
# 4 5.2412 19.1960 8.0875 37.3255 12.7518 5.4439
# 5 1.1217 1.2023 -0.7194 12.7518 40.3706 17.3776
# 6 11.0295 11.3040 12.0095 5.4439 17.3776 33.6971
#
#
#
# Elastic Compliance Matrix: (Units=1/GPa)
#
#
# Indices 1 2 3 4 5 6 
#
# 1 0.008282 -0.003059 -0.001923 0.000992 0.000016 -0.001168
# 2 -0.003059 0.017175 -0.005151 -0.007975 0.003477 -0.003429
# 3 -0.001923 -0.005151 0.016162 -0.000849 0.002788 -0.004703
# 4 0.000992 -0.007975 -0.000849 0.034610 -0.012175 0.003341
# 5 0.000016 0.003477 0.002788 -0.012175 0.036821 -0.019187
# 6 -0.001168 -0.003429 -0.004703 0.003341 -0.019187 0.042240
#
#
# Mechanical properties :
#
#
# Convention : Reuss Voigt Hill
#
# Bulk Modulus (GPa) = 46.83030 59.20594 53.01812
# Shear Modulus (GPa) = 27.37133 35.81755 31.59444
#
# Velocity S-wave (km/s) = 3.40525 3.89538 3.65853
# Velocity P-wave (km/s) = 5.94142 6.73159 6.34881
#
# Compressibility (1/GPa) = 0.02135370
#
# Stress axis : x y z
#
# Youngs Moduli (GPa) = 120.74522 58.22527 61.87185
#
# Poissons Ratio (x) = 0.17810 0.11898
# Poissons Ratio (y) = 0.36933 0.31869
# Poissons Ratio (z) = 0.23220 0.29991
#
# Static dielectric constant tensor:
#      x y z
#    x 2.088370 -0.010610 0.017600 
#    y -0.010610 1.897040 -0.005330 
#    z 0.017600 -0.005330 1.864690 
# 
# From -- ./inp_files/505658.got.cif
#   From: 2010.05.17/outbox.cif.g08.bks.cpg/sg2_253_cif.got.tgz:505658.got - 2010.06.03 11:33:40.
