data_PCOD9065075
_publ_section_title
;
Structure prediction by ZEFSAII (Michael W. Deem and Ramdas Pophale) SiO2 
 PCOD9065075
Probable space group: P -1
;
_chemical_formula_sum "Si O2"
_cell_formula_units_Z 12
_cell_length_a 16.677334
_cell_length_b 9.262355
_cell_length_c 7.790144
_cell_angle_alpha 92.750664
_cell_angle_beta 126.064800
_cell_angle_gamma 43.076221
_cell_volume 479.610081
_symmetry_space_group_name_H-M "P -1"
_symmetry_group_IT_number 2
_symmetry_cell_setting 'triclinic'
loop_
_space_group_symop_operation_xyz
x,y,z
-x,-y,-z
loop_
_atom_site_type_symbol
_atom_site_label
_atom_site_fract_x
_atom_site_fract_y
_atom_site_fract_z
Si Si1 0.873606 0.664298 0.129394
Si Si2 0.769591 0.109888 0.153808
Si Si3 0.271803 0.093742 0.415751
Si Si4 0.362821 0.662725 0.502863
Si Si5 0.650787 0.710107 0.065182
Si Si6 0.124276 0.799135 0.431931
O O1 0.107804 0.370450 0.353261
O O2 0.809982 0.889631 0.163678
O O3 0.761051 0.806198 0.811544
O O4 0.806071 0.612869 0.151687
O O5 0.854851 0.076025 0.431053
O O6 0.535394 0.436312 0.853834
O O7 0.897904 0.030088 0.163408
O O8 0.232628 0.972418 0.358432
O O9 0.499422 0.824020 0.749108
O O10 0.500000 0.500000 0.500000
O O11 0.226126 0.697261 0.372090
O O12 0.755278 0.467392 0.313694
O O13 0.500000 0.000000 0.000000
#
# Coordination Sequence:
#
# PCOD9065075 Si02
#       6
#     2   2   2   2   2   2
#     4  11  26  47  71 101 141 183 228 281 345 403
#     4  11  24  47  71 103 136 178 231 284 339 411
#     4  11  26  46  69 103 138 185 229 282 340 409
#     4  12  25  46  74  98 138 184 230 284 342 408
#     4  12  26  44  73 103 141 181 227 285 343 410
#     4  11  27  43  71 107 135 177 233 284 343 403
#
# _framework density 25.020327000000002
#
# number of rings (size 3 to 8) (size 9 to 14) (size 15 to 20)
#    0.000    0.667    3.333    3.000    7.000    2.000 
#    6.000    0.000    0.000    0.000    0.000    0.000 
#    0.000    0.000    0.000    0.000    0.000    0.000 
#
# Total GULP energy -67252.672898 kJ/mol
# GULP energy per Si atom -5604.389408 kJ/mol
# Density = 2.496338 g / cm^3
# Si number density = 25.020327 Si / 1000 Ang^3
#
#
#
# Elastic Constant Matrix: (Units=GPa)
#
#
# Indices 1 2 3 4 5 6 
#
# 1 194.9847 26.6022 29.4694 2.0801 -13.1275 -15.4290
# 2 26.6022 94.2169 4.8559 -14.7209 -20.3775 7.3089
# 3 29.4694 4.8559 80.5032 -8.4615 -0.2719 -9.1952
# 4 2.0801 -14.7209 -8.4615 31.2557 3.6641 0.3471
# 5 -13.1275 -20.3775 -0.2719 3.6641 40.4689 0.0921
# 6 -15.4290 7.3089 -9.1952 0.3471 0.0921 28.3316
#
#
#
# Elastic Compliance Matrix: (Units=1/GPa)
#
#
# Indices 1 2 3 4 5 6 
#
# 1 0.006032 -0.001911 -0.001937 -0.001997 0.001155 0.003170
# 2 -0.001911 0.013688 -0.000015 0.005949 0.005744 -0.004668
# 3 -0.001937 -0.000015 0.013937 0.003963 -0.000909 0.003427
# 4 -0.001997 0.005949 0.003963 0.036126 -0.000893 -0.001775
# 5 0.001155 0.005744 -0.000909 -0.000893 0.028055 -0.001228
# 6 0.003170 -0.004668 0.003427 -0.001775 -0.001228 0.039365
#
#
# Mechanical properties :
#
#
# Convention : Reuss Voigt Hill
#
# Bulk Modulus (GPa) = 38.56302 54.61775 46.59039
# Shear Modulus (GPa) = 32.55802 40.59639 36.57721
#
# Velocity S-wave (km/s) = 3.61122 4.03244 3.82763
# Velocity P-wave (km/s) = 5.73009 6.59981 6.18027
#
# Compressibility (1/GPa) = 0.02593158
#
# Stress axis : x y z
#
# Youngs Moduli (GPa) = 165.78269 73.05527 71.75345
#
# Poissons Ratio (x) = 0.13964 0.13896
# Poissons Ratio (y) = 0.31689 0.00104
# Poissons Ratio (z) = 0.32106 0.00106
#
# Static dielectric constant tensor:
#      x y z
#    x 1.963140 -0.042170 -0.011780 
#    y -0.042170 2.010590 0.045400 
#    z -0.011780 0.045400 1.991400 
# 
# From -- ./inp_files/160591.got.cif
#   From: 2010.05.17/outbox.cif.g08.bks.cpg/sg2_81_cif.got.tgz:160591.got - 2010.06.03 11:33:40.
