data_PCOD9065621
_publ_section_title
;
Structure prediction by ZEFSAII (Michael W. Deem and Ramdas Pophale) SiO2 
 PCOD9065621
Probable space group: P -1
;
_chemical_formula_sum "Si O2"
_cell_formula_units_Z 13
_cell_length_a 13.853917
_cell_length_b 9.306976
_cell_length_c 9.077521
_cell_angle_alpha 103.872943
_cell_angle_beta 46.280678
_cell_angle_gamma 133.144151
_cell_volume 553.781246
_symmetry_space_group_name_H-M "P -1"
_symmetry_group_IT_number 2
_symmetry_cell_setting 'triclinic'
loop_
_space_group_symop_operation_xyz
x,y,z
-x,-y,-z
loop_
_atom_site_type_symbol
_atom_site_label
_atom_site_fract_x
_atom_site_fract_y
_atom_site_fract_z
Si Si1 0.845307 0.461032 0.551241
Si Si2 0.727023 0.404914 0.185141
Si Si3 0.802320 0.213409 0.278901
Si Si4 0.901655 0.057831 0.698712
Si Si5 0.488584 0.814090 0.945712
Si Si6 0.195216 0.099319 0.900633
Si Si7 0.500000 0.500000 0.500000
O O1 0.758986 0.267763 0.484958
O O2 0.673364 0.380777 0.817053
O O3 0.000000 0.500000 0.500000
O O4 0.960505 0.683884 0.397775
O O5 0.717037 0.244187 0.246430
O O6 0.656851 0.491116 0.369520
O O7 0.586578 0.279542 0.161078
O O8 0.958019 0.601805 0.943724
O O9 0.734995 0.990538 0.282475
O O10 0.000000 0.000000 0.500000
O O11 0.701426 0.926417 0.788781
O O12 0.852927 0.981075 0.900949
O O13 0.500000 0.000000 0.000000
O O14 0.369402 0.357018 0.751865
O O15 0.000000 0.000000 0.000000
#
# Coordination Sequence:
#
# PCOD9065621 Si02
#       7
#     2   2   2   2   2   2   1
#     4  12  26  48  80 112 152 204 253 319 379 462
#     4  11  25  46  77 112 147 200 252 317 379 464
#     4  11  24  49  78 108 154 197 258 316 383 450
#     4  12  31  51  76 116 160 204 254 320 388 459
#     4  12  26  47  78 111 152 199 257 308 389 453
#     4  12  29  51  77 111 154 203 256 322 384 447
#     4  12  30  46  78 112 150 196 262 312 386 452
#
# _framework density 23.474972999999999
#
# number of rings (size 3 to 8) (size 9 to 14) (size 15 to 20)
#    0.000    0.308    4.615    2.769   10.769    1.231 
#    0.000    0.000    0.000    0.000    0.000    0.000 
#    0.000    0.000    0.000    0.000    0.000    0.000 
#
# Total GULP energy -72610.016835 kJ/mol
# GULP energy per Si atom -5585.385910 kJ/mol
# Density = 2.342154 g / cm^3
# Si number density = 23.474973 Si / 1000 Ang^3
#
#
#
# Elastic Constant Matrix: (Units=GPa)
#
#
# Indices 1 2 3 4 5 6 
#
# 1 162.7077 45.2044 59.4924 2.5282 -8.3952 7.6301
# 2 45.2044 74.1385 17.6443 4.5202 9.9344 -3.7546
# 3 59.4924 17.6443 119.8008 -6.2084 0.1999 3.1598
# 4 2.5282 4.5202 -6.2084 36.9963 -10.6949 3.6904
# 5 -8.3952 9.9344 0.1999 -10.6949 58.8966 1.1812
# 6 7.6301 -3.7546 3.1598 3.6904 1.1812 44.4942
#
#
#
# Elastic Compliance Matrix: (Units=1/GPa)
#
#
# Indices 1 2 3 4 5 6 
#
# 1 0.009115 -0.005075 -0.003725 0.000200 0.002240 -0.001803
# 2 -0.005075 0.017588 -0.000312 -0.003392 -0.004361 0.002774
# 3 -0.003725 -0.000312 0.010355 0.002018 -0.000141 -0.000287
# 4 0.000200 -0.003392 0.002018 0.029834 0.006073 -0.003099
# 5 0.002240 -0.004361 -0.000141 0.006073 0.019172 -0.001755
# 6 -0.001803 0.002774 -0.000287 -0.003099 -0.001755 0.023342
#
#
# Mechanical properties :
#
#
# Convention : Reuss Voigt Hill
#
# Bulk Modulus (GPa) = 53.09181 66.81437 59.95309
# Shear Modulus (GPa) = 37.33897 43.69781 40.51839
#
# Velocity S-wave (km/s) = 3.99254 4.31915 4.15905
# Velocity P-wave (km/s) = 6.62716 7.30733 6.97554
#
# Compressibility (1/GPa) = 0.01883530
#
# Stress axis : x y z
#
# Youngs Moduli (GPa) = 109.71081 56.85594 96.56941
#
# Poissons Ratio (x) = 0.28853 0.35970
# Poissons Ratio (y) = 0.55676 0.03013
# Poissons Ratio (z) = 0.40865 0.01774
#
# Static dielectric constant tensor:
#      x y z
#    x 1.834470 -0.020770 0.008970 
#    y -0.020770 1.929350 -0.046190 
#    z 0.008970 -0.046190 1.917550 
# 
# From -- ./inp_files/241665.got.cif
#   From: 2010.05.17/outbox.cif.g08.bks.cpg/sg2_121_cif.got.tgz:241665.got - 2010.06.03 11:33:40.
