data_PCOD9065522
_publ_section_title
;
Structure prediction by ZEFSAII (Michael W. Deem and Ramdas Pophale) SiO2 
 PCOD9065522
Probable space group: P -1
;
_chemical_formula_sum "Si O2"
_cell_formula_units_Z 16
_cell_length_a 5.551339
_cell_length_b 8.953305
_cell_length_c 21.777638
_cell_angle_alpha 54.656911
_cell_angle_beta 82.866561
_cell_angle_gamma 54.944268
_cell_volume 686.768602
_symmetry_space_group_name_H-M "P -1"
_symmetry_group_IT_number 2
_symmetry_cell_setting 'triclinic'
loop_
_space_group_symop_operation_xyz
x,y,z
-x,-y,-z
loop_
_atom_site_type_symbol
_atom_site_label
_atom_site_fract_x
_atom_site_fract_y
_atom_site_fract_z
Si Si1 0.850785 0.903245 0.065873
Si Si2 0.251142 0.122907 0.531798
Si Si3 0.850280 0.193616 0.336532
Si Si4 0.822988 0.610985 0.043054
Si Si5 0.525699 0.277492 0.567912
Si Si6 0.041757 0.153563 0.200640
Si Si7 0.785186 0.895549 0.213399
Si Si8 0.777662 0.524308 0.356802
O O1 0.955061 0.674522 0.079172
O O2 0.897313 0.853076 0.149038
O O3 0.489675 0.131008 0.021640
O O4 0.000000 0.000000 0.000000
O O5 0.271628 0.271058 0.546591
O O6 0.965974 0.319617 0.449948
O O7 0.500000 0.000000 0.500000
O O8 0.338361 0.903018 0.622866
O O9 0.947537 0.204127 0.263290
O O10 0.723529 0.420340 0.325588
O O11 0.165569 0.960572 0.411005
O O12 0.812774 0.411161 0.116242
O O13 0.000000 0.500000 0.000000
O O14 0.500000 0.500000 0.500000
O O15 0.522151 0.276494 0.641823
O O16 0.927302 0.010198 0.212829
O O17 0.402226 0.047482 0.196779
O O18 0.918073 0.649539 0.299806
#
# Coordination Sequence:
#
# PCOD9065522 Si02
#       8
#     2   2   2   2   2   2   2   2
#     4  11  26  47  79 116 151 200 254 302 379 455
#     4  12  25  44  71 102 136 191 248 303 374 445
#     4  12  26  47  68 102 143 189 245 307 370 440
#     4  11  24  48  80 111 156 199 247 311 374 451
#     4  12  24  42  70  96 138 183 242 299 372 433
#     4  12  28  49  78 110 152 199 248 306 378 441
#     4  12  28  49  77 112 151 198 250 306 374 447
#     4  12  25  46  70 101 142 190 242 311 365 438
#
# _framework density 23.297514
#
# number of rings (size 3 to 8) (size 9 to 14) (size 15 to 20)
#    0.000    0.250    5.000    3.750    5.250    2.000 
#    2.250    0.000    0.000    0.000    0.000    0.000 
#    0.000    0.000    0.000    0.000    0.000    0.000 
#
# Total GULP energy -89127.481395 kJ/mol
# GULP energy per Si atom -5570.467587 kJ/mol
# Density = 2.324449 g / cm^3
# Si number density = 23.297514 Si / 1000 Ang^3
#
#
#
# Elastic Constant Matrix: (Units=GPa)
#
#
# Indices 1 2 3 4 5 6 
#
# 1 53.4709 52.8417 14.4218 9.4454 -20.2235 25.4886
# 2 52.8417 181.1897 40.5901 29.0763 -17.8930 27.0626
# 3 14.4218 40.5901 129.8884 20.6059 -33.7607 17.2658
# 4 9.4454 29.0763 20.6059 48.2942 -0.2515 -1.0400
# 5 -20.2235 -17.8930 -33.7607 -0.2515 37.0200 -8.0562
# 6 25.4886 27.0626 17.2658 -1.0400 -8.0562 46.1311
#
#
#
# Elastic Compliance Matrix: (Units=1/GPa)
#
#
# Indices 1 2 3 4 5 6 
#
# 1 0.042797 -0.008142 0.006884 -0.006675 0.021805 -0.017789
# 2 -0.008142 0.008596 -0.001828 -0.002820 -0.002040 -0.000280
# 3 0.006884 -0.001828 0.012500 -0.005624 0.013096 -0.005249
# 4 -0.006675 -0.002820 -0.005624 0.026206 -0.008535 0.006547
# 5 0.021805 -0.002040 0.013096 -0.008535 0.048184 -0.007530
# 6 -0.017789 -0.000280 -0.005249 0.006547 -0.007530 0.032468
#
#
# Mechanical properties :
#
#
# Convention : Reuss Voigt Hill
#
# Bulk Modulus (GPa) = 17.32500 64.47292 40.89896
# Shear Modulus (GPa) = 25.48919 43.40212 34.44565
#
# Velocity S-wave (km/s) = 3.31127 4.32087 3.84931
# Velocity P-wave (km/s) = 4.69807 7.25445 6.11142
#
# Compressibility (1/GPa) = 0.05772007
#
# Stress axis : x y z
#
# Youngs Moduli (GPa) = 23.36618 116.33553 80.00264
#
# Poissons Ratio (x) = 0.94718 -0.55071
# Poissons Ratio (y) = 0.19024 0.14624
# Poissons Ratio (z) = -0.16085 0.21266
#
# Static dielectric constant tensor:
#      x y z
#    x 11.794020 2.057310 -4.440040 
#    y 2.057310 2.377310 -0.995480 
#    z -4.440040 -0.995480 3.943990 
# 
# From -- ./inp_files/582261.got.cif
#   From: 2010.05.17/outbox.cif.g08.bks.cpg/sg2_292_cif.got.tgz:582261.got - 2010.06.03 11:33:40.
