data_PCOD9065115
_publ_section_title
;
Structure prediction by ZEFSAII (Michael W. Deem and Ramdas Pophale) SiO2 
 PCOD9065115
Probable space group: P -1
;
_chemical_formula_sum "Si O2"
_cell_formula_units_Z 14
_cell_length_a 8.368586
_cell_length_b 16.576696
_cell_length_c 8.925262
_cell_angle_alpha 110.189756
_cell_angle_beta 121.177607
_cell_angle_gamma 34.185475
_cell_volume 586.236727
_symmetry_space_group_name_H-M "P -1"
_symmetry_group_IT_number 2
_symmetry_cell_setting 'triclinic'
loop_
_space_group_symop_operation_xyz
x,y,z
-x,-y,-z
loop_
_atom_site_type_symbol
_atom_site_label
_atom_site_fract_x
_atom_site_fract_y
_atom_site_fract_z
Si Si1 0.254356 0.055748 0.536012
Si Si2 0.642897 0.818120 0.824153
Si Si3 0.257025 0.562537 0.110999
Si Si4 0.146339 0.905813 0.855977
Si Si5 0.966555 0.345742 0.629128
Si Si6 0.368231 0.352043 0.893833
Si Si7 0.851597 0.446357 0.311305
O O1 0.033411 0.220455 0.562826
O O2 0.087800 0.040284 0.353758
O O3 0.500000 0.000000 0.500000
O O4 0.435983 0.960243 0.714284
O O5 0.404468 0.864067 0.858109
O O6 0.813603 0.695242 0.699174
O O7 0.957633 0.730368 0.014623
O O8 0.601548 0.464195 0.162884
O O9 0.281062 0.552368 0.293727
O O10 0.164070 0.501571 0.972666
O O11 0.320803 0.760568 0.926144
O O12 0.000000 0.000000 0.000000
O O13 0.261282 0.293391 0.800441
O O14 0.889668 0.423962 0.490792
O O15 0.338475 0.399742 0.741777
#
# Coordination Sequence:
#
# PCOD9065115 Si02
#       7
#     2   2   2   2   2   2   2
#     4  12  27  48  75 105 153 188 245 304 362 438
#     4  11  25  48  77 102 149 193 242 300 369 423
#     4  11  25  47  75 109 145 194 247 299 360 430
#     4  12  28  50  76 108 144 193 250 296 369 438
#     4  12  24  47  70 112 145 196 239 299 364 430
#     4  11  24  47  72 102 150 188 243 301 362 429
#     4  11  25  45  76 106 147 190 246 300 366 424
#
# _framework density 23.881136000000001
#
# number of rings (size 3 to 8) (size 9 to 14) (size 15 to 20)
#    0.000    0.571    2.857    5.143    4.000    1.714 
#    2.571    0.000    0.000    0.000    0.000    0.000 
#    0.000    0.000    0.000    0.000    0.000    0.000 
#
# Total GULP energy -77987.570431 kJ/mol
# GULP energy per Si atom -5570.540745 kJ/mol
# Density = 2.382678 g / cm^3
# Si number density = 23.881136 Si / 1000 Ang^3
#
#
#
# Elastic Constant Matrix: (Units=GPa)
#
#
# Indices 1 2 3 4 5 6 
#
# 1 114.8179 43.3189 44.9636 -9.9487 -10.4816 -8.3658
# 2 43.3189 62.7775 24.3855 -4.6820 -19.1540 -1.2224
# 3 44.9636 24.3855 134.6352 -4.6993 -32.0154 2.2521
# 4 -9.9487 -4.6820 -4.6993 40.3203 12.7283 -9.6351
# 5 -10.4816 -19.1540 -32.0154 12.7283 49.8350 -11.4348
# 6 -8.3658 -1.2224 2.2521 -9.6351 -11.4348 37.8841
#
#
#
# Elastic Compliance Matrix: (Units=1/GPa)
#
#
# Indices 1 2 3 4 5 6 
#
# 1 0.013622 -0.008580 -0.003635 0.003597 -0.003008 0.002954
# 2 -0.008580 0.024143 0.000413 -0.001684 0.008391 0.000964
# 3 -0.003635 0.000413 0.009995 -0.001637 0.006254 0.000088
# 4 0.003597 -0.001684 -0.001637 0.028951 -0.006936 0.006107
# 5 -0.003008 0.008391 0.006254 -0.006936 0.029941 0.006508
# 6 0.002954 0.000964 0.000088 0.006107 0.006508 0.030592
#
#
# Mechanical properties :
#
#
# Convention : Reuss Voigt Hill
#
# Bulk Modulus (GPa) = 41.39584 59.72960 50.56272
# Shear Modulus (GPa) = 29.60338 38.91205 34.25771
#
# Velocity S-wave (km/s) = 3.52463 4.04097 3.79160
# Velocity P-wave (km/s) = 5.82545 6.84383 6.35507
#
# Compressibility (1/GPa) = 0.02415701
#
# Stress axis : x y z
#
# Youngs Moduli (GPa) = 73.40987 41.42008 100.05073
#
# Poissons Ratio (x) = 0.35539 0.36364
# Poissons Ratio (y) = 0.62986 -0.04134
# Poissons Ratio (z) = 0.26681 -0.01711
#
# Static dielectric constant tensor:
#      x y z
#    x 1.958160 0.008980 0.033250 
#    y 0.008980 1.449130 -0.270030 
#    z 0.033250 -0.270030 1.913100 
# 
# From -- ./inp_files/218085.got.cif
#   From: 2010.05.17/outbox.cif.g08.bks.cpg/sg2_110_cif.got.tgz:218085.got - 2010.06.03 11:33:40.
