data_PCOD9065172
_publ_section_title
;
Structure prediction by ZEFSAII (Michael W. Deem and Ramdas Pophale) SiO2 
 PCOD9065172
Probable space group: P -1
;
_chemical_formula_sum "Si O2"
_cell_formula_units_Z 16
_cell_length_a 15.120104
_cell_length_b 8.795832
_cell_length_c 9.080137
_cell_angle_alpha 88.388171
_cell_angle_beta 113.232844
_cell_angle_gamma 45.301801
_cell_volume 697.135036
_symmetry_space_group_name_H-M "P -1"
_symmetry_group_IT_number 2
_symmetry_cell_setting 'triclinic'
loop_
_space_group_symop_operation_xyz
x,y,z
-x,-y,-z
loop_
_atom_site_type_symbol
_atom_site_label
_atom_site_fract_x
_atom_site_fract_y
_atom_site_fract_z
Si Si1 0.046724 0.235810 0.428395
Si Si2 0.927006 0.275390 0.773961
Si Si3 0.385763 0.961706 0.185594
Si Si4 0.641781 0.162952 0.518948
Si Si5 0.338656 0.381620 0.177752
Si Si6 0.305243 0.585001 0.602972
Si Si7 0.884787 0.724963 0.213803
Si Si8 0.165995 0.767115 0.813293
O O1 0.085068 0.211556 0.624290
O O2 0.917182 0.515307 0.290629
O O3 0.975220 0.165208 0.333895
O O4 0.202877 0.081628 0.451262
O O5 0.812510 0.396715 0.830511
O O6 0.823993 0.354042 0.565085
O O7 0.984379 0.377984 0.808493
O O8 0.083727 0.986131 0.864989
O O9 0.344152 0.910083 0.301944
O O10 0.557098 0.699897 0.269921
O O11 0.367402 0.164528 0.199243
O O12 0.276520 0.059279 0.974753
O O13 0.489026 0.275002 0.348511
O O14 0.642795 0.341695 0.473733
O O15 0.293468 0.512120 0.989408
O O16 0.244996 0.724792 0.714709
#
# Coordination Sequence:
#
# PCOD9065172 Si02
#       8
#     2   2   2   2   2   2   2   2
#     4  11  24  47  73 107 145 189 243 302 360 426
#     4  12  25  47  73 104 148 191 238 299 359 428
#     4  12  28  48  73 108 150 189 243 297 358 436
#     4  12  27  46  72 103 152 193 236 296 362 428
#     4  12  29  47  72 110 144 196 239 298 362 427
#     4  12  27  47  74 105 150 193 236 301 361 427
#     4  11  26  44  76 108 142 193 243 297 364 425
#     4  12  26  49  75 106 145 188 248 301 358 426
#
# _framework density 22.951074999999999
#
# number of rings (size 3 to 8) (size 9 to 14) (size 15 to 20)
#    0.000    0.250    5.000    3.000    7.000    2.000 
#    0.000    0.000    0.000    0.000    0.000    0.000 
#    0.000    0.000    0.000    0.000    0.000    0.000 
#
# Total GULP energy -89501.517769 kJ/mol
# GULP energy per Si atom -5593.844861 kJ/mol
# Density = 2.289884 g / cm^3
# Si number density = 22.951075 Si / 1000 Ang^3
#
#
#
# Elastic Constant Matrix: (Units=GPa)
#
#
# Indices 1 2 3 4 5 6 
#
# 1 51.1504 37.0906 8.7745 -7.3831 -10.6525 7.9169
# 2 37.0906 85.4927 26.3200 -27.1782 -10.6085 11.7501
# 3 8.7745 26.3200 121.3819 -32.9760 -11.6128 14.8142
# 4 -7.3831 -27.1782 -32.9760 32.8963 1.4741 -0.0864
# 5 -10.6525 -10.6085 -11.6128 1.4741 28.1516 4.7487
# 6 7.9169 11.7501 14.8142 -0.0864 4.7487 33.0209
#
#
#
# Elastic Compliance Matrix: (Units=1/GPa)
#
#
# Indices 1 2 3 4 5 6 
#
# 1 0.030744 -0.013102 0.001028 -0.003265 0.008022 -0.004332
# 2 -0.013102 0.024514 0.002313 0.019367 0.005461 -0.007354
# 3 0.001028 0.002313 0.013544 0.015365 0.007422 -0.008173
# 4 -0.003265 0.019367 0.015365 0.060507 0.011683 -0.014524
# 5 0.008022 0.005461 0.007422 0.011683 0.045374 -0.013691
# 6 -0.004332 -0.007354 -0.008173 -0.014524 -0.013691 0.039537
#
#
# Mechanical properties :
#
#
# Convention : Reuss Voigt Hill
#
# Bulk Modulus (GPa) = 20.29186 44.71057 32.50122
# Shear Modulus (GPa) = 19.98644 31.20309 25.59476
#
# Velocity S-wave (km/s) = 2.95418 3.69120 3.34307
# Velocity P-wave (km/s) = 4.52734 6.13920 5.39382
#
# Compressibility (1/GPa) = 0.04928084
#
# Stress axis : x y z
#
# Youngs Moduli (GPa) = 32.52643 40.79285 73.83167
#
# Poissons Ratio (x) = 0.53446 -0.07588
# Poissons Ratio (y) = 0.42615 -0.17078
# Poissons Ratio (z) = -0.03343 -0.09436
#
# Static dielectric constant tensor:
#      x y z
#    x 1.883980 0.008050 -0.070580 
#    y 0.008050 1.873270 -0.005550 
#    z -0.070580 -0.005550 1.827460 
# 
# From -- ./inp_files/187811.got.cif
#   From: 2010.05.17/outbox.cif.g08.bks.cpg/sg2_94_cif.got.tgz:187811.got - 2010.06.03 11:33:40.
