data_PCOD9065870
_publ_section_title
;
Structure prediction by ZEFSAII (Michael W. Deem and Ramdas Pophale) SiO2 
 PCOD9065870
Probable space group: P -1
;
_chemical_formula_sum "Si O2"
_cell_formula_units_Z 14
_cell_length_a 12.400516
_cell_length_b 18.316013
_cell_length_c 12.265015
_cell_angle_alpha 152.684487
_cell_angle_beta 35.340181
_cell_angle_gamma 151.747124
_cell_volume 598.060219
_symmetry_space_group_name_H-M "P -1"
_symmetry_group_IT_number 2
_symmetry_cell_setting 'triclinic'
loop_
_space_group_symop_operation_xyz
x,y,z
-x,-y,-z
loop_
_atom_site_type_symbol
_atom_site_label
_atom_site_fract_x
_atom_site_fract_y
_atom_site_fract_z
Si Si1 0.161200 0.297209 0.801289
Si Si2 0.763821 0.619289 0.406414
Si Si3 0.890762 0.953062 0.294942
Si Si4 0.262413 0.710390 0.894675
Si Si5 0.357233 0.579145 0.439003
Si Si6 0.019481 0.848107 0.849547
Si Si7 0.531319 0.068371 0.320447
O O1 0.175216 0.326962 0.698994
O O2 0.436002 0.437045 0.786509
O O3 0.096639 0.106783 0.671258
O O4 0.950015 0.309679 0.017703
O O5 0.500000 0.500000 0.500000
O O6 0.835822 0.482124 0.206403
O O7 0.894236 0.833075 0.634329
O O8 0.673465 0.959991 0.477233
O O9 0.893738 0.809128 0.018690
O O10 0.419350 0.705265 0.666393
O O11 0.409482 0.903429 0.105952
O O12 0.124424 0.366729 0.370336
O O13 0.340787 0.712453 0.542894
O O14 0.283494 0.938434 0.775020
O O15 0.000000 0.000000 0.000000
#
# Coordination Sequence:
#
# PCOD9065870 Si02
#       7
#     2   2   2   2   2   2   2
#     4  11  25  43  72 107 140 183 233 286 356 414
#     4  12  23  41  69 106 151 176 223 294 355 408
#     4  11  26  47  72 102 143 187 237 285 349 427
#     4  12  24  41  74 108 141 177 233 295 354 409
#     4  11  26  45  71 104 146 186 232 288 352 423
#     4  12  28  48  71 101 143 191 237 292 348 415
#     4  11  26  44  74 102 142 184 238 287 354 417
#
# _framework density 23.409016000000001
#
# number of rings (size 3 to 8) (size 9 to 14) (size 15 to 20)
#    0.000    0.571    2.857    4.286    4.000    4.000 
#    0.000    0.000    0.000    0.000    0.000    0.000 
#    0.000    0.000    0.000    0.000    0.000    0.000 
#
# Total GULP energy -78194.343007 kJ/mol
# GULP energy per Si atom -5585.310215 kJ/mol
# Density = 2.335574 g / cm^3
# Si number density = 23.409016 Si / 1000 Ang^3
#
#
#
# Elastic Constant Matrix: (Units=GPa)
#
#
# Indices 1 2 3 4 5 6 
#
# 1 130.6951 38.8263 27.5354 2.8458 -43.1809 6.8180
# 2 38.8263 104.3904 26.9629 -0.9753 -14.0789 1.3426
# 3 27.5354 26.9629 58.4960 -0.2268 -17.9797 20.3931
# 4 2.8458 -0.9753 -0.2268 35.0853 2.1541 -14.4644
# 5 -43.1809 -14.0789 -17.9797 2.1541 36.4270 -8.7504
# 6 6.8180 1.3426 20.3931 -14.4644 -8.7504 36.3796
#
#
#
# Elastic Compliance Matrix: (Units=1/GPa)
#
#
# Indices 1 2 3 4 5 6 
#
# 1 0.013596 -0.002859 -0.000822 -0.001723 0.014930 0.000924
# 2 -0.002859 0.012016 -0.005847 0.002258 -0.000785 0.004079
# 3 -0.000822 -0.005847 0.028085 -0.007158 0.007084 -0.016516
# 4 -0.001723 0.002258 -0.007158 0.036260 -0.002508 0.018066
# 5 0.014930 -0.000785 0.007084 -0.002508 0.049493 0.004168
# 6 0.000924 0.004079 -0.016516 0.018066 0.004168 0.044608
#
#
# Mechanical properties :
#
#
# Convention : Reuss Voigt Hill
#
# Bulk Modulus (GPa) = 28.86840 53.35899 41.11370
# Shear Modulus (GPa) = 23.29259 34.92881 29.11070
#
# Velocity S-wave (km/s) = 3.15783 3.86697 3.53025
# Velocity P-wave (km/s) = 5.06505 6.54077 5.84963
#
# Compressibility (1/GPa) = 0.03463995
#
# Stress axis : x y z
#
# Youngs Moduli (GPa) = 73.55098 83.22338 35.60663
#
# Poissons Ratio (x) = 0.23793 0.02927
# Poissons Ratio (y) = 0.21027 0.20820
# Poissons Ratio (z) = 0.06046 0.48663
#
# Static dielectric constant tensor:
#      x y z
#    x 1.909900 0.014790 0.017600 
#    y 0.014790 1.858190 -0.010420 
#    z 0.017600 -0.010420 1.941830 
# 
# From -- ./inp_files/437430.got.cif
#   From: 2010.05.17/outbox.cif.g08.bks.cpg/sg2_219_cif.got.tgz:437430.got - 2010.06.03 11:33:40.
