data_PCOD9065400
_publ_section_title
;
Structure prediction by ZEFSAII (Michael W. Deem and Ramdas Pophale) SiO2 
 PCOD9065400
Probable space group: P -1
;
_chemical_formula_sum "Si O2"
_cell_formula_units_Z 13
_cell_length_a 8.049412
_cell_length_b 12.032921
_cell_length_c 12.180416
_cell_angle_alpha 39.433798
_cell_angle_beta 109.822726
_cell_angle_gamma 81.697260
_cell_volume 516.908641
_symmetry_space_group_name_H-M "P -1"
_symmetry_group_IT_number 2
_symmetry_cell_setting 'triclinic'
loop_
_space_group_symop_operation_xyz
x,y,z
-x,-y,-z
loop_
_atom_site_type_symbol
_atom_site_label
_atom_site_fract_x
_atom_site_fract_y
_atom_site_fract_z
Si Si1 0.685133 0.984857 0.974945
Si Si2 0.444839 0.187857 0.540797
Si Si3 0.974861 0.375588 0.185409
Si Si4 0.708016 0.309770 0.859990
Si Si5 0.124954 0.994517 0.351173
Si Si6 0.721691 0.505612 0.230002
Si Si7 0.000000 0.500000 0.500000
O O1 0.586490 0.019640 0.805376
O O2 0.671638 0.198847 0.837704
O O3 0.500000 0.000000 0.000000
O O4 0.942157 0.737172 0.257506
O O5 0.206977 0.242321 0.416786
O O6 0.367345 0.439088 0.363636
O O7 0.617476 0.089624 0.549523
O O8 0.747827 0.563180 0.069704
O O9 0.984142 0.185693 0.270212
O O10 0.000000 0.500000 0.000000
O O11 0.542194 0.342096 0.895763
O O12 0.977210 0.121514 0.108836
O O13 0.167044 0.762744 0.553545
O O14 0.873357 0.505269 0.356321
#
# Coordination Sequence:
#
# PCOD9065400 Si02
#       7
#     2   2   2   2   2   2   1
#     4  12  25  44  74 108 148 190 244 302 364 439
#     4  11  27  47  74 105 149 194 244 304 363 435
#     4  12  26  48  74 106 148 196 245 299 359 437
#     4  11  24  48  72 109 146 193 240 303 373 426
#     4  11  25  49  70 105 146 195 243 298 365 430
#     4  11  26  46  74 105 146 191 246 298 365 436
#     4  12  24  44  74 110 140 188 242 296 368 418
#
# _framework density 25.149514
#
# number of rings (size 3 to 8) (size 9 to 14) (size 15 to 20)
#    0.000    0.615    4.615    2.308    2.154    2.462 
#    2.769    0.000    0.000    0.000    0.000    0.000 
#    0.000    0.000    0.000    0.000    0.000    0.000 
#
# Total GULP energy -72603.987439 kJ/mol
# GULP energy per Si atom -5584.922111 kJ/mol
# Density = 2.509227 g / cm^3
# Si number density = 25.149514 Si / 1000 Ang^3
#
#
#
# Elastic Constant Matrix: (Units=GPa)
#
#
# Indices 1 2 3 4 5 6 
#
# 1 65.4524 15.1113 -7.3438 11.0123 -0.4941 -4.2940
# 2 15.1113 110.0797 -4.0084 0.3611 3.4184 18.8503
# 3 -7.3438 -4.0084 74.3909 10.3147 -16.5666 -5.8905
# 4 11.0123 0.3611 10.3147 35.4186 2.7924 -3.0688
# 5 -0.4941 3.4184 -16.5666 2.7924 28.5678 3.0865
# 6 -4.2940 18.8503 -5.8905 -3.0688 3.0865 32.2059
#
#
#
# Elastic Compliance Matrix: (Units=1/GPa)
#
#
# Indices 1 2 3 4 5 6 
#
# 1 0.017708 -0.003040 0.003407 -0.006355 0.002847 0.003885
# 2 -0.003040 0.010639 -0.000534 0.000498 -0.000972 -0.006589
# 3 0.003407 -0.000534 0.017197 -0.006694 0.010505 0.002268
# 4 -0.006355 0.000498 -0.006694 0.032867 -0.007424 0.001480
# 5 0.002847 -0.000972 0.010505 -0.007424 0.042191 -0.001881
# 6 0.003885 -0.006589 0.002268 0.001480 -0.001881 0.036161
#
#
# Mechanical properties :
#
#
# Convention : Reuss Voigt Hill
#
# Bulk Modulus (GPa) = 22.11851 28.60456 25.36154
# Shear Modulus (GPa) = 29.04162 35.64939 32.34550
#
# Velocity S-wave (km/s) = 3.40186 3.76905 3.59015
# Velocity P-wave (km/s) = 4.92383 5.50813 5.22416
#
# Compressibility (1/GPa) = 0.04521100
#
# Stress axis : x y z
#
# Youngs Moduli (GPa) = 56.47202 93.99296 58.14923
#
# Poissons Ratio (x) = 0.28570 -0.19812
# Poissons Ratio (y) = 0.17165 0.03106
# Poissons Ratio (z) = -0.19241 0.05020
#
# Static dielectric constant tensor:
#      x y z
#    x 2.036640 -0.051490 0.006830 
#    y -0.051490 1.956140 -0.065760 
#    z 0.006830 -0.065760 1.984060 
# 
# From -- ./inp_files/59032.got.cif
#   From: 2010.05.17/outbox.cif.g08.bks.cpg/sg2_30_cif.got.tgz:59032.got - 2010.06.03 11:33:40.
