data_PCOD9065569
_publ_section_title
;
Structure prediction by ZEFSAII (Michael W. Deem and Ramdas Pophale) SiO2 
 PCOD9065569
Probable space group: P -1
;
_chemical_formula_sum "Si O2"
_cell_formula_units_Z 16
_cell_length_a 13.611086
_cell_length_b 22.025249
_cell_length_c 6.530655
_cell_angle_alpha 104.251052
_cell_angle_beta 78.112503
_cell_angle_gamma 158.301486
_cell_volume 700.157337
_symmetry_space_group_name_H-M "P -1"
_symmetry_group_IT_number 2
_symmetry_cell_setting 'triclinic'
loop_
_space_group_symop_operation_xyz
x,y,z
-x,-y,-z
loop_
_atom_site_type_symbol
_atom_site_label
_atom_site_fract_x
_atom_site_fract_y
_atom_site_fract_z
Si Si1 0.121783 0.021131 0.118993
Si Si2 0.342816 0.444531 0.705474
Si Si3 0.862978 0.555440 0.708784
Si Si4 0.356814 0.333971 0.872447
Si Si5 0.815247 0.169179 0.473323
Si Si6 0.425132 0.729359 0.577698
Si Si7 0.859236 0.356943 0.027166
Si Si8 0.381573 0.078199 0.731633
O O1 0.882230 0.851855 0.203800
O O2 0.347169 0.172536 0.304834
O O3 0.252252 0.044537 0.936825
O O4 0.000000 0.000000 0.000000
O O5 0.500000 0.500000 0.500000
O O6 0.270579 0.350214 0.828478
O O7 0.069875 0.319617 0.644038
O O8 0.550602 0.606801 0.881027
O O9 0.608532 0.453004 0.741311
O O10 0.784809 0.445579 0.537909
O O11 0.097025 0.731545 0.657722
O O12 0.936617 0.575803 0.922048
O O13 0.500000 0.000000 0.500000
O O14 0.805031 0.088633 0.367458
O O15 0.297963 0.709160 0.759886
O O16 0.549583 0.837142 0.418841
O O17 0.661854 0.217519 0.823987
O O18 0.000000 0.500000 0.000000
#
# Coordination Sequence:
#
# PCOD9065569 Si02
#       8
#     2   2   2   2   2   2   2   2
#     4  11  26  43  73 109 139 186 248 307 364 433
#     4  11  24  49  72  99 149 195 235 296 370 439
#     4  12  26  44  73 111 140 192 248 297 365 446
#     4  11  26  44  74 104 139 191 245 294 365 441
#     4  12  28  45  74 111 148 195 245 305 373 441
#     4  11  25  47  72 101 146 189 244 298 370 442
#     4  11  25  44  74  99 142 190 243 300 365 431
#     4  11  25  48  71 100 146 193 234 307 375 426
#
# _framework density 22.852004000000001
#
# number of rings (size 3 to 8) (size 9 to 14) (size 15 to 20)
#    0.000    0.750    2.500    3.375    8.750    4.500 
#    0.000    0.000    0.000    0.000    0.000    0.000 
#    0.000    0.000    0.000    0.000    0.000    0.000 
#
# Total GULP energy -89457.811413 kJ/mol
# GULP energy per Si atom -5591.113213 kJ/mol
# Density = 2.279999 g / cm^3
# Si number density = 22.852004 Si / 1000 Ang^3
#
#
#
# Elastic Constant Matrix: (Units=GPa)
#
#
# Indices 1 2 3 4 5 6 
#
# 1 80.4368 14.0406 11.9780 0.5253 30.5307 5.0469
# 2 14.0406 108.7691 29.1878 -9.0222 14.4351 -6.1270
# 3 11.9780 29.1878 75.8778 7.0412 4.0866 2.9225
# 4 0.5253 -9.0222 7.0412 40.7774 6.0272 6.9503
# 5 30.5307 14.4351 4.0866 6.0272 46.1702 5.2746
# 6 5.0469 -6.1270 2.9225 6.9503 5.2746 49.3504
#
#
#
# Elastic Compliance Matrix: (Units=1/GPa)
#
#
# Indices 1 2 3 4 5 6 
#
# 1 0.017073 0.000020 -0.002251 0.001956 -0.011274 -0.000681
# 2 0.000020 0.011297 -0.004537 0.003575 -0.003790 0.001571
# 3 -0.002251 -0.004537 0.015555 -0.003815 0.002136 -0.000945
# 4 0.001956 0.003575 -0.003815 0.027209 -0.005306 -0.002795
# 5 -0.011274 -0.003790 0.002136 -0.005306 0.031033 -0.002014
# 6 -0.000681 0.001571 -0.000945 -0.002795 -0.002014 0.021193
#
#
# Mechanical properties :
#
#
# Convention : Reuss Voigt Hill
#
# Bulk Modulus (GPa) = 32.90589 41.72183 37.31386
# Shear Modulus (GPa) = 34.00812 41.25141 37.62977
#
# Velocity S-wave (km/s) = 3.86189 4.25332 4.06232
# Velocity P-wave (km/s) = 5.85802 6.51291 6.19413
#
# Compressibility (1/GPa) = 0.03038969
#
# Stress axis : x y z
#
# Youngs Moduli (GPa) = 58.57179 88.52240 64.28807
#
# Poissons Ratio (x) = -0.00180 0.14471
# Poissons Ratio (y) = -0.00119 0.29166
# Poissons Ratio (z) = 0.13184 0.40161
#
# Static dielectric constant tensor:
#      x y z
#    x 1.874220 0.038020 -0.024430 
#    y 0.038020 1.841810 0.008830 
#    z -0.024430 0.008830 1.863930 
# 
# From -- ./inp_files/101197.got.cif
#   From: 2010.05.17/outbox.cif.g08.bks.cpg/sg2_51_cif.got.tgz:101197.got - 2010.06.03 11:33:40.
