data_PCOD9065583
_publ_section_title
;
Structure prediction by ZEFSAII (Michael W. Deem and Ramdas Pophale) SiO2 
 PCOD9065583
Probable space group: P -1
;
_chemical_formula_sum "Si O2"
_cell_formula_units_Z 16
_cell_length_a 15.797117
_cell_length_b 12.387702
_cell_length_c 18.578750
_cell_angle_alpha 153.337798
_cell_angle_beta 21.786592
_cell_angle_gamma 141.071518
_cell_volume 575.351413
_symmetry_space_group_name_H-M "P -1"
_symmetry_group_IT_number 2
_symmetry_cell_setting 'triclinic'
loop_
_space_group_symop_operation_xyz
x,y,z
-x,-y,-z
loop_
_atom_site_type_symbol
_atom_site_label
_atom_site_fract_x
_atom_site_fract_y
_atom_site_fract_z
Si Si1 0.176170 0.632571 0.977687
Si Si2 0.503430 0.928856 0.371200
Si Si3 0.284377 0.687306 0.627015
Si Si4 0.513229 0.973890 0.161062
Si Si5 0.019379 0.009115 0.207073
Si Si6 0.955381 0.647809 0.312226
Si Si7 0.755262 0.365274 0.789058
Si Si8 0.861690 0.496711 0.519479
O O1 0.130376 0.632898 0.098781
O O2 0.103440 0.907037 0.161070
O O3 0.452679 0.483380 0.657210
O O4 0.000000 0.500000 0.000000
O O5 0.227086 0.058084 0.644483
O O6 0.500000 0.000000 0.500000
O O7 0.688639 0.039382 0.247873
O O8 0.585666 0.629904 0.112996
O O9 0.083805 0.618374 0.792207
O O10 0.236736 0.591238 0.527692
O O11 0.711888 0.098303 0.105114
O O12 0.664511 0.743948 0.853611
O O13 0.392615 0.827718 0.225200
O O14 0.300139 0.170933 0.404493
O O15 0.935416 0.273463 0.386218
O O16 0.057560 0.745139 0.359866
O O17 0.901301 0.432433 0.648744
#
# Coordination Sequence:
#
# PCOD9065583 Si02
#       8
#     2   2   2   2   2   2   2   2
#     4  12  26  46  71 104 152 187 238 295 362 425
#     4  12  23  47  76 105 146 186 243 296 358 427
#     4  11  24  49  74 104 143 190 240 300 349 431
#     4  12  25  49  70 105 155 181 243 296 355 433
#     4  12  26  45  74 109 141 197 226 306 365 413
#     4  11  27  46  73 110 139 198 239 287 365 424
#     4  11  27  45  78 107 138 198 240 297 350 432
#     4  11  26  47  75 105 141 192 242 291 364 421
#
# _framework density 27.809090000000001
#
# number of rings (size 3 to 8) (size 9 to 14) (size 15 to 20)
#    0.000    0.500    5.000    2.250    1.750    7.000 
#    0.000    0.000    0.000    0.000    0.000    0.000 
#    0.000    0.000    0.000    0.000    0.000    0.000 
#
# Total GULP energy -89703.061699 kJ/mol
# GULP energy per Si atom -5606.441356 kJ/mol
# Density = 2.774579 g / cm^3
# Si number density = 27.809090 Si / 1000 Ang^3
#
#
#
# Elastic Constant Matrix: (Units=GPa)
#
#
# Indices 1 2 3 4 5 6 
#
# 1 101.3344 34.8992 17.0784 0.5098 -10.3635 -17.7334
# 2 34.8992 200.7051 14.7721 -12.7240 9.8294 -16.3552
# 3 17.0784 14.7721 132.5007 -3.3284 -10.9346 -13.3660
# 4 0.5098 -12.7240 -3.3284 56.9504 -7.8558 -6.1545
# 5 -10.3635 9.8294 -10.9346 -7.8558 43.8646 -12.2516
# 6 -17.7334 -16.3552 -13.3660 -6.1545 -12.2516 56.3880
#
#
#
# Elastic Compliance Matrix: (Units=1/GPa)
#
#
# Indices 1 2 3 4 5 6 
#
# 1 0.011730 -0.001853 -0.000539 0.000468 0.004253 0.003999
# 2 -0.001853 0.005533 -0.000386 0.001124 -0.001361 0.000758
# 3 -0.000539 -0.000386 0.008162 0.001046 0.002847 0.002386
# 4 0.000468 0.001124 0.001046 0.018904 0.004560 0.003775
# 5 0.004253 -0.001361 0.002847 0.004560 0.027918 0.008181
# 6 0.003999 0.000758 0.002386 0.003775 0.008181 0.021967
#
#
# Mechanical properties :
#
#
# Convention : Reuss Voigt Hill
#
# Bulk Modulus (GPa) = 50.33006 63.11552 56.72279
# Shear Modulus (GPa) = 46.99637 55.95997 51.47817
#
# Velocity S-wave (km/s) = 4.11538 4.49072 4.30714
# Velocity P-wave (km/s) = 6.38118 7.04514 6.72137
#
# Compressibility (1/GPa) = 0.01986884
#
# Stress axis : x y z
#
# Youngs Moduli (GPa) = 85.25460 180.74625 122.52545
#
# Poissons Ratio (x) = 0.33485 0.06607
# Poissons Ratio (y) = 0.15794 0.04725
# Poissons Ratio (z) = 0.04597 0.06970
#
# Static dielectric constant tensor:
#      x y z
#    x 2.212440 0.123730 0.090290 
#    y 0.123730 2.293020 0.043910 
#    z 0.090290 0.043910 2.147840 
# 
# From -- ./inp_files/600107.got.cif
#   From: 2010.05.17/outbox.cif.g08.bks.cpg/sg2_301_cif.got.tgz:600107.got - 2010.06.03 11:33:40.
