data_PCOD9065722
_publ_section_title
;
Structure prediction by ZEFSAII (Michael W. Deem and Ramdas Pophale) SiO2 
 PCOD9065722
Probable space group: P -1
;
_chemical_formula_sum "Si O2"
_cell_formula_units_Z 12
_cell_length_a 8.036435
_cell_length_b 11.942954
_cell_length_c 4.859532
_cell_angle_alpha 101.694019
_cell_angle_beta 65.291262
_cell_angle_gamma 103.728142
_cell_volume 408.765247
_symmetry_space_group_name_H-M "P -1"
_symmetry_group_IT_number 2
_symmetry_cell_setting 'triclinic'
loop_
_space_group_symop_operation_xyz
x,y,z
-x,-y,-z
loop_
_atom_site_type_symbol
_atom_site_label
_atom_site_fract_x
_atom_site_fract_y
_atom_site_fract_z
Si Si1 0.477637 0.806405 0.539011
Si Si2 0.150133 0.432934 0.050838
Si Si3 0.369501 0.391369 0.393723
Si Si4 0.873337 0.118054 0.888217
Si Si5 0.823592 0.899548 0.989333
Si Si6 0.840950 0.324774 0.631990
O O1 0.571474 0.733740 0.664539
O O2 0.316357 0.866179 0.814198
O O3 0.633130 0.880489 0.275937
O O4 0.362440 0.710711 0.373749
O O5 0.314885 0.407288 0.126948
O O6 0.172463 0.573084 0.091938
O O7 0.969363 0.385319 0.329795
O O8 0.184361 0.389196 0.702779
O O9 0.500000 0.500000 0.500000
O O10 0.812336 0.978106 0.761736
O O11 0.886727 0.203405 0.659152
O O12 0.053662 0.183784 0.983497
O O13 0.000000 0.000000 0.000000
#
# Coordination Sequence:
#
# PCOD9065722 Si02
#       6
#     2   2   2   2   2   2
#     4  12  23  39  73  98 134 186 233 287 347 425
#     4  11  27  44  67 106 147 189 228 291 343 411
#     4  12  25  45  69 103 148 187 235 281 350 414
#     4   9  22  45  65  97 136 175 233 289 355 410
#     4   8  22  44  68  95 136 179 225 304 351 415
#     4  11  25  40  68 101 135 183 236 285 345 418
#
# _framework density 29.356705000000002
#
# number of rings (size 3 to 8) (size 9 to 14) (size 15 to 20)
#    1.000    0.333    1.667    3.000    7.000    2.000 
#    0.000    3.333    0.000    0.000    0.000    0.000 
#    0.000    0.000    0.000    0.000    0.000    0.000 
#
# Total GULP energy -66914.756303 kJ/mol
# GULP energy per Si atom -5576.229692 kJ/mol
# Density = 2.928989 g / cm^3
# Si number density = 29.356705 Si / 1000 Ang^3
#
#
#
# Elastic Constant Matrix: (Units=GPa)
#
#
# Indices 1 2 3 4 5 6 
#
# 1 100.1479 24.5204 42.1344 -18.5311 -19.6430 -13.0446
# 2 24.5204 120.9877 21.3659 -35.5036 9.6619 -8.4319
# 3 42.1344 21.3659 125.1129 -26.4639 6.3029 6.6140
# 4 -18.5311 -35.5036 -26.4639 52.7415 -3.8436 -0.7807
# 5 -19.6430 9.6619 6.3029 -3.8436 49.1982 -23.0011
# 6 -13.0446 -8.4319 6.6140 -0.7807 -23.0011 48.0024
#
#
#
# Elastic Compliance Matrix: (Units=1/GPa)
#
#
# Indices 1 2 3 4 5 6 
#
# 1 0.018340 -0.001938 -0.006602 0.003085 0.014703 0.012648
# 2 -0.001938 0.010725 0.000297 0.006529 -0.002246 0.000346
# 3 -0.006602 0.000297 0.011516 0.003047 -0.007042 -0.006654
# 4 0.003085 0.006529 0.003047 0.026260 0.003276 0.003562
# 5 0.014703 -0.002246 -0.007042 0.003276 0.038606 0.023123
# 6 0.012648 0.000346 -0.006654 0.003562 0.023123 0.036385
#
#
# Mechanical properties :
#
#
# Convention : Reuss Voigt Hill
#
# Bulk Modulus (GPa) = 41.50277 58.03220 49.76749
# Shear Modulus (GPa) = 30.05696 47.20361 38.63029
#
# Velocity S-wave (km/s) = 3.20324 4.01425 3.63146
# Velocity P-wave (km/s) = 5.27723 6.42624 5.87987
#
# Compressibility (1/GPa) = 0.02409478
#
# Stress axis : x y z
#
# Youngs Moduli (GPa) = 54.52653 93.23855 86.83205
#
# Poissons Ratio (x) = 0.18073 0.57327
# Poissons Ratio (y) = 0.10569 -0.02580
# Poissons Ratio (z) = 0.35999 -0.02771
#
# Static dielectric constant tensor:
#      x y z
#    x 2.274300 0.158840 -0.318860 
#    y 0.158840 2.047710 0.355500 
#    z -0.318860 0.355500 2.687710 
# 
# From -- ./inp_files/24550.got.cif
#   From: 2010.05.17/outbox.cif.g08.bks.cpg/sg2_13_cif.got.tgz:24550.got - 2010.06.03 11:33:40.
