data_PCOD9065780
_publ_section_title
;
Structure prediction by ZEFSAII (Michael W. Deem and Ramdas Pophale) SiO2 
 PCOD9065780
Probable space group: P -1
;
_chemical_formula_sum "Si O2"
_cell_formula_units_Z 14
_cell_length_a 13.349004
_cell_length_b 8.475954
_cell_length_c 10.315169
_cell_angle_alpha 118.082146
_cell_angle_beta 33.986057
_cell_angle_gamma 114.951131
_cell_volume 574.424669
_symmetry_space_group_name_H-M "P -1"
_symmetry_group_IT_number 2
_symmetry_cell_setting 'triclinic'
loop_
_space_group_symop_operation_xyz
x,y,z
-x,-y,-z
loop_
_atom_site_type_symbol
_atom_site_label
_atom_site_fract_x
_atom_site_fract_y
_atom_site_fract_z
Si Si1 0.218908 0.880379 0.536597
Si Si2 0.875362 0.426110 0.274372
Si Si3 0.476608 0.176175 0.004836
Si Si4 0.664703 0.869991 0.275824
Si Si5 0.491576 0.538224 0.713430
Si Si6 0.862458 0.909124 0.802696
Si Si7 0.820634 0.307561 0.005601
O O1 0.170947 0.713786 0.617652
O O2 0.410402 0.857800 0.257857
O O3 0.070035 0.876953 0.582732
O O4 0.226096 0.059317 0.686625
O O5 0.706059 0.545325 0.477713
O O6 0.890498 0.320683 0.082453
O O7 0.057335 0.545611 0.146918
O O8 0.550269 0.352968 0.069449
O O9 0.272073 0.202558 0.190874
O O10 0.500000 0.000000 0.000000
O O11 0.584885 0.666375 0.285686
O O12 0.500000 0.000000 0.500000
O O13 0.783741 0.893823 0.027962
O O14 0.385611 0.643970 0.759839
O O15 0.843353 0.111341 0.855327
#
# Coordination Sequence:
#
# PCOD9065780 Si02
#       7
#     2   2   2   2   2   2   2
#     4  12  27  47  76 107 148 189 243 303 362 429
#     4  11  25  44  71 111 146 181 238 299 369 423
#     4  12  29  50  72 105 148 197 244 295 365 433
#     4  12  23  47  79 111 144 187 243 303 366 426
#     4  12  26  47  75 103 149 193 241 296 359 433
#     4  12  25  46  77 105 149 188 242 302 362 429
#     4  11  25  42  73 114 142 185 240 300 359 429
#
# _framework density 24.372211
#
# number of rings (size 3 to 8) (size 9 to 14) (size 15 to 20)
#    0.000    0.286    5.714    1.714    6.000    4.000 
#    0.000    2.143    0.000    0.000    0.000    0.000 
#    0.000    0.000    0.000    0.000    0.000    0.000 
#
# Total GULP energy -78473.454362 kJ/mol
# GULP energy per Si atom -5605.246740 kJ/mol
# Density = 2.431674 g / cm^3
# Si number density = 24.372211 Si / 1000 Ang^3
#
#
#
# Elastic Constant Matrix: (Units=GPa)
#
#
# Indices 1 2 3 4 5 6 
#
# 1 114.0705 42.0340 18.3724 2.6465 -18.1485 16.5852
# 2 42.0340 102.8629 19.4067 -5.4597 11.4063 8.1684
# 3 18.3724 19.4067 50.0377 -4.4665 -13.8920 3.1693
# 4 2.6465 -5.4597 -4.4665 23.7453 -5.7589 -3.9195
# 5 -18.1485 11.4063 -13.8920 -5.7589 58.1367 6.8122
# 6 16.5852 8.1684 3.1693 -3.9195 6.8122 32.3261
#
#
#
# Elastic Compliance Matrix: (Units=1/GPa)
#
#
# Indices 1 2 3 4 5 6 
#
# 1 0.012686 -0.005196 -0.001006 -0.002602 0.005245 -0.006518
# 2 -0.005196 0.013313 -0.004649 0.001656 -0.005307 0.001077
# 3 -0.001006 -0.004649 0.024723 0.005174 0.007209 -0.001625
# 4 -0.002602 0.001656 0.005174 0.045572 0.004017 0.005088
# 5 0.005245 -0.005307 0.007209 0.004017 0.022746 -0.006363
# 6 -0.006518 0.001077 -0.001625 0.005088 -0.006363 0.036124
#
#
# Mechanical properties :
#
#
# Convention : Reuss Voigt Hill
#
# Bulk Modulus (GPa) = 34.45904 47.39969 40.92937
# Shear Modulus (GPa) = 26.80398 35.31883 31.06140
#
# Velocity S-wave (km/s) = 3.31989 3.81089 3.57383
# Velocity P-wave (km/s) = 5.37260 6.23332 5.81890
#
# Compressibility (1/GPa) = 0.02901996
#
# Stress axis : x y z
#
# Youngs Moduli (GPa) = 78.82804 75.11347 40.44740
#
# Poissons Ratio (x) = 0.39032 0.04067
# Poissons Ratio (y) = 0.40962 0.18805
# Poissons Ratio (z) = 0.07927 0.34922
#
# Static dielectric constant tensor:
#      x y z
#    x 1.967700 0.005270 -0.013290 
#    y 0.005270 1.900190 -0.008740 
#    z -0.013290 -0.008740 1.912570 
# 
# From -- ./inp_files/446252.got.cif
#   From: 2010.05.17/outbox.cif.g08.bks.cpg/sg2_224_cif.got.tgz:446252.got - 2010.06.03 11:33:40.
