data_PCOD9065582
_publ_section_title
;
Structure prediction by ZEFSAII (Michael W. Deem and Ramdas Pophale) SiO2 
 PCOD9065582
Probable space group: P -1
;
_chemical_formula_sum "Si O2"
_cell_formula_units_Z 14
_cell_length_a 5.854993
_cell_length_b 14.307380
_cell_length_c 10.546126
_cell_angle_alpha 45.290728
_cell_angle_beta 62.653368
_cell_angle_gamma 73.396952
_cell_volume 556.703766
_symmetry_space_group_name_H-M "P -1"
_symmetry_group_IT_number 2
_symmetry_cell_setting 'triclinic'
loop_
_space_group_symop_operation_xyz
x,y,z
-x,-y,-z
loop_
_atom_site_type_symbol
_atom_site_label
_atom_site_fract_x
_atom_site_fract_y
_atom_site_fract_z
Si Si1 0.047901 0.274729 0.939339
Si Si2 0.210673 0.394066 0.045441
Si Si3 0.283697 0.502345 0.302664
Si Si4 0.695849 0.008930 0.323387
Si Si5 0.403327 0.692900 0.310399
Si Si6 0.299981 0.960386 0.975538
Si Si7 0.947806 0.739940 0.529028
O O1 0.165126 0.303489 0.021028
O O2 0.851596 0.149828 0.132860
O O3 0.921625 0.403706 0.795674
O O4 0.298176 0.260212 0.802666
O O5 0.177946 0.311632 0.259530
O O6 0.478603 0.471760 0.876836
O O7 0.000000 0.500000 0.000000
O O8 0.358440 0.557496 0.370710
O O9 0.185930 0.351362 0.459844
O O10 0.892727 0.892367 0.391256
O O11 0.500000 0.000000 0.500000
O O12 0.562315 0.994048 0.234040
O O13 0.244064 0.703448 0.470392
O O14 0.279605 0.802398 0.147890
O O15 0.500000 0.000000 0.000000
O O16 0.000000 0.000000 0.000000
#
# Coordination Sequence:
#
# PCOD9065582 Si02
#       7
#     2   2   2   2   2   2   2
#     4  11  25  49  75 104 160 207 256 321 406 475
#     4  11  25  46  75 109 150 211 256 323 407 473
#     4  11  24  49  74 103 155 202 258 324 397 476
#     4  12  28  49  79 121 155 209 270 337 403 486
#     4  11  26  46  76 109 148 208 266 317 401 473
#     4  12  26  52  79 116 163 221 264 333 415 486
#     4  12  26  46  75 114 154 199 272 327 393 482
#
# _framework density 25.148022999999998
#
# number of rings (size 3 to 8) (size 9 to 14) (size 15 to 20)
#    0.000    0.571    4.286    2.571    4.000    2.286 
#    2.571    0.000    0.000    0.000    0.000    0.000 
#    0.000    0.000    0.000    0.000    0.000    0.000 
#
# Total GULP energy -78389.857606 kJ/mol
# GULP energy per Si atom -5599.275543 kJ/mol
# Density = 2.509079 g / cm^3
# Si number density = 25.148023 Si / 1000 Ang^3
#
#
#
# Elastic Constant Matrix: (Units=GPa)
#
#
# Indices 1 2 3 4 5 6 
#
# 1 110.8464 36.0294 51.8993 16.9523 -9.4577 -0.0861
# 2 36.0294 89.0544 44.9846 16.6238 -13.3990 -2.0843
# 3 51.8993 44.9846 158.7805 30.1856 -13.2029 4.4176
# 4 16.9523 16.6238 30.1856 53.3450 -5.0869 -4.0880
# 5 -9.4577 -13.3990 -13.2029 -5.0869 45.7673 11.0491
# 6 -0.0861 -2.0843 4.4176 -4.0880 11.0491 52.7041
#
#
#
# Elastic Compliance Matrix: (Units=1/GPa)
#
#
# Indices 1 2 3 4 5 6 
#
# 1 0.011455 -0.003002 -0.002616 -0.001173 0.000628 -0.000103
# 2 -0.003002 0.014480 -0.002549 -0.001856 0.002658 0.000080
# 3 -0.002616 -0.002549 0.008626 -0.003246 0.001160 -0.001323
# 4 -0.001173 -0.001856 -0.003246 0.021697 0.000248 0.001828
# 5 0.000628 0.002658 0.001160 0.000248 0.024345 -0.005076
# 6 -0.000103 0.000080 -0.001323 0.001828 -0.005076 0.020294
#
#
# Mechanical properties :
#
#
# Convention : Reuss Voigt Hill
#
# Bulk Modulus (GPa) = 54.86700 69.38976 62.12838
# Shear Modulus (GPa) = 40.54965 45.41449 42.98207
#
# Velocity S-wave (km/s) = 4.01987 4.25418 4.13869
# Velocity P-wave (km/s) = 6.58869 7.19605 6.89906
#
# Compressibility (1/GPa) = 0.01822589
#
# Stress axis : x y z
#
# Youngs Moduli (GPa) = 87.29978 69.06225 115.93456
#
# Poissons Ratio (x) = 0.20733 0.30323
# Poissons Ratio (y) = 0.26209 0.29556
# Poissons Ratio (z) = 0.22834 0.17607
#
# Static dielectric constant tensor:
#      x y z
#    x 2.009380 0.044400 -0.010720 
#    y 0.044400 2.078360 0.026960 
#    z -0.010720 0.026960 2.006920 
# 
# From -- ./inp_files/367434.got.cif
#   From: 2010.05.17/outbox.cif.g08.bks.cpg/sg2_184_cif.got.tgz:367434.got - 2010.06.03 11:33:40.
