data_PCOD9065124
_publ_section_title
;
Structure prediction by ZEFSAII (Michael W. Deem and Ramdas Pophale) SiO2 
 PCOD9065124
Probable space group: P -1
;
_chemical_formula_sum "Si O2"
_cell_formula_units_Z 12
_cell_length_a 6.507824
_cell_length_b 14.812975
_cell_length_c 5.624737
_cell_angle_alpha 110.580321
_cell_angle_beta 88.257205
_cell_angle_gamma 95.627090
_cell_volume 505.170344
_symmetry_space_group_name_H-M "P -1"
_symmetry_group_IT_number 2
_symmetry_cell_setting 'triclinic'
loop_
_space_group_symop_operation_xyz
x,y,z
-x,-y,-z
loop_
_atom_site_type_symbol
_atom_site_label
_atom_site_fract_x
_atom_site_fract_y
_atom_site_fract_z
Si Si1 0.752838 0.120617 0.656571
Si Si2 0.621378 0.607886 0.585810
Si Si3 0.976253 0.557066 0.811156
Si Si4 0.267311 0.728992 0.834279
Si Si5 0.099755 0.227088 0.455470
Si Si6 0.393479 0.065562 0.255750
O O1 0.587870 0.112420 0.442732
O O2 0.975689 0.175894 0.635561
O O3 0.751336 0.012176 0.654980
O O4 0.654852 0.184209 0.919706
O O5 0.500000 0.500000 0.500000
O O6 0.762945 0.604271 0.813442
O O7 0.444681 0.679647 0.651685
O O8 0.780089 0.664271 0.439817
O O9 0.000000 0.500000 0.500000
O O10 0.158763 0.640926 0.906846
O O11 0.000000 0.500000 0.000000
O O12 0.087868 0.761365 0.705661
O O13 0.250018 0.150290 0.277556
O O14 0.500000 0.000000 0.000000
#
# Coordination Sequence:
#
# PCOD9065124 Si02
#       6
#     2   2   2   2   2   2
#     4  11  25  43  71 106 141 188 244 299 379 446
#     4  11  24  47  72 104 149 197 251 308 375 445
#     4  11  26  47  74 108 148 198 258 317 380 447
#     4  11  26  45  69 105 144 193 244 305 375 445
#     4  11  25  44  71 102 147 183 247 301 372 445
#     4  11  25  47  73 103 143 186 240 304 377 453
#
# _framework density 23.754365
#
# number of rings (size 3 to 8) (size 9 to 14) (size 15 to 20)
#    0.000    1.000    1.667    3.500    4.667   10.000 
#    3.000    0.000    0.000    0.000    0.000    0.000 
#    0.000    0.000    0.000    0.000    0.000    0.000 
#
# Total GULP energy -66925.941320 kJ/mol
# GULP energy per Si atom -5577.161777 kJ/mol
# Density = 2.370030 g / cm^3
# Si number density = 23.754365 Si / 1000 Ang^3
#
#
#
# Elastic Constant Matrix: (Units=GPa)
#
#
# Indices 1 2 3 4 5 6 
#
# 1 111.3196 71.2855 34.6150 1.7525 -9.9770 7.5878
# 2 71.2855 185.4576 27.8705 -7.7422 -12.5064 22.6950
# 3 34.6150 27.8705 69.3671 20.6693 0.5891 -10.6546
# 4 1.7525 -7.7422 20.6693 42.9123 1.8560 -3.6190
# 5 -9.9770 -12.5064 0.5891 1.8560 24.8699 5.5574
# 6 7.5878 22.6950 -10.6546 -3.6190 5.5574 76.9929
#
#
#
# Elastic Compliance Matrix: (Units=1/GPa)
#
#
# Indices 1 2 3 4 5 6 
#
# 1 0.013739 -0.003934 -0.005882 0.001292 0.003850 -0.001226
# 2 -0.003934 0.007808 -0.002250 0.002339 0.002744 -0.002313
# 3 -0.005882 -0.002250 0.021966 -0.010220 -0.004165 0.004103
# 4 0.001292 0.002339 -0.010220 0.028520 0.000008 -0.000891
# 5 0.003850 0.002744 -0.004165 0.000008 0.044341 -0.004965
# 6 -0.001226 -0.002313 0.004103 -0.000891 -0.004965 0.014675
#
#
# Mechanical properties :
#
#
# Convention : Reuss Voigt Hill
#
# Bulk Modulus (GPa) = 51.59211 70.40960 61.00085
# Shear Modulus (GPa) = 30.93295 44.44656 37.68975
#
# Velocity S-wave (km/s) = 3.61252 4.33030 3.98759
# Velocity P-wave (km/s) = 6.25832 7.39642 6.85104
#
# Compressibility (1/GPa) = 0.01938281
#
# Stress axis : x y z
#
# Youngs Moduli (GPa) = 72.78405 128.07485 45.52556
#
# Poissons Ratio (x) = 0.50379 0.26776
# Poissons Ratio (y) = 0.28630 0.10242
# Poissons Ratio (z) = 0.42809 0.28815
#
# Static dielectric constant tensor:
#      x y z
#    x 1.935490 0.064720 -0.098920 
#    y 0.064720 1.982340 -0.034430 
#    z -0.098920 -0.034430 1.945590 
# 
# From -- ./inp_files/4731.got.cif
#   From: 2010.05.17/outbox.cif.g08.bks.cpg/sg2_3_cif.got.tgz:4731.got - 2010.06.03 11:33:40.
