data_PCOD9065394
_publ_section_title
;
Structure prediction by ZEFSAII (Michael W. Deem and Ramdas Pophale) SiO2 
 PCOD9065394
Probable space group: P -1
;
_chemical_formula_sum "Si O2"
_cell_formula_units_Z 14
_cell_length_a 22.504290
_cell_length_b 8.883056
_cell_length_c 4.950218
_cell_angle_alpha 66.371851
_cell_angle_beta 57.246562
_cell_angle_gamma 38.348142
_cell_volume 515.832815
_symmetry_space_group_name_H-M "P -1"
_symmetry_group_IT_number 2
_symmetry_cell_setting 'triclinic'
loop_
_space_group_symop_operation_xyz
x,y,z
-x,-y,-z
loop_
_atom_site_type_symbol
_atom_site_label
_atom_site_fract_x
_atom_site_fract_y
_atom_site_fract_z
Si Si1 0.112965 0.649866 0.514325
Si Si2 0.475001 0.197433 0.230677
Si Si3 0.940075 0.743121 0.631844
Si Si4 0.663749 0.816956 0.656363
Si Si5 0.649151 0.346010 0.473819
Si Si6 0.707207 0.048052 0.051144
Si Si7 0.856827 0.185613 0.163505
O O1 0.223632 0.383468 0.337366
O O2 0.135993 0.681716 0.729826
O O3 0.021579 0.675496 0.695195
O O4 0.093623 0.831172 0.220510
O O5 0.373687 0.303247 0.241097
O O6 0.449596 0.396425 0.334388
O O7 0.500000 0.000000 0.500000
O O8 0.568897 0.050832 0.896248
O O9 0.000000 0.500000 0.500000
O O10 0.910679 0.939173 0.353911
O O11 0.830151 0.870559 0.931230
O O12 0.679309 0.911311 0.296975
O O13 0.643521 0.279805 0.239255
O O14 0.740753 0.325135 0.275585
O O15 0.685926 0.139896 0.734134
#
# Coordination Sequence:
#
# PCOD9065394 Si02
#       7
#     2   2   2   2   2   2   2
#     4  12  26  47  76 105 152 196 249 301 362 438
#     4  11  26  48  82 108 146 193 257 306 374 443
#     4  11  28  48  76 112 152 201 248 307 369 443
#     4  11  28  47  75 115 146 197 247 314 369 441
#     4  11  25  49  76 107 151 195 241 310 368 448
#     4  11  29  49  72 109 157 191 245 298 384 439
#     4  11  24  48  72 107 147 197 248 299 364 435
#
# _framework density 27.140578000000001
#
# number of rings (size 3 to 8) (size 9 to 14) (size 15 to 20)
#    0.000    0.857    1.429    3.429   12.000    4.000 
#    0.000    0.000    0.000    0.000    0.000    0.000 
#    0.000    0.000    0.000    0.000    0.000    0.000 
#
# Total GULP energy -78689.087430 kJ/mol
# GULP energy per Si atom -5620.649102 kJ/mol
# Density = 2.707880 g / cm^3
# Si number density = 27.140578 Si / 1000 Ang^3
#
#
#
# Elastic Constant Matrix: (Units=GPa)
#
#
# Indices 1 2 3 4 5 6 
#
# 1 138.8486 18.1886 39.2688 8.3802 -14.6714 7.9586
# 2 18.1886 112.3179 14.9773 17.5660 -12.0355 10.3849
# 3 39.2688 14.9773 150.9084 6.4676 -13.2328 0.4409
# 4 8.3802 17.5660 6.4676 44.3219 -0.6240 8.9871
# 5 -14.6714 -12.0355 -13.2328 -0.6240 47.1659 5.9814
# 6 7.9586 10.3849 0.4409 8.9871 5.9814 47.8348
#
#
#
# Elastic Compliance Matrix: (Units=1/GPa)
#
#
# Indices 1 2 3 4 5 6 
#
# 1 0.008137 -0.000620 -0.001844 -0.000728 0.002013 -0.001317
# 2 -0.000620 0.010016 -0.000471 -0.003399 0.002405 -0.001729
# 3 -0.001844 -0.000471 0.007291 -0.000568 0.001308 0.000285
# 4 -0.000728 -0.003399 -0.000568 0.024885 -0.000448 -0.003755
# 5 0.002013 0.002405 0.001308 -0.000448 0.023271 -0.003695
# 6 -0.001317 -0.001729 0.000285 -0.003755 -0.003695 0.022665
#
#
# Mechanical properties :
#
#
# Convention : Reuss Voigt Hill
#
# Bulk Modulus (GPa) = 51.09128 60.77158 55.93143
# Shear Modulus (GPa) = 46.01482 49.84055 47.92768
#
# Velocity S-wave (km/s) = 4.12202 4.28996 4.20683
# Velocity P-wave (km/s) = 6.44362 6.85407 6.65201
#
# Compressibility (1/GPa) = 0.01957281
#
# Stress axis : x y z
#
# Youngs Moduli (GPa) = 122.89446 99.84291 137.14779
#
# Poissons Ratio (x) = 0.06195 0.25294
# Poissons Ratio (y) = 0.07625 0.06459
# Poissons Ratio (z) = 0.22665 0.04702
#
# Static dielectric constant tensor:
#      x y z
#    x 2.138160 -0.031900 0.000140 
#    y -0.031900 2.145130 0.022680 
#    z 0.000140 0.022680 2.042430 
# 
# From -- ./inp_files/122798.got.cif
#   From: 2010.05.17/outbox.cif.g08.bks.cpg/sg2_62_cif.got.tgz:122798.got - 2010.06.03 11:33:40.
