data_PCOD9065474
_publ_section_title
;
Structure prediction by ZEFSAII (Michael W. Deem and Ramdas Pophale) SiO2 
 PCOD9065474
Probable space group: P -1
;
_chemical_formula_sum "Si O2"
_cell_formula_units_Z 12
_cell_length_a 7.047907
_cell_length_b 11.532125
_cell_length_c 14.803776
_cell_angle_alpha 35.488146
_cell_angle_beta 137.587257
_cell_angle_gamma 117.512933
_cell_volume 440.339392
_symmetry_space_group_name_H-M "P -1"
_symmetry_group_IT_number 2
_symmetry_cell_setting 'triclinic'
loop_
_space_group_symop_operation_xyz
x,y,z
-x,-y,-z
loop_
_atom_site_type_symbol
_atom_site_label
_atom_site_fract_x
_atom_site_fract_y
_atom_site_fract_z
Si Si1 0.211516 0.514266 0.481410
Si Si2 0.890923 0.840351 0.813836
Si Si3 0.329210 0.251367 0.972436
Si Si4 0.186568 0.609130 0.887280
Si Si5 0.557404 0.837212 0.445884
Si Si6 0.742286 0.075771 0.941870
O O1 0.608366 0.330194 0.526820
O O2 0.458224 0.285727 0.692129
O O3 0.000000 0.500000 0.500000
O O4 0.010914 0.595898 0.269183
O O5 0.076133 0.778121 0.826825
O O6 0.594503 0.051720 0.583726
O O7 0.832202 0.621398 0.952669
O O8 0.092203 0.881401 0.939643
O O9 0.467368 0.410048 0.969137
O O10 0.463937 0.043639 0.216862
O O11 0.376113 0.122266 0.974793
O O12 0.914825 0.728582 0.648225
O O13 0.000000 0.000000 0.000000
#
# Coordination Sequence:
#
# PCOD9065474 Si02
#       6
#     2   2   2   2   2   2
#     4  12  28  47  83 121 159 208 271 332 395 472
#     4  11  24  48  75 110 156 209 263 322 396 471
#     4  12  27  47  79 119 153 208 263 334 392 478
#     4  11  27  46  78 112 162 208 263 326 402 479
#     4  12  25  50  76 113 159 211 258 332 401 476
#     4  12  25  50  80 115 158 212 263 332 397 474
#
# _framework density 27.251708000000001
#
# number of rings (size 3 to 8) (size 9 to 14) (size 15 to 20)
#    0.000    0.333    5.000    2.500    4.667    7.333 
#    0.000    0.000    0.000    0.000    0.000    0.000 
#    0.000    0.000    0.000    0.000    0.000    0.000 
#
# Total GULP energy -67009.866704 kJ/mol
# GULP energy per Si atom -5584.155559 kJ/mol
# Density = 2.718968 g / cm^3
# Si number density = 27.251708 Si / 1000 Ang^3
#
#
#
# Elastic Constant Matrix: (Units=GPa)
#
#
# Indices 1 2 3 4 5 6 
#
# 1 72.7853 12.9846 7.1804 15.8388 1.0294 13.3813
# 2 12.9846 262.2560 67.6275 16.7057 2.4799 18.7621
# 3 7.1804 67.6275 196.4578 11.3506 21.2913 25.1305
# 4 15.8388 16.7057 11.3506 59.5888 -4.0038 16.8661
# 5 1.0294 2.4799 21.2913 -4.0038 27.5642 2.4776
# 6 13.3813 18.7621 25.1305 16.8661 2.4776 43.9137
#
#
#
# Elastic Compliance Matrix: (Units=1/GPa)
#
#
# Indices 1 2 3 4 5 6 
#
# 1 0.015076 -0.000375 0.000282 -0.003062 -0.000889 -0.003369
# 2 -0.000375 0.004277 -0.001408 -0.000579 0.000698 -0.000724
# 3 0.000282 -0.001408 0.006448 -0.000448 -0.004684 -0.002738
# 4 -0.003062 -0.000579 -0.000448 0.019935 0.003988 -0.006445
# 5 -0.000889 0.000698 -0.004684 0.003988 0.040551 -0.001166
# 6 -0.003369 -0.000724 -0.002738 -0.006445 -0.001166 0.028216
#
#
# Mechanical properties :
#
#
# Convention : Reuss Voigt Hill
#
# Bulk Modulus (GPa) = 43.85879 78.56489 61.21184
# Shear Modulus (GPa) = 39.96633 55.79377 47.88005
#
# Velocity S-wave (km/s) = 3.83373 4.52967 4.19615
# Velocity P-wave (km/s) = 5.97708 7.49995 6.78140
#
# Compressibility (1/GPa) = 0.02280044
#
# Stress axis : x y z
#
# Youngs Moduli (GPa) = 66.32886 233.81828 155.07983
#
# Poissons Ratio (x) = 0.08762 -0.04377
# Poissons Ratio (y) = 0.02486 0.21836
# Poissons Ratio (z) = -0.01872 0.32923
#
# Static dielectric constant tensor:
#      x y z
#    x 2.584850 0.028020 0.113400 
#    y 0.028020 2.264200 0.063800 
#    z 0.113400 0.063800 2.170230 
# 
# From -- ./inp_files/557890.got.cif
#   From: 2010.05.17/outbox.cif.g08.bks.cpg/sg2_279_cif.got.tgz:557890.got - 2010.06.03 11:33:40.
