data_PCOD9065469
_publ_section_title
;
Structure prediction by ZEFSAII (Michael W. Deem and Ramdas Pophale) SiO2 
 PCOD9065469
Probable space group: P -1
;
_chemical_formula_sum "Si O2"
_cell_formula_units_Z 15
_cell_length_a 8.471907
_cell_length_b 19.699894
_cell_length_c 6.148609
_cell_angle_alpha 51.340491
_cell_angle_beta 69.318651
_cell_angle_gamma 45.279690
_cell_volume 562.428487
_symmetry_space_group_name_H-M "P -1"
_symmetry_group_IT_number 2
_symmetry_cell_setting 'triclinic'
loop_
_space_group_symop_operation_xyz
x,y,z
-x,-y,-z
loop_
_atom_site_type_symbol
_atom_site_label
_atom_site_fract_x
_atom_site_fract_y
_atom_site_fract_z
Si Si1 0.288567 0.533658 0.405512
Si Si2 0.277240 0.364754 0.000672
Si Si3 0.095624 0.279221 0.488977
Si Si4 0.449593 0.100699 0.965328
Si Si5 0.312283 0.840384 0.047472
Si Si6 0.561078 0.350497 0.280867
Si Si7 0.000000 0.000000 0.500000
Si Si8 0.949135 0.825213 0.674606
O O1 0.500000 0.500000 0.500000
O O2 0.402601 0.470733 0.246631
O O3 0.086199 0.658187 0.358633
O O4 0.217035 0.461367 0.671019
O O5 0.077521 0.369966 0.162999
O O6 0.458717 0.241947 0.039708
O O7 0.409299 0.361910 0.143495
O O8 0.094723 0.194505 0.509563
O O9 0.332269 0.206394 0.642227
O O10 0.664591 0.076999 0.000191
O O11 0.263740 0.138092 0.159175
O O12 0.500000 0.000000 0.000000
O O13 0.114917 0.905324 0.838878
O O14 0.344865 0.751387 0.382467
O O15 0.797956 0.299386 0.161018
O O16 0.963062 0.921651 0.536530
#
# Coordination Sequence:
#
# PCOD9065469 Si02
#       8
#     2   2   2   2   2   2   1   2
#     4  11  26  45  78 117 154 197 259 316 382 453
#     4  11  24  48  75 105 158 202 250 312 386 453
#     4  12  26  50  75 114 154 207 254 314 382 460
#     4  12  29  48  77 109 153 201 259 320 373 458
#     4  11  25  49  71 108 147 197 254 315 378 456
#     4  11  25  48  75 107 154 200 249 320 380 453
#     4  12  28  44  78 106 150 196 264 312 390 444
#     4  12  28  45  77 109 149 202 254 313 389 446
#
# _framework density 26.670058999999998
#
# number of rings (size 3 to 8) (size 9 to 14) (size 15 to 20)
#    0.000    0.533    5.333    1.200    7.467    3.733 
#    0.000    0.000    0.000    0.000    0.000    0.000 
#    0.000    0.000    0.000    0.000    0.000    0.000 
#
# Total GULP energy -83714.921607 kJ/mol
# GULP energy per Si atom -5580.994774 kJ/mol
# Density = 2.660936 g / cm^3
# Si number density = 26.670059 Si / 1000 Ang^3
#
#
#
# Elastic Constant Matrix: (Units=GPa)
#
#
# Indices 1 2 3 4 5 6 
#
# 1 95.7735 41.1512 34.1926 18.0493 13.4035 18.1744
# 2 41.1512 144.3512 54.8521 30.8483 -20.2281 13.8120
# 3 34.1926 54.8521 102.3928 19.4064 -11.1663 -0.4388
# 4 18.0493 30.8483 19.4064 37.2741 -9.9702 -5.3687
# 5 13.4035 -20.2281 -11.1663 -9.9702 50.6097 10.8255
# 6 18.1744 13.8120 -0.4388 -5.3687 10.8255 47.4792
#
#
#
# Elastic Compliance Matrix: (Units=1/GPa)
#
#
# Indices 1 2 3 4 5 6 
#
# 1 0.015508 -0.002151 -0.003529 -0.006160 -0.005958 -0.004682
# 2 -0.002151 0.011118 -0.003741 -0.005741 0.003910 -0.003986
# 3 -0.003529 -0.003741 0.013413 -0.001438 0.001684 0.002016
# 4 -0.006160 -0.005741 -0.001438 0.037654 0.004907 0.007154
# 5 -0.005958 0.003910 0.001684 0.004907 0.025095 -0.004008
# 6 -0.004682 -0.003986 0.002016 0.007154 -0.004008 0.025755
#
#
# Mechanical properties :
#
#
# Convention : Reuss Voigt Hill
#
# Bulk Modulus (GPa) = 47.16972 66.98994 57.07983
# Shear Modulus (GPa) = 32.37267 41.22738 36.80003
#
# Velocity S-wave (km/s) = 3.48777 3.93597 3.71863
# Velocity P-wave (km/s) = 5.82617 6.76967 6.31556
#
# Compressibility (1/GPa) = 0.02120004
#
# Stress axis : x y z
#
# Youngs Moduli (GPa) = 64.48138 89.94312 74.55204
#
# Poissons Ratio (x) = 0.19342 0.26309
# Poissons Ratio (y) = 0.13867 0.27886
# Poissons Ratio (z) = 0.22755 0.33643
#
# Static dielectric constant tensor:
#      x y z
#    x 2.011440 -0.021380 -0.048350 
#    y -0.021380 2.113020 -0.027400 
#    z -0.048350 -0.027400 2.122520 
# 
# From -- ./inp_files/46637.got.cif
#   From: 2010.05.17/outbox.cif.g08.bks.cpg/sg2_24_cif.got.tgz:46637.got - 2010.06.03 11:33:40.
