data_PCOD9065713
_publ_section_title
;
Structure prediction by ZEFSAII (Michael W. Deem and Ramdas Pophale) SiO2 
 PCOD9065713
Probable space group: P -1
;
_chemical_formula_sum "Si O2"
_cell_formula_units_Z 14
_cell_length_a 5.247433
_cell_length_b 12.509945
_cell_length_c 21.019743
_cell_angle_alpha 23.210075
_cell_angle_beta 110.932707
_cell_angle_gamma 108.903544
_cell_volume 507.874573
_symmetry_space_group_name_H-M "P -1"
_symmetry_group_IT_number 2
_symmetry_cell_setting 'triclinic'
loop_
_space_group_symop_operation_xyz
x,y,z
-x,-y,-z
loop_
_atom_site_type_symbol
_atom_site_label
_atom_site_fract_x
_atom_site_fract_y
_atom_site_fract_z
Si Si1 0.117924 0.426404 0.469238
Si Si2 0.409645 0.594940 0.642262
Si Si3 0.909575 0.549256 0.793002
Si Si4 0.767126 0.829147 0.040364
Si Si5 0.662195 0.039559 0.354911
Si Si6 0.566196 0.878858 0.238108
Si Si7 0.704597 0.470801 0.957921
O O1 0.307586 0.690355 0.335218
O O2 0.176285 0.284890 0.619641
O O3 0.804659 0.475177 0.394182
O O4 0.240550 0.204109 0.549891
O O5 0.724709 0.528256 0.724941
O O6 0.282447 0.436004 0.776846
O O7 0.455397 0.911056 0.458211
O O8 0.744007 0.520639 0.858534
O O9 0.113038 0.292671 0.947337
O O10 0.081661 0.821564 0.664830
O O11 0.507631 0.021622 0.895226
O O12 0.000000 0.000000 0.000000
O O13 0.502806 0.290836 0.170509
O O14 0.604839 0.165107 0.119868
O O15 0.000000 0.500000 0.000000
#
# Coordination Sequence:
#
# PCOD9065713 Si02
#       7
#     2   2   2   2   2   2   2
#     4  11  27  48  78 107 155 194 252 310 374 443
#     4  12  25  47  72 111 146 195 248 304 368 447
#     4  12  26  45  77 108 151 200 245 315 366 439
#     4  12  26  48  77 110 151 196 254 307 372 447
#     4  12  26  46  75 114 146 200 247 310 371 442
#     4  11  24  53  72 108 151 197 247 313 371 439
#     4  12  27  48  77 112 152 194 254 301 375 453
#
# _framework density 27.565857999999999
#
# number of rings (size 3 to 8) (size 9 to 14) (size 15 to 20)
#    0.000    0.286    4.286    3.857    2.000    6.857 
#    0.000    2.143    0.000    0.000    0.000    0.000 
#    0.000    0.000    0.000    0.000    0.000    0.000 
#
# Total GULP energy -78297.870321 kJ/mol
# GULP energy per Si atom -5592.705023 kJ/mol
# Density = 2.750312 g / cm^3
# Si number density = 27.565858 Si / 1000 Ang^3
#
#
#
# Elastic Constant Matrix: (Units=GPa)
#
#
# Indices 1 2 3 4 5 6 
#
# 1 85.5863 76.3404 49.3419 -11.4537 17.5060 25.5869
# 2 76.3404 205.9052 87.3128 3.4630 11.2100 40.2089
# 3 49.3419 87.3128 179.0814 -7.7076 16.1775 9.4079
# 4 -11.4537 3.4630 -7.7076 76.9956 17.8324 2.2427
# 5 17.5060 11.2100 16.1775 17.8324 49.5339 3.7782
# 6 25.5869 40.2089 9.4079 2.2427 3.7782 59.5915
#
#
#
# Elastic Compliance Matrix: (Units=1/GPa)
#
#
# Indices 1 2 3 4 5 6 
#
# 1 0.021711 -0.006004 -0.001942 0.005100 -0.007158 -0.004703
# 2 -0.006004 0.008730 -0.002706 -0.001922 0.001946 -0.002936
# 3 -0.001942 -0.002706 0.007543 0.000917 -0.001612 0.001537
# 4 0.005100 -0.001922 0.000917 0.015627 -0.007203 -0.001169
# 5 -0.007158 0.001946 -0.001612 -0.007203 0.025345 0.000679
# 6 -0.004703 -0.002936 0.001537 -0.001169 0.000679 0.020540
#
#
# Mechanical properties :
#
#
# Convention : Reuss Voigt Hill
#
# Bulk Modulus (GPa) = 59.95114 99.61812 79.78463
# Shear Modulus (GPa) = 39.56925 54.39604 46.98264
#
# Velocity S-wave (km/s) = 3.79284 4.44702 4.13289
# Velocity P-wave (km/s) = 6.40128 7.91104 7.19587
#
# Compressibility (1/GPa) = 0.01668025
#
# Stress axis : x y z
#
# Youngs Moduli (GPa) = 46.05869 114.54694 132.57529
#
# Poissons Ratio (x) = 0.68775 0.25741
# Poissons Ratio (y) = 0.27654 0.35880
# Poissons Ratio (z) = 0.08943 0.31001
#
# Static dielectric constant tensor:
#      x y z
#    x 2.173000 -0.048430 0.018630 
#    y -0.048430 2.136350 0.037170 
#    z 0.018630 0.037170 2.140910 
# 
# From -- ./inp_files/604734.got.cif
#   From: 2010.05.17/outbox.cif.g08.bks.cpg/sg2_303_cif.got.tgz:604734.got - 2010.06.03 11:33:40.
