data_PCOD9065691
_publ_section_title
;
Structure prediction by ZEFSAII (Michael W. Deem and Ramdas Pophale) SiO2 
 PCOD9065691
Probable space group: P -1
;
_chemical_formula_sum "Si O2"
_cell_formula_units_Z 13
_cell_length_a 10.063038
_cell_length_b 9.808873
_cell_length_c 11.072306
_cell_angle_alpha 115.349967
_cell_angle_beta 53.142402
_cell_angle_gamma 134.990153
_cell_volume 618.435707
_symmetry_space_group_name_H-M "P -1"
_symmetry_group_IT_number 2
_symmetry_cell_setting 'triclinic'
loop_
_space_group_symop_operation_xyz
x,y,z
-x,-y,-z
loop_
_atom_site_type_symbol
_atom_site_label
_atom_site_fract_x
_atom_site_fract_y
_atom_site_fract_z
Si Si1 0.494604 0.819478 0.410116
Si Si2 0.811609 0.797883 0.369745
Si Si3 0.000000 0.500000 0.500000
Si Si4 0.525924 0.633796 0.928979
Si Si5 0.204006 0.011740 0.920686
Si Si6 0.075429 0.384955 0.966533
Si Si7 0.864512 0.745078 0.592667
O O1 0.604460 0.775826 0.434630
O O2 0.252703 0.640111 0.450359
O O3 0.500000 0.000000 0.500000
O O4 0.641408 0.884249 0.236804
O O5 0.869625 0.706561 0.202045
O O6 0.798695 0.714582 0.476758
O O7 0.998943 0.027554 0.365447
O O8 0.989100 0.313952 0.476049
O O9 0.289592 0.537411 0.981062
O O10 0.658451 0.636842 0.749146
O O11 0.500000 0.500000 0.000000
O O12 0.662116 0.849931 0.987364
O O13 0.105322 0.792671 0.918305
O O14 0.000000 0.000000 0.000000
O O15 0.000000 0.500000 0.000000
#
# Coordination Sequence:
#
# PCOD9065691 Si02
#       7
#     2   2   1   2   2   2   2
#     4  12  26  46  78 110 148 195 250 311 370 444
#     4  11  24  51  71 107 151 197 239 314 382 430
#     4  12  26  44  72 116 140 192 256 290 368 454
#     4  12  24  45  77 106 141 201 248 297 379 442
#     4  12  24  48  78 103 151 197 250 308 370 447
#     4  12  28  47  74 110 147 196 254 309 372 446
#     4  11  25  45  78 105 150 195 244 309 375 447
#
# _framework density 21.020778
#
# number of rings (size 3 to 8) (size 9 to 14) (size 15 to 20)
#    0.000    0.308    6.154    1.846    0.000    9.231 
#    0.000    0.000    0.000    0.000    0.000    0.000 
#    0.000    0.000    0.000    0.000    0.000    0.000 
#
# Total GULP energy -72505.973834 kJ/mol
# GULP energy per Si atom -5577.382603 kJ/mol
# Density = 2.097293 g / cm^3
# Si number density = 21.020778 Si / 1000 Ang^3
#
#
#
# Elastic Constant Matrix: (Units=GPa)
#
#
# Indices 1 2 3 4 5 6 
#
# 1 171.2054 50.5481 21.8441 0.2242 -10.0373 5.3268
# 2 50.5481 109.6004 4.5066 -1.4111 -4.5085 13.8634
# 3 21.8441 4.5066 41.3179 0.2365 7.4917 8.5061
# 4 0.2242 -1.4111 0.2365 36.1539 -6.5585 -4.8406
# 5 -10.0373 -4.5085 7.4917 -6.5585 23.0807 0.4554
# 6 5.3268 13.8634 8.5061 -4.8406 0.4554 55.4691
#
#
#
# Elastic Compliance Matrix: (Units=1/GPa)
#
#
# Indices 1 2 3 4 5 6 
#
# 1 0.007620 -0.003237 -0.004645 0.000763 0.004390 0.000820
# 2 -0.003237 0.010925 0.000949 0.000193 0.000524 -0.002553
# 3 -0.004645 0.000949 0.029716 -0.002950 -0.012229 -0.004505
# 4 0.000763 0.000193 -0.002950 0.029832 0.009748 0.002854
# 5 0.004390 0.000524 -0.012229 0.009748 0.052043 0.001746
# 6 0.000820 -0.002553 -0.004505 0.002854 0.001746 0.019513
#
#
# Mechanical properties :
#
#
# Convention : Reuss Voigt Hill
#
# Bulk Modulus (GPa) = 29.07271 52.88014 40.97642
# Shear Modulus (GPa) = 28.57489 39.28907 33.93198
#
# Velocity S-wave (km/s) = 3.69096 4.32795 4.02208
# Velocity P-wave (km/s) = 5.65904 7.08418 6.41133
#
# Compressibility (1/GPa) = 0.03439651
#
# Stress axis : x y z
#
# Youngs Moduli (GPa) = 131.23289 91.53550 33.65142
#
# Poissons Ratio (x) = 0.29628 0.15630
# Poissons Ratio (y) = 0.42477 -0.03194
# Poissons Ratio (z) = 0.60953 -0.08687
#
# Static dielectric constant tensor:
#      x y z
#    x 1.740570 -0.014750 0.001130 
#    y -0.014750 1.804130 0.003340 
#    z 0.001130 0.003340 1.903320 
# 
# From -- ./inp_files/382876.got.cif
#   From: 2010.05.17/outbox.cif.g08.bks.cpg/sg2_192_cif.got.tgz:382876.got - 2010.06.03 11:33:40.
