data_PCOD9065040
_publ_section_title
;
Structure prediction by ZEFSAII (Michael W. Deem and Ramdas Pophale) SiO2 
 PCOD9065040
Probable space group: P -1
;
_chemical_formula_sum "Si O2"
_cell_formula_units_Z 16
_cell_length_a 12.416466
_cell_length_b 21.979587
_cell_length_c 9.937021
_cell_angle_alpha 152.988615
_cell_angle_beta 45.343978
_cell_angle_gamma 141.958437
_cell_volume 758.980785
_symmetry_space_group_name_H-M "P -1"
_symmetry_group_IT_number 2
_symmetry_cell_setting 'triclinic'
loop_
_space_group_symop_operation_xyz
x,y,z
-x,-y,-z
loop_
_atom_site_type_symbol
_atom_site_label
_atom_site_fract_x
_atom_site_fract_y
_atom_site_fract_z
Si Si1 0.157503 0.101669 0.662736
Si Si2 0.202741 0.598896 0.762887
Si Si3 0.704487 0.123138 0.234703
Si Si4 0.686655 0.545232 0.860170
Si Si5 0.797854 0.448089 0.834959
Si Si6 0.694918 0.535616 0.368466
Si Si7 0.682268 0.106298 0.916450
Si Si8 0.021304 0.120258 0.102495
O O1 0.290926 0.039202 0.410004
O O2 0.231752 0.278328 0.907074
O O3 0.000000 0.000000 0.500000
O O4 0.094645 0.079630 0.826674
O O5 0.293528 0.544713 0.462831
O O6 0.285790 0.594004 0.821202
O O7 0.996862 0.484949 0.739779
O O8 0.225901 0.760559 0.011474
O O9 0.680566 0.263155 0.584655
O O10 0.842417 0.109235 0.181730
O O11 0.525063 0.961930 0.053746
O O12 0.760118 0.171300 0.124370
O O13 0.783674 0.513833 0.834089
O O14 0.500000 0.500000 0.000000
O O15 0.739691 0.523904 0.151782
O O16 0.500000 0.500000 0.500000
O O17 0.839162 0.704938 0.629968
O O18 0.000000 0.000000 0.000000
#
# Coordination Sequence:
#
# PCOD9065040 Si02
#       8
#     2   2   2   2   2   2   2   2
#     4  12  25  46  71 107 145 189 241 300 359 432
#     4  12  25  47  72 106 139 192 244 299 356 427
#     4  11  24  47  69 107 144 184 238 298 357 432
#     4  12  25  43  74 105 143 189 245 299 355 421
#     4  12  25  45  75 101 141 193 241 295 361 428
#     4  12  29  49  71 102 147 192 246 298 359 439
#     4  11  26  42  76 108 143 183 238 302 361 420
#     4  12  29  48  71 102 150 192 240 297 370 434
#
# _framework density 21.080901000000001
#
# number of rings (size 3 to 8) (size 9 to 14) (size 15 to 20)
#    0.000    0.250    5.000    3.000    8.750    0.000 
#    0.000    1.250    0.000    0.000    0.000    0.000 
#    0.000    0.000    0.000    0.000    0.000    0.000 
#
# Total GULP energy -89435.702398 kJ/mol
# GULP energy per Si atom -5589.731400 kJ/mol
# Density = 2.103292 g / cm^3
# Si number density = 21.080901 Si / 1000 Ang^3
#
#
#
# Elastic Constant Matrix: (Units=GPa)
#
#
# Indices 1 2 3 4 5 6 
#
# 1 115.6392 42.2984 19.4664 23.2788 -9.9121 -10.4235
# 2 42.2984 84.5109 7.4866 -0.4090 7.7347 -4.9736
# 3 19.4664 7.4866 69.6459 -8.8641 5.6210 3.3515
# 4 23.2788 -0.4090 -8.8641 31.2984 -3.8343 -2.0643
# 5 -9.9121 7.7347 5.6210 -3.8343 30.7292 -6.5405
# 6 -10.4235 -4.9736 3.3515 -2.0643 -6.5405 42.8173
#
#
#
# Elastic Compliance Matrix: (Units=1/GPa)
#
#
# Indices 1 2 3 4 5 6 
#
# 1 0.016206 -0.008097 -0.006085 -0.012679 0.007656 0.004039
# 2 -0.008097 0.016292 0.001832 0.005895 -0.006511 -0.000932
# 3 -0.006085 0.001832 0.017531 0.008680 -0.005189 -0.003015
# 4 -0.012679 0.005895 0.008680 0.043587 -0.001996 -0.001285
# 5 0.007656 -0.006511 -0.005189 -0.001996 0.038918 0.007362
# 6 0.004039 -0.000932 -0.003015 -0.001285 0.007362 0.025529
#
#
# Mechanical properties :
#
#
# Convention : Reuss Voigt Hill
#
# Bulk Modulus (GPa) = 39.47855 45.36655 42.42255
# Shear Modulus (GPa) = 26.14983 34.33861 30.24422
#
# Velocity S-wave (km/s) = 3.52583 4.04034 3.79182
# Velocity P-wave (km/s) = 5.94500 6.58276 6.27199
#
# Compressibility (1/GPa) = 0.02533021
#
# Stress axis : x y z
#
# Youngs Moduli (GPa) = 61.70489 61.37824 57.04190
#
# Poissons Ratio (x) = 0.49696 0.34712
# Poissons Ratio (y) = 0.49960 -0.10451
# Poissons Ratio (z) = 0.37549 -0.11246
#
# Static dielectric constant tensor:
#      x y z
#    x 1.687530 -0.021180 0.116190 
#    y -0.021180 1.718460 0.090910 
#    z 0.116190 0.090910 1.569340 
# 
# From -- ./inp_files/283482.got.cif
#   From: 2010.05.17/outbox.cif.g08.bks.cpg/sg2_142_cif.got.tgz:283482.got - 2010.06.03 11:33:40.
