data_PCOD9065828
_publ_section_title
;
Structure prediction by ZEFSAII (Michael W. Deem and Ramdas Pophale) SiO2 
 PCOD9065828
Probable space group: P -1
;
_chemical_formula_sum "Si O2"
_cell_formula_units_Z 14
_cell_length_a 14.570363
_cell_length_b 5.902298
_cell_length_c 23.352724
_cell_angle_alpha 98.528413
_cell_angle_beta 158.479427
_cell_angle_gamma 93.291949
_cell_volume 613.874900
_symmetry_space_group_name_H-M "P -1"
_symmetry_group_IT_number 2
_symmetry_cell_setting 'triclinic'
loop_
_space_group_symop_operation_xyz
x,y,z
-x,-y,-z
loop_
_atom_site_type_symbol
_atom_site_label
_atom_site_fract_x
_atom_site_fract_y
_atom_site_fract_z
Si Si1 0.011372 0.288399 0.456410
Si Si2 0.201012 0.276568 0.935987
Si Si3 0.035380 0.752494 0.993033
Si Si4 0.713999 0.288732 0.166633
Si Si5 0.205029 0.654191 0.371712
Si Si6 0.528386 0.774994 0.224005
Si Si7 0.192067 0.250804 0.254221
O O1 0.906042 0.290068 0.331543
O O2 0.000000 0.500000 0.500000
O O3 0.330969 0.332255 0.653184
O O4 0.778113 0.991379 0.335005
O O5 0.912560 0.186691 0.726356
O O6 0.481957 0.353204 0.062429
O O7 0.290783 0.532991 0.036866
O O8 0.112045 0.031886 0.918402
O O9 0.373278 0.899786 0.172700
O O10 0.000000 0.500000 0.000000
O O11 0.819501 0.628787 0.808344
O O12 0.000000 0.000000 0.000000
O O13 0.953239 0.496170 0.267674
O O14 0.500000 0.000000 0.000000
O O15 0.206789 0.441774 0.320779
O O16 0.539576 0.801776 0.594424
#
# Coordination Sequence:
#
# PCOD9065828 Si02
#       7
#     2   2   2   2   2   2   2
#     4  11  25  45  74 107 151 194 249 322 389 457
#     4  12  22  47  77 101 151 200 254 312 388 463
#     4  12  28  48  77 108 147 198 260 317 381 466
#     4  12  24  44  72 109 146 193 259 316 374 459
#     4  11  25  43  70 103 147 192 252 310 383 451
#     4  11  25  46  75 103 145 203 250 311 398 461
#     4  11  25  47  70 102 147 197 244 314 390 450
#
# _framework density 22.805951
#
# number of rings (size 3 to 8) (size 9 to 14) (size 15 to 20)
#    0.000    0.571    4.286    3.429    4.000    0.000 
#    2.571    0.000    0.000    0.000    0.000    0.000 
#    0.000    0.000    0.000    0.000    0.000    0.000 
#
# Total GULP energy -78213.216950 kJ/mol
# GULP energy per Si atom -5586.658354 kJ/mol
# Density = 2.275404 g / cm^3
# Si number density = 22.805951 Si / 1000 Ang^3
#
#
#
# Elastic Constant Matrix: (Units=GPa)
#
#
# Indices 1 2 3 4 5 6 
#
# 1 112.9693 50.1609 42.4929 -23.0993 4.6715 3.9514
# 2 50.1609 86.2015 17.1815 -25.1045 -6.1771 10.1377
# 3 42.4929 17.1815 84.1814 -44.1237 0.9990 6.9864
# 4 -23.0993 -25.1045 -44.1237 52.5572 -4.8379 0.9416
# 5 4.6715 -6.1771 0.9990 -4.8379 45.6791 -9.4999
# 6 3.9514 10.1377 6.9864 0.9416 -9.4999 53.6844
#
#
#
# Elastic Compliance Matrix: (Units=1/GPa)
#
#
# Indices 1 2 3 4 5 6 
#
# 1 0.015025 -0.008870 -0.008488 -0.005041 -0.002822 0.001263
# 2 -0.008870 0.019439 0.006769 0.011489 0.003895 -0.003411
# 3 -0.008488 0.006769 0.026778 0.022306 0.002718 -0.004049
# 4 -0.005041 0.011489 0.022306 0.041572 0.005040 -0.004539
# 5 -0.002822 0.003895 0.002718 0.005040 0.023858 0.003252
# 6 0.001263 -0.003411 -0.004049 -0.004539 0.003252 0.020360
#
#
# Mechanical properties :
#
#
# Convention : Reuss Voigt Hill
#
# Bulk Modulus (GPa) = 24.95994 55.89143 40.42568
# Shear Modulus (GPa) = 27.53853 41.95195 34.74524
#
# Velocity S-wave (km/s) = 3.47870 4.29361 3.90746
# Velocity P-wave (km/s) = 5.20609 7.01005 6.17431
#
# Compressibility (1/GPa) = 0.04006421
#
# Stress axis : x y z
#
# Youngs Moduli (GPa) = 66.55697 51.44169 37.34475
#
# Poissons Ratio (x) = 0.45629 0.31696
# Poissons Ratio (y) = 0.59037 -0.25278
# Poissons Ratio (z) = 0.56490 -0.34820
#
# Static dielectric constant tensor:
#      x y z
#    x 1.851410 0.004730 -0.014340 
#    y 0.004730 1.871300 -0.046090 
#    z -0.014340 -0.046090 1.887980 
# 
# From -- ./inp_files/75939.got.cif
#   From: 2010.05.17/outbox.cif.g08.bks.cpg/sg2_38_cif.got.tgz:75939.got - 2010.06.03 11:33:40.
