data_PCOD9065105
_publ_section_title
;
Structure prediction by ZEFSAII (Michael W. Deem and Ramdas Pophale) SiO2 
 PCOD9065105
Probable space group: P -1
;
_chemical_formula_sum "Si O2"
_cell_formula_units_Z 16
_cell_length_a 16.041096
_cell_length_b 13.816234
_cell_length_c 11.079401
_cell_angle_alpha 34.147699
_cell_angle_beta 54.124258
_cell_angle_gamma 32.488674
_cell_volume 687.334767
_symmetry_space_group_name_H-M "P -1"
_symmetry_group_IT_number 2
_symmetry_cell_setting 'triclinic'
loop_
_space_group_symop_operation_xyz
x,y,z
-x,-y,-z
loop_
_atom_site_type_symbol
_atom_site_label
_atom_site_fract_x
_atom_site_fract_y
_atom_site_fract_z
Si Si1 0.076015 0.711761 0.216702
Si Si2 0.440323 0.279617 0.267681
Si Si3 0.951491 0.226284 0.229527
Si Si4 0.883600 0.521995 0.323750
Si Si5 0.828375 0.968689 0.971855
Si Si6 0.510962 0.472482 0.213199
Si Si7 0.325097 0.254744 0.951009
Si Si8 0.186828 0.099355 0.341475
O O1 0.241901 0.517752 0.199092
O O2 0.121969 0.567866 0.453333
O O3 0.930266 0.799853 0.182730
O O4 0.000000 0.000000 0.000000
O O5 0.496551 0.322683 0.291870
O O6 0.500000 0.000000 0.500000
O O7 0.486579 0.351141 0.046520
O O8 0.038632 0.109451 0.146165
O O9 0.056802 0.233149 0.205696
O O10 0.753255 0.519650 0.110474
O O11 0.000000 0.000000 0.500000
O O12 0.074469 0.292961 0.353585
O O13 0.794809 0.824238 0.096572
O O14 0.792585 0.543253 0.271542
O O15 0.657436 0.295003 0.804012
O O16 0.681992 0.221215 0.401761
O O17 0.293878 0.114066 0.186205
O O18 0.500000 0.000000 0.000000
#
# Coordination Sequence:
#
# PCOD9065105 Si02
#       8
#     2   2   2   2   2   2   2   2
#     4  12  26  43  72 101 138 182 231 293 357 421
#     4  11  26  48  68 105 146 186 243 293 352 425
#     4  11  26  45  71 103 141 185 236 289 358 428
#     4  11  24  47  71  99 139 187 234 285 360 427
#     4  12  25  47  68 102 141 185 235 286 358 423
#     4  11  27  44  73 105 146 188 236 298 356 419
#     4  11  25  46  74 103 138 186 236 292 353 421
#     4  11  24  48  71 100 146 185 233 301 351 423
#
# _framework density 23.278324000000001
#
# number of rings (size 3 to 8) (size 9 to 14) (size 15 to 20)
#    0.000    0.750    3.750    2.625   12.250    1.500 
#    0.000    0.000    0.000    0.000    0.000    0.000 
#    0.000    0.000    0.000    0.000    0.000    0.000 
#
# Total GULP energy -89348.120764 kJ/mol
# GULP energy per Si atom -5584.257548 kJ/mol
# Density = 2.322534 g / cm^3
# Si number density = 23.278324 Si / 1000 Ang^3
#
#
#
# Elastic Constant Matrix: (Units=GPa)
#
#
# Indices 1 2 3 4 5 6 
#
# 1 44.9511 9.6028 10.5896 -9.4145 -4.8964 8.1246
# 2 9.6028 189.4766 54.0817 -21.8754 -4.5580 -6.8769
# 3 10.5896 54.0817 118.7368 -6.0319 -18.2701 8.1942
# 4 -9.4145 -21.8754 -6.0319 49.0714 0.9605 3.9704
# 5 -4.8964 -4.5580 -18.2701 0.9605 43.8314 -1.8125
# 6 8.1246 -6.8769 8.1942 3.9704 -1.8125 27.2582
#
#
#
# Elastic Compliance Matrix: (Units=1/GPa)
#
#
# Indices 1 2 3 4 5 6 
#
# 1 0.025327 -0.000713 -0.000816 0.005057 0.001970 -0.008089
# 2 -0.000713 0.006513 -0.003053 0.002208 -0.000624 0.002410
# 3 -0.000816 -0.003053 0.010730 0.000007 0.003919 -0.003493
# 4 0.005057 0.002208 0.000007 0.022675 0.000125 -0.004247
# 5 0.001970 -0.000624 0.003919 0.000125 0.024588 -0.000306
# 6 -0.008089 0.002410 -0.003493 -0.004247 -0.000306 0.041354
#
#
# Mechanical properties :
#
#
# Convention : Reuss Voigt Hill
#
# Bulk Modulus (GPa) = 29.93518 55.74588 42.84053
# Shear Modulus (GPa) = 33.00669 42.62490 37.81579
#
# Velocity S-wave (km/s) = 3.76961 4.28378 4.03489
# Velocity P-wave (km/s) = 5.64218 6.96184 6.33646
#
# Compressibility (1/GPa) = 0.03340551
#
# Stress axis : x y z
#
# Youngs Moduli (GPa) = 39.48418 153.54760 93.19899
#
# Poissons Ratio (x) = 0.10950 0.07603
# Poissons Ratio (y) = 0.02816 0.28452
# Poissons Ratio (z) = 0.03221 0.46876
#
# Static dielectric constant tensor:
#      x y z
#    x 2.147800 0.056030 -0.107730 
#    y 0.056030 1.947690 -0.018320 
#    z -0.107730 -0.018320 1.886140 
# 
# From -- ./inp_files/242091.got.cif
#   From: 2010.05.17/outbox.cif.g08.bks.cpg/sg2_122_cif.got.tgz:242091.got - 2010.06.03 11:33:40.
