data_PCOD9065674
_publ_section_title
;
Structure prediction by ZEFSAII (Michael W. Deem and Ramdas Pophale) SiO2 
 PCOD9065674
Probable space group: P -1
;
_chemical_formula_sum "Si O2"
_cell_formula_units_Z 12
_cell_length_a 15.323194
_cell_length_b 6.904474
_cell_length_c 5.351402
_cell_angle_alpha 71.904024
_cell_angle_beta 81.561083
_cell_angle_gamma 113.867584
_cell_volume 467.348348
_symmetry_space_group_name_H-M "P -1"
_symmetry_group_IT_number 2
_symmetry_cell_setting 'triclinic'
loop_
_space_group_symop_operation_xyz
x,y,z
-x,-y,-z
loop_
_atom_site_type_symbol
_atom_site_label
_atom_site_fract_x
_atom_site_fract_y
_atom_site_fract_z
Si Si1 0.780951 0.606332 0.271156
Si Si2 0.261114 0.001121 0.070924
Si Si3 0.086203 0.618137 0.631569
Si Si4 0.942858 0.005152 0.275021
Si Si5 0.361584 0.849905 0.725807
Si Si6 0.473439 0.236421 0.147292
O O1 0.763045 0.788333 0.042242
O O2 0.868402 0.538712 0.213319
O O3 0.831987 0.775934 0.420220
O O4 0.680993 0.358773 0.378370
O O5 0.268590 0.867225 0.877226
O O6 0.374455 0.102979 0.078381
O O7 0.179356 0.818222 0.359826
O O8 0.938064 0.242857 0.203094
O O9 0.000000 0.500000 0.500000
O O10 0.000000 0.000000 0.500000
O O11 0.000000 0.000000 0.000000
O O12 0.425964 0.785254 0.918942
O O13 0.433457 0.104656 0.481791
O O14 0.500000 0.500000 0.000000
#
# Coordination Sequence:
#
# PCOD9065674 Si02
#       6
#     2   2   2   2   2   2
#     4  12  26  47  78 113 160 208 275 334 416 491
#     4  12  27  48  79 117 162 213 279 339 418 494
#     4  12  28  51  80 118 163 221 279 344 416 495
#     4  12  28  52  81 120 161 221 284 348 419 497
#     4  11  26  48  78 117 157 216 271 336 419 506
#     4  11  24  50  76 117 162 207 270 342 418 497
#
# _framework density 25.676780000000001
#
# number of rings (size 3 to 8) (size 9 to 14) (size 15 to 20)
#    0.000    0.333    5.000    2.500    2.333    4.000 
#    0.000    0.000    0.000    0.000    0.000    0.000 
#    0.000    0.000    0.000    0.000    0.000    0.000 
#
# Total GULP energy -67058.631771 kJ/mol
# GULP energy per Si atom -5588.219314 kJ/mol
# Density = 2.561834 g / cm^3
# Si number density = 25.676780 Si / 1000 Ang^3
#
#
#
# Elastic Constant Matrix: (Units=GPa)
#
#
# Indices 1 2 3 4 5 6 
#
# 1 198.9032 87.0008 57.8378 -3.7551 40.9182 -17.4438
# 2 87.0008 189.8525 55.7992 -25.8190 3.5387 3.4609
# 3 57.8378 55.7992 99.8253 -11.8216 4.0803 -23.7371
# 4 -3.7551 -25.8190 -11.8216 47.9136 -4.9088 8.0044
# 5 40.9182 3.5387 4.0803 -4.9088 48.3311 -2.4762
# 6 -17.4438 3.4609 -23.7371 8.0044 -2.4762 76.4610
#
#
#
# Elastic Compliance Matrix: (Units=1/GPa)
#
#
# Indices 1 2 3 4 5 6 
#
# 1 0.009017 -0.003546 -0.002963 -0.002916 -0.007350 0.001365
# 2 -0.003546 0.008260 -0.002752 0.004192 0.002933 -0.002381
# 3 -0.002963 -0.002752 0.014260 0.001358 0.001838 0.003793
# 4 -0.002916 0.004192 0.001358 0.024154 0.004356 -0.002821
# 5 -0.007350 0.002933 0.001838 0.004356 0.026944 -0.000822
# 6 0.001365 -0.002381 0.003793 -0.002821 -0.000822 0.014944
#
#
# Mechanical properties :
#
#
# Convention : Reuss Voigt Hill
#
# Bulk Modulus (GPa) = 76.83137 98.87297 87.85217
# Shear Modulus (GPa) = 41.51517 53.73733 47.62625
#
# Velocity S-wave (km/s) = 4.02535 4.57972 4.31145
# Velocity P-wave (km/s) = 7.18276 8.15815 7.68595
#
# Compressibility (1/GPa) = 0.01301552
#
# Stress axis : x y z
#
# Youngs Moduli (GPa) = 110.90575 121.06755 70.12616
#
# Poissons Ratio (x) = 0.42926 0.20775
# Poissons Ratio (y) = 0.39323 0.19301
# Poissons Ratio (z) = 0.32856 0.33321
#
# Static dielectric constant tensor:
#      x y z
#    x 2.046950 0.054240 -0.010480 
#    y 0.054240 2.085370 0.045040 
#    z -0.010480 0.045040 2.062490 
# 
# From -- ./inp_files/103664.got.cif
#   From: 2010.05.17/outbox.cif.g08.bks.cpg/sg2_52_cif.got.tgz:103664.got - 2010.06.03 11:33:40.
