data_PCOD9065466
_publ_section_title
;
Structure prediction by ZEFSAII (Michael W. Deem and Ramdas Pophale) SiO2 
 PCOD9065466
Probable space group: P -1
;
_chemical_formula_sum "Si O2"
_cell_formula_units_Z 16
_cell_length_a 11.566091
_cell_length_b 14.000687
_cell_length_c 13.563075
_cell_angle_alpha 32.543034
_cell_angle_beta 43.865930
_cell_angle_gamma 66.094884
_cell_volume 687.334794
_symmetry_space_group_name_H-M "P -1"
_symmetry_group_IT_number 2
_symmetry_cell_setting 'triclinic'
loop_
_space_group_symop_operation_xyz
x,y,z
-x,-y,-z
loop_
_atom_site_type_symbol
_atom_site_label
_atom_site_fract_x
_atom_site_fract_y
_atom_site_fract_z
Si Si1 0.734923 0.558216 0.540395
Si Si2 0.701994 0.580083 0.863708
Si Si3 0.527593 0.985609 0.108424
Si Si4 0.633119 0.449506 0.315730
Si Si5 0.118404 0.297475 0.884989
Si Si6 0.028913 0.844351 0.273594
Si Si7 0.258196 0.730742 0.763029
Si Si8 0.425171 0.158343 0.182928
O O1 0.543710 0.571138 0.622769
O O2 0.802027 0.551824 0.392512
O O3 0.916083 0.749392 0.322266
O O4 0.641109 0.366150 0.844650
O O5 0.889059 0.691132 0.580162
O O6 0.714655 0.759003 0.772669
O O7 0.500000 0.500000 0.000000
O O8 0.668430 0.370386 0.115701
O O9 0.461828 0.752474 0.380454
O O10 0.386259 0.041992 0.203678
O O11 0.500000 0.000000 0.000000
O O12 0.757154 0.124780 0.879571
O O13 0.734376 0.638450 0.167340
O O14 0.771349 0.414490 0.187753
O O15 0.935783 0.294442 0.049188
O O16 0.059033 0.070556 0.078542
O O17 0.401744 0.978291 0.428645
#
# Coordination Sequence:
#
# PCOD9065466 Si02
#       8
#     2   2   2   2   2   2   2   2
#     4  12  25  49  74 110 151 193 256 309 379 450
#     4  12  25  50  73 108 155 200 251 312 371 452
#     4  11  27  46  71 111 154 197 257 308 377 452
#     4  11  24  48  75 104 153 199 245 316 372 449
#     4  12  26  45  78 113 148 200 249 313 386 437
#     4  12  27  47  75 114 154 196 255 317 374 451
#     4  11  26  48  74 112 149 194 261 305 369 464
#     4  11  25  48  76 106 149 205 241 313 388 428
#
# _framework density 23.278320999999998
#
# number of rings (size 3 to 8) (size 9 to 14) (size 15 to 20)
#    0.000    0.500    5.000    1.875    5.250    2.000 
#    2.250    1.875    0.000    0.000    0.000    0.000 
#    0.000    0.000    0.000    0.000    0.000    0.000 
#
# Total GULP energy -89359.188321 kJ/mol
# GULP energy per Si atom -5584.949270 kJ/mol
# Density = 2.322534 g / cm^3
# Si number density = 23.278321 Si / 1000 Ang^3
#
#
#
# Elastic Constant Matrix: (Units=GPa)
#
#
# Indices 1 2 3 4 5 6 
#
# 1 124.2604 46.3040 22.6311 5.4668 -0.0020 0.1313
# 2 46.3040 125.7590 13.2402 19.3226 2.7296 0.8836
# 3 22.6311 13.2402 56.6607 14.9048 28.8358 -1.1402
# 4 5.4668 19.3226 14.9048 38.6923 4.5792 3.7347
# 5 -0.0020 2.7296 28.8358 4.5792 39.5340 -4.9710
# 6 0.1313 0.8836 -1.1402 3.7347 -4.9710 28.8870
#
#
#
# Elastic Compliance Matrix: (Units=1/GPa)
#
#
# Indices 1 2 3 4 5 6 
#
# 1 0.010432 -0.003620 -0.006205 0.002152 0.004568 0.000326
# 2 -0.003620 0.009942 0.000656 -0.004659 -0.000595 0.000238
# 3 -0.006205 0.000656 0.035128 -0.009905 -0.024719 -0.001578
# 4 0.002152 -0.004659 -0.009905 0.031643 0.003408 -0.003763
# 5 0.004568 -0.000595 -0.024719 0.003408 0.043739 0.006108
# 6 0.000326 0.000238 -0.001578 -0.003763 0.006108 0.036084
#
#
# Mechanical properties :
#
#
# Convention : Reuss Voigt Hill
#
# Bulk Modulus (GPa) = 26.90788 52.33673 39.62231
# Shear Modulus (GPa) = 25.29173 36.38964 30.84068
#
# Velocity S-wave (km/s) = 3.29977 3.95807 3.64382
# Velocity P-wave (km/s) = 5.10904 6.58941 5.89587
#
# Compressibility (1/GPa) = 0.03716383
#
# Stress axis : x y z
#
# Youngs Moduli (GPa) = 95.86272 100.57835 28.46772
#
# Poissons Ratio (x) = 0.36406 0.17664
# Poissons Ratio (y) = 0.34699 -0.01867
# Poissons Ratio (z) = 0.59483 -0.06596
#
# Static dielectric constant tensor:
#      x y z
#    x 1.697940 -0.096380 0.100400 
#    y -0.096380 1.850510 0.025750 
#    z 0.100400 0.025750 1.866750 
# 
# From -- ./inp_files/522114.got.cif
#   From: 2010.05.17/outbox.cif.g08.bks.cpg/sg2_262_cif.got.tgz:522114.got - 2010.06.03 11:33:40.
