data_PCOD9065938
_publ_section_title
;
Structure prediction by ZEFSAII (Michael W. Deem and Ramdas Pophale) SiO2 
 PCOD9065938
Probable space group: P -1
;
_chemical_formula_sum "Si O2"
_cell_formula_units_Z 14
_cell_length_a 5.386488
_cell_length_b 22.178561
_cell_length_c 16.032661
_cell_angle_alpha 161.544499
_cell_angle_beta 78.933038
_cell_angle_gamma 101.516751
_cell_volume 594.105660
_symmetry_space_group_name_H-M "P -1"
_symmetry_group_IT_number 2
_symmetry_cell_setting 'triclinic'
loop_
_space_group_symop_operation_xyz
x,y,z
-x,-y,-z
loop_
_atom_site_type_symbol
_atom_site_label
_atom_site_fract_x
_atom_site_fract_y
_atom_site_fract_z
Si Si1 0.548098 0.785899 0.041452
Si Si2 0.749338 0.514803 0.929050
Si Si3 0.760530 0.619803 0.649699
Si Si4 0.128353 0.808116 0.212008
Si Si5 0.065578 0.206163 0.305547
Si Si6 0.467122 0.621294 0.396490
Si Si7 0.366176 0.796036 0.352642
O O1 0.248504 0.811235 0.116100
O O2 0.658744 0.986924 0.334768
O O3 0.684284 0.768639 0.921034
O O4 0.571461 0.580230 0.815019
O O5 0.536890 0.421450 0.757691
O O6 0.816348 0.351496 0.775838
O O7 0.631217 0.696757 0.219511
O O8 0.959676 0.615191 0.987132
O O9 0.500000 0.500000 0.500000
O O10 0.821167 0.688362 0.643821
O O11 0.000000 0.500000 0.500000
O O12 0.338554 0.795492 0.254061
O O13 0.000000 0.000000 0.500000
O O14 0.285028 0.253095 0.422330
O O15 0.792520 0.274617 0.437823
O O16 0.000000 0.000000 0.000000
#
# Coordination Sequence:
#
# PCOD9065938 Si02
#       7
#     2   2   2   2   2   2   2
#     4  12  24  46  72 106 145 195 255 294 384 439
#     4  11  25  45  68 105 153 188 252 305 378 442
#     4  12  26  49  74 109 147 188 249 316 371 444
#     4  12  23  44  73 104 147 202 248 305 372 452
#     4  12  27  51  76 110 148 194 247 314 385 448
#     4  12  25  47  79 106 148 199 247 308 377 457
#     4  11  25  44  68 108 146 194 245 317 367 446
#
# _framework density 23.564831000000002
#
# number of rings (size 3 to 8) (size 9 to 14) (size 15 to 20)
#    0.000    0.286    5.714    3.000    2.000    1.143 
#    0.000    0.000    0.000    0.000    0.000    0.000 
#    0.000    0.000    0.000    0.000    0.000    0.000 
#
# Total GULP energy -78084.387624 kJ/mol
# GULP energy per Si atom -5577.456259 kJ/mol
# Density = 2.351120 g / cm^3
# Si number density = 23.564831 Si / 1000 Ang^3
#
#
#
# Elastic Constant Matrix: (Units=GPa)
#
#
# Indices 1 2 3 4 5 6 
#
# 1 130.9563 22.7077 60.1857 -2.2902 2.0618 11.8541
# 2 22.7077 49.5910 -5.6073 -10.6691 -0.3563 3.5834
# 3 60.1857 -5.6073 137.5529 -14.0169 -1.7028 -4.3191
# 4 -2.2902 -10.6691 -14.0169 48.3597 12.8164 -1.5100
# 5 2.0618 -0.3563 -1.7028 12.8164 46.2737 -7.1073
# 6 11.8541 3.5834 -4.3191 -1.5100 -7.1073 22.2778
#
#
#
# Elastic Compliance Matrix: (Units=1/GPa)
#
#
# Indices 1 2 3 4 5 6 
#
# 1 0.012130 -0.006258 -0.006054 -0.002458 -0.001234 -0.007182
# 2 -0.006258 0.024976 0.004445 0.006833 -0.001220 0.000248
# 3 -0.006054 0.004445 0.010651 0.003831 0.000396 0.004957
# 4 -0.002458 0.006833 0.003831 0.024924 -0.006514 0.000563
# 5 -0.001234 -0.001220 0.000396 -0.006514 0.024763 0.008388
# 6 -0.007182 0.000248 0.004957 0.000563 0.008388 0.052345
#
#
# Mechanical properties :
#
#
# Convention : Reuss Voigt Hill
#
# Bulk Modulus (GPa) = 31.22573 52.51914 41.87244
# Shear Modulus (GPa) = 28.37751 39.43651 33.90701
#
# Velocity S-wave (km/s) = 3.47397 4.09532 3.79737
# Velocity P-wave (km/s) = 5.41950 6.68563 6.08559
#
# Compressibility (1/GPa) = 0.03202487
#
# Stress axis : x y z
#
# Youngs Moduli (GPa) = 82.44074 40.03788 93.88917
#
# Poissons Ratio (x) = 0.25054 0.56838
# Poissons Ratio (y) = 0.51588 -0.41735
# Poissons Ratio (z) = 0.49907 -0.17797
#
# Static dielectric constant tensor:
#      x y z
#    x 1.995210 0.016830 -0.007200 
#    y 0.016830 1.910500 -0.032810 
#    z -0.007200 -0.032810 1.995270 
# 
# From -- ./inp_files/116944.got.cif
#   From: 2010.05.17/outbox.cif.g08.bks.cpg/sg2_59_cif.got.tgz:116944.got - 2010.06.03 11:33:40.
