data_PCOD9065794
_publ_section_title
;
Structure prediction by ZEFSAII (Michael W. Deem and Ramdas Pophale) SiO2 
 PCOD9065794
Probable space group: P -1
;
_chemical_formula_sum "Si O2"
_cell_formula_units_Z 15
_cell_length_a 8.254247
_cell_length_b 11.312047
_cell_length_c 8.783375
_cell_angle_alpha 46.185825
_cell_angle_beta 110.671541
_cell_angle_gamma 112.950067
_cell_volume 540.676154
_symmetry_space_group_name_H-M "P -1"
_symmetry_group_IT_number 2
_symmetry_cell_setting 'triclinic'
loop_
_space_group_symop_operation_xyz
x,y,z
-x,-y,-z
loop_
_atom_site_type_symbol
_atom_site_label
_atom_site_fract_x
_atom_site_fract_y
_atom_site_fract_z
Si Si1 0.000000 0.500000 0.500000
Si Si2 0.340760 0.680442 0.327200
Si Si3 0.421771 0.054011 0.640174
Si Si4 0.440086 0.278130 0.210635
Si Si5 0.141516 0.965878 0.880966
Si Si6 0.089870 0.288770 0.153087
Si Si7 0.378005 0.228265 0.914947
Si Si8 0.864808 0.356887 0.285146
O O1 0.199790 0.517554 0.475184
O O2 0.083194 0.649833 0.516569
O O3 0.451363 0.771693 0.423389
O O4 0.228140 0.814842 0.108666
O O5 0.487116 0.673159 0.252878
O O6 0.383745 0.085730 0.424766
O O7 0.251596 0.034499 0.706483
O O8 0.518822 0.911290 0.858460
O O9 0.297757 0.344597 0.211205
O O10 0.369972 0.328217 0.977748
O O11 0.652437 0.319030 0.230940
O O12 0.955730 0.868868 0.837455
O O13 0.195300 0.118526 0.882428
O O14 0.960747 0.259100 0.282469
O O15 0.053219 0.448810 0.906151
#
# Coordination Sequence:
#
# PCOD9065794 Si02
#       8
#     1   2   2   2   2   2   2   2
#     4  12  20  38  70  90 114 170 222 258 306 378
#     4   9  17  35  60  91 119 165 209 254 315 363
#     4   9  18  35  60  92 127 160 207 257 310 366
#     4  12  23  40  65  99 126 166 211 255 312 381
#     4   9  18  39  60  90 128 166 206 255 308 375
#     4  11  25  43  65  90 131 168 207 258 321 372
#     4   9  20  35  65  93 127 167 205 256 316 366
#     4  11  25  44  65  92 125 166 210 268 313 369
#
# _framework density 27.743039
#
# number of rings (size 3 to 8) (size 9 to 14) (size 15 to 20)
#    0.000    1.867    2.667    4.000    1.867    1.067 
#    0.000    3.333    0.000    0.000    0.000    0.000 
#    0.000    0.000    0.000    0.000    0.000    0.000 
#
# Total GULP energy -83517.971316 kJ/mol
# GULP energy per Si atom -5567.864754 kJ/mol
# Density = 2.767989 g / cm^3
# Si number density = 27.743039 Si / 1000 Ang^3
#
#
#
# Elastic Constant Matrix: (Units=GPa)
#
#
# Indices 1 2 3 4 5 6 
#
# 1 157.7532 59.1390 35.6619 22.3562 -20.4561 30.2311
# 2 59.1390 128.2553 16.8290 23.2744 -10.2610 43.4199
# 3 35.6619 16.8290 83.7094 7.0882 -12.8190 2.6714
# 4 22.3562 23.2744 7.0882 33.0297 -4.0629 -2.8847
# 5 -20.4561 -10.2610 -12.8190 -4.0629 47.5599 -2.6804
# 6 30.2311 43.4199 2.6714 -2.8847 -2.6804 47.6177
#
#
#
# Elastic Compliance Matrix: (Units=1/GPa)
#
#
# Indices 1 2 3 4 5 6 
#
# 1 0.009373 -0.001207 -0.002816 -0.005030 0.002308 -0.004866
# 2 -0.001207 0.015062 -0.001062 -0.010653 0.000772 -0.013510
# 3 -0.002816 -0.001062 0.013637 0.000206 0.002373 0.002137
# 4 -0.005030 -0.010653 0.000206 0.042506 0.000097 0.015476
# 5 0.002308 0.000772 0.002373 0.000097 0.022776 -0.001015
# 6 -0.004866 -0.013510 0.002137 0.015476 -0.001015 0.037169
#
#
# Mechanical properties :
#
#
# Convention : Reuss Voigt Hill
#
# Bulk Modulus (GPa) = 35.84102 65.88643 50.86373
# Shear Modulus (GPa) = 31.25117 42.84734 37.04926
#
# Velocity S-wave (km/s) = 3.35991 3.93419 3.65834
# Velocity P-wave (km/s) = 5.29140 6.66615 6.01816
#
# Compressibility (1/GPa) = 0.02790099
#
# Stress axis : x y z
#
# Youngs Moduli (GPa) = 106.69081 66.39394 73.33033
#
# Poissons Ratio (x) = 0.08017 0.20647
# Poissons Ratio (y) = 0.12883 0.07788
# Poissons Ratio (z) = 0.30040 0.07052
#
# Static dielectric constant tensor:
#      x y z
#    x 2.168860 -0.097510 0.068590 
#    y -0.097510 2.325900 0.060350 
#    z 0.068590 0.060350 2.311690 
# 
# From -- ./inp_files/185134.got.cif
#   From: 2010.05.17/outbox.cif.g08.bks.cpg/sg2_93_cif.got.tgz:185134.got - 2010.06.03 11:33:40.
