data_PCOD9065381
_publ_section_title
;
Structure prediction by ZEFSAII (Michael W. Deem and Ramdas Pophale) SiO2 
 PCOD9065381
Probable space group: P -1
;
_chemical_formula_sum "Si O2"
_cell_formula_units_Z 16
_cell_length_a 26.040196
_cell_length_b 11.685219
_cell_length_c 5.924977
_cell_angle_alpha 130.923049
_cell_angle_beta 119.470156
_cell_angle_gamma 30.537175
_cell_volume 679.794105
_symmetry_space_group_name_H-M "P -1"
_symmetry_group_IT_number 2
_symmetry_cell_setting 'triclinic'
loop_
_space_group_symop_operation_xyz
x,y,z
-x,-y,-z
loop_
_atom_site_type_symbol
_atom_site_label
_atom_site_fract_x
_atom_site_fract_y
_atom_site_fract_z
Si Si1 0.557371 0.401169 0.244889
Si Si2 0.094549 0.690759 0.371832
Si Si3 0.030022 0.556525 0.331360
Si Si4 0.254847 0.582891 0.762874
Si Si5 0.434616 0.280371 0.467314
Si Si6 0.161314 0.090064 0.302753
Si Si7 0.262556 0.121423 0.822307
Si Si8 0.350747 0.208642 0.851405
O O1 0.500000 0.500000 0.500000
O O2 0.589103 0.511004 0.437104
O O3 0.656221 0.080960 0.062344
O O4 0.500000 0.500000 0.000000
O O5 0.048124 0.690827 0.475859
O O6 0.193945 0.587189 0.491899
O O7 0.149795 0.434558 0.025087
O O8 0.000000 0.000000 0.500000
O O9 0.133652 0.272604 0.294082
O O10 0.939104 0.736263 0.545603
O O11 0.000000 0.500000 0.000000
O O12 0.368456 0.397495 0.698609
O O13 0.262043 0.490640 0.903202
O O14 0.192857 0.866907 0.977244
O O15 0.556901 0.017311 0.415189
O O16 0.397688 0.217052 0.155174
O O17 0.245008 0.992595 0.514599
O O18 0.315288 0.125887 0.770035
#
# Coordination Sequence:
#
# PCOD9065381 Si02
#       8
#     2   2   2   2   2   2   2   2
#     4  12  30  50  80 116 158 209 265 331 399 478
#     4  12  28  46  75 106 154 199 254 322 391 463
#     4  11  24  48  72 102 149 198 255 320 380 458
#     4  12  27  44  76 111 147 201 254 322 388 468
#     4  11  26  46  75 108 157 193 261 312 399 463
#     4  11  27  45  76 108 145 200 260 314 391 461
#     4  12  26  50  75 113 153 205 259 323 394 481
#     4  11  25  47  75 108 154 199 258 314 397 467
#
# _framework density 23.536538
#
# number of rings (size 3 to 8) (size 9 to 14) (size 15 to 20)
#    0.000    0.500    3.750    2.625   10.500    2.500 
#    0.000    0.000    0.000    0.000    0.000    0.000 
#    0.000    0.000    0.000    0.000    0.000    0.000 
#
# Total GULP energy -89322.031254 kJ/mol
# GULP energy per Si atom -5582.626953 kJ/mol
# Density = 2.348297 g / cm^3
# Si number density = 23.536538 Si / 1000 Ang^3
#
#
#
# Elastic Constant Matrix: (Units=GPa)
#
#
# Indices 1 2 3 4 5 6 
#
# 1 159.8822 37.5563 10.2323 13.4477 14.8748 18.6957
# 2 37.5563 98.4294 -9.7187 5.0904 -8.4207 27.8712
# 3 10.2323 -9.7187 42.6051 2.9760 8.2758 1.0961
# 4 13.4477 5.0904 2.9760 32.5000 1.5409 9.2882
# 5 14.8748 -8.4207 8.2758 1.5409 33.4677 3.6093
# 6 18.6957 27.8712 1.0961 9.2882 3.6093 44.1652
#
#
#
# Elastic Compliance Matrix: (Units=1/GPa)
#
#
# Indices 1 2 3 4 5 6 
#
# 1 0.007686 -0.003171 -0.001694 -0.002229 -0.003645 -0.000444
# 2 -0.003171 0.014483 0.003222 0.000932 0.005129 -0.008493
# 3 -0.001694 0.003222 0.025643 -0.001579 -0.004570 -0.001247
# 4 -0.002229 0.000932 -0.001579 0.033576 0.000796 -0.006732
# 5 -0.003645 0.005129 -0.004570 0.000796 0.034375 -0.004557
# 6 -0.000444 -0.008493 -0.001247 -0.006732 -0.004557 0.030009
#
#
# Mechanical properties :
#
#
# Convention : Reuss Voigt Hill
#
# Bulk Modulus (GPa) = 22.45827 41.89517 32.17672
# Shear Modulus (GPa) = 30.50625 39.54971 35.02798
#
# Velocity S-wave (km/s) = 3.60408 4.10366 3.86195
# Velocity P-wave (km/s) = 5.18476 6.34760 5.79542
#
# Compressibility (1/GPa) = 0.04452703
#
# Stress axis : x y z
#
# Youngs Moduli (GPa) = 130.10094 69.04658 38.99638
#
# Poissons Ratio (x) = 0.21894 0.06607
# Poissons Ratio (y) = 0.41253 -0.12566
# Poissons Ratio (z) = 0.22042 -0.22248
#
# Static dielectric constant tensor:
#      x y z
#    x 1.868720 -0.024050 -0.051220 
#    y -0.024050 2.020420 -0.034610 
#    z -0.051220 -0.034610 2.002160 
# 
# From -- ./inp_files/126948.got.cif
#   From: 2010.05.17/outbox.cif.g08.bks.cpg/sg2_64_cif.got.tgz:126948.got - 2010.06.03 11:33:40.
