data_PCOD9065884
_publ_section_title
;
Structure prediction by ZEFSAII (Michael W. Deem and Ramdas Pophale) SiO2 
 PCOD9065884
Probable space group: P -1
;
_chemical_formula_sum "Si O2"
_cell_formula_units_Z 16
_cell_length_a 19.727408
_cell_length_b 16.772882
_cell_length_c 8.980745
_cell_angle_alpha 31.321098
_cell_angle_beta 150.121824
_cell_angle_gamma 150.584849
_cell_volume 664.908187
_symmetry_space_group_name_H-M "P -1"
_symmetry_group_IT_number 2
_symmetry_cell_setting 'triclinic'
loop_
_space_group_symop_operation_xyz
x,y,z
-x,-y,-z
loop_
_atom_site_type_symbol
_atom_site_label
_atom_site_fract_x
_atom_site_fract_y
_atom_site_fract_z
Si Si1 0.055690 0.489136 0.282604
Si Si2 0.837640 0.387686 0.286090
Si Si3 0.225501 0.905114 0.957577
Si Si4 0.918193 0.932018 0.790031
Si Si5 0.514056 0.101636 0.711688
Si Si6 0.356427 0.461214 0.183706
Si Si7 0.770043 0.026998 0.818777
Si Si8 0.371576 0.541697 0.758268
O O1 0.181308 0.422371 0.612481
O O2 0.900006 0.372096 0.269165
O O3 0.141627 0.694947 0.173556
O O4 0.000000 0.500000 0.000000
O O5 0.745830 0.195025 0.487345
O O6 0.000000 0.500000 0.500000
O O7 0.746359 0.489542 0.982873
O O8 0.125532 0.935405 0.591586
O O9 0.396501 0.960846 0.130896
O O10 0.244624 0.016295 0.965823
O O11 0.755269 0.741694 0.764160
O O12 0.055969 0.923287 0.976289
O O13 0.000000 0.000000 0.000000
O O14 0.625232 0.313702 0.581513
O O15 0.358513 0.093334 0.357140
O O16 0.500000 0.000000 0.000000
O O17 0.500000 0.500000 0.500000
O O18 0.415657 0.581770 0.953953
O O19 0.500000 0.500000 0.000000
#
# Coordination Sequence:
#
# PCOD9065884 Si02
#       8
#     2   2   2   2   2   2   2   2
#     4  11  25  43  73 105 140 191 246 302 374 436
#     4  12  22  49  74 101 142 188 253 305 363 446
#     4  11  25  45  70 102 144 192 244 303 366 448
#     4  12  28  47  73 110 151 191 242 309 378 444
#     4  11  27  46  71 105 146 199 242 302 378 439
#     4  12  29  49  78 110 147 198 252 309 378 440
#     4  12  25  45  76 103 144 191 247 308 372 441
#     4  11  27  47  70 109 150 191 250 308 368 445
#
# _framework density 24.063472000000001
#
# number of rings (size 3 to 8) (size 9 to 14) (size 15 to 20)
#    0.000    0.500    3.750    2.250   15.750    0.000 
#    0.000    0.000    0.000    0.000    0.000    0.000 
#    0.000    0.000    0.000    0.000    0.000    0.000 
#
# Total GULP energy -89251.803945 kJ/mol
# GULP energy per Si atom -5578.237747 kJ/mol
# Density = 2.400870 g / cm^3
# Si number density = 24.063472 Si / 1000 Ang^3
#
#
#
# Elastic Constant Matrix: (Units=GPa)
#
#
# Indices 1 2 3 4 5 6 
#
# 1 154.5546 16.5775 69.8575 17.2351 -9.1733 2.3247
# 2 16.5775 82.0589 34.5346 12.6650 2.5318 5.2101
# 3 69.8575 34.5346 149.6832 31.7548 5.4828 16.4024
# 4 17.2351 12.6650 31.7548 46.7379 3.5167 -1.7579
# 5 -9.1733 2.5318 5.4828 3.5167 51.5408 -2.8549
# 6 2.3247 5.2101 16.4024 -1.7579 -2.8549 13.9487
#
#
#
# Elastic Compliance Matrix: (Units=1/GPa)
#
#
# Indices 1 2 3 4 5 6 
#
# 1 0.008614 -0.000174 -0.004537 -0.000051 0.002273 0.004423
# 2 -0.000174 0.013714 -0.002309 -0.002152 -0.000464 -0.002745
# 3 -0.004537 -0.002309 0.012337 -0.006440 -0.002353 -0.014182
# 4 -0.000051 -0.002152 -0.006440 0.026843 -0.000403 0.011686
# 5 0.002273 -0.000464 -0.002353 -0.000403 0.020478 0.006702
# 6 0.004423 -0.002745 -0.014182 0.011686 0.006702 0.091501
#
#
# Mechanical properties :
#
#
# Convention : Reuss Voigt Hill
#
# Bulk Modulus (GPa) = 48.48225 69.80399 59.14312
# Shear Modulus (GPa) = 25.72000 40.13394 32.92697
#
# Velocity S-wave (km/s) = 3.27286 4.08835 3.70312
# Velocity P-wave (km/s) = 5.87142 7.16640 6.55099
#
# Compressibility (1/GPa) = 0.02062611
#
# Stress axis : x y z
#
# Youngs Moduli (GPa) = 116.09555 72.91937 81.05491
#
# Poissons Ratio (x) = 0.01267 0.36774
# Poissons Ratio (y) = 0.02017 0.18712
# Poissons Ratio (z) = 0.52672 0.16834
#
# Static dielectric constant tensor:
#      x y z
#    x 1.821010 -0.036210 -0.097200 
#    y -0.036210 2.147670 -0.058740 
#    z -0.097200 -0.058740 1.898470 
# 
# From -- ./inp_files/348788.got.cif
#   From: 2010.05.17/outbox.cif.g08.bks.cpg/sg2_175_cif.got.tgz:348788.got - 2010.06.03 11:33:40.
