data_PCOD9065607
_publ_section_title
;
Structure prediction by ZEFSAII (Michael W. Deem and Ramdas Pophale) SiO2 
 PCOD9065607
Probable space group: P -1
;
_chemical_formula_sum "Si O2"
_cell_formula_units_Z 12
_cell_length_a 21.484370
_cell_length_b 5.182642
_cell_length_c 21.762864
_cell_angle_alpha 58.652474
_cell_angle_beta 167.136223
_cell_angle_gamma 122.321836
_cell_volume 455.891104
_symmetry_space_group_name_H-M "P -1"
_symmetry_group_IT_number 2
_symmetry_cell_setting 'triclinic'
loop_
_space_group_symop_operation_xyz
x,y,z
-x,-y,-z
loop_
_atom_site_type_symbol
_atom_site_label
_atom_site_fract_x
_atom_site_fract_y
_atom_site_fract_z
Si Si1 0.256994 0.856891 0.739121
Si Si2 0.937261 0.273346 0.557917
Si Si3 0.957530 0.671563 0.138455
Si Si4 0.703574 0.805732 0.754534
Si Si5 0.617859 0.765549 0.909390
Si Si6 0.641484 0.771489 0.483711
O O1 0.172974 0.499649 0.719013
O O2 0.249473 0.907839 0.652855
O O3 0.000000 0.000000 0.500000
O O4 0.500000 0.000000 0.000000
O O5 0.681941 0.400963 0.332544
O O6 0.137279 0.141535 0.815984
O O7 0.148465 0.441598 0.319659
O O8 0.737111 0.765429 0.864960
O O9 0.522053 0.054069 0.745985
O O10 0.771555 0.571849 0.032168
O O11 0.587582 0.453718 0.669442
O O12 0.500000 0.000000 0.500000
O O13 0.000000 0.000000 0.000000
O O14 0.166260 0.973286 0.323263
#
# Coordination Sequence:
#
# PCOD9065607 Si02
#       6
#     2   2   2   2   2   2
#     4  11  24  49  76 114 157 209 269 325 392 483
#     4  11  26  48  78 115 160 209 268 331 400 477
#     4  12  28  56  81 119 167 214 271 342 409 493
#     4  12  28  52  84 120 160 217 276 337 410 488
#     4  12  26  51  78 117 162 215 264 341 408 481
#     4  12  28  56  81 119 167 214 271 342 409 493
#
# _framework density 26.322075000000002
#
# number of rings (size 3 to 8) (size 9 to 14) (size 15 to 20)
#    0.000    0.333    3.333    4.000    0.000    5.333 
#   15.000    0.000    0.000    0.000    0.000    0.000 
#    0.000    0.000    0.000    0.000    0.000    0.000 
#
# Total GULP energy -67121.263429 kJ/mol
# GULP energy per Si atom -5593.438619 kJ/mol
# Density = 2.626216 g / cm^3
# Si number density = 26.322075 Si / 1000 Ang^3
#
#
#
# Elastic Constant Matrix: (Units=GPa)
#
#
# Indices 1 2 3 4 5 6 
#
# 1 96.9226 22.6137 51.1585 -5.7232 -21.5194 -12.0730
# 2 22.6137 99.6658 35.4525 7.2280 -17.0691 -18.3941
# 3 51.1585 35.4525 237.2513 5.5588 -35.9899 -11.9684
# 4 -5.7232 7.2280 5.5588 54.7371 10.9273 5.8743
# 5 -21.5194 -17.0691 -35.9899 10.9273 72.9511 -3.0028
# 6 -12.0730 -18.3941 -11.9684 5.8743 -3.0028 38.2154
#
#
#
# Elastic Compliance Matrix: (Units=1/GPa)
#
#
# Indices 1 2 3 4 5 6 
#
# 1 0.012630 -0.001281 -0.002051 0.000923 0.002390 0.002777
# 2 -0.001281 0.012399 -0.000779 -0.002897 0.002819 0.005986
# 3 -0.002051 -0.000779 0.005143 -0.001122 0.001956 0.000914
# 4 0.000923 -0.002897 -0.001122 0.020224 -0.004190 -0.004892
# 5 0.002390 0.002819 0.001956 -0.004190 0.016858 0.004693
# 6 0.002777 0.005986 0.000914 -0.004892 0.004693 0.031333
#
#
# Mechanical properties :
#
#
# Convention : Reuss Voigt Hill
#
# Bulk Modulus (GPa) = 45.55909 72.47656 59.01783
# Shear Modulus (GPa) = 43.81140 54.82172 49.31656
#
# Velocity S-wave (km/s) = 4.08418 4.56864 4.33318
# Velocity P-wave (km/s) = 6.29178 7.44475 6.89242
#
# Compressibility (1/GPa) = 0.02194952
#
# Stress axis : x y z
#
# Youngs Moduli (GPa) = 79.17612 80.65108 194.45307
#
# Poissons Ratio (x) = 0.10333 0.39881
# Poissons Ratio (y) = 0.10144 0.15148
# Poissons Ratio (z) = 0.16238 0.06283
#
# Static dielectric constant tensor:
#      x y z
#    x 2.187800 0.095260 0.042660 
#    y 0.095260 2.226100 0.031640 
#    z 0.042660 0.031640 2.007210 
# 
# From -- ./inp_files/621015.got.cif
#   From: 2010.05.17/outbox.cif.g08.bks.cpg/sg2_311_cif.got.tgz:621015.got - 2010.06.03 11:33:40.
