data_PCOD9065946
_publ_section_title
;
Structure prediction by ZEFSAII (Michael W. Deem and Ramdas Pophale) SiO2 
 PCOD9065946
Probable space group: P -1
;
_chemical_formula_sum "Si O2"
_cell_formula_units_Z 14
_cell_length_a 8.677647
_cell_length_b 9.287397
_cell_length_c 12.710118
_cell_angle_alpha 126.061688
_cell_angle_beta 118.687025
_cell_angle_gamma 80.302392
_cell_volume 716.954161
_symmetry_space_group_name_H-M "P -1"
_symmetry_group_IT_number 2
_symmetry_cell_setting 'triclinic'
loop_
_space_group_symop_operation_xyz
x,y,z
-x,-y,-z
loop_
_atom_site_type_symbol
_atom_site_label
_atom_site_fract_x
_atom_site_fract_y
_atom_site_fract_z
Si Si1 0.515001 0.299980 0.880292
Si Si2 0.172832 0.998819 0.628105
Si Si3 0.153525 0.667258 0.146458
Si Si4 0.369193 0.993549 0.055757
Si Si5 0.020714 0.986792 0.807023
Si Si6 0.679949 0.729600 0.657699
Si Si7 0.312622 0.669718 0.428994
O O1 0.325422 0.174969 0.737823
O O2 0.657784 0.330545 0.846970
O O3 0.598249 0.182081 0.944616
O O4 0.500000 0.500000 0.000000
O O5 0.112913 0.985692 0.723533
O O6 0.250141 0.818964 0.547217
O O7 0.000000 0.000000 0.500000
O O8 0.201885 0.674612 0.288344
O O9 0.072866 0.837175 0.150314
O O10 0.000000 0.500000 0.000000
O O11 0.384421 0.159575 0.215958
O O12 0.172183 0.985734 0.942553
O O13 0.500000 0.000000 0.000000
O O14 0.863096 0.826681 0.711621
O O15 0.526578 0.723161 0.516414
O O16 0.707286 0.531487 0.618041
#
# Coordination Sequence:
#
# PCOD9065946 Si02
#       7
#     2   2   2   2   2   2   2
#     4  12  28  47  70 106 139 183 233 287 353 414
#     4  12  25  46  70 102 145 180 230 289 348 416
#     4  12  26  44  72 102 138 184 238 286 345 417
#     4  12  24  45  70  97 141 175 229 287 346 409
#     4  12  24  43  72  98 135 183 231 284 351 403
#     4  11  25  44  69 102 133 184 231 288 345 413
#     4  11  25  45  69  97 142 180 231 287 350 411
#
# _framework density 19.527051
#
# number of rings (size 3 to 8) (size 9 to 14) (size 15 to 20)
#    0.000    0.286    5.714    2.143    6.000    1.714 
#    0.000    0.000    0.000    0.000    0.000    0.000 
#    0.000    0.000    0.000    0.000    0.000    0.000 
#
# Total GULP energy -78211.056040 kJ/mol
# GULP energy per Si atom -5586.504003 kJ/mol
# Density = 1.948261 g / cm^3
# Si number density = 19.527051 Si / 1000 Ang^3
#
#
#
# Elastic Constant Matrix: (Units=GPa)
#
#
# Indices 1 2 3 4 5 6 
#
# 1 123.0928 25.1090 57.2704 24.8559 19.4770 2.4775
# 2 25.1090 84.7868 44.8243 22.2704 18.0689 -31.2265
# 3 57.2704 44.8243 122.6243 12.2635 31.9123 -5.6053
# 4 24.8559 22.2704 12.2635 42.9497 -18.0499 1.7820
# 5 19.4770 18.0689 31.9123 -18.0499 46.5274 -2.8943
# 6 2.4775 -31.2265 -5.6053 1.7820 -2.8943 40.5068
#
#
#
# Elastic Compliance Matrix: (Units=1/GPa)
#
#
# Indices 1 2 3 4 5 6 
#
# 1 0.012992 0.003926 -0.003862 -0.012293 -0.008984 0.001596
# 2 0.003926 0.034964 -0.004918 -0.029120 -0.021542 0.025774
# 3 -0.003862 -0.004918 0.013551 -0.001764 -0.006581 -0.002072
# 4 -0.012293 -0.029120 -0.001764 0.064230 0.041225 -0.021821
# 5 -0.008984 -0.021542 -0.006581 0.041225 0.053194 -0.014981
# 6 0.001596 0.025774 -0.002072 -0.021821 -0.014981 0.044062
#
#
# Mechanical properties :
#
#
# Convention : Reuss Voigt Hill
#
# Bulk Modulus (GPa) = 19.30579 64.99015 42.14797
# Shear Modulus (GPa) = 20.00269 39.55012 29.77641
#
# Velocity S-wave (km/s) = 3.20403 4.50533 3.90921
# Velocity P-wave (km/s) = 4.85756 7.77292 6.48129
#
# Compressibility (1/GPa) = 0.05179794
#
# Stress axis : x y z
#
# Youngs Moduli (GPa) = 76.97115 28.60118 73.79693
#
# Poissons Ratio (x) = -0.11229 0.28504
# Poissons Ratio (y) = -0.30218 0.36290
# Poissons Ratio (z) = 0.29730 0.14065
#
# Static dielectric constant tensor:
#      x y z
#    x 1.513070 -0.124270 -0.109460 
#    y -0.124270 1.576380 -0.067090 
#    z -0.109460 -0.067090 1.662000 
# 
# From -- ./inp_files/156661.got.cif
#   From: 2010.05.17/outbox.cif.g08.bks.cpg/sg2_79_cif.got.tgz:156661.got - 2010.06.03 11:33:40.
