data_PCOD9065536
_publ_section_title
;
Structure prediction by ZEFSAII (Michael W. Deem and Ramdas Pophale) SiO2 
 PCOD9065536
Probable space group: P -1
;
_chemical_formula_sum "Si O2"
_cell_formula_units_Z 15
_cell_length_a 16.774471
_cell_length_b 9.102398
_cell_length_c 9.998120
_cell_angle_alpha 40.654442
_cell_angle_beta 127.391523
_cell_angle_gamma 101.955826
_cell_volume 688.903286
_symmetry_space_group_name_H-M "P -1"
_symmetry_group_IT_number 2
_symmetry_cell_setting 'triclinic'
loop_
_space_group_symop_operation_xyz
x,y,z
-x,-y,-z
loop_
_atom_site_type_symbol
_atom_site_label
_atom_site_fract_x
_atom_site_fract_y
_atom_site_fract_z
Si Si1 0.701509 0.290885 0.343490
Si Si2 0.509824 0.609396 0.292334
Si Si3 0.148452 0.155364 0.361990
Si Si4 0.071487 0.467390 0.792689
Si Si5 0.834230 0.546121 0.382508
Si Si6 0.486552 0.757318 0.685622
Si Si7 0.312032 0.200209 0.696593
Si Si8 0.000000 0.000000 0.500000
O O1 0.797833 0.323409 0.497911
O O2 0.638374 0.150035 0.443426
O O3 0.757672 0.142668 0.367054
O O4 0.592478 0.575823 0.015549
O O5 0.500000 0.500000 0.500000
O O6 0.502937 0.424051 0.302287
O O7 0.626047 0.627925 0.379497
O O8 0.407415 0.903849 0.973995
O O9 0.209543 0.272520 0.437246
O O10 0.046167 0.149696 0.341270
O O11 0.117373 0.292171 0.092308
O O12 0.158790 0.382915 0.813645
O O13 0.958298 0.461295 0.629715
O O14 0.037290 0.760089 0.595192
O O15 0.740981 0.764963 0.233214
O O16 0.500000 0.000000 0.500000
#
# Coordination Sequence:
#
# PCOD9065536 Si02
#       8
#     2   2   2   2   2   2   2   1
#     4  11  25  45  68  99 141 183 231 287 351 419
#     4  11  26  43  69 107 137 186 234 288 351 428
#     4  12  26  47  73 102 140 192 229 294 355 421
#     4  11  27  47  72 104 140 183 243 289 355 420
#     4  11  24  49  68 103 143 183 232 303 341 421
#     4  11  26  43  68 104 140 181 234 284 348 431
#     4  11  25  47  71 100 151 178 235 295 353 416
#     4  12  24  46  68 104 140 176 240 288 342 428
#
# _framework density 21.773737000000001
#
# number of rings (size 3 to 8) (size 9 to 14) (size 15 to 20)
#    0.000    0.800    5.333    0.400    5.600    1.600 
#    0.000    0.000    0.000    0.000    0.000    0.000 
#    0.000    0.000    0.000    0.000    0.000    0.000 
#
# Total GULP energy -83586.750882 kJ/mol
# GULP energy per Si atom -5572.450059 kJ/mol
# Density = 2.172418 g / cm^3
# Si number density = 21.773737 Si / 1000 Ang^3
#
#
#
# Elastic Constant Matrix: (Units=GPa)
#
#
# Indices 1 2 3 4 5 6 
#
# 1 162.7505 63.6213 44.6469 9.3819 -27.0643 3.4019
# 2 63.6213 134.8631 33.8954 7.5490 -7.7860 15.0912
# 3 44.6469 33.8954 73.6545 14.7611 -21.6711 21.4735
# 4 9.3819 7.5490 14.7611 30.5269 -4.7223 -7.6893
# 5 -27.0643 -7.7860 -21.6711 -4.7223 27.7169 -3.6600
# 6 3.4019 15.0912 21.4735 -7.6893 -3.6600 52.3115
#
#
#
# Elastic Compliance Matrix: (Units=1/GPa)
#
#
# Indices 1 2 3 4 5 6 
#
# 1 0.009295 -0.003575 -0.003034 0.001017 0.006170 0.002254
# 2 -0.003575 0.009826 -0.002475 -0.001112 -0.003115 -0.001968
# 3 -0.003034 -0.002475 0.025778 -0.011516 0.013156 -0.010443
# 4 0.001017 -0.001112 -0.011516 0.041088 0.000134 0.011031
# 5 0.006170 -0.003115 0.013156 0.000134 0.051368 -0.001290
# 6 0.002254 -0.001968 -0.010443 0.011031 -0.001290 0.025355
#
#
# Mechanical properties :
#
#
# Convention : Reuss Voigt Hill
#
# Bulk Modulus (GPa) = 37.41003 72.84392 55.12698
# Shear Modulus (GPa) = 26.34516 37.38471 31.86494
#
# Velocity S-wave (km/s) = 3.48221 4.14812 3.82967
# Velocity P-wave (km/s) = 5.77809 7.51466 6.70285
#
# Compressibility (1/GPa) = 0.02673080
#
# Stress axis : x y z
#
# Youngs Moduli (GPa) = 107.59000 101.77086 38.79207
#
# Poissons Ratio (x) = 0.36383 0.11771
# Poissons Ratio (y) = 0.38463 0.09600
# Poissons Ratio (z) = 0.32647 0.25186
#
# Static dielectric constant tensor:
#      x y z
#    x 1.811900 -0.028040 0.019290 
#    y -0.028040 1.796350 0.003650 
#    z 0.019290 0.003650 1.808470 
# 
# From -- ./inp_files/328351.got.cif
#   From: 2010.05.17/outbox.cif.g08.bks.cpg/sg2_165_cif.got.tgz:328351.got - 2010.06.03 11:33:40.
