data_PCOD9065798
_publ_section_title
;
Structure prediction by ZEFSAII (Michael W. Deem and Ramdas Pophale) SiO2 
 PCOD9065798
Probable space group: P -1
;
_chemical_formula_sum "Si O2"
_cell_formula_units_Z 16
_cell_length_a 11.611927
_cell_length_b 14.473744
_cell_length_c 12.820325
_cell_angle_alpha 50.804143
_cell_angle_beta 117.925196
_cell_angle_gamma 151.346053
_cell_volume 778.860274
_symmetry_space_group_name_H-M "P -1"
_symmetry_group_IT_number 2
_symmetry_cell_setting 'triclinic'
loop_
_space_group_symop_operation_xyz
x,y,z
-x,-y,-z
loop_
_atom_site_type_symbol
_atom_site_label
_atom_site_fract_x
_atom_site_fract_y
_atom_site_fract_z
Si Si1 0.111245 0.492745 0.132118
Si Si2 0.423250 0.821088 0.310370
Si Si3 0.339460 0.289760 0.215406
Si Si4 0.898977 0.331082 0.383879
Si Si5 0.086420 0.872603 0.815604
Si Si6 0.715750 0.800255 0.988140
Si Si7 0.489277 0.155729 0.433452
Si Si8 0.641545 0.972935 0.974030
O O1 0.951223 0.364916 0.259127
O O2 0.090874 0.353590 0.161910
O O3 0.387919 0.749312 0.087916
O O4 0.000000 0.500000 0.000000
O O5 0.469671 0.869594 0.417898
O O6 0.169182 0.551946 0.387873
O O7 0.655772 0.935343 0.274354
O O8 0.380448 0.915353 0.168532
O O9 0.534947 0.550463 0.122798
O O10 0.431781 0.249599 0.349206
O O11 0.065777 0.123808 0.245764
O O12 0.321663 0.230002 0.130882
O O13 0.727704 0.310522 0.354979
O O14 0.748353 0.100548 0.526183
O O15 0.143489 0.872181 0.958453
O O16 0.652938 0.877457 0.960768
O O17 0.000000 0.000000 0.000000
#
# Coordination Sequence:
#
# PCOD9065798 Si02
#       8
#     2   2   2   2   2   2   2   2
#     4  12  22  39  68  99 134 172 217 284 338 384
#     4  12  25  43  70 103 132 176 225 278 337 394
#     4  11  27  44  67  98 137 180 223 269 332 411
#     4  11  25  44  66  98 132 178 228 270 336 391
#     4  12  23  42  64 102 134 169 224 275 337 394
#     4  11  25  43  67 100 134 178 221 273 338 396
#     4  11  27  47  65  96 140 181 222 272 328 407
#     4  12  24  41  71 103 136 168 224 289 335 391
#
# _framework density 20.542838
#
# number of rings (size 3 to 8) (size 9 to 14) (size 15 to 20)
#    0.000    0.500    6.250    1.500    7.000    1.500 
#    0.000    0.625    0.000    0.000    0.000    0.000 
#    0.000    0.000    0.000    0.000    0.000    0.000 
#
# Total GULP energy -89400.535857 kJ/mol
# GULP energy per Si atom -5587.533491 kJ/mol
# Density = 2.049608 g / cm^3
# Si number density = 20.542838 Si / 1000 Ang^3
#
#
#
# Elastic Constant Matrix: (Units=GPa)
#
#
# Indices 1 2 3 4 5 6 
#
# 1 133.0722 14.3465 35.2411 -0.2268 -3.9079 0.4878
# 2 14.3465 100.2275 19.5916 -5.5093 -6.6060 -0.3265
# 3 35.2411 19.5916 40.0004 -0.0061 -2.4192 -0.3139
# 4 -0.2268 -5.5093 -0.0061 20.1749 0.8290 -7.9866
# 5 -3.9079 -6.6060 -2.4192 0.8290 22.9851 5.2987
# 6 0.4878 -0.3265 -0.3139 -7.9866 5.2987 28.1309
#
#
#
# Elastic Compliance Matrix: (Units=1/GPa)
#
#
# Indices 1 2 3 4 5 6 
#
# 1 0.009832 0.000372 -0.008790 -0.000006 0.000957 -0.000446
# 2 0.000372 0.011391 -0.005751 0.003209 0.002500 0.000502
# 3 -0.008790 -0.005751 0.035602 -0.001744 0.000695 -0.000143
# 4 -0.000006 0.003209 -0.001744 0.057533 -0.005339 0.017358
# 5 0.000957 0.002500 0.000695 -0.005339 0.047041 -0.010356
# 6 -0.000446 0.000502 -0.000143 0.017358 -0.010356 0.042439
#
#
# Mechanical properties :
#
#
# Convention : Reuss Voigt Hill
#
# Bulk Modulus (GPa) = 35.10497 45.73981 40.42239
# Shear Modulus (GPa) = 20.68923 27.86625 24.27774
#
# Velocity S-wave (km/s) = 3.17697 3.68706 3.44148
# Velocity P-wave (km/s) = 5.53021 6.35923 5.95915
#
# Compressibility (1/GPa) = 0.02848600
#
# Stress axis : x y z
#
# Youngs Moduli (GPa) = 101.70643 87.78793 28.08850
#
# Poissons Ratio (x) = -0.03267 0.24691
# Poissons Ratio (y) = -0.03785 0.16155
# Poissons Ratio (z) = 0.89403 0.50490
#
# Static dielectric constant tensor:
#      x y z
#    x 1.746640 -0.004040 -0.011650 
#    y -0.004040 1.745050 -0.006580 
#    z -0.011650 -0.006580 1.705840 
# 
# From -- ./inp_files/432620.got.cif
#   From: 2010.05.17/outbox.cif.g08.bks.cpg/sg2_217_cif.got.tgz:432620.got - 2010.06.03 11:33:40.
