data_PCOD9065652
_publ_section_title
;
Structure prediction by ZEFSAII (Michael W. Deem and Ramdas Pophale) SiO2 
 PCOD9065652
Probable space group: P -1
;
_chemical_formula_sum "Si O2"
_cell_formula_units_Z 16
_cell_length_a 20.614621
_cell_length_b 6.823346
_cell_length_c 8.933173
_cell_angle_alpha 122.282485
_cell_angle_beta 136.731737
_cell_angle_gamma 57.908065
_cell_volume 705.806497
_symmetry_space_group_name_H-M "P -1"
_symmetry_group_IT_number 2
_symmetry_cell_setting 'triclinic'
loop_
_space_group_symop_operation_xyz
x,y,z
-x,-y,-z
loop_
_atom_site_type_symbol
_atom_site_label
_atom_site_fract_x
_atom_site_fract_y
_atom_site_fract_z
Si Si1 0.216450 0.336385 0.350171
Si Si2 0.412729 0.969590 0.450672
Si Si3 0.874937 0.855313 0.137820
Si Si4 0.727353 0.222081 0.393038
Si Si5 0.203760 0.314472 0.789002
Si Si6 0.469661 0.776973 0.782232
Si Si7 0.345213 0.606390 0.994429
Si Si8 0.908973 0.370322 0.481132
O O1 0.212970 0.593646 0.374299
O O2 0.162690 0.431951 0.454046
O O3 0.331545 0.192880 0.479191
O O4 0.153908 0.183599 0.095430
O O5 0.467863 0.811783 0.615860
O O6 0.345590 0.836353 0.187941
O O7 0.500000 0.000000 0.500000
O O8 0.801883 0.742557 0.069201
O O9 0.985161 0.711299 0.302192
O O10 0.872161 0.127250 0.292954
O O11 0.637562 0.227703 0.351085
O O12 0.785297 0.948495 0.368075
O O13 0.686078 0.317104 0.196794
O O14 0.104517 0.497271 0.645875
O O15 0.286850 0.437417 0.915768
O O16 0.543573 0.544372 0.874864
O O17 0.500000 0.000000 0.000000
#
# Coordination Sequence:
#
# PCOD9065652 Si02
#       8
#     2   2   2   2   2   2   2   2
#     4  12  24  46  72 102 143 188 233 288 362 419
#     4  12  27  44  70 107 145 187 241 297 348 426
#     4  11  26  45  76 104 142 183 237 300 358 430
#     4  12  24  44  68 102 140 189 235 293 348 425
#     4  12  22  44  71 101 141 183 232 291 367 417
#     4  12  24  42  67 100 139 190 239 288 347 419
#     4  12  25  44  69  97 146 189 239 293 356 414
#     4  11  24  50  71 105 141 186 236 297 362 426
#
# _framework density 22.669103
#
# number of rings (size 3 to 8) (size 9 to 14) (size 15 to 20)
#    0.000    0.250    3.750    6.000    3.500    0.000 
#    2.250    0.625    0.000    0.000    0.000    0.000 
#    0.000    0.000    0.000    0.000    0.000    0.000 
#
# Total GULP energy -89372.016970 kJ/mol
# GULP energy per Si atom -5585.751061 kJ/mol
# Density = 2.261751 g / cm^3
# Si number density = 22.669103 Si / 1000 Ang^3
#
#
#
# Elastic Constant Matrix: (Units=GPa)
#
#
# Indices 1 2 3 4 5 6 
#
# 1 61.7891 21.4071 9.3708 6.9370 -14.2838 12.1174
# 2 21.4071 123.0331 20.7255 -2.3706 -12.4262 -3.5449
# 3 9.3708 20.7255 93.2365 10.5612 -11.2218 4.6810
# 4 6.9370 -2.3706 10.5612 39.7479 2.6776 -1.6557
# 5 -14.2838 -12.4262 -11.2218 2.6776 28.1272 3.6112
# 6 12.1174 -3.5449 4.6810 -1.6557 3.6112 38.5555
#
#
#
# Elastic Compliance Matrix: (Units=1/GPa)
#
#
# Indices 1 2 3 4 5 6 
#
# 1 0.022227 -0.003185 0.000969 -0.005494 0.011913 -0.008748
# 2 -0.003185 0.009215 -0.001853 0.001594 0.001303 0.002020
# 3 0.000969 -0.001853 0.012261 -0.004003 0.005284 -0.002631
# 4 -0.005494 0.001594 -0.004003 0.027915 -0.006879 0.004202
# 5 0.011913 0.001303 0.005284 -0.006879 0.046081 -0.008877
# 6 -0.008748 0.002020 -0.002631 0.004202 -0.008877 0.030203
#
#
# Mechanical properties :
#
#
# Convention : Reuss Voigt Hill
#
# Bulk Modulus (GPa) = 28.11789 42.34060 35.22925
# Shear Modulus (GPa) = 29.78049 36.38981 33.08515
#
# Velocity S-wave (km/s) = 3.62844 4.01092 3.82446
# Velocity P-wave (km/s) = 5.47582 6.33784 5.92253
#
# Compressibility (1/GPa) = 0.03556455
#
# Stress axis : x y z
#
# Youngs Moduli (GPa) = 44.99063 108.52057 81.55611
#
# Poissons Ratio (x) = 0.34568 -0.07906
# Poissons Ratio (y) = 0.14331 0.15116
# Poissons Ratio (z) = -0.04362 0.20113
#
# Static dielectric constant tensor:
#      x y z
#    x 1.851320 -0.082050 0.017510 
#    y -0.082050 1.827590 0.036290 
#    z 0.017510 0.036290 1.848970 
# 
# From -- ./inp_files/340701.got.cif
#   From: 2010.05.17/outbox.cif.g08.bks.cpg/sg2_171_cif.got.tgz:340701.got - 2010.06.03 11:33:40.
