data_PCOD9065375
_publ_section_title
;
Structure prediction by ZEFSAII (Michael W. Deem and Ramdas Pophale) SiO2 
 PCOD9065375
Probable space group: P -1
;
_chemical_formula_sum "Si O2"
_cell_formula_units_Z 13
_cell_length_a 14.931108
_cell_length_b 11.612023
_cell_length_c 13.228913
_cell_angle_alpha 40.488352
_cell_angle_beta 30.754129
_cell_angle_gamma 27.485016
_cell_volume 541.278549
_symmetry_space_group_name_H-M "P -1"
_symmetry_group_IT_number 2
_symmetry_cell_setting 'triclinic'
loop_
_space_group_symop_operation_xyz
x,y,z
-x,-y,-z
loop_
_atom_site_type_symbol
_atom_site_label
_atom_site_fract_x
_atom_site_fract_y
_atom_site_fract_z
Si Si1 0.205378 0.207698 0.742689
Si Si2 0.746832 0.970008 0.392440
Si Si3 0.546321 0.490444 0.306805
Si Si4 0.986469 0.306408 0.108231
Si Si5 0.098075 0.238226 0.412373
Si Si6 0.000000 0.000000 0.500000
Si Si7 0.468007 0.890834 0.010012
O O1 0.152281 0.115953 0.761466
O O2 0.101329 0.215765 0.945205
O O3 0.079094 0.484536 0.647292
O O4 0.498236 0.027926 0.591029
O O5 0.937076 0.777296 0.424652
O O6 0.651826 0.230699 0.341592
O O7 0.256703 0.702012 0.459514
O O8 0.583631 0.619973 0.101344
O O9 0.709097 0.442445 0.274489
O O10 0.174940 0.068771 0.158690
O O11 0.000000 0.500000 0.000000
O O12 0.376166 0.120709 0.217122
O O13 0.091418 0.071515 0.459071
O O14 0.500000 0.000000 0.000000
#
# Coordination Sequence:
#
# PCOD9065375 Si02
#       7
#     2   2   2   2   2   1   2
#     4  11  24  48  72 101 145 188 247 278 355 433
#     4  11  27  45  72 104 141 197 232 296 347 423
#     4  12  27  44  69 106 148 177 242 294 360 416
#     4  12  24  43  75 103 140 190 231 294 364 421
#     4  12  23  46  73 102 143 186 237 291 356 420
#     4  12  26  42  70 108 144 174 240 308 344 410
#     4  12  23  44  67 104 140 185 229 289 361 428
#
# _framework density 24.017209999999999
#
# number of rings (size 3 to 8) (size 9 to 14) (size 15 to 20)
#    0.000    0.308    7.692    0.462    2.154    1.231 
#    0.000    0.769    0.000    0.000    0.000    0.000 
#    0.000    0.000    0.000    0.000    0.000    0.000 
#
# Total GULP energy -72575.433238 kJ/mol
# GULP energy per Si atom -5582.725634 kJ/mol
# Density = 2.396255 g / cm^3
# Si number density = 24.017210 Si / 1000 Ang^3
#
#
#
# Elastic Constant Matrix: (Units=GPa)
#
#
# Indices 1 2 3 4 5 6 
#
# 1 148.1054 27.1246 30.8889 -0.7098 0.9569 -13.2802
# 2 27.1246 72.5703 -8.2247 -1.7415 -9.1861 -17.0087
# 3 30.8889 -8.2247 56.3739 17.3563 -18.8817 -9.5072
# 4 -0.7098 -1.7415 17.3563 39.2371 -4.7209 -4.7077
# 5 0.9569 -9.1861 -18.8817 -4.7209 44.9252 5.0756
# 6 -13.2802 -17.0087 -9.5072 -4.7077 5.0756 44.3798
#
#
#
# Elastic Compliance Matrix: (Units=1/GPa)
#
#
# Indices 1 2 3 4 5 6 
#
# 1 0.009436 -0.004957 -0.008321 0.003101 -0.004383 -0.000029
# 2 -0.004957 0.019204 0.009623 -0.001807 0.007103 0.006934
# 3 -0.008321 0.009623 0.033046 -0.011991 0.014165 0.005385
# 4 0.003101 -0.001807 -0.011991 0.030621 -0.002392 0.001188
# 5 -0.004383 0.007103 0.014165 -0.002392 0.029414 0.000828
# 6 -0.000029 0.006934 0.005385 0.001188 0.000828 0.026367
#
#
# Mechanical properties :
#
#
# Convention : Reuss Voigt Hill
#
# Bulk Modulus (GPa) = 18.39025 41.84746 30.11885
# Shear Modulus (GPa) = 28.81480 40.85914 34.83697
#
# Velocity S-wave (km/s) = 3.46751 4.12909 3.81268
# Velocity P-wave (km/s) = 4.86880 6.33990 5.65241
#
# Compressibility (1/GPa) = 0.05437665
#
# Stress axis : x y z
#
# Youngs Moduli (GPa) = 105.98028 52.07244 30.26073
#
# Poissons Ratio (x) = 0.25811 0.25179
# Poissons Ratio (y) = 0.52533 -0.29119
# Poissons Ratio (z) = 0.88182 -0.50108
#
# Static dielectric constant tensor:
#      x y z
#    x 1.947850 -0.061700 0.125170 
#    y -0.061700 1.873650 -0.033280 
#    z 0.125170 -0.033280 2.207830 
# 
# From -- ./inp_files/530935.got.cif
#   From: 2010.05.17/outbox.cif.g08.bks.cpg/sg2_266_cif.got.tgz:530935.got - 2010.06.03 11:33:40.
