data_PCOD9065917
_publ_section_title
;
Structure prediction by ZEFSAII (Michael W. Deem and Ramdas Pophale) SiO2 
 PCOD9065917
Probable space group: P -1
;
_chemical_formula_sum "Si O2"
_cell_formula_units_Z 15
_cell_length_a 9.001610
_cell_length_b 6.545458
_cell_length_c 16.352979
_cell_angle_alpha 126.448947
_cell_angle_beta 101.970000
_cell_angle_gamma 96.622155
_cell_volume 722.508721
_symmetry_space_group_name_H-M "P -1"
_symmetry_group_IT_number 2
_symmetry_cell_setting 'triclinic'
loop_
_space_group_symop_operation_xyz
x,y,z
-x,-y,-z
loop_
_atom_site_type_symbol
_atom_site_label
_atom_site_fract_x
_atom_site_fract_y
_atom_site_fract_z
Si Si1 0.940999 0.759158 0.550735
Si Si2 0.340337 0.769847 0.201489
Si Si3 0.644109 0.657540 0.612351
Si Si4 0.000000 0.000000 0.000000
Si Si5 0.121723 0.319214 0.661042
Si Si6 0.148796 0.446101 0.248868
Si Si7 0.300660 0.837213 0.029367
Si Si8 0.444081 0.601677 0.845772
O O1 0.803753 0.741285 0.595767
O O2 0.873488 0.755653 0.450796
O O3 0.000000 0.500000 0.500000
O O4 0.077994 0.041953 0.640716
O O5 0.207459 0.626175 0.218151
O O6 0.277253 0.724877 0.091282
O O7 0.478589 0.634460 0.194876
O O8 0.395092 0.081156 0.299306
O O9 0.500000 0.500000 0.500000
O O10 0.700605 0.524315 0.666329
O O11 0.918201 0.850452 0.867291
O O12 0.135901 0.848038 0.974559
O O13 0.290297 0.517545 0.751671
O O14 0.982934 0.454002 0.695269
O O15 0.422886 0.136496 0.109707
O O16 0.383225 0.667199 0.942188
#
# Coordination Sequence:
#
# PCOD9065917 Si02
#       8
#     2   2   2   1   2   2   2   2
#     4  11  25  44  66 101 136 177 236 287 345 410
#     4  12  25  46  68 102 141 179 235 279 349 419
#     4  12  28  45  72 103 140 185 233 294 346 405
#     4  12  22  46  74 100 144 180 222 296 330 418
#     4  11  25  44  70  98 137 184 232 286 345 412
#     4  12  25  49  68 106 138 185 235 281 350 415
#     4  11  25  45  69 108 139 181 230 282 352 405
#     4  11  25  45  69 100 142 181 229 284 344 423
#
# _framework density 20.760994
#
# number of rings (size 3 to 8) (size 9 to 14) (size 15 to 20)
#    0.000    0.533    6.667    0.400    5.600    1.067 
#    2.400    0.000    0.000    0.000    0.000    0.000 
#    0.000    0.000    0.000    0.000    0.000    0.000 
#
# Total GULP energy -83593.717902 kJ/mol
# GULP energy per Si atom -5572.914527 kJ/mol
# Density = 2.071374 g / cm^3
# Si number density = 20.760994 Si / 1000 Ang^3
#
#
#
# Elastic Constant Matrix: (Units=GPa)
#
#
# Indices 1 2 3 4 5 6 
#
# 1 77.8865 15.5842 13.1856 -10.6456 -0.6606 -20.5996
# 2 15.5842 48.8979 4.0736 -11.0427 -0.5150 -5.8458
# 3 13.1856 4.0736 78.1478 -14.1647 2.9053 2.3701
# 4 -10.6456 -11.0427 -14.1647 37.6261 -6.8617 -18.7402
# 5 -0.6606 -0.5150 2.9053 -6.8617 42.4007 -1.7469
# 6 -20.5996 -5.8458 2.3701 -18.7402 -1.7469 34.9558
#
#
#
# Elastic Compliance Matrix: (Units=1/GPa)
#
#
# Indices 1 2 3 4 5 6 
#
# 1 0.021320 -0.000099 -0.001283 0.017283 0.004127 0.022107
# 2 -0.000099 0.025010 0.000782 0.013991 0.002996 0.011722
# 3 -0.001283 0.000782 0.014000 0.005955 0.000061 0.001621
# 4 0.017283 0.013991 0.005955 0.063275 0.012193 0.046653
# 5 0.004127 0.002996 0.000061 0.012193 0.026098 0.010770
# 6 0.022107 0.011722 0.001621 0.046653 0.010770 0.069035
#
#
# Mechanical properties :
#
#
# Convention : Reuss Voigt Hill
#
# Bulk Modulus (GPa) = 16.91195 30.06879 23.49037
# Shear Modulus (GPa) = 20.86397 34.46911 27.66654
#
# Velocity S-wave (km/s) = 3.17355 4.07908 3.65447
# Velocity P-wave (km/s) = 4.64675 6.05805 5.39871
#
# Compressibility (1/GPa) = 0.05912979
#
# Stress axis : x y z
#
# Youngs Moduli (GPa) = 46.90362 39.98480 71.42835
#
# Poissons Ratio (x) = 0.00394 0.09167
# Poissons Ratio (y) = 0.00463 -0.05586
# Poissons Ratio (z) = 0.06020 -0.03127
#
# Static dielectric constant tensor:
#      x y z
#    x 1.726130 0.014150 0.003890 
#    y 0.014150 1.763910 0.010850 
#    z 0.003890 0.010850 1.758640 
# 
# From -- ./inp_files/60668.got.cif
#   From: 2010.05.17/outbox.cif.g08.bks.cpg/sg2_31_cif.got.tgz:60668.got - 2010.06.03 11:33:40.
