data_PCOD9065553
_publ_section_title
;
Structure prediction by ZEFSAII (Michael W. Deem and Ramdas Pophale) SiO2 
 PCOD9065553
Probable space group: P -1
;
_chemical_formula_sum "Si O2"
_cell_formula_units_Z 15
_cell_length_a 5.492653
_cell_length_b 9.014513
_cell_length_c 11.854954
_cell_angle_alpha 71.713927
_cell_angle_beta 82.943960
_cell_angle_gamma 79.560379
_cell_volume 546.743595
_symmetry_space_group_name_H-M "P -1"
_symmetry_group_IT_number 2
_symmetry_cell_setting 'triclinic'
loop_
_space_group_symop_operation_xyz
x,y,z
-x,-y,-z
loop_
_atom_site_type_symbol
_atom_site_label
_atom_site_fract_x
_atom_site_fract_y
_atom_site_fract_z
Si Si1 0.000000 0.500000 0.000000
Si Si2 0.186103 0.808911 0.331938
Si Si3 0.586766 0.415155 0.329419
Si Si4 0.329585 0.969414 0.911730
Si Si5 0.638974 0.711760 0.812766
Si Si6 0.004262 0.881039 0.632457
Si Si7 0.292766 0.340818 0.570952
Si Si8 0.955143 0.254737 0.876764
O O1 0.008303 0.587014 0.102036
O O2 0.198920 0.352427 0.074144
O O3 0.450500 0.777769 0.387505
O O4 0.960527 0.728879 0.415983
O O5 0.225559 0.736223 0.222283
O O6 0.069749 0.994159 0.291514
O O7 0.509549 0.421322 0.200324
O O8 0.365926 0.424522 0.432164
O O9 0.741496 0.538520 0.349763
O O10 0.742595 0.238587 0.360119
O O11 0.466144 0.868190 0.827904
O O12 0.198119 0.142739 0.844274
O O13 0.147470 0.853000 0.996621
O O14 0.500000 0.000000 0.000000
O O15 0.801515 0.766033 0.689156
O O16 0.000000 0.000000 0.500000
#
# Coordination Sequence:
#
# PCOD9065553 Si02
#       8
#     1   2   2   2   2   2   2   2
#     4  12  28  50  72 114 150 198 264 320 388 468
#     4  12  27  48  78 116 157 211 262 322 405 470
#     4  11  27  48  78 111 158 208 259 332 401 471
#     4  11  24  49  71 105 149 204 262 325 390 465
#     4  12  28  48  81 110 158 207 264 329 395 469
#     4  12  27  49  80 116 157 205 268 327 395 477
#     4  11  28  48  78 117 161 204 261 329 399 483
#     4  11  27  44  75 107 152 201 263 327 389 471
#
# _framework density 27.435164
#
# number of rings (size 3 to 8) (size 9 to 14) (size 15 to 20)
#    0.000    0.533    2.667    3.200   13.067    2.667 
#    0.000    0.000    0.000    0.000    0.000    0.000 
#    0.000    0.000    0.000    0.000    0.000    0.000 
#
# Total GULP energy -83800.204840 kJ/mol
# GULP energy per Si atom -5586.680323 kJ/mol
# Density = 2.737272 g / cm^3
# Si number density = 27.435164 Si / 1000 Ang^3
#
#
#
# Elastic Constant Matrix: (Units=GPa)
#
#
# Indices 1 2 3 4 5 6 
#
# 1 106.6424 31.5212 21.7908 -5.8560 0.0547 -8.0254
# 2 31.5212 142.7249 14.2537 42.2031 6.9612 -15.7253
# 3 21.7908 14.2537 87.4752 20.4791 1.5290 -3.9302
# 4 -5.8560 42.2031 20.4791 61.5353 4.8660 7.6497
# 5 0.0547 6.9612 1.5290 4.8660 50.5122 -3.8394
# 6 -8.0254 -15.7253 -3.9302 7.6497 -3.8394 50.2135
#
#
#
# Elastic Compliance Matrix: (Units=1/GPa)
#
#
# Indices 1 2 3 4 5 6 
#
# 1 0.011363 -0.003598 -0.003357 0.004692 0.000112 -0.000280
# 2 -0.003598 0.010689 0.001365 -0.008617 -0.000364 0.004164
# 3 -0.003357 0.001365 0.013533 -0.006003 0.000127 0.001874
# 4 0.004692 -0.008617 -0.006003 0.025529 -0.001584 -0.006429
# 5 0.000112 -0.000364 0.000127 -0.001584 0.020125 0.001694
# 6 -0.000280 0.004164 0.001874 -0.006429 0.001694 0.022430
#
#
# Mechanical properties :
#
#
# Convention : Reuss Voigt Hill
#
# Bulk Modulus (GPa) = 40.97512 52.44155 46.70834
# Shear Modulus (GPa) = 40.65535 50.40398 45.52967
#
# Velocity S-wave (km/s) = 3.85368 4.29091 4.07816
# Velocity P-wave (km/s) = 5.89651 6.61101 6.26396
#
# Compressibility (1/GPa) = 0.02440505
#
# Stress axis : x y z
#
# Youngs Moduli (GPa) = 88.00288 93.55161 73.89323
#
# Poissons Ratio (x) = 0.33661 0.24809
# Poissons Ratio (y) = 0.31664 -0.10089
# Poissons Ratio (z) = 0.29547 -0.12773
#
# Static dielectric constant tensor:
#      x y z
#    x 2.283030 0.013510 -0.004800 
#    y 0.013510 2.089670 -0.008410 
#    z -0.004800 -0.008410 2.142780 
# 
# From -- ./inp_files/360647.got.cif
#   From: 2010.05.17/outbox.cif.g08.bks.cpg/sg2_181_cif.got.tgz:360647.got - 2010.06.03 11:33:40.
