data_PCOD9065693
_publ_section_title
;
Structure prediction by ZEFSAII (Michael W. Deem and Ramdas Pophale) SiO2 
 PCOD9065693
Probable space group: P -1
;
_chemical_formula_sum "Si O2"
_cell_formula_units_Z 16
_cell_length_a 9.349371
_cell_length_b 8.044025
_cell_length_c 11.518161
_cell_angle_alpha 71.790279
_cell_angle_beta 117.931764
_cell_angle_gamma 74.653239
_cell_volume 633.839354
_symmetry_space_group_name_H-M "P -1"
_symmetry_group_IT_number 2
_symmetry_cell_setting 'triclinic'
loop_
_space_group_symop_operation_xyz
x,y,z
-x,-y,-z
loop_
_atom_site_type_symbol
_atom_site_label
_atom_site_fract_x
_atom_site_fract_y
_atom_site_fract_z
Si Si1 0.885433 0.755099 0.814735
Si Si2 0.489693 0.016007 0.633987
Si Si3 0.572377 0.119602 0.138824
Si Si4 0.778081 0.721118 0.167347
Si Si5 0.486118 0.610804 0.352009
Si Si6 0.103944 0.634908 0.151912
Si Si7 0.849941 0.345184 0.412512
Si Si8 0.939355 0.046439 0.298839
O O1 0.859595 0.593220 0.764484
O O2 0.909591 0.919650 0.717258
O O3 0.698053 0.872469 0.787650
O O4 0.048452 0.661174 0.989928
O O5 0.389731 0.926227 0.697622
O O6 0.450834 0.228992 0.620223
O O7 0.500000 0.000000 0.500000
O O8 0.635608 0.900277 0.156806
O O9 0.736143 0.150819 0.141416
O O10 0.369065 0.281477 0.982501
O O11 0.877452 0.520559 0.326793
O O12 0.927210 0.756104 0.142869
O O13 0.500000 0.500000 0.500000
O O14 0.274099 0.678543 0.220424
O O15 0.638549 0.459686 0.352568
O O16 0.896242 0.186416 0.363454
O O17 0.981511 0.190039 0.595367
#
# Coordination Sequence:
#
# PCOD9065693 Si02
#       8
#     2   2   2   2   2   2   2   2
#     4  11  25  47  69 112 149 198 248 308 381 439
#     4  12  27  47  72 107 155 195 249 313 375 452
#     4  11  27  46  76 109 145 200 246 315 378 447
#     4  11  24  51  73 109 148 192 258 308 379 446
#     4  12  28  47  72 109 145 203 251 306 380 451
#     4  11  26  46  78 105 150 196 253 313 371 456
#     4  11  26  48  70 108 148 191 253 303 376 447
#     4  11  27  44  74 108 151 192 243 308 375 449
#
# _framework density 25.242989999999999
#
# number of rings (size 3 to 8) (size 9 to 14) (size 15 to 20)
#    0.000    0.750    3.750    1.500   12.250    2.500 
#    0.000    0.000    0.000    0.000    0.000    0.000 
#    0.000    0.000    0.000    0.000    0.000    0.000 
#
# Total GULP energy -89260.381181 kJ/mol
# GULP energy per Si atom -5578.773824 kJ/mol
# Density = 2.518554 g / cm^3
# Si number density = 25.242990 Si / 1000 Ang^3
#
#
#
# Elastic Constant Matrix: (Units=GPa)
#
#
# Indices 1 2 3 4 5 6 
#
# 1 110.2912 2.0793 18.2980 -3.0468 -6.9031 -6.2425
# 2 2.0793 73.1914 23.8911 -5.0801 -15.5054 0.8298
# 3 18.2980 23.8911 68.8656 5.3243 3.3159 3.3127
# 4 -3.0468 -5.0801 5.3243 25.0960 0.2955 2.7317
# 5 -6.9031 -15.5054 3.3159 0.2955 38.8140 -1.3607
# 6 -6.2425 0.8298 3.3127 2.7317 -1.3607 33.3292
#
#
#
# Elastic Compliance Matrix: (Units=1/GPa)
#
#
# Indices 1 2 3 4 5 6 
#
# 1 0.009985 0.001598 -0.003602 0.002035 0.002781 0.002135
# 2 0.001598 0.018180 -0.007561 0.005328 0.008170 0.000495
# 3 -0.003602 -0.007561 0.018898 -0.005684 -0.005306 -0.002115
# 4 0.002035 0.005328 -0.005684 0.042629 0.002561 -0.002576
# 5 0.002781 0.008170 -0.005306 0.002561 0.030021 0.001861
# 6 0.002135 0.000495 -0.002115 -0.002576 0.001861 0.030889
#
#
# Mechanical properties :
#
#
# Convention : Reuss Voigt Hill
#
# Bulk Modulus (GPa) = 35.79750 37.87612 36.83681
# Shear Modulus (GPa) = 27.92627 33.31982 30.62305
#
# Velocity S-wave (km/s) = 3.32971 3.63707 3.48678
# Velocity P-wave (km/s) = 5.38466 5.71620 5.55291
#
# Compressibility (1/GPa) = 0.02793491
#
# Stress axis : x y z
#
# Youngs Moduli (GPa) = 100.14559 55.00429 52.91608
#
# Poissons Ratio (x) = -0.08791 0.19058
# Poissons Ratio (y) = -0.16006 0.40010
# Poissons Ratio (z) = 0.36069 0.41589
#
# Static dielectric constant tensor:
#      x y z
#    x 1.959850 0.068360 -0.004520 
#    y 0.068360 2.126450 0.031640 
#    z -0.004520 0.031640 2.104030 
# 
# From -- ./inp_files/381747.got.cif
#   From: 2010.05.17/outbox.cif.g08.bks.cpg/sg2_191_cif.got.tgz:381747.got - 2010.06.03 11:33:40.
