data_PCOD9065906
_publ_section_title
;
Structure prediction by ZEFSAII (Michael W. Deem and Ramdas Pophale) SiO2 
 PCOD9065906
Probable space group: P -1
;
_chemical_formula_sum "Si O2"
_cell_formula_units_Z 10
_cell_length_a 7.689455
_cell_length_b 12.106489
_cell_length_c 9.919582
_cell_angle_alpha 35.019553
_cell_angle_beta 64.069794
_cell_angle_gamma 83.238164
_cell_volume 421.725181
_symmetry_space_group_name_H-M "P -1"
_symmetry_group_IT_number 2
_symmetry_cell_setting 'triclinic'
loop_
_space_group_symop_operation_xyz
x,y,z
-x,-y,-z
loop_
_atom_site_type_symbol
_atom_site_label
_atom_site_fract_x
_atom_site_fract_y
_atom_site_fract_z
Si Si1 0.381128 0.833456 0.359906
Si Si2 0.396416 0.753145 0.731073
Si Si3 0.739799 0.606181 0.662778
Si Si4 0.810693 0.520931 0.457101
Si Si5 0.815023 0.956744 0.953017
O O1 0.300960 0.743313 0.624819
O O2 0.284886 0.653297 0.454808
O O3 0.306491 0.013331 0.166512
O O4 0.643533 0.932934 0.154270
O O5 0.591480 0.692402 0.701376
O O6 0.500000 0.000000 0.500000
O O7 0.240468 0.573234 0.070347
O O8 0.644308 0.495595 0.661336
O O9 0.962396 0.821192 0.339094
O O10 0.000000 0.500000 0.500000
O O11 0.863669 0.753801 0.143295
#
# Coordination Sequence:
#
# PCOD9065906 Si02
#       5
#     2   2   2   2   2
#     4  11  26  45  74 107 141 183 242 290 354 419
#     4  11  28  47  71 101 150 191 230 289 357 419
#     4  11  26  46  72 106 142 188 237 285 358 420
#     4  12  25  44  79 104 141 183 241 297 348 416
#     4  11  25  43  76 107 139 181 243 291 349 414
#
# _framework density 23.712125
#
# number of rings (size 3 to 8) (size 9 to 14) (size 15 to 20)
#    0.000    0.800    4.000    1.200    8.400    2.400 
#    0.000    2.000    0.000    0.000    0.000    0.000 
#    0.000    0.000    0.000    0.000    0.000    0.000 
#
# Total GULP energy -55905.688313 kJ/mol
# GULP energy per Si atom -5590.568831 kJ/mol
# Density = 2.365816 g / cm^3
# Si number density = 23.712125 Si / 1000 Ang^3
#
#
#
# Elastic Constant Matrix: (Units=GPa)
#
#
# Indices 1 2 3 4 5 6 
#
# 1 104.0156 42.3259 60.6605 -21.4376 22.5998 -0.8492
# 2 42.3259 155.7783 88.9249 -17.8980 14.5631 16.1508
# 3 60.6605 88.9249 198.1089 -16.6681 41.5400 22.2047
# 4 -21.4376 -17.8980 -16.6681 39.5576 -2.6476 12.2745
# 5 22.5998 14.5631 41.5400 -2.6476 50.7011 -3.8413
# 6 -0.8492 16.1508 22.2047 12.2745 -3.8413 36.4257
#
#
#
# Elastic Compliance Matrix: (Units=1/GPa)
#
#
# Indices 1 2 3 4 5 6 
#
# 1 0.013377 -0.001391 -0.002342 0.005347 -0.003350 0.000201
# 2 -0.001391 0.009278 -0.003234 0.003098 0.000527 -0.003163
# 3 -0.002342 -0.003234 0.009346 0.002614 -0.005989 -0.005830
# 4 0.005347 0.003098 0.002614 0.035067 -0.004732 -0.015158
# 5 -0.003350 0.000527 -0.005989 -0.004732 0.026310 0.007708
# 6 0.000201 -0.003163 -0.005830 -0.015158 0.007708 0.038335
#
#
# Mechanical properties :
#
#
# Convention : Reuss Voigt Hill
#
# Bulk Modulus (GPa) = 55.34954 93.52504 74.43729
# Shear Modulus (GPa) = 32.96651 43.06965 38.01808
#
# Velocity S-wave (km/s) = 3.73269 4.26650 4.00849
# Velocity P-wave (km/s) = 6.47845 7.98737 7.27215
#
# Compressibility (1/GPa) = 0.01806700
#
# Stress axis : x y z
#
# Youngs Moduli (GPa) = 74.75364 107.78057 107.00154
#
# Poissons Ratio (x) = 0.14995 0.25059
# Poissons Ratio (y) = 0.10400 0.34603
# Poissons Ratio (z) = 0.17506 0.34855
#
# Static dielectric constant tensor:
#      x y z
#    x 2.010590 -0.028810 -0.005080 
#    y -0.028810 1.973120 0.018230 
#    z -0.005080 0.018230 1.951530 
# 
# From -- ./inp_files/148415.got.cif
#   From: 2010.05.17/outbox.cif.g08.bks.cpg/sg2_75_cif.got.tgz:148415.got - 2010.06.03 11:33:40.
