data_PCOD9065228
_publ_section_title
;
Structure prediction by ZEFSAII (Michael W. Deem and Ramdas Pophale) SiO2 
 PCOD9065228
Probable space group: P -1
;
_chemical_formula_sum "Si O2"
_cell_formula_units_Z 16
_cell_length_a 8.593514
_cell_length_b 24.420270
_cell_length_c 21.027844
_cell_angle_alpha 18.113646
_cell_angle_beta 29.555679
_cell_angle_gamma 31.188154
_cell_volume 664.784470
_symmetry_space_group_name_H-M "P -1"
_symmetry_group_IT_number 2
_symmetry_cell_setting 'triclinic'
loop_
_space_group_symop_operation_xyz
x,y,z
-x,-y,-z
loop_
_atom_site_type_symbol
_atom_site_label
_atom_site_fract_x
_atom_site_fract_y
_atom_site_fract_z
Si Si1 0.163107 0.737915 0.841924
Si Si2 0.148296 0.755053 0.332748
Si Si3 0.288395 0.052636 0.123797
Si Si4 0.070965 0.521485 0.378013
Si Si5 0.901327 0.709794 0.825376
Si Si6 0.831509 0.103716 0.112574
Si Si7 0.304057 0.739562 0.540029
Si Si8 0.881128 0.652481 0.670896
O O1 0.522785 0.770804 0.665100
O O2 0.946909 0.868542 0.822807
O O3 0.996521 0.724692 0.848112
O O4 0.180208 0.549137 0.080779
O O5 0.102420 0.604260 0.465162
O O6 0.101801 0.670046 0.512114
O O7 0.472865 0.824965 0.123031
O O8 0.877808 0.939372 0.227477
O O9 0.052267 0.024958 0.180818
O O10 0.474473 0.873338 0.290060
O O11 0.444927 0.433587 0.336980
O O12 0.000000 0.500000 0.500000
O O13 0.017287 0.727813 0.150380
O O14 0.532753 0.806961 0.840130
O O15 0.117691 0.810251 0.592041
O O16 0.000000 0.500000 0.000000
O O17 0.050038 0.690174 0.634421
#
# Coordination Sequence:
#
# PCOD9065228 Si02
#       8
#     2   2   2   2   2   2   2   2
#     4  11  26  45  76 111 147 198 256 312 381 452
#     4  12  29  49  79 113 157 200 256 313 381 455
#     4  12  29  48  75 113 151 199 260 312 375 458
#     4  12  29  48  76 109 155 203 250 310 384 451
#     4  12  25  47  75 110 151 199 253 316 383 452
#     4  12  27  50  78 111 153 200 253 315 377 453
#     4  12  26  48  76 107 152 194 252 316 374 449
#     4  11  24  47  75 108 149 197 252 312 376 448
#
# _framework density 24.067951000000001
#
# number of rings (size 3 to 8) (size 9 to 14) (size 15 to 20)
#    0.000    0.250    3.750    3.375   10.500    3.500 
#    0.000    0.000    0.000    0.000    0.000    0.000 
#    0.000    0.000    0.000    0.000    0.000    0.000 
#
# Total GULP energy -89545.001448 kJ/mol
# GULP energy per Si atom -5596.562590 kJ/mol
# Density = 2.401317 g / cm^3
# Si number density = 24.067951 Si / 1000 Ang^3
#
#
#
# Elastic Constant Matrix: (Units=GPa)
#
#
# Indices 1 2 3 4 5 6 
#
# 1 57.9185 -6.8369 11.3247 16.1923 1.2600 12.0070
# 2 -6.8369 53.4425 8.0573 22.4987 2.4235 13.6828
# 3 11.3247 8.0573 109.0437 9.8250 21.2525 9.0012
# 4 16.1923 22.4987 9.8250 47.5287 1.3348 5.4185
# 5 1.2600 2.4235 21.2525 1.3348 32.8956 0.4785
# 6 12.0070 13.6828 9.0012 5.4185 0.4785 37.3951
#
#
#
# Elastic Compliance Matrix: (Units=1/GPa)
#
#
# Indices 1 2 3 4 5 6 
#
# 1 0.024161 0.010813 -0.001397 -0.011956 -0.000194 -0.009643
# 2 0.010813 0.030256 -0.000610 -0.016473 -0.001406 -0.011990
# 3 -0.001397 -0.000610 0.010948 -0.001109 -0.006905 -0.001714
# 4 -0.011956 -0.016473 -0.001109 0.032496 0.000991 0.005412
# 5 -0.000194 -0.001406 -0.006905 0.000991 0.034907 0.001649
# 6 -0.009643 -0.011990 -0.001714 0.005412 0.001649 0.033832
#
#
# Mechanical properties :
#
#
# Convention : Reuss Voigt Hill
#
# Bulk Modulus (GPa) = 12.05188 27.27719 19.66454
# Shear Modulus (GPa) = 28.30498 37.42120 32.86309
#
# Velocity S-wave (km/s) = 3.43307 3.94739 3.69918
# Velocity P-wave (km/s) = 4.55334 5.66868 5.14134
#
# Compressibility (1/GPa) = 0.08297458
#
# Stress axis : x y z
#
# Youngs Moduli (GPa) = 41.38900 33.05164 91.34132
#
# Poissons Ratio (x) = -0.35737 0.12761
# Poissons Ratio (y) = -0.44752 0.05576
# Poissons Ratio (z) = 0.05783 0.02018
#
# Static dielectric constant tensor:
#      x y z
#    x 1.859750 -0.073430 -0.006640 
#    y -0.073430 2.321260 0.005360 
#    z -0.006640 0.005360 1.995630 
# 
# From -- ./inp_files/447680.got.cif
#   From: 2010.05.17/outbox.cif.g08.bks.cpg/sg2_224_cif.got.tgz:447680.got - 2010.06.03 11:33:40.
