data_PCOD9065077
_publ_section_title
;
Structure prediction by ZEFSAII (Michael W. Deem and Ramdas Pophale) SiO2 
 PCOD9065077
Probable space group: P -1
;
_chemical_formula_sum "Si O2"
_cell_formula_units_Z 16
_cell_length_a 11.761835
_cell_length_b 16.644652
_cell_length_c 9.063992
_cell_angle_alpha 130.057576
_cell_angle_beta 128.194020
_cell_angle_gamma 30.713322
_cell_volume 684.011826
_symmetry_space_group_name_H-M "P -1"
_symmetry_group_IT_number 2
_symmetry_cell_setting 'triclinic'
loop_
_space_group_symop_operation_xyz
x,y,z
-x,-y,-z
loop_
_atom_site_type_symbol
_atom_site_label
_atom_site_fract_x
_atom_site_fract_y
_atom_site_fract_z
Si Si1 0.893951 0.499444 0.276461
Si Si2 0.329483 0.758972 0.776481
Si Si3 0.076547 0.743328 0.371966
Si Si4 0.375081 0.986576 0.492407
Si Si5 0.586723 0.281162 0.858272
Si Si6 0.216060 0.434341 0.036279
Si Si7 0.682090 0.867166 0.865342
Si Si8 0.989480 0.885114 0.156331
O O1 0.672972 0.555329 0.209591
O O2 0.000000 0.500000 0.500000
O O3 0.108483 0.326511 0.164898
O O4 0.770285 0.623181 0.184476
O O5 0.279009 0.685054 0.553546
O O6 0.551457 0.704402 0.852502
O O7 0.116391 0.947939 0.786525
O O8 0.365242 0.717620 0.930135
O O9 0.167946 0.585566 0.186991
O O10 0.990486 0.861916 0.305048
O O11 0.869251 0.841492 0.436140
O O12 0.355561 0.876136 0.295703
O O13 0.540828 0.893535 0.654830
O O14 0.500000 0.000000 0.500000
O O15 0.756217 0.253262 0.860706
O O16 0.000000 0.500000 0.000000
O O17 0.823837 0.890685 0.959705
O O18 0.500000 0.000000 0.000000
#
# Coordination Sequence:
#
# PCOD9065077 Si02
#       8
#     2   2   2   2   2   2   2   2
#     4  11  24  47  71 103 143 187 242 299 363 434
#     4  11  26  45  71 103 144 190 240 292 371 434
#     4  12  26  47  71 106 144 194 245 299 371 432
#     4  12  26  43  71 104 142 188 247 300 363 436
#     4  11  26  47  70 107 145 187 244 298 368 437
#     4  11  27  47  70 103 145 191 241 302 364 435
#     4  12  25  45  73 107 147 186 244 303 364 430
#     4  12  25  45  75 108 145 188 242 309 363 440
#
# _framework density 23.391408999999999
#
# number of rings (size 3 to 8) (size 9 to 14) (size 15 to 20)
#    0.000    0.500    5.000    1.875    8.750    1.500 
#    0.000    0.000    0.000    0.000    0.000    0.000 
#    0.000    0.000    0.000    0.000    0.000    0.000 
#
# Total GULP energy -89280.320963 kJ/mol
# GULP energy per Si atom -5580.020060 kJ/mol
# Density = 2.333817 g / cm^3
# Si number density = 23.391409 Si / 1000 Ang^3
#
#
#
# Elastic Constant Matrix: (Units=GPa)
#
#
# Indices 1 2 3 4 5 6 
#
# 1 107.9318 33.0482 25.8383 -1.9371 10.2431 -37.3916
# 2 33.0482 117.1355 31.8853 -14.7997 -1.9538 -32.8245
# 3 25.8383 31.8853 149.7627 -29.2144 13.1617 2.9415
# 4 -1.9371 -14.7997 -29.2144 38.6729 -11.9612 5.8963
# 5 10.2431 -1.9538 13.1617 -11.9612 27.2441 -4.2603
# 6 -37.3916 -32.8245 2.9415 5.8963 -4.2603 45.1681
#
#
#
# Elastic Compliance Matrix: (Units=1/GPa)
#
#
# Indices 1 2 3 4 5 6 
#
# 1 0.014831 -0.000548 -0.003317 -0.005208 -0.004366 0.012364
# 2 -0.000548 0.012290 -0.002555 0.002957 0.004984 0.008728
# 3 -0.003317 -0.002555 0.009289 0.006316 -0.001618 -0.006185
# 4 -0.005208 0.002957 0.006316 0.036860 0.014359 -0.006032
# 5 -0.004366 0.004984 -0.001618 0.014359 0.046196 0.002596
# 6 0.012364 0.008728 -0.006185 -0.006032 0.002596 0.040153
#
#
# Mechanical properties :
#
#
# Convention : Reuss Voigt Hill
#
# Bulk Modulus (GPa) = 42.42561 61.81929 52.12245
# Shear Modulus (GPa) = 27.72922 41.15423 34.44173
#
# Velocity S-wave (km/s) = 3.44676 4.19904 3.84136
# Velocity P-wave (km/s) = 5.83240 7.07070 6.48119
#
# Compressibility (1/GPa) = 0.02357067
#
# Stress axis : x y z
#
# Youngs Moduli (GPa) = 67.42593 81.36907 107.65150
#
# Poissons Ratio (x) = 0.04455 0.35711
# Poissons Ratio (y) = 0.03692 0.27503
# Poissons Ratio (z) = 0.22367 0.20788
#
# Static dielectric constant tensor:
#      x y z
#    x 2.902040 -1.100890 -0.070960 
#    y -1.100890 3.277140 0.151040 
#    z -0.070960 0.151040 1.893330 
# 
# From -- ./inp_files/279974.got.cif
#   From: 2010.05.17/outbox.cif.g08.bks.cpg/sg2_140_cif.got.tgz:279974.got - 2010.06.03 11:33:40.
