data_PCOD9065268
_publ_section_title
;
Structure prediction by ZEFSAII (Michael W. Deem and Ramdas Pophale) SiO2 
 PCOD9065268
Probable space group: P -1
;
_chemical_formula_sum "Si O2"
_cell_formula_units_Z 12
_cell_length_a 17.948290
_cell_length_b 11.315500
_cell_length_c 15.031806
_cell_angle_alpha 28.078965
_cell_angle_beta 22.260687
_cell_angle_gamma 29.607574
_cell_volume 519.849921
_symmetry_space_group_name_H-M "P -1"
_symmetry_group_IT_number 2
_symmetry_cell_setting 'triclinic'
loop_
_space_group_symop_operation_xyz
x,y,z
-x,-y,-z
loop_
_atom_site_type_symbol
_atom_site_label
_atom_site_fract_x
_atom_site_fract_y
_atom_site_fract_z
Si Si1 0.927879 0.862687 0.905710
Si Si2 0.320086 0.548575 0.591891
Si Si3 0.449194 0.269066 0.931958
Si Si4 0.396781 0.229760 0.393000
Si Si5 0.471012 0.751746 0.945487
Si Si6 0.979918 0.266528 0.903346
O O1 0.134877 0.799402 0.661932
O O2 0.791159 0.678903 0.143020
O O3 0.982996 0.804959 0.986211
O O4 0.768645 0.147123 0.882348
O O5 0.500000 0.500000 0.500000
O O6 0.406006 0.584707 0.375798
O O7 0.499932 0.162183 0.045731
O O8 0.227961 0.490933 0.032229
O O9 0.500000 0.000000 0.000000
O O10 0.404004 0.149161 0.334775
O O11 0.169786 0.354848 0.597115
O O12 0.500000 0.000000 0.500000
O O13 0.525172 0.438104 0.106305
O O14 0.000000 0.000000 0.000000
#
# Coordination Sequence:
#
# PCOD9065268 Si02
#       6
#     2   2   2   2   2   2
#     4  11  25  46  78 109 144 205 258 305 389 454
#     4  11  24  47  77 106 153 200 249 317 381 451
#     4  12  28  46  71 113 158 194 256 322 376 456
#     4  11  24  48  74 104 149 197 253 317 378 449
#     4  11  26  45  76 108 144 198 260 312 378 455
#     4  12  27  46  76 109 154 205 253 310 390 456
#
# _framework density 23.083586
#
# number of rings (size 3 to 8) (size 9 to 14) (size 15 to 20)
#    0.000    0.667    3.333    3.000    9.333    2.667 
#    0.000    0.000    0.000    0.000    0.000    0.000 
#    0.000    0.000    0.000    0.000    0.000    0.000 
#
# Total GULP energy -67048.111145 kJ/mol
# GULP energy per Si atom -5587.342595 kJ/mol
# Density = 2.303105 g / cm^3
# Si number density = 23.083586 Si / 1000 Ang^3
#
#
#
# Elastic Constant Matrix: (Units=GPa)
#
#
# Indices 1 2 3 4 5 6 
#
# 1 162.9574 51.1086 41.3451 21.3593 36.3930 -10.8224
# 2 51.1086 153.3048 56.7430 33.0086 15.1289 -12.5972
# 3 41.3451 56.7430 120.8034 33.6938 31.8847 -11.0742
# 4 21.3593 33.0086 33.6938 54.2452 8.8097 2.9368
# 5 36.3930 15.1289 31.8847 8.8097 47.1281 -4.5686
# 6 -10.8224 -12.5972 -11.0742 2.9368 -4.5686 42.1634
#
#
#
# Elastic Compliance Matrix: (Units=1/GPa)
#
#
# Indices 1 2 3 4 5 6 
#
# 1 0.008145 -0.001802 -0.000097 -0.001244 -0.005312 0.001038
# 2 -0.001802 0.008893 -0.002809 -0.003254 0.001221 0.001816
# 3 -0.000097 -0.002809 0.013109 -0.005435 -0.006660 0.002236
# 4 -0.001244 -0.003254 -0.005435 0.024402 0.000699 -0.004343
# 5 -0.005312 0.001221 -0.006660 0.000699 0.029341 0.000383
# 6 0.001038 0.001816 0.002236 -0.004343 0.000383 0.025457
#
#
# Mechanical properties :
#
#
# Convention : Reuss Voigt Hill
#
# Bulk Modulus (GPa) = 48.23743 81.71768 64.97755
# Shear Modulus (GPa) = 39.78631 47.89861 43.84246
#
# Velocity S-wave (km/s) = 4.15610 4.56017 4.36281
# Velocity P-wave (km/s) = 6.63122 7.95012 7.32044
#
# Compressibility (1/GPa) = 0.02073079
#
# Stress axis : x y z
#
# Youngs Moduli (GPa) = 122.77967 112.45428 76.28420
#
# Poissons Ratio (x) = 0.20265 0.00739
# Poissons Ratio (y) = 0.22126 0.21425
# Poissons Ratio (z) = 0.01190 0.31584
#
# Static dielectric constant tensor:
#      x y z
#    x 2.061300 0.103180 0.063640 
#    y 0.103180 2.029360 -0.037210 
#    z 0.063640 -0.037210 1.974710 
# 
# From -- ./inp_files/538388.got.cif
#   From: 2010.05.17/outbox.cif.g08.bks.cpg/sg2_270_cif.got.tgz:538388.got - 2010.06.03 11:33:40.
