data_PCOD9065390
_publ_section_title
;
Structure prediction by ZEFSAII (Michael W. Deem and Ramdas Pophale) SiO2 
 PCOD9065390
Probable space group: P -1
;
_chemical_formula_sum "Si O2"
_cell_formula_units_Z 12
_cell_length_a 6.682203
_cell_length_b 5.113194
_cell_length_c 20.801093
_cell_angle_alpha 109.794962
_cell_angle_beta 76.532159
_cell_angle_gamma 131.225062
_cell_volume 502.917191
_symmetry_space_group_name_H-M "P -1"
_symmetry_group_IT_number 2
_symmetry_cell_setting 'triclinic'
loop_
_space_group_symop_operation_xyz
x,y,z
-x,-y,-z
loop_
_atom_site_type_symbol
_atom_site_label
_atom_site_fract_x
_atom_site_fract_y
_atom_site_fract_z
Si Si1 0.449164 0.698773 0.861985
Si Si2 0.995960 0.119329 0.159094
Si Si3 0.741630 0.890359 0.639174
Si Si4 0.754021 0.273617 0.547647
Si Si5 0.778308 0.406585 0.272339
Si Si6 0.918571 0.242007 0.044325
O O1 0.747849 0.851501 0.852640
O O2 0.355778 0.652998 0.791732
O O3 0.379783 0.911799 0.927059
O O4 0.258741 0.291901 0.870078
O O5 0.048665 0.374512 0.116916
O O6 0.922994 0.234522 0.236757
O O7 0.719566 0.540522 0.607341
O O8 0.464674 0.784044 0.675985
O O9 0.793639 0.068024 0.580252
O O10 0.988040 0.186938 0.690473
O O11 0.000000 0.500000 0.500000
O O12 0.500000 0.000000 0.500000
O O13 0.000000 0.500000 0.000000
O O14 0.000000 0.000000 0.000000
#
# Coordination Sequence:
#
# PCOD9065390 Si02
#       6
#     2   2   2   2   2   2
#     4  11  25  46  73 102 149 186 235 311 358 420
#     4  11  25  46  73 102 149 186 235 311 358 420
#     4  12  26  45  78 105 144 191 238 292 350 431
#     4  12  26  48  72 107 148 188 236 290 350 416
#     4  11  26  43  70 112 142 187 246 294 364 423
#     4  11  24  48  72 106 140 192 246 294 362 438
#
# _framework density 23.860786999999998
#
# number of rings (size 3 to 8) (size 9 to 14) (size 15 to 20)
#    0.000    0.667    1.667    5.000    7.000    5.333 
#    0.000    0.000    0.000    0.000    0.000    0.000 
#    0.000    0.000    0.000    0.000    0.000    0.000 
#
# Total GULP energy -67183.147340 kJ/mol
# GULP energy per Si atom -5598.595612 kJ/mol
# Density = 2.380648 g / cm^3
# Si number density = 23.860787 Si / 1000 Ang^3
#
#
#
# Elastic Constant Matrix: (Units=GPa)
#
#
# Indices 1 2 3 4 5 6 
#
# 1 116.3771 39.2431 23.3582 -4.4329 -14.4336 12.4401
# 2 39.2431 100.4461 21.0239 -3.1875 -14.7906 15.5528
# 3 23.3582 21.0239 79.2468 -0.9310 -20.7473 16.9764
# 4 -4.4329 -3.1875 -0.9310 36.4669 6.6994 -1.8103
# 5 -14.4336 -14.7906 -20.7473 6.6994 42.8514 -13.9326
# 6 12.4401 15.5528 16.9764 -1.8103 -13.9326 53.8997
#
#
#
# Elastic Compliance Matrix: (Units=1/GPa)
#
#
# Indices 1 2 3 4 5 6 
#
# 1 0.010309 -0.003391 -0.001703 0.000666 0.001200 -0.000532
# 2 -0.003391 0.012112 -0.001361 0.000199 0.001756 -0.001823
# 3 -0.001703 -0.001361 0.015556 -0.001126 0.005802 -0.002652
# 4 0.000666 0.000199 -0.001126 0.028354 -0.004726 -0.000126
# 5 0.001200 0.001756 0.005802 -0.004726 0.029471 0.004848
# 6 -0.000532 -0.001823 -0.002652 -0.000126 0.004848 0.021286
#
#
# Mechanical properties :
#
#
# Convention : Reuss Voigt Hill
#
# Bulk Modulus (GPa) = 39.89369 51.48006 45.68687
# Shear Modulus (GPa) = 36.13906 40.80657 38.47281
#
# Velocity S-wave (km/s) = 3.89598 4.13994 4.01981
# Velocity P-wave (km/s) = 6.08226 6.66889 6.38232
#
# Compressibility (1/GPa) = 0.02506662
#
# Stress axis : x y z
#
# Youngs Moduli (GPa) = 97.00138 82.55973 64.28483
#
# Poissons Ratio (x) = 0.27996 0.10948
# Poissons Ratio (y) = 0.32893 0.08752
# Poissons Ratio (z) = 0.16519 0.11240
#
# Static dielectric constant tensor:
#      x y z
#    x 1.915790 -0.030230 -0.014100 
#    y -0.030230 1.924950 0.003480 
#    z -0.014100 0.003480 1.918310 
# 
# From -- ./inp_files/113637.got.cif
#   From: 2010.05.17/outbox.cif.g08.bks.cpg/sg2_57_cif.got.tgz:113637.got - 2010.06.03 11:33:40.
