data_PCOD9065677
_publ_section_title
;
Structure prediction by ZEFSAII (Michael W. Deem and Ramdas Pophale) SiO2 
 PCOD9065677
Probable space group: P -1
;
_chemical_formula_sum "Si O2"
_cell_formula_units_Z 10
_cell_length_a 10.125396
_cell_length_b 5.159860
_cell_length_c 12.812606
_cell_angle_alpha 59.830046
_cell_angle_beta 43.563625
_cell_angle_gamma 84.290812
_cell_volume 357.316399
_symmetry_space_group_name_H-M "P -1"
_symmetry_group_IT_number 2
_symmetry_cell_setting 'triclinic'
loop_
_space_group_symop_operation_xyz
x,y,z
-x,-y,-z
loop_
_atom_site_type_symbol
_atom_site_label
_atom_site_fract_x
_atom_site_fract_y
_atom_site_fract_z
Si Si1 0.188718 0.867363 0.339466
Si Si2 0.386637 0.251270 0.952033
Si Si3 0.217214 0.104280 0.479276
Si Si4 0.747185 0.748077 0.326690
Si Si5 0.854805 0.288289 0.977805
O O1 0.000000 0.500000 0.500000
O O2 0.033655 0.050826 0.373261
O O3 0.281077 0.901512 0.396298
O O4 0.365035 0.077788 0.111607
O O5 0.623938 0.518386 0.728610
O O6 0.246088 0.459175 0.994013
O O7 0.277154 0.971620 0.984258
O O8 0.233792 0.140562 0.586164
O O9 0.500000 0.500000 0.500000
O O10 0.902525 0.586521 0.230027
O O11 0.823397 0.076956 0.144380
#
# Coordination Sequence:
#
# PCOD9065677 Si02
#       5
#     2   2   2   2   2
#     4  11  28  49  77 109 153 197 259 318 374 453
#     4  12  27  51  78 111 157 198 255 315 380 450
#     4  11  26  48  76 113 147 206 249 313 377 452
#     4  11  24  50  77 112 155 199 250 308 381 451
#     4  11  28  48  75 115 156 199 249 315 374 457
#
# _framework density 27.986404
#
# number of rings (size 3 to 8) (size 9 to 14) (size 15 to 20)
#    0.000    0.800    4.000    0.600    8.400    6.400 
#    3.600    0.000    0.000    0.000    0.000    0.000 
#    0.000    0.000    0.000    0.000    0.000    0.000 
#
# Total GULP energy -56016.283438 kJ/mol
# GULP energy per Si atom -5601.628344 kJ/mol
# Density = 2.792271 g / cm^3
# Si number density = 27.986404 Si / 1000 Ang^3
#
#
#
# Elastic Constant Matrix: (Units=GPa)
#
#
# Indices 1 2 3 4 5 6 
#
# 1 132.7896 44.5383 102.4569 37.0849 -1.4806 22.4406
# 2 44.5383 124.0900 52.9812 32.5355 7.9415 18.8668
# 3 102.4569 52.9812 277.6574 45.3425 5.9074 20.7618
# 4 37.0849 32.5355 45.3425 44.0218 5.8653 4.2144
# 5 -1.4806 7.9415 5.9074 5.8653 91.4803 15.5370
# 6 22.4406 18.8668 20.7618 4.2144 15.5370 64.4163
#
#
#
# Elastic Compliance Matrix: (Units=1/GPa)
#
#
# Indices 1 2 3 4 5 6 
#
# 1 0.012731 -0.001132 -0.003234 -0.006462 0.001434 -0.002984
# 2 -0.001132 0.010614 -0.000428 -0.006225 -0.000151 -0.002133
# 3 -0.003234 -0.000428 0.005284 -0.002356 -0.000162 -0.000258
# 4 -0.006462 -0.006225 -0.002356 0.035186 -0.002188 0.003060
# 5 0.001434 -0.000151 -0.000162 -0.002188 0.011639 -0.003068
# 6 -0.002984 -0.002133 -0.000258 0.003060 -0.003068 0.017811
#
#
# Mechanical properties :
#
#
# Convention : Reuss Voigt Hill
#
# Bulk Modulus (GPa) = 52.52009 103.83219 78.17614
# Shear Modulus (GPa) = 45.78750 62.28771 54.03761
#
# Velocity S-wave (km/s) = 4.04921 4.72279 4.39891
# Velocity P-wave (km/s) = 6.37719 8.18053 7.33450
#
# Compressibility (1/GPa) = 0.01904033
#
# Stress axis : x y z
#
# Youngs Moduli (GPa) = 78.55104 94.21483 189.25378
#
# Poissons Ratio (x) = 0.10668 0.61197
# Poissons Ratio (y) = 0.08894 0.08104
# Poissons Ratio (z) = 0.25400 0.04034
#
# Static dielectric constant tensor:
#      x y z
#    x 2.267710 -0.278230 0.014040 
#    y -0.278230 2.547750 0.136260 
#    z 0.014040 0.136260 2.286180 
# 
# From -- ./inp_files/359614.got.cif
#   From: 2010.05.17/outbox.cif.g08.bks.cpg/sg2_180_cif.got.tgz:359614.got - 2010.06.03 11:33:40.
