data_PCOD9065276
_publ_section_title
;
Structure prediction by ZEFSAII (Michael W. Deem and Ramdas Pophale) SiO2 
 PCOD9065276
Probable space group: P -1
;
_chemical_formula_sum "Si O2"
_cell_formula_units_Z 14
_cell_length_a 5.217664
_cell_length_b 25.696099
_cell_length_c 8.985220
_cell_angle_alpha 150.641803
_cell_angle_beta 111.422933
_cell_angle_gamma 73.617772
_cell_volume 548.069054
_symmetry_space_group_name_H-M "P -1"
_symmetry_group_IT_number 2
_symmetry_cell_setting 'triclinic'
loop_
_space_group_symop_operation_xyz
x,y,z
-x,-y,-z
loop_
_atom_site_type_symbol
_atom_site_label
_atom_site_fract_x
_atom_site_fract_y
_atom_site_fract_z
Si Si1 0.915583 0.608782 0.682884
Si Si2 0.996464 0.238149 0.397898
Si Si3 0.147058 0.810448 0.419601
Si Si4 0.789664 0.567777 0.211203
Si Si5 0.206503 0.085640 0.840882
Si Si6 0.509114 0.251421 0.111063
Si Si7 0.422474 0.087003 0.438264
O O1 0.909910 0.596318 0.472240
O O2 0.605449 0.646500 0.736098
O O3 0.000000 0.500000 0.500000
O O4 0.091097 0.707857 0.044929
O O5 0.751842 0.275561 0.336829
O O6 0.890227 0.229666 0.520489
O O7 0.241256 0.328251 0.639066
O O8 0.080901 0.129042 0.072425
O O9 0.895516 0.889026 0.552233
O O10 0.432392 0.873105 0.585366
O O11 0.500000 0.500000 0.000000
O O12 0.000000 0.500000 0.000000
O O13 0.486332 0.029072 0.793860
O O14 0.274141 0.185922 0.997375
O O15 0.000000 0.000000 0.500000
O O16 0.574801 0.165141 0.788114
#
# Coordination Sequence:
#
# PCOD9065276 Si02
#       7
#     2   2   2   2   2   2   2
#     4  11  24  48  75 107 147 196 250 321 390 449
#     4  12  27  47  77 111 157 203 260 322 379 468
#     4  11  28  48  73 114 162 200 255 316 391 458
#     4  12  27  50  78 111 146 199 263 314 380 457
#     4  12  24  45  80 113 155 207 266 316 386 454
#     4  11  24  47  77 109 154 203 266 314 384 467
#     4  11  25  46  73 110 154 205 251 313 381 457
#
# _framework density 25.544224
#
# number of rings (size 3 to 8) (size 9 to 14) (size 15 to 20)
#    0.000    0.571    2.857    4.714    4.000    3.429 
#    0.000    9.286    0.000    0.000    0.000    0.000 
#    0.000    0.000    0.000    0.000    0.000    0.000 
#
# Total GULP energy -78458.610032 kJ/mol
# GULP energy per Si atom -5604.186431 kJ/mol
# Density = 2.548608 g / cm^3
# Si number density = 25.544224 Si / 1000 Ang^3
#
#
#
# Elastic Constant Matrix: (Units=GPa)
#
#
# Indices 1 2 3 4 5 6 
#
# 1 108.4687 24.2464 53.9508 6.6001 -7.3669 16.9315
# 2 24.2464 137.5021 57.7450 3.1892 -7.7556 13.7098
# 3 53.9508 57.7450 144.8188 3.5994 -27.6102 7.1795
# 4 6.6001 3.1892 3.5994 54.7234 -2.8826 -17.7267
# 5 -7.3669 -7.7556 -27.6102 -2.8826 43.2743 3.4263
# 6 16.9315 13.7098 7.1795 -17.7267 3.4263 49.2091
#
#
#
# Elastic Compliance Matrix: (Units=1/GPa)
#
#
# Indices 1 2 3 4 5 6 
#
# 1 0.012221 0.000195 -0.004441 -0.002694 -0.000538 -0.004544
# 2 0.000195 0.008992 -0.003615 -0.001119 -0.000545 -0.002410
# 3 -0.004441 -0.003615 0.011019 0.000556 0.005605 0.000737
# 4 -0.002694 -0.001119 0.000556 0.021527 0.000426 0.008883
# 5 -0.000538 -0.000545 0.005605 0.000426 0.026697 -0.002186
# 6 -0.004544 -0.002410 0.000737 0.008883 -0.002186 0.025801
#
#
# Mechanical properties :
#
#
# Convention : Reuss Voigt Hill
#
# Bulk Modulus (GPa) = 60.56474 73.63044 67.09759
# Shear Modulus (GPa) = 39.22113 46.43118 42.82615
#
# Velocity S-wave (km/s) = 3.92270 4.26805 4.09901
# Velocity P-wave (km/s) = 6.65417 7.29216 6.98046
#
# Compressibility (1/GPa) = 0.01651126
#
# Stress axis : x y z
#
# Youngs Moduli (GPa) = 81.82463 111.21309 90.74962
#
# Poissons Ratio (x) = -0.02172 0.40302
# Poissons Ratio (y) = -0.01598 0.32804
# Poissons Ratio (z) = 0.36339 0.40201
#
# Static dielectric constant tensor:
#      x y z
#    x 2.074400 -0.013310 0.021600 
#    y -0.013310 2.008760 0.013530 
#    z 0.021600 0.013530 2.012510 
# 
# From -- ./inp_files/142747.got.cif
#   From: 2010.05.17/outbox.cif.g08.bks.cpg/sg2_72_cif.got.tgz:142747.got - 2010.06.03 11:33:40.
