data_PCOD9065611
_publ_section_title
;
Structure prediction by ZEFSAII (Michael W. Deem and Ramdas Pophale) SiO2 
 PCOD9065611
Probable space group: P -1
;
_chemical_formula_sum "Si O2"
_cell_formula_units_Z 16
_cell_length_a 5.740960
_cell_length_b 18.608117
_cell_length_c 11.791088
_cell_angle_alpha 147.082942
_cell_angle_beta 116.643735
_cell_angle_gamma 63.240159
_cell_volume 604.719441
_symmetry_space_group_name_H-M "P -1"
_symmetry_group_IT_number 2
_symmetry_cell_setting 'triclinic'
loop_
_space_group_symop_operation_xyz
x,y,z
-x,-y,-z
loop_
_atom_site_type_symbol
_atom_site_label
_atom_site_fract_x
_atom_site_fract_y
_atom_site_fract_z
Si Si1 0.489369 0.157236 0.242377
Si Si2 0.792811 0.679442 0.816448
Si Si3 0.881099 0.530504 0.837416
Si Si4 0.859110 0.207973 0.725703
Si Si5 0.262366 0.787773 0.952251
Si Si6 0.992273 0.851549 0.751549
Si Si7 0.203494 0.007382 0.399276
Si Si8 0.645290 0.614049 0.130294
O O1 0.793789 0.174923 0.336175
O O2 0.308192 0.173580 0.336250
O O3 0.348882 0.260915 0.253282
O O4 0.500000 0.000000 0.000000
O O5 0.807079 0.534589 0.692664
O O6 0.577031 0.756852 0.962207
O O7 0.093296 0.703506 0.885189
O O8 0.672259 0.574598 0.950648
O O9 0.040845 0.655617 0.041702
O O10 0.075755 0.406536 0.769806
O O11 0.543886 0.247134 0.706527
O O12 0.024919 0.146089 0.572540
O O13 0.924514 0.098887 0.693287
O O14 0.208543 0.940975 0.189205
O O15 0.140069 0.768917 0.778937
O O16 0.000000 0.000000 0.000000
O O17 0.500000 0.000000 0.500000
O O18 0.500000 0.500000 0.000000
#
# Coordination Sequence:
#
# PCOD9065611 Si02
#       8
#     2   2   2   2   2   2   2   2
#     4   8  14  24  38  59  84 113 140 170 219 268
#     4  10  18  28  45  63  88 117 152 187 220 272
#     4  10  18  31  45  62  83 113 159 196 235 271
#     4  10  19  31  43  59  83 114 158 188 234 265
#     4  10  19  29  42  64  89 119 153 185 225 265
#     4   8  14  25  40  57  81 113 145 176 218 267
#     4  11  21  29  43  61  89 123 157 194 222 272
#     4   9  19  31  46  60  80 111 153 203 238 272
#
# _framework density 26.458549000000001
#
# number of rings (size 3 to 8) (size 9 to 14) (size 15 to 20)
#    0.000    2.500    1.250    2.250    3.500    0.000 
#    0.000    0.000    0.000    0.000    0.000    0.000 
#    0.000    0.000    0.000   36.000    1.000   27.625 
#
# Total GULP energy -89069.052173 kJ/mol
# GULP energy per Si atom -5566.815761 kJ/mol
# Density = 2.639833 g / cm^3
# Si number density = 26.458549 Si / 1000 Ang^3
#
#
#
# Elastic Constant Matrix: (Units=GPa)
#
#
# Indices 1 2 3 4 5 6 
#
# 1 237.6233 25.7017 18.3518 -1.1742 -26.1405 10.0760
# 2 25.7017 107.5954 16.9488 8.6030 3.4338 7.8207
# 3 18.3518 16.9488 59.8250 8.6056 -8.3069 -9.7864
# 4 -1.1742 8.6030 8.6056 24.8429 -4.5425 -5.5841
# 5 -26.1405 3.4338 -8.3069 -4.5425 30.0507 21.9832
# 6 10.0760 7.8207 -9.7864 -5.5841 21.9832 43.5982
#
#
#
# Elastic Compliance Matrix: (Units=1/GPa)
#
#
# Indices 1 2 3 4 5 6 
#
# 1 0.005711 -0.001143 -0.001320 0.001493 0.009272 -0.005895
# 2 -0.001143 0.010451 -0.002676 -0.003511 -0.002397 -0.001453
# 3 -0.001320 -0.002676 0.019346 -0.004769 0.000761 0.004133
# 4 0.001493 -0.003511 -0.004769 0.044690 0.005585 0.002122
# 5 0.009272 -0.002397 0.000761 0.005585 0.068568 -0.035400
# 6 -0.005895 -0.001453 0.004133 0.002122 -0.035400 0.043609
#
#
# Mechanical properties :
#
#
# Convention : Reuss Voigt Hill
#
# Bulk Modulus (GPa) = 39.63274 58.56094 49.09684
# Shear Modulus (GPa) = 23.68967 42.63444 33.16206
#
# Velocity S-wave (km/s) = 2.99549 4.01854 3.54412
# Velocity P-wave (km/s) = 5.19381 6.61156 5.94509
#
# Compressibility (1/GPa) = 0.02523166
#
# Stress axis : x y z
#
# Youngs Moduli (GPa) = 175.09245 95.68067 51.69008
#
# Poissons Ratio (x) = 0.10938 0.06822
# Poissons Ratio (y) = 0.20017 0.13830
# Poissons Ratio (z) = 0.23108 0.25600
#
# Static dielectric constant tensor:
#      x y z
#    x 0.958900 1.509970 0.103160 
#    y 1.509970 0.166470 -0.176620 
#    z 0.103160 -0.176620 2.077680 
# 
# From -- ./inp_files/74377.got.cif
#   From: 2010.05.17/outbox.cif.g08.bks.cpg/sg2_38_cif.got.tgz:74377.got - 2010.06.03 11:33:40.
