data_PCOD9065954
_publ_section_title
;
Structure prediction by ZEFSAII (Michael W. Deem and Ramdas Pophale) SiO2 
 PCOD9065954
Probable space group: P -1
;
_chemical_formula_sum "Si O2"
_cell_formula_units_Z 16
_cell_length_a 13.030175
_cell_length_b 19.254707
_cell_length_c 9.993399
_cell_angle_alpha 32.723993
_cell_angle_beta 145.924404
_cell_angle_gamma 147.276945
_cell_volume 667.479874
_symmetry_space_group_name_H-M "P -1"
_symmetry_group_IT_number 2
_symmetry_cell_setting 'triclinic'
loop_
_space_group_symop_operation_xyz
x,y,z
-x,-y,-z
loop_
_atom_site_type_symbol
_atom_site_label
_atom_site_fract_x
_atom_site_fract_y
_atom_site_fract_z
Si Si1 0.098462 0.121449 0.795199
Si Si2 0.952445 0.700475 0.074163
Si Si3 0.155062 0.513490 0.949634
Si Si4 0.144679 0.048275 0.449852
Si Si5 0.792912 0.559480 0.591490
Si Si6 0.342765 0.515955 0.703545
Si Si7 0.484541 0.841572 0.712927
Si Si8 0.426828 0.831257 0.358117
O O1 0.078472 0.265704 0.563421
O O2 0.339916 0.164704 0.995131
O O3 0.988956 0.054100 0.648047
O O4 0.000000 0.000000 0.000000
O O5 0.883982 0.595634 0.039899
O O6 0.885136 0.598345 0.298554
O O7 0.198562 0.818665 0.145378
O O8 0.825792 0.790216 0.804015
O O9 0.283254 0.684991 0.773998
O O10 0.931778 0.486649 0.808299
O O11 0.260893 0.481709 0.245407
O O12 0.369447 0.054610 0.688277
O O13 0.000000 0.000000 0.500000
O O14 0.623630 0.515639 0.361559
O O15 0.366454 0.674449 0.486152
O O16 0.500000 0.500000 0.000000
O O17 0.517792 0.842540 0.587698
O O18 0.500000 0.000000 0.500000
#
# Coordination Sequence:
#
# PCOD9065954 Si02
#       8
#     2   2   2   2   2   2   2   2
#     4  12  24  46  70 100 140 193 244 297 362 441
#     4  12  24  46  74 105 142 189 249 299 359 442
#     4  11  25  45  70 108 146 185 239 307 371 437
#     4  12  28  47  69 104 145 192 242 301 370 438
#     4  11  25  44  69 105 148 184 239 307 371 426
#     4  12  22  43  74 105 138 183 243 302 356 435
#     4  12  25  45  73 107 142 193 246 298 368 453
#     4  12  24  45  72 103 140 188 248 301 358 431
#
# _framework density 23.970759999999999
#
# number of rings (size 3 to 8) (size 9 to 14) (size 15 to 20)
#    0.000    0.250    5.000    4.875    0.000    2.000 
#    0.000    0.000    0.000    0.000    0.000    0.000 
#    0.000    0.000    0.000    0.000    0.000    0.000 
#
# Total GULP energy -89487.885090 kJ/mol
# GULP energy per Si atom -5592.992818 kJ/mol
# Density = 2.391620 g / cm^3
# Si number density = 23.970760 Si / 1000 Ang^3
#
#
#
# Elastic Constant Matrix: (Units=GPa)
#
#
# Indices 1 2 3 4 5 6 
#
# 1 97.5441 40.6949 26.6409 25.1827 -14.0254 -9.1008
# 2 40.6949 113.8982 33.9506 19.6266 -3.4704 -23.2236
# 3 26.6409 33.9506 81.0054 27.4498 -2.4124 -12.7193
# 4 25.1827 19.6266 27.4498 37.2457 3.2465 12.9530
# 5 -14.0254 -3.4704 -2.4124 3.2465 45.8666 6.6198
# 6 -9.1008 -23.2236 -12.7193 12.9530 6.6198 61.3637
#
#
#
# Elastic Compliance Matrix: (Units=1/GPa)
#
#
# Indices 1 2 3 4 5 6 
#
# 1 0.014967 -0.002981 0.000368 -0.010208 0.004687 0.002817
# 2 -0.002981 0.012161 -0.001764 -0.004738 -0.000448 0.004843
# 3 0.000368 -0.001764 0.019524 -0.016147 0.001180 0.006715
# 4 -0.010208 -0.004738 -0.016147 0.054763 -0.005665 -0.017603
# 5 0.004687 -0.000448 0.001180 -0.005665 0.023751 -0.000596
# 6 0.002817 0.004843 0.006715 -0.017603 -0.000596 0.023719
#
#
# Mechanical properties :
#
#
# Convention : Reuss Voigt Hill
#
# Bulk Modulus (GPa) = 26.38615 55.00228 40.69422
# Shear Modulus (GPa) = 29.36502 41.63929 35.50216
#
# Velocity S-wave (km/s) = 3.50385 4.17236 3.85263
# Velocity P-wave (km/s) = 5.23458 6.79756 6.06661
#
# Compressibility (1/GPa) = 0.03789867
#
# Stress axis : x y z
#
# Youngs Moduli (GPa) = 66.81356 82.23057 51.21885
#
# Poissons Ratio (x) = 0.24514 -0.01886
# Poissons Ratio (y) = 0.19918 0.09034
# Poissons Ratio (z) = -0.02460 0.14503
#
# Static dielectric constant tensor:
#      x y z
#    x 1.956000 0.119550 -0.015300 
#    y 0.119550 2.022740 -0.039920 
#    z -0.015300 -0.039920 2.050490 
# 
# From -- ./inp_files/278897.got.cif
#   From: 2010.05.17/outbox.cif.g08.bks.cpg/sg2_140_cif.got.tgz:278897.got - 2010.06.03 11:33:40.
