data_PCOD9065987
_publ_section_title
;
Structure prediction by ZEFSAII (Michael W. Deem and Ramdas Pophale) SiO2 
 PCOD9065987
Probable space group: P -1
;
_chemical_formula_sum "Si O2"
_cell_formula_units_Z 16
_cell_length_a 15.427996
_cell_length_b 8.881978
_cell_length_c 9.656765
_cell_angle_alpha 72.614657
_cell_angle_beta 147.313324
_cell_angle_gamma 97.432203
_cell_volume 662.558271
_symmetry_space_group_name_H-M "P -1"
_symmetry_group_IT_number 2
_symmetry_cell_setting 'triclinic'
loop_
_space_group_symop_operation_xyz
x,y,z
-x,-y,-z
loop_
_atom_site_type_symbol
_atom_site_label
_atom_site_fract_x
_atom_site_fract_y
_atom_site_fract_z
Si Si1 0.305818 0.067438 0.682686
Si Si2 0.699523 0.284807 0.283375
Si Si3 0.221070 0.104106 0.866577
Si Si4 0.211395 0.797251 0.103304
Si Si5 0.032662 0.367788 0.747382
Si Si6 0.091362 0.310590 0.149908
Si Si7 0.716311 0.437321 0.975411
Si Si8 0.489516 0.755470 0.702953
O O1 0.249333 0.911847 0.587480
O O2 0.259845 0.224621 0.478538
O O3 0.500000 0.000000 0.000000
O O4 0.212706 0.118080 0.687715
O O5 0.552381 0.321644 0.186999
O O6 0.838555 0.377390 0.492567
O O7 0.674923 0.329379 0.076071
O O8 0.405518 0.115000 0.155899
O O9 0.186460 0.939142 0.919583
O O10 0.101926 0.247178 0.749770
O O11 0.293186 0.637838 0.166931
O O12 0.326799 0.824390 0.376908
O O13 0.041084 0.780944 0.943646
O O14 0.110358 0.291322 0.017121
O O15 0.099879 0.529084 0.775343
O O16 0.000000 0.500000 0.000000
O O17 0.599637 0.613193 0.798012
#
# Coordination Sequence:
#
# PCOD9065987 Si02
#       8
#     2   2   2   2   2   2   2   2
#     4  12  28  48  75 111 152 196 244 308 374 436
#     4  12  24  46  74 106 147 193 251 306 370 437
#     4  11  26  47  73 106 145 195 248 307 365 445
#     4  12  24  46  74 106 147 193 251 306 370 437
#     4  11  26  47  73 106 145 195 248 307 365 445
#     4  12  28  48  75 111 152 196 244 308 374 436
#     4  11  25  44  70 110 150 197 244 306 371 442
#     4  11  25  44  70 110 150 197 244 306 371 442
#
# _framework density 24.148820000000001
#
# number of rings (size 3 to 8) (size 9 to 14) (size 15 to 20)
#    0.000    0.500    5.000    2.250    3.500    7.000 
#    0.000    0.000    0.000    0.000    0.000    0.000 
#    0.000    0.000    0.000    0.000    0.000    0.000 
#
# Total GULP energy -89575.696289 kJ/mol
# GULP energy per Si atom -5598.481018 kJ/mol
# Density = 2.409386 g / cm^3
# Si number density = 24.148820 Si / 1000 Ang^3
#
#
#
# Elastic Constant Matrix: (Units=GPa)
#
#
# Indices 1 2 3 4 5 6 
#
# 1 144.5827 20.8249 25.6669 3.0298 -16.8444 2.8861
# 2 20.8249 63.8444 14.5415 6.6418 -3.0964 -0.8149
# 3 25.6669 14.5415 92.2263 -12.5549 -3.3087 -2.6145
# 4 3.0298 6.6418 -12.5549 28.5389 7.7739 -1.3640
# 5 -16.8444 -3.0964 -3.3087 7.7739 35.2222 13.8542
# 6 2.8861 -0.8149 -2.6145 -1.3640 13.8542 36.8707
#
#
#
# Elastic Compliance Matrix: (Units=1/GPa)
#
#
# Indices 1 2 3 4 5 6 
#
# 1 0.008348 -0.001613 -0.002395 -0.003220 0.005540 -0.003060
# 2 -0.001613 0.017589 -0.003069 -0.005864 0.002053 -0.000691
# 3 -0.002395 -0.003069 0.012989 0.007557 -0.002796 0.002371
# 4 -0.003220 -0.005864 0.007557 0.044277 -0.014106 0.007597
# 5 0.005540 0.002053 -0.002796 -0.014106 0.040492 -0.016323
# 6 -0.003060 -0.000691 0.002371 0.007597 -0.016323 0.033929
#
#
# Mechanical properties :
#
#
# Convention : Reuss Voigt Hill
#
# Bulk Modulus (GPa) = 40.36764 46.96891 43.66827
# Shear Modulus (GPa) = 27.77248 36.10104 31.93676
#
# Velocity S-wave (km/s) = 3.39493 3.87064 3.64056
# Velocity P-wave (km/s) = 5.66744 6.28234 5.98279
#
# Compressibility (1/GPa) = 0.02477232
#
# Stress axis : x y z
#
# Youngs Moduli (GPa) = 119.79068 56.85401 76.98777
#
# Poissons Ratio (x) = 0.09169 0.18441
# Poissons Ratio (y) = 0.19320 0.23625
# Poissons Ratio (z) = 0.28693 0.17447
#
# Static dielectric constant tensor:
#      x y z
#    x 1.882690 0.001940 0.036550 
#    y 0.001940 1.909130 0.000090 
#    z 0.036550 0.000090 1.974730 
# 
# From -- ./inp_files/298041.got.cif
#   From: 2010.05.17/outbox.cif.g08.bks.cpg/sg2_150_cif.got.tgz:298041.got - 2010.06.03 11:33:40.
