data_PCOD9065465
_publ_section_title
;
Structure prediction by ZEFSAII (Michael W. Deem and Ramdas Pophale) SiO2 
 PCOD9065465
Probable space group: P -1
;
_chemical_formula_sum "Si O2"
_cell_formula_units_Z 14
_cell_length_a 4.980328
_cell_length_b 18.267081
_cell_length_c 6.433400
_cell_angle_alpha 75.142250
_cell_angle_beta 89.803821
_cell_angle_gamma 76.480292
_cell_volume 549.044613
_symmetry_space_group_name_H-M "P -1"
_symmetry_group_IT_number 2
_symmetry_cell_setting 'triclinic'
loop_
_space_group_symop_operation_xyz
x,y,z
-x,-y,-z
loop_
_atom_site_type_symbol
_atom_site_label
_atom_site_fract_x
_atom_site_fract_y
_atom_site_fract_z
Si Si1 0.069809 0.172815 0.747965
Si Si2 0.088505 0.978811 0.278449
Si Si3 0.486008 0.923678 0.861898
Si Si4 0.037332 0.688726 0.079089
Si Si5 0.934791 0.587132 0.521494
Si Si6 0.391290 0.641546 0.746178
Si Si7 0.387454 0.218637 0.330050
O O1 0.320073 0.127007 0.928219
O O2 0.616591 0.266346 0.341807
O O3 0.215326 0.210177 0.539436
O O4 0.919447 0.109982 0.699367
O O5 0.372158 0.005356 0.234855
O O6 0.000000 0.000000 0.500000
O O7 0.832926 0.038554 0.116975
O O8 0.501630 0.865443 0.711225
O O9 0.114110 0.759484 0.156386
O O10 0.895787 0.641935 0.277325
O O11 0.294033 0.635627 0.989271
O O12 0.816104 0.728893 0.876659
O O13 0.689640 0.601281 0.680814
O O14 0.000000 0.500000 0.500000
O O15 0.186158 0.609297 0.625032
#
# Coordination Sequence:
#
# PCOD9065465 Si02
#       7
#     2   2   2   2   2   2   2
#     4  11  24  48  75 104 151 206 258 319 385 456
#     4  12  25  48  68 105 148 200 259 327 380 444
#     4  11  27  45  70 103 146 200 258 319 389 437
#     4  11  26  50  78 113 156 202 255 315 381 455
#     4  12  29  52  83 118 156 201 246 307 383 464
#     4  12  26  51  76 115 157 193 257 307 376 457
#     4  11  25  49  74 112 147 205 256 318 372 459
#
# _framework density 25.498837999999999
#
# number of rings (size 3 to 8) (size 9 to 14) (size 15 to 20)
#    0.000    0.571    4.286    1.714    6.000    2.286 
#    5.143    0.000    0.000    0.000    0.000    0.000 
#    0.000    0.000    0.000    0.000    0.000    0.000 
#
# Total GULP energy -78553.171764 kJ/mol
# GULP energy per Si atom -5610.940840 kJ/mol
# Density = 2.544080 g / cm^3
# Si number density = 25.498838 Si / 1000 Ang^3
#
#
#
# Elastic Constant Matrix: (Units=GPa)
#
#
# Indices 1 2 3 4 5 6 
#
# 1 150.0103 56.6350 28.7094 28.1074 9.2843 7.0848
# 2 56.6350 177.7510 56.5714 44.7507 1.3104 18.6068
# 3 28.7094 56.5714 88.8452 27.6909 -5.5932 19.4291
# 4 28.1074 44.7507 27.6909 42.8753 0.4141 -0.0737
# 5 9.2843 1.3104 -5.5932 0.4141 38.7402 17.8314
# 6 7.0848 18.6068 19.4291 -0.0737 17.8314 47.2152
#
#
#
# Elastic Compliance Matrix: (Units=1/GPa)
#
#
# Indices 1 2 3 4 5 6 
#
# 1 0.008125 -0.001567 -0.000971 -0.003041 -0.002308 0.000665
# 2 -0.001567 0.008836 -0.002398 -0.006661 0.001025 -0.002658
# 3 -0.000971 -0.002398 0.018300 -0.008766 0.007287 -0.009205
# 4 -0.003041 -0.006661 -0.008766 0.037990 -0.004628 0.008495
# 5 -0.002308 0.001025 0.007287 -0.004628 0.034912 -0.016248
# 6 0.000665 -0.002658 -0.009205 0.008495 -0.016248 0.032065
#
#
# Mechanical properties :
#
#
# Convention : Reuss Voigt Hill
#
# Bulk Modulus (GPa) = 39.38659 77.82644 58.60651
# Shear Modulus (GPa) = 31.53361 44.07886 37.80623
#
# Velocity S-wave (km/s) = 3.52044 4.16223 3.85472
# Velocity P-wave (km/s) = 5.65727 7.32712 6.54566
#
# Compressibility (1/GPa) = 0.02538935
#
# Stress axis : x y z
#
# Youngs Moduli (GPa) = 123.08210 113.17479 54.64448
#
# Poissons Ratio (x) = 0.17732 0.05304
# Poissons Ratio (y) = 0.19285 0.13105
# Poissons Ratio (z) = 0.11947 0.27141
#
# Static dielectric constant tensor:
#      x y z
#    x 1.968330 -0.033020 0.026060 
#    y -0.033020 1.985580 0.006550 
#    z 0.026060 0.006550 2.111520 
# 
# From -- ./inp_files/12341.got.cif
#   From: 2010.05.17/outbox.cif.g08.bks.cpg/sg2_7_cif.got.tgz:12341.got - 2010.06.03 11:33:40.
