data_PCOD9065308
_publ_section_title
;
Structure prediction by ZEFSAII (Michael W. Deem and Ramdas Pophale) SiO2 
 PCOD9065308
Probable space group: P -1
;
_chemical_formula_sum "Si O2"
_cell_formula_units_Z 16
_cell_length_a 11.826854
_cell_length_b 24.006772
_cell_length_c 11.947042
_cell_angle_alpha 132.621456
_cell_angle_beta 24.298018
_cell_angle_gamma 133.987289
_cell_volume 993.009744
_symmetry_space_group_name_H-M "P -1"
_symmetry_group_IT_number 2
_symmetry_cell_setting 'triclinic'
loop_
_space_group_symop_operation_xyz
x,y,z
-x,-y,-z
loop_
_atom_site_type_symbol
_atom_site_label
_atom_site_fract_x
_atom_site_fract_y
_atom_site_fract_z
Si Si1 0.749218 0.437434 0.783390
Si Si2 0.127070 0.435745 0.655777
Si Si3 0.938137 0.079968 0.762991
Si Si4 0.336320 0.605422 0.807750
Si Si5 0.139464 0.393533 0.195048
Si Si6 0.007163 0.750637 0.031621
Si Si7 0.351818 0.084352 0.196672
Si Si8 0.593763 0.746794 0.602422
O O1 0.807948 0.529713 0.827000
O O2 0.931400 0.427125 0.712091
O O3 0.865113 0.395896 0.518498
O O4 0.410650 0.405827 0.048882
O O5 0.224830 0.527147 0.727427
O O6 0.417305 0.409079 0.352654
O O7 0.932524 0.389239 0.868475
O O8 0.001891 0.162380 0.881081
O O9 0.209706 0.078158 0.440602
O O10 0.817877 0.996489 0.817802
O O11 0.680252 0.085126 0.917728
O O12 0.476841 0.677444 0.699837
O O13 0.111038 0.317317 0.042236
O O14 0.839371 0.736387 0.282449
O O15 0.330379 0.750719 0.765723
O O16 0.322652 0.168348 0.296563
#
# Coordination Sequence:
#
# PCOD9065308 Si02
#       8
#     2   2   2   2   2   2   2   2
#     4  10  20  33  46  61  85 112 141 181 218 248
#     4  10  20  33  46  61  85 112 141 181 218 248
#     4   8  14  24  38  58  85 115 139 162 202 251
#     4  10  20  31  46  65  83 111 147 175 210 258
#     4  10  20  31  46  65  83 111 147 175 210 258
#     4  10  18  28  44  65  91 117 142 175 208 249
#     4   8  14  24  38  58  85 115 139 162 202 251
#     4  10  18  28  44  65  91 117 142 175 208 249
#
# _framework density 16.112632000000001
#
# number of rings (size 3 to 8) (size 9 to 14) (size 15 to 20)
#    0.000    2.500    0.000    3.000    0.000    4.000 
#    0.000    0.000    0.000    0.000    0.000    0.000 
#    0.000    6.000    0.000    0.000    0.000    0.000 
#
# Total GULP energy -89103.772638 kJ/mol
# GULP energy per Si atom -5568.985790 kJ/mol
# Density = 1.607596 g / cm^3
# Si number density = 16.112632 Si / 1000 Ang^3
#
#
#
# Elastic Constant Matrix: (Units=GPa)
#
#
# Indices 1 2 3 4 5 6 
#
# 1 34.4484 23.3586 -6.0596 4.6404 -3.5563 5.0076
# 2 23.3586 111.5536 17.2492 9.0442 15.6491 -1.6175
# 3 -6.0596 17.2492 62.9898 -1.3039 -4.9196 4.3972
# 4 4.6404 9.0442 -1.3039 25.2699 1.8673 4.8323
# 5 -3.5563 15.6491 -4.9196 1.8673 14.6486 -3.4361
# 6 5.0076 -1.6175 4.3972 4.8323 -3.4361 9.9596
#
#
#
# Elastic Compliance Matrix: (Units=1/GPa)
#
#
# Indices 1 2 3 4 5 6 
#
# 1 0.048936 -0.016620 0.013112 -0.000037 0.028600 -0.023208
# 2 -0.016620 0.017494 -0.008896 -0.003662 -0.023154 0.008914
# 3 0.013112 -0.008896 0.021875 0.003299 0.016415 -0.013632
# 4 -0.000037 -0.003662 0.003299 0.046823 -0.007359 -0.027289
# 5 0.028600 -0.023154 0.016415 -0.007359 0.110196 0.016201
# 6 -0.023208 0.008914 -0.013632 -0.027289 0.016201 0.138370
#
#
# Mechanical properties :
#
#
# Convention : Reuss Voigt Hill
#
# Bulk Modulus (GPa) = 15.74865 30.89869 23.32367
# Shear Modulus (GPa) = 11.63690 21.60520 16.62105
#
# Velocity S-wave (km/s) = 2.69033 3.66578 3.21527
# Velocity P-wave (km/s) = 4.40974 6.09390 5.31890
#
# Compressibility (1/GPa) = 0.06349750
#
# Stress axis : x y z
#
# Youngs Moduli (GPa) = 20.43476 57.16178 45.71437
#
# Poissons Ratio (x) = 0.95003 -0.59940
# Poissons Ratio (y) = 0.33963 0.40667
# Poissons Ratio (z) = -0.26794 0.50850
#
# Static dielectric constant tensor:
#      x y z
#    x 1.502840 -0.006720 -0.007280 
#    y -0.006720 1.594470 0.006070 
#    z -0.007280 0.006070 1.549350 
# 
# From -- ./inp_files/84034.got.cif
#   From: 2010.05.17/outbox.cif.g08.bks.cpg/sg2_43_cif.got.tgz:84034.got - 2010.06.03 11:33:40.
