data_PCOD9065454
_publ_section_title
;
Structure prediction by ZEFSAII (Michael W. Deem and Ramdas Pophale) SiO2 
 PCOD9065454
Probable space group: P -1
;
_chemical_formula_sum "Si O2"
_cell_formula_units_Z 14
_cell_length_a 5.313251
_cell_length_b 6.960725
_cell_length_c 20.559253
_cell_angle_alpha 125.841129
_cell_angle_beta 68.225334
_cell_angle_gamma 111.650208
_cell_volume 560.659033
_symmetry_space_group_name_H-M "P -1"
_symmetry_group_IT_number 2
_symmetry_cell_setting 'triclinic'
loop_
_space_group_symop_operation_xyz
x,y,z
-x,-y,-z
loop_
_atom_site_type_symbol
_atom_site_label
_atom_site_fract_x
_atom_site_fract_y
_atom_site_fract_z
Si Si1 0.855704 0.644547 0.680806
Si Si2 0.333239 0.058141 0.692041
Si Si3 0.275352 0.708160 0.031156
Si Si4 0.276379 0.896179 0.446475
Si Si5 0.570577 0.088315 0.805715
Si Si6 0.949185 0.547289 0.240550
Si Si7 0.163065 0.162031 0.071895
O O1 0.981411 0.551156 0.716315
O O2 0.769548 0.394855 0.601180
O O3 0.092502 0.828695 0.656014
O O4 0.634465 0.817557 0.752326
O O5 0.601823 0.020227 0.620318
O O6 0.323177 0.075990 0.775347
O O7 0.299213 0.315438 0.716707
O O8 0.417477 0.752871 0.098161
O O9 0.471432 0.285042 0.042662
O O10 0.189691 0.966613 0.084338
O O11 0.000000 0.500000 0.000000
O O12 0.500000 0.000000 0.500000
O O13 0.000000 0.000000 0.500000
O O14 0.807635 0.243937 0.768957
O O15 0.963167 0.334037 0.147234
O O16 0.000000 0.000000 0.000000
#
# Coordination Sequence:
#
# PCOD9065454 Si02
#       7
#     2   2   2   2   2   2   2
#     4  11  26  49  80 112 158 208 261 325 398 481
#     4  11  28  48  81 118 152 208 268 318 409 483
#     4  11  26  49  71 114 159 213 271 339 403 468
#     4  12  29  54  83 122 166 207 259 336 410 499
#     4  11  25  46  80 110 151 214 269 324 389 481
#     4  11  24  48  74 113 158 207 265 335 387 478
#     4  11  26  44  73 109 156 208 268 336 407 453
#
# _framework density 24.970614000000001
#
# number of rings (size 3 to 8) (size 9 to 14) (size 15 to 20)
#    0.000    0.857    2.857    1.714    8.000    8.000 
#    0.000    0.714    0.000    0.000    0.000    0.000 
#    0.000    0.000    0.000    0.000    0.000    0.000 
#
# Total GULP energy -78231.659117 kJ/mol
# GULP energy per Si atom -5587.975651 kJ/mol
# Density = 2.491378 g / cm^3
# Si number density = 24.970614 Si / 1000 Ang^3
#
#
#
# Elastic Constant Matrix: (Units=GPa)
#
#
# Indices 1 2 3 4 5 6 
#
# 1 99.8860 37.3579 51.6415 14.1259 -4.4656 5.4100
# 2 37.3579 154.2136 49.3674 35.9231 -3.7743 -4.9783
# 3 51.6415 49.3674 136.4437 25.6783 11.4279 10.2579
# 4 14.1259 35.9231 25.6783 50.9937 5.2109 1.1347
# 5 -4.4656 -3.7743 11.4279 5.2109 56.2619 -4.6065
# 6 5.4100 -4.9783 10.2579 1.1347 -4.6065 53.4501
#
#
#
# Elastic Compliance Matrix: (Units=1/GPa)
#
#
# Indices 1 2 3 4 5 6 
#
# 1 0.013057 -0.001627 -0.004389 -0.000437 0.001821 -0.000465
# 2 -0.001627 0.008701 -0.001839 -0.004931 0.001412 0.001554
# 3 -0.004389 -0.001839 0.010474 -0.002462 -0.002527 -0.001903
# 4 -0.000437 -0.004931 -0.002462 0.024685 -0.002205 -0.000657
# 5 0.001821 0.001412 -0.002527 -0.002205 0.018903 0.002108
# 6 -0.000465 0.001554 -0.001903 -0.000657 0.002108 0.019462
#
#
# Mechanical properties :
#
#
# Convention : Reuss Voigt Hill
#
# Bulk Modulus (GPa) = 60.52619 74.14189 67.33404
# Shear Modulus (GPa) = 42.91878 48.95291 45.93585
#
# Velocity S-wave (km/s) = 4.15030 4.43247 4.29370
# Velocity P-wave (km/s) = 6.87447 7.48009 7.18367
#
# Compressibility (1/GPa) = 0.01652177
#
# Stress axis : x y z
#
# Youngs Moduli (GPa) = 76.58620 114.92973 95.47781
#
# Poissons Ratio (x) = 0.18697 0.41902
# Poissons Ratio (y) = 0.12459 0.17563
# Poissons Ratio (z) = 0.33611 0.21141
#
# Static dielectric constant tensor:
#      x y z
#    x 2.339380 -0.076750 0.101180 
#    y -0.076750 2.154000 0.059070 
#    z 0.101180 0.059070 2.073980 
# 
# From -- ./inp_files/7965.got.cif
#   From: 2010.05.17/outbox.cif.g08.bks.cpg/sg2_4_cif.got.tgz:7965.got - 2010.06.03 11:33:40.
