data_PCOD9065584
_publ_section_title
;
Structure prediction by ZEFSAII (Michael W. Deem and Ramdas Pophale) SiO2 
 PCOD9065584
Probable space group: P -1
;
_chemical_formula_sum "Si O2"
_cell_formula_units_Z 14
_cell_length_a 14.750440
_cell_length_b 7.568250
_cell_length_c 7.671765
_cell_angle_alpha 40.192866
_cell_angle_beta 73.014754
_cell_angle_gamma 77.906889
_cell_volume 528.474244
_symmetry_space_group_name_H-M "P -1"
_symmetry_group_IT_number 2
_symmetry_cell_setting 'triclinic'
loop_
_space_group_symop_operation_xyz
x,y,z
-x,-y,-z
loop_
_atom_site_type_symbol
_atom_site_label
_atom_site_fract_x
_atom_site_fract_y
_atom_site_fract_z
Si Si1 0.171990 0.682759 0.477989
Si Si2 0.847505 0.205185 0.216510
Si Si3 0.279590 0.219819 0.579253
Si Si4 0.048543 0.141742 0.032625
Si Si5 0.431511 0.846015 0.789575
Si Si6 0.536108 0.700617 0.174006
Si Si7 0.702944 0.594647 0.948836
O O1 0.199522 0.813609 0.550824
O O2 0.249914 0.508338 0.462061
O O3 0.126311 0.932217 0.214186
O O4 0.094290 0.439140 0.742263
O O5 0.812522 0.509307 0.955624
O O6 0.808796 0.987570 0.258813
O O7 0.959795 0.178032 0.185502
O O8 0.362984 0.071458 0.745514
O O9 0.315150 0.265252 0.328809
O O10 0.000000 0.000000 0.000000
O O11 0.355334 0.687939 0.832261
O O12 0.500000 0.000000 0.500000
O O13 0.482273 0.658881 0.046483
O O14 0.500000 0.500000 0.500000
O O15 0.648235 0.710556 0.056487
O O16 0.500000 0.000000 0.000000
#
# Coordination Sequence:
#
# PCOD9065584 Si02
#       7
#     2   2   2   2   2   2   2
#     4  12  28  47  78 109 151 200 250 314 384 448
#     4  11  27  46  74 110 153 191 259 312 382 457
#     4  11  26  47  75 110 150 203 251 323 379 461
#     4  12  25  50  76 109 150 204 248 309 381 461
#     4  11  24  49  74 104 148 206 256 310 395 464
#     4  12  28  46  73 110 146 191 254 317 376 455
#     4  11  26  47  74 103 150 199 249 319 383 456
#
# _framework density 26.491358999999999
#
# number of rings (size 3 to 8) (size 9 to 14) (size 15 to 20)
#    0.000    0.571    2.857    3.429   12.000    0.000 
#    0.000    0.000    0.000    0.000    0.000    0.000 
#    0.000    0.000    0.000    0.000    0.000    0.000 
#
# Total GULP energy -78324.730924 kJ/mol
# GULP energy per Si atom -5594.623637 kJ/mol
# Density = 2.643106 g / cm^3
# Si number density = 26.491359 Si / 1000 Ang^3
#
#
#
# Elastic Constant Matrix: (Units=GPa)
#
#
# Indices 1 2 3 4 5 6 
#
# 1 77.1567 25.4015 25.0317 5.4415 12.2015 -16.5639
# 2 25.4015 173.0009 32.4638 9.8545 9.6284 -18.6496
# 3 25.0317 32.4638 133.7456 16.2023 11.5310 -10.3283
# 4 5.4415 9.8545 16.2023 40.9198 1.3369 4.7895
# 5 12.2015 9.6284 11.5310 1.3369 53.1216 1.0598
# 6 -16.5639 -18.6496 -10.3283 4.7895 1.0598 59.5266
#
#
#
# Elastic Compliance Matrix: (Units=1/GPa)
#
#
# Indices 1 2 3 4 5 6 
#
# 1 0.015334 -0.001263 -0.001863 -0.001336 -0.002929 0.003708
# 2 -0.001263 0.006428 -0.001005 -0.001147 -0.000660 0.001592
# 3 -0.001863 -0.001005 0.008606 -0.002986 -0.001201 0.000922
# 4 -0.001336 -0.001147 -0.002986 0.026452 0.000565 -0.003388
# 5 -0.002929 -0.000660 -0.001201 0.000565 0.019896 -0.001630
# 6 0.003708 0.001592 0.000922 -0.003388 -0.001630 0.018791
#
#
# Mechanical properties :
#
#
# Convention : Reuss Voigt Hill
#
# Bulk Modulus (GPa) = 45.23593 61.07746 53.15669
# Shear Modulus (GPa) = 44.98888 50.78068 47.88478
#
# Velocity S-wave (km/s) = 4.12545 4.38297 4.25616
# Velocity P-wave (km/s) = 6.30914 6.97994 6.65300
#
# Compressibility (1/GPa) = 0.02210632
#
# Stress axis : x y z
#
# Youngs Moduli (GPa) = 65.21394 155.56780 116.19806
#
# Poissons Ratio (x) = 0.19651 0.21644
# Poissons Ratio (y) = 0.08238 0.11679
# Poissons Ratio (z) = 0.12147 0.15636
#
# Static dielectric constant tensor:
#      x y z
#    x 2.145960 -0.079460 -0.018820 
#    y -0.079460 1.932150 -0.066180 
#    z -0.018820 -0.066180 2.086200 
# 
# From -- ./inp_files/293764.got.cif
#   From: 2010.05.17/outbox.cif.g08.bks.cpg/sg2_147_cif.got.tgz:293764.got - 2010.06.03 11:33:40.
