data_PCOD9065564
_publ_section_title
;
Structure prediction by ZEFSAII (Michael W. Deem and Ramdas Pophale) SiO2 
 PCOD9065564
Probable space group: P -1
;
_chemical_formula_sum "Si O2"
_cell_formula_units_Z 16
_cell_length_a 8.386340
_cell_length_b 13.753938
_cell_length_c 9.191462
_cell_angle_alpha 73.558507
_cell_angle_beta 115.307975
_cell_angle_gamma 61.579209
_cell_volume 666.702718
_symmetry_space_group_name_H-M "P -1"
_symmetry_group_IT_number 2
_symmetry_cell_setting 'triclinic'
loop_
_space_group_symop_operation_xyz
x,y,z
-x,-y,-z
loop_
_atom_site_type_symbol
_atom_site_label
_atom_site_fract_x
_atom_site_fract_y
_atom_site_fract_z
Si Si1 0.804411 0.044095 0.285061
Si Si2 0.132704 0.045667 0.962902
Si Si3 0.136637 0.615471 0.670935
Si Si4 0.623427 0.332862 0.048574
Si Si5 0.693296 0.507887 0.525435
Si Si6 0.941639 0.316619 0.945856
Si Si7 0.550063 0.870754 0.642047
Si Si8 0.576381 0.780271 0.397839
O O1 0.702269 0.187815 0.113971
O O2 0.593085 0.080443 0.284635
O O3 0.890817 0.944083 0.224800
O O4 0.000000 0.000000 0.500000
O O5 0.411893 0.916555 0.174875
O O6 0.025594 0.188608 0.933434
O O7 0.000000 0.000000 0.000000
O O8 0.236483 0.681700 0.747161
O O9 0.176403 0.581039 0.530867
O O10 0.853097 0.709952 0.546091
O O11 0.333491 0.461476 0.888799
O O12 0.724460 0.363209 0.944463
O O13 0.500000 0.500000 0.500000
O O14 0.582937 0.662508 0.395353
O O15 0.871967 0.436383 0.763602
O O16 0.168198 0.253902 0.160698
O O17 0.471050 0.825729 0.502199
O O18 0.500000 0.000000 0.500000
#
# Coordination Sequence:
#
# PCOD9065564 Si02
#       8
#     2   2   2   2   2   2   2   2
#     4  12  28  44  76 105 145 194 251 299 379 442
#     4  12  25  47  76 108 144 193 247 309 371 439
#     4  11  26  46  74 102 153 190 247 299 373 438
#     4  11  24  49  72 106 144 200 240 306 365 446
#     4  12  27  45  70 111 145 194 247 302 362 439
#     4  12  25  46  75 105 151 185 244 309 368 432
#     4  12  27  49  71 109 149 189 245 309 369 439
#     4  12  27  47  79 102 154 198 244 304 372 441
#
# _framework density 23.998701000000001
#
# number of rings (size 3 to 8) (size 9 to 14) (size 15 to 20)
#    0.000    0.250    5.000    3.375    7.000    1.000 
#    0.000    0.000    0.000    0.000    0.000    0.000 
#    0.000    0.000    0.000    0.000    0.000    0.000 
#
# Total GULP energy -89642.303319 kJ/mol
# GULP energy per Si atom -5602.643957 kJ/mol
# Density = 2.394408 g / cm^3
# Si number density = 23.998701 Si / 1000 Ang^3
#
#
#
# Elastic Constant Matrix: (Units=GPa)
#
#
# Indices 1 2 3 4 5 6 
#
# 1 60.6073 6.0036 18.6731 5.1053 6.3036 -22.6390
# 2 6.0036 110.9254 15.0567 24.4884 -10.8306 -13.8729
# 3 18.6731 15.0567 124.0398 5.9233 11.4983 -15.8751
# 4 5.1053 24.4884 5.9233 52.3611 -11.6311 -9.2081
# 5 6.3036 -10.8306 11.4983 -11.6311 41.9280 -0.0273
# 6 -22.6390 -13.8729 -15.8751 -9.2081 -0.0273 33.7065
#
#
#
# Elastic Compliance Matrix: (Units=1/GPa)
#
#
# Indices 1 2 3 4 5 6 
#
# 1 0.022705 0.000592 -0.001301 -0.000416 -0.003009 0.014765
# 2 0.000592 0.010556 -0.000938 -0.003918 0.001810 0.003232
# 3 -0.001301 -0.000938 0.009007 -0.000548 -0.002667 0.002830
# 4 -0.000416 -0.003918 -0.000548 0.023001 0.005584 0.004138
# 5 -0.003009 0.001810 -0.002667 0.005584 0.027050 -0.000985
# 6 0.014765 0.003232 0.002830 0.004138 -0.000985 0.043377
#
#
# Mechanical properties :
#
#
# Convention : Reuss Voigt Hill
#
# Bulk Modulus (GPa) = 25.65745 41.67102 33.66423
# Shear Modulus (GPa) = 32.89843 42.65508 37.77675
#
# Velocity S-wave (km/s) = 3.70651 4.22049 3.97182
# Velocity P-wave (km/s) = 5.38813 6.41495 5.92383
#
# Compressibility (1/GPa) = 0.03897504
#
# Stress axis : x y z
#
# Youngs Moduli (GPa) = 44.04290 94.73087 111.02110
#
# Poissons Ratio (x) = -0.05611 0.14449
# Poissons Ratio (y) = -0.02609 0.10409
# Poissons Ratio (z) = 0.05732 0.08882
#
# Static dielectric constant tensor:
#      x y z
#    x 2.144150 -0.083700 0.109710 
#    y -0.083700 1.920600 -0.014910 
#    z 0.109710 -0.014910 1.976540 
# 
# From -- ./inp_files/207007.got.cif
#   From: 2010.05.17/outbox.cif.g08.bks.cpg/sg2_104_cif.got.tgz:207007.got - 2010.06.03 11:33:40.
