data_PCOD9065426
_publ_section_title
;
Structure prediction by ZEFSAII (Michael W. Deem and Ramdas Pophale) SiO2 
 PCOD9065426
Probable space group: P -1
;
_chemical_formula_sum "Si O2"
_cell_formula_units_Z 12
_cell_length_a 9.162170
_cell_length_b 14.331235
_cell_length_c 6.633138
_cell_angle_alpha 92.437578
_cell_angle_beta 76.063479
_cell_angle_gamma 42.108518
_cell_volume 533.074348
_symmetry_space_group_name_H-M "P -1"
_symmetry_group_IT_number 2
_symmetry_cell_setting 'triclinic'
loop_
_space_group_symop_operation_xyz
x,y,z
-x,-y,-z
loop_
_atom_site_type_symbol
_atom_site_label
_atom_site_fract_x
_atom_site_fract_y
_atom_site_fract_z
Si Si1 0.925093 0.818653 0.358685
Si Si2 0.921610 0.487526 0.224857
Si Si3 0.782444 0.360852 0.374853
Si Si4 0.521946 0.993967 0.230158
Si Si5 0.834758 0.168966 0.042706
Si Si6 0.612607 0.726752 0.674140
O O1 0.701720 0.952028 0.591828
O O2 0.097872 0.684471 0.448197
O O3 0.082426 0.818908 0.187949
O O4 0.769382 0.843233 0.236648
O O5 0.853648 0.412845 0.216692
O O6 0.700055 0.643868 0.424522
O O7 0.150365 0.378675 0.283367
O O8 0.000000 0.500000 0.000000
O O9 0.500000 0.500000 0.500000
O O10 0.862128 0.227965 0.224925
O O11 0.497649 0.116891 0.294828
O O12 0.500000 0.000000 0.000000
O O13 0.568290 0.256828 0.154928
O O14 0.000000 0.000000 0.000000
#
# Coordination Sequence:
#
# PCOD9065426 Si02
#       6
#     2   2   2   2   2   2
#     4  11  26  44  75 105 149 196 245 305 374 441
#     4  11  27  48  75 104 147 201 256 308 369 441
#     4  12  27  50  72 109 151 200 253 302 377 447
#     4  11  24  48  73 109 146 196 247 309 376 449
#     4  12  27  47  71 113 153 189 245 312 378 450
#     4  11  25  47  69 110 147 186 262 305 365 453
#
# _framework density 22.510929999999998
#
# number of rings (size 3 to 8) (size 9 to 14) (size 15 to 20)
#    0.000    0.667    5.000    1.000    4.667    2.667 
#    0.000    0.000    0.000    0.000    0.000    0.000 
#    0.000    0.000    0.000    0.000    0.000    0.000 
#
# Total GULP energy -67074.792274 kJ/mol
# GULP energy per Si atom -5589.566023 kJ/mol
# Density = 2.245969 g / cm^3
# Si number density = 22.510930 Si / 1000 Ang^3
#
#
#
# Elastic Constant Matrix: (Units=GPa)
#
#
# Indices 1 2 3 4 5 6 
#
# 1 123.7446 47.4260 57.8838 11.7783 -33.8861 0.9090
# 2 47.4260 95.2207 51.8534 -4.5993 2.2575 -7.5159
# 3 57.8838 51.8534 164.0415 -1.8916 -37.1849 3.4892
# 4 11.7783 -4.5993 -1.8916 40.5161 2.2031 0.1351
# 5 -33.8861 2.2575 -37.1849 2.2031 59.2108 4.8046
# 6 0.9090 -7.5159 3.4892 0.1351 4.8046 43.4654
#
#
#
# Elastic Compliance Matrix: (Units=1/GPa)
#
#
# Indices 1 2 3 4 5 6 
#
# 1 0.013955 -0.007126 -0.000844 -0.005338 0.008116 -0.002337
# 2 -0.007126 0.017518 -0.004971 0.004269 -0.008391 0.004492
# 3 -0.000844 -0.004971 0.009312 -0.000189 0.005742 -0.002224
# 4 -0.005338 0.004269 -0.000189 0.026947 -0.004443 0.001272
# 5 0.008116 -0.008391 0.005742 -0.004443 0.026026 -0.004945
# 6 -0.002337 0.004492 -0.002224 0.001272 -0.004945 0.024553
#
#
# Mechanical properties :
#
#
# Convention : Reuss Voigt Hill
#
# Bulk Modulus (GPa) = 67.10106 77.48146 72.29126
# Shear Modulus (GPa) = 33.52109 43.69471 38.60790
#
# Velocity S-wave (km/s) = 3.86308 4.41051 4.14584
# Velocity P-wave (km/s) = 7.05484 7.77374 7.42300
#
# Compressibility (1/GPa) = 0.01490289
#
# Stress axis : x y z
#
# Youngs Moduli (GPa) = 71.66108 57.08465 107.38873
#
# Poissons Ratio (x) = 0.40676 0.09061
# Poissons Ratio (y) = 0.51062 0.53388
# Poissons Ratio (z) = 0.06046 0.28380
#
# Static dielectric constant tensor:
#      x y z
#    x 1.846800 -0.002850 0.014260 
#    y -0.002850 1.878080 0.021790 
#    z 0.014260 0.021790 1.856560 
# 
# From -- ./inp_files/38577.got.cif
#   From: 2010.05.17/outbox.cif.g08.bks.cpg/sg2_20_cif.got.tgz:38577.got - 2010.06.03 11:33:40.
