data_PCOD9065176
_publ_section_title
;
Structure prediction by ZEFSAII (Michael W. Deem and Ramdas Pophale) SiO2 
 PCOD9065176
Probable space group: P -1
;
_chemical_formula_sum "Si O2"
_cell_formula_units_Z 16
_cell_length_a 6.902634
_cell_length_b 20.779703
_cell_length_c 9.804892
_cell_angle_alpha 129.565640
_cell_angle_beta 45.866676
_cell_angle_gamma 131.863502
_cell_volume 711.612367
_symmetry_space_group_name_H-M "P -1"
_symmetry_group_IT_number 2
_symmetry_cell_setting 'triclinic'
loop_
_space_group_symop_operation_xyz
x,y,z
-x,-y,-z
loop_
_atom_site_type_symbol
_atom_site_label
_atom_site_fract_x
_atom_site_fract_y
_atom_site_fract_z
Si Si1 0.741322 0.327521 0.692219
Si Si2 0.321091 0.427329 0.373960
Si Si3 0.800275 0.161797 0.033727
Si Si4 0.129731 0.034630 0.629607
Si Si5 0.698134 0.142979 0.371294
Si Si6 0.872390 0.400579 0.002614
Si Si7 0.808052 0.625105 0.922977
Si Si8 0.162036 0.085422 0.137479
O O1 0.616841 0.226655 0.559977
O O2 0.868355 0.333337 0.791609
O O3 0.005677 0.380174 0.532620
O O4 0.494601 0.367480 0.875521
O O5 0.500000 0.500000 0.500000
O O6 0.261497 0.442961 0.265078
O O7 0.534086 0.374180 0.176626
O O8 0.672200 0.128258 0.202460
O O9 0.515406 0.124448 0.023236
O O10 0.968312 0.271902 0.093175
O O11 0.027793 0.115543 0.829727
O O12 0.476783 0.065540 0.473686
O O13 0.000000 0.000000 0.500000
O O14 0.973013 0.955405 0.706304
O O15 0.033883 0.159803 0.262338
O O16 0.000000 0.500000 0.000000
O O17 0.055357 0.402048 0.048866
O O18 0.000000 0.000000 0.000000
#
# Coordination Sequence:
#
# PCOD9065176 Si02
#       8
#     2   2   2   2   2   2   2   2
#     4  11  25  46  70 105 141 184 241 294 352 425
#     4  11  24  47  73 108 140 182 236 290 353 430
#     4  12  25  46  68 106 142 183 241 296 351 425
#     4  12  24  45  70  99 142 185 237 292 352 420
#     4  12  25  45  72 101 145 184 241 296 354 423
#     4  11  26  48  70 109 145 180 236 298 351 431
#     4  11  27  45  76 102 146 191 234 295 364 416
#     4  12  26  43  73 105 141 191 235 297 360 413
#
# _framework density 22.484154
#
# number of rings (size 3 to 8) (size 9 to 14) (size 15 to 20)
#    0.000    0.500    6.250    1.500    1.750    6.500 
#    0.000    0.000    0.000    0.000    0.000    0.000 
#    0.000    0.000    0.000    0.000    0.000    0.000 
#
# Total GULP energy -89366.000564 kJ/mol
# GULP energy per Si atom -5585.375035 kJ/mol
# Density = 2.243298 g / cm^3
# Si number density = 22.484154 Si / 1000 Ang^3
#
#
#
# Elastic Constant Matrix: (Units=GPa)
#
#
# Indices 1 2 3 4 5 6 
#
# 1 146.0224 12.7017 47.9595 -15.6439 8.5013 -5.0144
# 2 12.7017 48.8281 15.8986 -22.2124 -7.7766 4.8859
# 3 47.9595 15.8986 144.4476 -15.2350 15.2896 1.2592
# 4 -15.6439 -22.2124 -15.2350 35.9273 10.9971 -2.3271
# 5 8.5013 -7.7766 15.2896 10.9971 46.8634 -7.2157
# 6 -5.0144 4.8859 1.2592 -2.3271 -7.2157 29.5785
#
#
#
# Elastic Compliance Matrix: (Units=1/GPa)
#
#
# Indices 1 2 3 4 5 6 
#
# 1 0.008029 -0.000462 -0.002207 0.002746 -0.001235 0.001446
# 2 -0.000462 0.029133 -0.001357 0.016739 0.000927 -0.003290
# 3 -0.002207 -0.001357 0.008467 0.002761 -0.003408 -0.001125
# 4 0.002746 0.016739 0.002761 0.043210 -0.008946 -0.001200
# 5 -0.001235 0.000927 -0.003408 -0.008946 0.025753 0.005361
# 6 0.001446 -0.003290 -0.001125 -0.001200 0.005361 0.035858
#
#
# Mechanical properties :
#
#
# Convention : Reuss Voigt Hill
#
# Bulk Modulus (GPa) = 26.61231 54.71306 40.66269
# Shear Modulus (GPa) = 29.23482 39.98973 34.61227
#
# Velocity S-wave (km/s) = 3.60980 4.22189 3.92778
# Velocity P-wave (km/s) = 5.40702 6.93921 6.22047
#
# Compressibility (1/GPa) = 0.03757659
#
# Stress axis : x y z
#
# Youngs Moduli (GPa) = 124.54592 34.32478 118.10753
#
# Poissons Ratio (x) = 0.01586 0.26069
# Poissons Ratio (y) = 0.05755 0.16028
# Poissons Ratio (z) = 0.27490 0.04658
#
# Static dielectric constant tensor:
#      x y z
#    x 1.864500 0.053970 -0.014150 
#    y 0.053970 2.008290 -0.062870 
#    z -0.014150 -0.062870 1.858890 
# 
# From -- ./inp_files/53015.got.cif
#   From: 2010.05.17/outbox.cif.g08.bks.cpg/sg2_27_cif.got.tgz:53015.got - 2010.06.03 11:33:40.
