data_PCOD9065356
_publ_section_title
;
Structure prediction by ZEFSAII (Michael W. Deem and Ramdas Pophale) SiO2 
 PCOD9065356
Probable space group: P -1
;
_chemical_formula_sum "Si O2"
_cell_formula_units_Z 16
_cell_length_a 17.801190
_cell_length_b 8.747936
_cell_length_c 12.516637
_cell_angle_alpha 145.170061
_cell_angle_beta 134.822984
_cell_angle_gamma 36.620707
_cell_volume 657.953386
_symmetry_space_group_name_H-M "P -1"
_symmetry_group_IT_number 2
_symmetry_cell_setting 'triclinic'
loop_
_space_group_symop_operation_xyz
x,y,z
-x,-y,-z
loop_
_atom_site_type_symbol
_atom_site_label
_atom_site_fract_x
_atom_site_fract_y
_atom_site_fract_z
Si Si1 0.368617 0.244555 0.943715
Si Si2 0.350185 0.391606 0.448785
Si Si3 0.073205 0.693576 0.977283
Si Si4 0.265855 0.575077 0.695506
Si Si5 0.628137 0.263833 0.925349
Si Si6 0.172809 0.842013 0.353104
Si Si7 0.614555 0.087199 0.449182
Si Si8 0.013745 0.719072 0.425848
O O1 0.225245 0.425589 0.953215
O O2 0.372203 0.533853 0.058324
O O3 0.375103 0.029568 0.728191
O O4 0.500000 0.000000 0.000000
O O5 0.320694 0.583202 0.639761
O O6 0.239118 0.570871 0.353833
O O7 0.472739 0.348069 0.491339
O O8 0.366066 0.050806 0.286152
O O9 0.993992 0.531435 0.797326
O O10 0.077081 0.817992 0.168956
O O11 0.000000 0.000000 0.000000
O O12 0.265359 0.799384 0.916019
O O13 0.351132 0.218728 0.622482
O O14 0.136784 0.607502 0.554427
O O15 0.500000 0.500000 0.000000
O O16 0.282828 0.824548 0.383652
O O17 0.097082 0.163719 0.530939
O O18 0.000000 0.000000 0.500000
#
# Coordination Sequence:
#
# PCOD9065356 Si02
#       8
#     2   2   2   2   2   2   2   2
#     4  11  25  48  76 109 150 196 252 311 377 448
#     4  12  25  47  73 114 148 193 248 304 387 445
#     4  12  30  49  78 112 151 203 255 312 382 453
#     4  11  26  45  74 102 150 189 245 306 372 450
#     4  11  26  44  74 109 147 193 242 313 374 448
#     4  12  28  46  79 106 151 195 255 309 368 458
#     4  11  24  48  70 111 145 196 241 309 371 450
#     4  12  28  51  73 109 150 200 249 312 378 444
#
# _framework density 24.317831999999999
#
# number of rings (size 3 to 8) (size 9 to 14) (size 15 to 20)
#    0.000    0.500    5.000    2.250    8.750    2.500 
#    0.000    0.000    0.000    0.000    0.000    0.000 
#    0.000    0.000    0.000    0.000    0.000    0.000 
#
# Total GULP energy -89554.667719 kJ/mol
# GULP energy per Si atom -5597.166732 kJ/mol
# Density = 2.426248 g / cm^3
# Si number density = 24.317832 Si / 1000 Ang^3
#
#
#
# Elastic Constant Matrix: (Units=GPa)
#
#
# Indices 1 2 3 4 5 6 
#
# 1 62.9983 -3.9408 24.2737 -3.2049 -4.7590 -13.9422
# 2 -3.9408 71.3279 26.4913 -22.0193 -5.1195 -3.6010
# 3 24.2737 26.4913 150.3925 -21.4244 9.0522 8.1160
# 4 -3.2049 -22.0193 -21.4244 43.6593 6.3450 6.9761
# 5 -4.7590 -5.1195 9.0522 6.3450 39.9021 -6.0210
# 6 -13.9422 -3.6010 8.1160 6.9761 -6.0210 34.7252
#
#
#
# Elastic Compliance Matrix: (Units=1/GPa)
#
#
# Indices 1 2 3 4 5 6 
#
# 1 0.021068 0.003542 -0.005312 -0.002027 0.006238 0.011557
# 2 0.003542 0.017825 -0.003072 0.006843 0.002785 0.003097
# 3 -0.005312 -0.003072 0.009293 0.004325 -0.004777 -0.006320
# 4 -0.002027 0.006843 0.004325 0.030611 -0.006478 -0.008388
# 5 0.006238 0.002785 -0.004777 -0.006478 0.029844 0.010386
# 6 0.011557 0.003097 -0.006320 -0.008388 0.010386 0.038722
#
#
# Mechanical properties :
#
#
# Convention : Reuss Voigt Hill
#
# Bulk Modulus (GPa) = 25.97238 42.04080 34.00659
# Shear Modulus (GPa) = 29.43271 39.51695 34.47483
#
# Velocity S-wave (km/s) = 3.48276 4.03553 3.76929
# Velocity P-wave (km/s) = 5.18424 6.24816 5.74090
#
# Compressibility (1/GPa) = 0.03850244
#
# Stress axis : x y z
#
# Youngs Moduli (GPa) = 47.46614 56.10095 107.61361
#
# Poissons Ratio (x) = -0.19873 0.57167
# Poissons Ratio (y) = -0.16815 0.33054
# Poissons Ratio (z) = 0.25215 0.17232
#
# Static dielectric constant tensor:
#      x y z
#    x 1.892870 -0.273010 0.113840 
#    y -0.273010 1.546790 0.229810 
#    z 0.113840 0.229810 1.779560 
# 
# From -- ./inp_files/462588.got.cif
#   From: 2010.05.17/outbox.cif.g08.bks.cpg/sg2_232_cif.got.tgz:462588.got - 2010.06.03 11:33:40.
