data_PCOD9065065
_publ_section_title
;
Structure prediction by ZEFSAII (Michael W. Deem and Ramdas Pophale) SiO2 
 PCOD9065065
Probable space group: P -1
;
_chemical_formula_sum "Si O2"
_cell_formula_units_Z 14
_cell_length_a 5.137385
_cell_length_b 9.027146
_cell_length_c 21.399061
_cell_angle_alpha 138.442423
_cell_angle_beta 75.695144
_cell_angle_gamma 81.632719
_cell_volume 547.198481
_symmetry_space_group_name_H-M "P -1"
_symmetry_group_IT_number 2
_symmetry_cell_setting 'triclinic'
loop_
_space_group_symop_operation_xyz
x,y,z
-x,-y,-z
loop_
_atom_site_type_symbol
_atom_site_label
_atom_site_fract_x
_atom_site_fract_y
_atom_site_fract_z
Si Si1 0.505511 0.011019 0.596664
Si Si2 0.231109 0.234684 0.936047
Si Si3 0.793011 0.259311 0.195064
Si Si4 0.402130 0.109569 0.309483
Si Si5 0.773065 0.402745 0.376557
Si Si6 0.166083 0.680881 0.319866
Si Si7 0.740243 0.699680 0.907470
O O1 0.445306 0.055531 0.689034
O O2 0.634479 0.708038 0.484717
O O3 0.760951 0.093566 0.598988
O O4 0.207036 0.178163 0.622775
O O5 0.116020 0.038917 0.904320
O O6 0.476459 0.066949 0.815018
O O7 0.312282 0.316805 0.021982
O O8 0.000000 0.500000 0.000000
O O9 0.913031 0.309467 0.269016
O O10 0.414774 0.449085 0.277074
O O11 0.941106 0.329202 0.150149
O O12 0.519053 0.315143 0.368015
O O13 0.028992 0.260560 0.371033
O O14 0.287106 0.521787 0.197088
O O15 0.500000 0.000000 0.000000
#
# Coordination Sequence:
#
# PCOD9065065 Si02
#       7
#     2   2   2   2   2   2   2
#     4  12  25  46  74 108 144 191 242 303 358 431
#     4  11  25  44  75 108 141 192 246 300 358 429
#     4  11  26  47  72 107 151 191 242 297 368 438
#     4  11  24  47  70 108 149 186 244 299 363 438
#     4  11  25  45  76 103 146 195 236 299 372 425
#     4  12  26  44  72 105 146 186 249 291 355 440
#     4  12  24  46  73 100 146 202 234 295 373 426
#
# _framework density 25.584865000000001
#
# number of rings (size 3 to 8) (size 9 to 14) (size 15 to 20)
#    0.000    0.571    2.857    4.714    2.000    2.286 
#    0.000    4.286    0.000    0.000    0.000    0.000 
#    0.000    0.000    0.000    0.000    0.000    0.000 
#
# Total GULP energy -78337.946565 kJ/mol
# GULP energy per Si atom -5595.567612 kJ/mol
# Density = 2.552663 g / cm^3
# Si number density = 25.584865 Si / 1000 Ang^3
#
#
#
# Elastic Constant Matrix: (Units=GPa)
#
#
# Indices 1 2 3 4 5 6 
#
# 1 116.6629 26.3695 8.6035 -3.5578 -9.6130 -23.4498
# 2 26.3695 125.2544 13.7159 -3.6110 -3.2848 -23.8545
# 3 8.6035 13.7159 83.3866 1.3494 -2.2224 1.7547
# 4 -3.5578 -3.6110 1.3494 51.8102 -5.1089 -3.1333
# 5 -9.6130 -3.2848 -2.2224 -5.1089 20.6248 3.6950
# 6 -23.4498 -23.8545 1.7547 -3.1333 3.6950 36.8039
#
#
#
# Elastic Compliance Matrix: (Units=1/GPa)
#
#
# Indices 1 2 3 4 5 6 
#
# 1 0.010370 -0.000818 -0.000977 0.001419 0.003901 0.005853
# 2 -0.000818 0.009462 -0.001605 0.001010 0.000171 0.005757
# 3 -0.000977 -0.001605 0.012441 -0.000557 0.000921 -0.002396
# 4 0.001419 0.001010 -0.000557 0.020170 0.005262 0.002774
# 5 0.003901 0.000171 0.000921 0.005262 0.052133 -0.002234
# 6 0.005853 0.005757 -0.002396 0.002774 -0.002234 0.035206
#
#
# Mechanical properties :
#
#
# Convention : Reuss Voigt Hill
#
# Bulk Modulus (GPa) = 39.25950 46.96465 43.11207
# Shear Modulus (GPa) = 32.24278 40.28879 36.26579
#
# Velocity S-wave (km/s) = 3.55382 3.97257 3.76902
# Velocity P-wave (km/s) = 5.67606 6.27997 5.98564
#
# Compressibility (1/GPa) = 0.02547154
#
# Stress axis : x y z
#
# Youngs Moduli (GPa) = 96.43347 105.68931 80.37859
#
# Poissons Ratio (x) = 0.08648 0.07857
# Poissons Ratio (y) = 0.07891 0.12899
# Poissons Ratio (z) = 0.09426 0.16961
#
# Static dielectric constant tensor:
#      x y z
#    x 2.050410 0.041010 -0.055160 
#    y 0.041010 1.987090 -0.028300 
#    z -0.055160 -0.028300 1.993060 
# 
# From -- ./inp_files/372961.got.cif
#   From: 2010.05.17/outbox.cif.g08.bks.cpg/sg2_187_cif.got.tgz:372961.got - 2010.06.03 11:33:40.
