data_PCOD9065446
_publ_section_title
;
Structure prediction by ZEFSAII (Michael W. Deem and Ramdas Pophale) SiO2 
 PCOD9065446
Probable space group: P -1
;
_chemical_formula_sum "Si O2"
_cell_formula_units_Z 14
_cell_length_a 6.248905
_cell_length_b 16.727931
_cell_length_c 5.907062
_cell_angle_alpha 81.096479
_cell_angle_beta 80.352340
_cell_angle_gamma 101.096996
_cell_volume 586.088640
_symmetry_space_group_name_H-M "P -1"
_symmetry_group_IT_number 2
_symmetry_cell_setting 'triclinic'
loop_
_space_group_symop_operation_xyz
x,y,z
-x,-y,-z
loop_
_atom_site_type_symbol
_atom_site_label
_atom_site_fract_x
_atom_site_fract_y
_atom_site_fract_z
Si Si1 0.987416 0.254515 0.745625
Si Si2 0.171618 0.039233 0.149431
Si Si3 0.643589 0.442506 0.616056
Si Si4 0.973503 0.599781 0.648938
Si Si5 0.550854 0.180995 0.138314
Si Si6 0.167072 0.887745 0.515047
Si Si7 0.310518 0.309177 0.029476
O O1 0.951689 0.192010 0.571393
O O2 0.047721 0.347481 0.596973
O O3 0.180970 0.248398 0.886219
O O4 0.758883 0.230108 0.935104
O O5 0.394384 0.109915 0.045587
O O6 0.018126 0.082425 0.316827
O O7 0.246785 0.963821 0.296471
O O8 0.000000 0.000000 0.000000
O O9 0.500000 0.500000 0.500000
O O10 0.831707 0.506108 0.696893
O O11 0.497952 0.376551 0.838529
O O12 0.767615 0.402836 0.411820
O O13 0.868349 0.646166 0.842355
O O14 0.645851 0.137111 0.349758
O O15 0.418263 0.251244 0.198853
#
# Coordination Sequence:
#
# PCOD9065446 Si02
#       7
#     2   2   2   2   2   2   2
#     4  12  25  46  69 108 149 188 256 302 364 453
#     4  11  25  49  72 107 147 191 249 308 367 443
#     4  11  24  48  74 107 148 198 248 309 372 438
#     4  11  25  46  71 110 148 191 255 306 368 447
#     4  12  25  44  72 106 144 198 245 300 378 437
#     4  11  26  45  72 105 146 195 246 306 368 446
#     4  12  26  47  75 109 149 201 247 310 372 435
#
# _framework density 23.887173000000001
#
# number of rings (size 3 to 8) (size 9 to 14) (size 15 to 20)
#    0.000    0.571    2.857    5.143    0.000    9.714 
#    2.571    0.000    0.000    0.000    0.000    0.000 
#    0.000    0.000    0.000    0.000    0.000    0.000 
#
# Total GULP energy -78367.934663 kJ/mol
# GULP energy per Si atom -5597.709619 kJ/mol
# Density = 2.383280 g / cm^3
# Si number density = 23.887173 Si / 1000 Ang^3
#
#
#
# Elastic Constant Matrix: (Units=GPa)
#
#
# Indices 1 2 3 4 5 6 
#
# 1 121.0986 68.4586 66.4317 -7.4809 1.0658 -21.8245
# 2 68.4586 126.6524 52.4300 -7.5469 -0.5315 -1.0239
# 3 66.4317 52.4300 84.2360 -7.8117 -4.1939 -2.2560
# 4 -7.4809 -7.5469 -7.8117 50.2351 3.1712 -4.9172
# 5 1.0658 -0.5315 -4.1939 3.1712 38.1345 -4.8837
# 6 -21.8245 -1.0239 -2.2560 -4.9172 -4.8837 58.8282
#
#
#
# Elastic Compliance Matrix: (Units=1/GPa)
#
#
# Indices 1 2 3 4 5 6 
#
# 1 0.018607 -0.005341 -0.011147 0.000927 -0.001082 0.006370
# 2 -0.005341 0.012201 -0.003418 0.000341 -0.000328 -0.001899
# 3 -0.011147 -0.003418 0.022911 0.000945 0.002315 -0.003045
# 4 0.000927 0.000341 0.000945 0.020524 -0.001369 0.001988
# 5 -0.001082 -0.000328 0.002315 -0.001369 0.026847 0.001796
# 6 0.006370 -0.001899 -0.003045 0.001988 0.001796 0.019527
#
#
# Mechanical properties :
#
#
# Convention : Reuss Voigt Hill
#
# Bulk Modulus (GPa) = 71.90328 78.51416 75.20872
# Shear Modulus (GPa) = 30.29136 39.08400 34.68768
#
# Velocity S-wave (km/s) = 3.56490 4.04938 3.81484
# Velocity P-wave (km/s) = 6.86377 7.40293 7.13844
#
# Compressibility (1/GPa) = 0.01390757
#
# Stress axis : x y z
#
# Youngs Moduli (GPa) = 53.74403 81.96202 43.64696
#
# Poissons Ratio (x) = 0.43773 0.48654
# Poissons Ratio (y) = 0.28703 0.14917
# Poissons Ratio (z) = 0.59909 0.28012
#
# Static dielectric constant tensor:
#      x y z
#    x 1.941510 -0.009950 -0.006390 
#    y -0.009950 1.918030 -0.003860 
#    z -0.006390 -0.003860 1.911300 
# 
# From -- ./inp_files/7499.got.cif
#   From: 2010.05.17/outbox.cif.g08.bks.cpg/sg2_4_cif.got.tgz:7499.got - 2010.06.03 11:33:40.
