data_PCOD9065151
_publ_section_title
;
Structure prediction by ZEFSAII (Michael W. Deem and Ramdas Pophale) SiO2 
 PCOD9065151
Probable space group: P -1
;
_chemical_formula_sum "Si O2"
_cell_formula_units_Z 16
_cell_length_a 21.857532
_cell_length_b 8.742886
_cell_length_c 12.380447
_cell_angle_alpha 48.104396
_cell_angle_beta 140.178606
_cell_angle_gamma 152.908050
_cell_volume 688.967779
_symmetry_space_group_name_H-M "P -1"
_symmetry_group_IT_number 2
_symmetry_cell_setting 'triclinic'
loop_
_space_group_symop_operation_xyz
x,y,z
-x,-y,-z
loop_
_atom_site_type_symbol
_atom_site_label
_atom_site_fract_x
_atom_site_fract_y
_atom_site_fract_z
Si Si1 0.724420 0.408388 0.345926
Si Si2 0.170847 0.720827 0.085189
Si Si3 0.039386 0.326496 0.642157
Si Si4 0.283446 0.053223 0.390459
Si Si5 0.753487 0.554695 0.555299
Si Si6 0.437262 0.501030 0.021970
Si Si7 0.455959 0.472393 0.639051
Si Si8 0.052406 0.322672 0.899261
O O1 0.858450 0.567888 0.370503
O O2 0.776660 0.610830 0.430942
O O3 0.661173 0.087297 0.457412
O O4 0.609599 0.353051 0.147608
O O5 0.229942 0.648464 0.283246
O O6 0.286076 0.109510 0.039906
O O7 0.000000 0.500000 0.000000
O O8 0.156797 0.583171 0.015297
O O9 0.000000 0.500000 0.500000
O O10 0.119379 0.437586 0.815014
O O11 0.888965 0.921900 0.621431
O O12 0.339722 0.242348 0.490242
O O13 0.378707 0.293872 0.303416
O O14 0.101507 0.792433 0.254639
O O15 0.589196 0.380471 0.445800
O O16 0.555078 0.688559 0.194266
O O17 0.500000 0.500000 0.000000
O O18 0.000000 0.000000 0.000000
#
# Coordination Sequence:
#
# PCOD9065151 Si02
#       8
#     2   2   2   2   2   2   2   2
#     4  12  26  44  69 101 143 183 235 294 362 411
#     4  12  27  46  74 105 140 190 243 293 351 427
#     4  12  25  43  71 105 140 184 231 297 364 419
#     4  11  25  46  72 103 136 191 233 293 353 437
#     4  12  24  46  71 100 141 189 233 287 357 434
#     4  12  28  46  70 106 147 185 241 302 355 422
#     4  11  24  47  72  97 142 185 240 282 359 434
#     4  12  24  47  71 106 142 181 244 294 353 425
#
# _framework density 23.223147000000001
#
# number of rings (size 3 to 8) (size 9 to 14) (size 15 to 20)
#    0.000    0.250    5.000    3.375    5.250    2.500 
#    0.000    0.000    0.000    0.000    0.000    0.000 
#    0.000    0.000    0.000    0.000    0.000    0.000 
#
# Total GULP energy -89492.532735 kJ/mol
# GULP energy per Si atom -5593.283296 kJ/mol
# Density = 2.317029 g / cm^3
# Si number density = 23.223147 Si / 1000 Ang^3
#
#
#
# Elastic Constant Matrix: (Units=GPa)
#
#
# Indices 1 2 3 4 5 6 
#
# 1 142.7720 4.9706 52.1268 10.6439 -28.4179 3.7081
# 2 4.9706 28.2264 -3.7103 -5.1246 -7.0322 1.5135
# 3 52.1268 -3.7103 141.4698 -21.9391 -12.9269 1.1324
# 4 10.6439 -5.1246 -21.9391 27.3876 -5.1227 6.2808
# 5 -28.4179 -7.0322 -12.9269 -5.1227 60.6212 -2.6999
# 6 3.7081 1.5135 1.1324 6.2808 -2.6999 33.3296
#
#
#
# Elastic Compliance Matrix: (Units=1/GPa)
#
#
# Indices 1 2 3 4 5 6 
#
# 1 0.009952 -0.003221 -0.004758 -0.007999 0.002642 0.000922
# 2 -0.003221 0.040944 0.005105 0.014944 0.005411 -0.004052
# 3 -0.004758 0.005105 0.011067 0.012511 0.001677 -0.002300
# 4 -0.007999 0.014944 0.012511 0.055723 0.004901 -0.010317
# 5 0.002642 0.005411 0.001677 0.004901 0.019135 0.000030
# 6 0.000922 -0.004052 -0.002300 -0.010317 0.000030 0.032110
#
#
# Mechanical properties :
#
#
# Convention : Reuss Voigt Hill
#
# Bulk Modulus (GPa) = 17.78862 46.58249 32.18556
# Shear Modulus (GPa) = 25.85079 41.53976 33.69528
#
# Velocity S-wave (km/s) = 3.34001 4.23392 3.81325
# Velocity P-wave (km/s) = 4.74876 6.63352 5.76863
#
# Compressibility (1/GPa) = 0.05621571
#
# Stress axis : x y z
#
# Youngs Moduli (GPa) = 100.48556 24.42332 90.35486
#
# Poissons Ratio (x) = 0.07868 0.42989
# Poissons Ratio (y) = 0.32370 -0.46127
# Poissons Ratio (z) = 0.47809 -0.12468
#
# Static dielectric constant tensor:
#      x y z
#    x 1.883110 -0.013650 -0.012760 
#    y -0.013650 1.961980 -0.013880 
#    z -0.012760 -0.013880 1.895590 
# 
# From -- ./inp_files/223231.got.cif
#   From: 2010.05.17/outbox.cif.g08.bks.cpg/sg2_112_cif.got.tgz:223231.got - 2010.06.03 11:33:40.
