data_PCOD9065864
_publ_section_title
;
Structure prediction by ZEFSAII (Michael W. Deem and Ramdas Pophale) SiO2 
 PCOD9065864
Probable space group: P -1
;
_chemical_formula_sum "Si O2"
_cell_formula_units_Z 16
_cell_length_a 13.539311
_cell_length_b 12.487830
_cell_length_c 8.923218
_cell_angle_alpha 44.351225
_cell_angle_beta 114.999760
_cell_angle_gamma 138.446800
_cell_volume 678.676397
_symmetry_space_group_name_H-M "P -1"
_symmetry_group_IT_number 2
_symmetry_cell_setting 'triclinic'
loop_
_space_group_symop_operation_xyz
x,y,z
-x,-y,-z
loop_
_atom_site_type_symbol
_atom_site_label
_atom_site_fract_x
_atom_site_fract_y
_atom_site_fract_z
Si Si1 0.620860 0.997096 0.187311
Si Si2 0.632082 0.704051 0.664442
Si Si3 0.383915 0.260228 0.040716
Si Si4 0.135910 0.219720 0.460870
Si Si5 0.607619 0.199208 0.259481
Si Si6 0.123347 0.506430 0.643300
Si Si7 0.267069 0.635733 0.284058
Si Si8 0.910412 0.022229 0.033975
O O1 0.673066 0.899080 0.407852
O O2 0.450110 0.783577 0.233947
O O3 0.605361 0.115393 0.182605
O O4 0.732624 0.185242 0.948254
O O5 0.675749 0.762690 0.807869
O O6 0.719271 0.660934 0.672502
O O7 0.453183 0.480445 0.786309
O O8 0.526017 0.283945 0.118738
O O9 0.241456 0.059214 0.058018
O O10 0.153905 0.413531 0.337418
O O11 0.000000 0.000000 0.500000
O O12 0.140940 0.124823 0.709395
O O13 0.770486 0.341718 0.302209
O O14 0.500000 0.000000 0.500000
O O15 0.227303 0.574070 0.495389
O O16 0.000000 0.500000 0.500000
O O17 0.031362 0.273888 0.884943
O O18 0.000000 0.000000 0.000000
#
# Coordination Sequence:
#
# PCOD9065864 Si02
#       8
#     2   2   2   2   2   2   2   2
#     4  11  25  44  74 103 139 186 243 306 353 420
#     4  11  25  43  72 104 140 182 250 291 362 422
#     4  11  25  45  76 107 140 191 244 302 355 437
#     4  12  28  48  69 106 149 194 234 299 369 437
#     4  12  23  46  74 105 142 186 244 294 361 431
#     4  12  28  46  72 108 145 188 236 299 364 436
#     4  11  25  47  69 101 145 185 240 297 361 425
#     4  12  27  46  74 102 148 189 241 299 367 426
#
# _framework density 23.575301
#
# number of rings (size 3 to 8) (size 9 to 14) (size 15 to 20)
#    0.000    0.500    3.750    3.000    8.750    3.000 
#    0.000    1.250    0.000    0.000    0.000    0.000 
#    0.000    0.000    0.000    0.000    0.000    0.000 
#
# Total GULP energy -89417.017100 kJ/mol
# GULP energy per Si atom -5588.563569 kJ/mol
# Density = 2.352164 g / cm^3
# Si number density = 23.575301 Si / 1000 Ang^3
#
#
#
# Elastic Constant Matrix: (Units=GPa)
#
#
# Indices 1 2 3 4 5 6 
#
# 1 55.4023 9.4079 15.0764 14.9440 -1.2376 -5.3834
# 2 9.4079 134.2744 16.8383 -8.4546 -2.8386 8.1170
# 3 15.0764 16.8383 137.6846 -17.2946 -13.9480 6.5673
# 4 14.9440 -8.4546 -17.2946 39.0165 -3.7114 -2.6227
# 5 -1.2376 -2.8386 -13.9480 -3.7114 32.6125 2.9171
# 6 -5.3834 8.1170 6.5673 -2.6227 2.9171 28.8493
#
#
#
# Elastic Compliance Matrix: (Units=1/GPa)
#
#
# Indices 1 2 3 4 5 6 
#
# 1 0.022958 -0.002149 -0.004165 -0.011028 -0.002810 0.005118
# 2 -0.002149 0.007946 -0.000217 0.002378 0.001009 -0.002473
# 3 -0.004165 -0.000217 0.009074 0.005826 0.004610 -0.002718
# 4 -0.011028 0.002378 0.005826 0.033435 0.006232 -0.001644
# 5 -0.002810 0.001009 0.004610 0.006232 0.033746 -0.004703
# 6 0.005118 -0.002473 -0.002718 -0.001644 -0.004703 0.037259
#
#
# Mechanical properties :
#
#
# Convention : Reuss Voigt Hill
#
# Bulk Modulus (GPa) = 37.15584 45.55628 41.35606
# Shear Modulus (GPa) = 30.03868 39.16488 34.60178
#
# Velocity S-wave (km/s) = 3.57341 4.08029 3.83523
# Velocity P-wave (km/s) = 5.72891 6.44701 6.09854
#
# Compressibility (1/GPa) = 0.02691367
#
# Stress axis : x y z
#
# Youngs Moduli (GPa) = 43.55864 125.85128 110.20309
#
# Poissons Ratio (x) = 0.27051 0.45900
# Poissons Ratio (y) = 0.09363 0.02397
# Poissons Ratio (z) = 0.18142 0.02737
#
# Static dielectric constant tensor:
#      x y z
#    x 1.948590 0.019080 0.057300 
#    y 0.019080 1.950580 0.025600 
#    z 0.057300 0.025600 1.921960 
# 
# From -- ./inp_files/306540.got.cif
#   From: 2010.05.17/outbox.cif.g08.bks.cpg/sg2_154_cif.got.tgz:306540.got - 2010.06.03 11:33:40.
