data_PCOD9065055
_publ_section_title
;
Structure prediction by ZEFSAII (Michael W. Deem and Ramdas Pophale) SiO2 
 PCOD9065055
Probable space group: P -1
;
_chemical_formula_sum "Si O2"
_cell_formula_units_Z 16
_cell_length_a 18.234202
_cell_length_b 9.228400
_cell_length_c 6.450055
_cell_angle_alpha 76.835138
_cell_angle_beta 53.460106
_cell_angle_gamma 54.857417
_cell_volume 702.077657
_symmetry_space_group_name_H-M "P -1"
_symmetry_group_IT_number 2
_symmetry_cell_setting 'triclinic'
loop_
_space_group_symop_operation_xyz
x,y,z
-x,-y,-z
loop_
_atom_site_type_symbol
_atom_site_label
_atom_site_fract_x
_atom_site_fract_y
_atom_site_fract_z
Si Si1 0.407658 0.441773 0.837434
Si Si2 0.686175 0.737867 0.665508
Si Si3 0.001097 0.820241 0.063261
Si Si4 0.248569 0.544571 0.689426
Si Si5 0.713189 0.235925 0.778075
Si Si6 0.888490 0.692938 0.584395
Si Si7 0.638165 0.104536 0.579366
Si Si8 0.166343 0.072048 0.028141
O O1 0.330902 0.515695 0.741523
O O2 0.534410 0.296208 0.618499
O O3 0.369131 0.334922 0.073077
O O4 0.383842 0.604704 0.970993
O O5 0.710800 0.639746 0.435521
O O6 0.801561 0.684125 0.592635
O O7 0.614264 0.951973 0.692359
O O8 0.925115 0.810872 0.366070
O O9 0.124237 0.648383 0.945285
O O10 0.949620 0.820531 0.929320
O O11 0.000000 0.000000 0.000000
O O12 0.246673 0.674578 0.475640
O O13 0.672177 0.139298 0.734180
O O14 0.808367 0.094851 0.819134
O O15 0.000000 0.500000 0.500000
O O16 0.831937 0.791133 0.863342
O O17 0.738619 0.018974 0.275787
#
# Coordination Sequence:
#
# PCOD9065055 Si02
#       8
#     2   2   2   2   2   2   2   2
#     4  11  26  45  72 101 139 188 229 290 352 410
#     4  11  25  45  67 102 142 177 236 289 343 421
#     4  12  25  44  70 103 142 183 240 290 349 422
#     4  11  26  45  69 105 141 180 237 287 351 419
#     4  11  24  47  70 103 142 179 237 289 345 423
#     4  12  26  44  71 103 142 189 233 288 355 419
#     4  12  25  45  71 103 139 184 237 285 348 421
#     4  12  25  43  72 100 138 185 230 286 351 412
#
# _framework density 22.789501000000001
#
# number of rings (size 3 to 8) (size 9 to 14) (size 15 to 20)
#    0.000    0.500    2.500    5.250    3.500    9.500 
#    0.000    0.000    0.000    0.000    0.000    0.000 
#    0.000    0.000    0.000    0.000    0.000    0.000 
#
# Total GULP energy -89627.904090 kJ/mol
# GULP energy per Si atom -5601.744006 kJ/mol
# Density = 2.273763 g / cm^3
# Si number density = 22.789501 Si / 1000 Ang^3
#
#
#
# Elastic Constant Matrix: (Units=GPa)
#
#
# Indices 1 2 3 4 5 6 
#
# 1 87.1168 26.6063 44.3470 22.3569 18.8666 -9.8381
# 2 26.6063 103.4233 39.8312 19.8970 12.3671 2.3823
# 3 44.3470 39.8312 99.1219 14.1287 13.8302 7.5306
# 4 22.3569 19.8970 14.1287 46.1366 0.7030 -0.4184
# 5 18.8666 12.3671 13.8302 0.7030 33.8793 3.2125
# 6 -9.8381 2.3823 7.5306 -0.4184 3.2125 55.7159
#
#
#
# Elastic Compliance Matrix: (Units=1/GPa)
#
#
# Indices 1 2 3 4 5 6 
#
# 1 0.018975 -0.000114 -0.006681 -0.006934 -0.008097 0.004673
# 2 -0.000114 0.012317 -0.003953 -0.004003 -0.002747 0.000116
# 3 -0.006681 -0.003953 0.014935 0.000352 -0.000657 -0.002989
# 4 -0.006934 -0.004003 0.000352 0.026571 0.004739 -0.001175
# 5 -0.008097 -0.002747 -0.000657 0.004739 0.035505 -0.003235
# 6 0.004673 0.000116 -0.002989 -0.001175 -0.003235 0.019350
#
#
# Mechanical properties :
#
#
# Convention : Reuss Voigt Hill
#
# Bulk Modulus (GPa) = 40.43509 56.80343 48.61926
# Shear Modulus (GPa) = 31.76775 39.07153 35.41964
#
# Velocity S-wave (km/s) = 3.73763 4.14509 3.94662
# Velocity P-wave (km/s) = 6.03390 6.92014 6.49216
#
# Compressibility (1/GPa) = 0.02473099
#
# Stress axis : x y z
#
# Youngs Moduli (GPa) = 52.69997 81.19023 66.95806
#
# Poissons Ratio (x) = 0.00925 0.44732
# Poissons Ratio (y) = 0.00601 0.26471
# Poissons Ratio (z) = 0.35207 0.32098
#
# Static dielectric constant tensor:
#      x y z
#    x 1.803490 0.003740 -0.011200 
#    y 0.003740 1.863290 -0.015980 
#    z -0.011200 -0.015980 1.845600 
# 
# From -- ./inp_files/106659.got.cif
#   From: 2010.05.17/outbox.cif.g08.bks.cpg/sg2_54_cif.got.tgz:106659.got - 2010.06.03 11:33:40.
