data_PCOD9065056
_publ_section_title
;
Structure prediction by ZEFSAII (Michael W. Deem and Ramdas Pophale) SiO2 
 PCOD9065056
Probable space group: P -1
;
_chemical_formula_sum "Si O2"
_cell_formula_units_Z 16
_cell_length_a 15.198536
_cell_length_b 8.156242
_cell_length_c 8.152935
_cell_angle_alpha 48.949497
_cell_angle_beta 112.572101
_cell_angle_gamma 95.925450
_cell_volume 687.521549
_symmetry_space_group_name_H-M "P -1"
_symmetry_group_IT_number 2
_symmetry_cell_setting 'triclinic'
loop_
_space_group_symop_operation_xyz
x,y,z
-x,-y,-z
loop_
_atom_site_type_symbol
_atom_site_label
_atom_site_fract_x
_atom_site_fract_y
_atom_site_fract_z
Si Si1 0.807772 0.569033 0.112098
Si Si2 0.061908 0.131085 0.069153
Si Si3 0.358048 0.357600 0.314415
Si Si4 0.926250 0.181526 0.225443
Si Si5 0.448984 0.604220 0.731199
Si Si6 0.395661 0.170875 0.813473
Si Si7 0.757111 0.221899 0.536879
Si Si8 0.266631 0.852006 0.049372
O O1 0.873665 0.385461 0.163602
O O2 0.776466 0.448644 0.325952
O O3 0.880380 0.729222 0.094740
O O4 0.713632 0.675448 0.863783
O O5 0.987217 0.253735 0.070784
O O6 0.151819 0.965734 0.331903
O O7 0.000000 0.000000 0.000000
O O8 0.470710 0.306851 0.373409
O O9 0.351671 0.223620 0.564782
O O10 0.327367 0.623511 0.159966
O O11 0.837150 0.083550 0.155637
O O12 0.000000 0.000000 0.500000
O O13 0.414420 0.404423 0.741764
O O14 0.352354 0.785543 0.588773
O O15 0.500000 0.500000 0.000000
O O16 0.500000 0.000000 0.000000
O O17 0.325461 0.047279 0.948356
O O18 0.753731 0.208203 0.739284
#
# Coordination Sequence:
#
# PCOD9065056 Si02
#       8
#     2   2   2   2   2   2   2   2
#     4  11  27  46  77 104 140 192 236 295 369 421
#     4  12  27  49  70 106 144 187 242 297 356 430
#     4  11  24  47  70 104 146 185 238 291 353 431
#     4  11  24  49  73 105 144 184 240 303 352 427
#     4  12  25  45  68 105 151 185 230 296 354 422
#     4  12  25  44  77 102 138 195 238 284 360 425
#     4  12  25  46  71 105 147 180 242 294 355 429
#     4  11  25  45  73 105 143 186 238 293 351 427
#
# _framework density 23.271996000000001
#
# number of rings (size 3 to 8) (size 9 to 14) (size 15 to 20)
#    0.000    0.500    6.250    1.500    3.500    1.500 
#    2.250    1.875    0.000    0.000    0.000    0.000 
#    0.000    0.000    0.000    0.000    0.000    0.000 
#
# Total GULP energy -89567.770316 kJ/mol
# GULP energy per Si atom -5597.985645 kJ/mol
# Density = 2.321903 g / cm^3
# Si number density = 23.271996 Si / 1000 Ang^3
#
#
#
# Elastic Constant Matrix: (Units=GPa)
#
#
# Indices 1 2 3 4 5 6 
#
# 1 176.6371 38.9840 51.8641 -0.8524 -4.9351 18.1002
# 2 38.9840 67.6721 18.9786 4.8856 -8.5730 17.4789
# 3 51.8641 18.9786 112.6142 16.9802 -6.0487 14.5094
# 4 -0.8524 4.8856 16.9802 28.6612 -3.1900 4.0228
# 5 -4.9351 -8.5730 -6.0487 -3.1900 61.4079 -2.5602
# 6 18.1002 17.4789 14.5094 4.0228 -2.5602 33.2002
#
#
#
# Elastic Compliance Matrix: (Units=1/GPa)
#
#
# Indices 1 2 3 4 5 6 
#
# 1 0.007454 -0.003289 -0.003139 0.002817 -0.000078 -0.001308
# 2 -0.003289 0.019153 -0.000326 -0.001861 0.001957 -0.007771
# 3 -0.003139 -0.000326 0.011706 -0.006590 0.000413 -0.002402
# 4 0.002817 -0.001861 -0.006590 0.039672 0.001279 -0.002385
# 5 -0.000078 0.001957 0.000413 0.001279 0.016657 -0.000039
# 6 -0.001308 -0.007771 -0.002402 -0.002385 -0.000039 0.036260
#
#
# Mechanical properties :
#
#
# Convention : Reuss Voigt Hill
#
# Bulk Modulus (GPa) = 40.31561 64.06408 52.18985
# Shear Modulus (GPa) = 32.74816 41.12697 36.93756
#
# Velocity S-wave (km/s) = 3.75532 4.20840 3.98830
# Velocity P-wave (km/s) = 6.01370 7.15558 6.60935
#
# Compressibility (1/GPa) = 0.02480429
#
# Stress axis : x y z
#
# Youngs Moduli (GPa) = 134.14797 52.21126 85.42709
#
# Poissons Ratio (x) = 0.17174 0.26817
# Poissons Ratio (y) = 0.44126 0.02784
# Poissons Ratio (z) = 0.42112 0.01702
#
# Static dielectric constant tensor:
#      x y z
#    x 1.871440 -0.034400 0.004700 
#    y -0.034400 1.915900 -0.032300 
#    z 0.004700 -0.032300 1.872280 
# 
# From -- ./inp_files/47968.got.cif
#   From: 2010.05.17/outbox.cif.g08.bks.cpg/sg2_24_cif.got.tgz:47968.got - 2010.06.03 11:33:40.
