data_PCOD9065712
_publ_section_title
;
Structure prediction by ZEFSAII (Michael W. Deem and Ramdas Pophale) SiO2 
 PCOD9065712
Probable space group: P -1
;
_chemical_formula_sum "Si O2"
_cell_formula_units_Z 12
_cell_length_a 4.855619
_cell_length_b 13.529836
_cell_length_c 6.891774
_cell_angle_alpha 96.801128
_cell_angle_beta 115.492086
_cell_angle_gamma 84.504978
_cell_volume 405.298669
_symmetry_space_group_name_H-M "P -1"
_symmetry_group_IT_number 2
_symmetry_cell_setting 'triclinic'
loop_
_space_group_symop_operation_xyz
x,y,z
-x,-y,-z
loop_
_atom_site_type_symbol
_atom_site_label
_atom_site_fract_x
_atom_site_fract_y
_atom_site_fract_z
Si Si1 0.316607 0.045765 0.173441
Si Si2 0.315201 0.699404 0.073433
Si Si3 0.098289 0.416431 0.791372
Si Si4 0.669417 0.226353 0.304708
Si Si5 0.268685 0.410225 0.397216
Si Si6 0.737662 0.873751 0.385524
O O1 0.428375 0.147404 0.140411
O O2 0.282730 0.080057 0.394803
O O3 0.606064 0.965741 0.236163
O O4 0.000000 0.000000 0.000000
O O5 0.560435 0.614554 0.053615
O O6 0.512679 0.786151 0.247511
O O7 0.110430 0.655839 0.168765
O O8 0.166887 0.740510 0.837463
O O9 0.120258 0.395127 0.559930
O O10 0.983559 0.531511 0.798771
O O11 0.467450 0.316587 0.357668
O O12 0.914887 0.172716 0.513307
O O13 0.500000 0.500000 0.500000
#
# Coordination Sequence:
#
# PCOD9065712 Si02
#       6
#     2   2   2   2   2   2
#     4  11  27  52  84 127 172 231 294 360 438 529
#     4  12  28  50  85 126 181 221 298 353 450 510
#     4  11  26  51  79 126 175 230 284 364 421 531
#     4  12  29  51  87 128 173 231 292 368 432 528
#     4  11  24  52  86 126 169 231 299 350 441 516
#     4  11  27  50  84 122 177 227 291 356 450 510
#
# _framework density 29.607794999999999
#
# number of rings (size 3 to 8) (size 9 to 14) (size 15 to 20)
#    0.000    0.667    1.667    3.500    7.000    6.667 
#    0.000    0.000    0.000    0.000    0.000    0.000 
#    0.000    0.000    0.000    0.000    0.000    0.000 
#
# Total GULP energy -67400.157638 kJ/mol
# GULP energy per Si atom -5616.679803 kJ/mol
# Density = 2.954041 g / cm^3
# Si number density = 29.607795 Si / 1000 Ang^3
#
#
#
# Elastic Constant Matrix: (Units=GPa)
#
#
# Indices 1 2 3 4 5 6 
#
# 1 223.2007 108.0328 72.8720 7.9527 24.2954 4.1405
# 2 108.0328 249.6270 78.8393 3.0685 13.8379 -23.3774
# 3 72.8720 78.8393 187.7205 13.2314 10.5448 -10.4028
# 4 7.9527 3.0685 13.2314 62.0287 -7.2223 -2.3611
# 5 24.2954 13.8379 10.5448 -7.2223 56.4474 -0.1518
# 6 4.1405 -23.3774 -10.4028 -2.3611 -0.1518 69.0089
#
#
#
# Elastic Compliance Matrix: (Units=1/GPa)
#
#
# Indices 1 2 3 4 5 6 
#
# 1 0.006320 -0.002305 -0.001404 -0.000681 -0.001984 -0.001399
# 2 -0.002305 0.005612 -0.001382 0.000374 -0.000073 0.001844
# 3 -0.001404 -0.001382 0.006592 -0.001187 -0.000439 0.000568
# 4 -0.000681 0.000374 -0.001187 0.016764 0.002570 0.000568
# 5 -0.001984 -0.000073 -0.000439 0.002570 0.018999 0.000158
# 6 -0.001399 0.001844 0.000568 0.000568 0.000158 0.015305
#
#
# Mechanical properties :
#
#
# Convention : Reuss Voigt Hill
#
# Bulk Modulus (GPa) = 119.85801 131.11516 125.48659
# Shear Modulus (GPa) = 60.56569 64.21727 62.39148
#
# Velocity S-wave (km/s) = 4.52774 4.66223 4.59548
# Velocity P-wave (km/s) = 8.24037 8.56516 8.40433
#
# Compressibility (1/GPa) = 0.00834321
#
# Stress axis : x y z
#
# Youngs Moduli (GPa) = 158.22307 178.18751 151.68994
#
# Poissons Ratio (x) = 0.41065 0.21292
# Poissons Ratio (y) = 0.36464 0.20971
# Poissons Ratio (z) = 0.22209 0.24634
#
# Static dielectric constant tensor:
#      x y z
#    x 2.288440 0.038490 -0.003760 
#    y 0.038490 2.303440 -0.013500 
#    z -0.003760 -0.013500 2.412650 
# 
# From -- ./inp_files/61307.got.cif
#   From: 2010.05.17/outbox.cif.g08.bks.cpg/sg2_31_cif.got.tgz:61307.got - 2010.06.03 11:33:40.
