data_PCOD9065415
_publ_section_title
;
Structure prediction by ZEFSAII (Michael W. Deem and Ramdas Pophale) SiO2 
 PCOD9065415
Probable space group: P -1
;
_chemical_formula_sum "Si O2"
_cell_formula_units_Z 16
_cell_length_a 9.639471
_cell_length_b 6.677865
_cell_length_c 16.646453
_cell_angle_alpha 84.302793
_cell_angle_beta 70.990661
_cell_angle_gamma 46.057569
_cell_volume 716.722701
_symmetry_space_group_name_H-M "P -1"
_symmetry_group_IT_number 2
_symmetry_cell_setting 'triclinic'
loop_
_space_group_symop_operation_xyz
x,y,z
-x,-y,-z
loop_
_atom_site_type_symbol
_atom_site_label
_atom_site_fract_x
_atom_site_fract_y
_atom_site_fract_z
Si Si1 0.837756 0.035906 0.085111
Si Si2 0.112180 0.854844 0.354043
Si Si3 0.473622 0.636830 0.084431
Si Si4 0.477135 0.989679 0.878104
Si Si5 0.329245 0.520338 0.571412
Si Si6 0.137000 0.682800 0.185091
Si Si7 0.773851 0.623944 0.544407
Si Si8 0.452200 0.864504 0.308607
O O1 0.723748 0.953455 0.071283
O O2 0.951817 0.853142 0.150794
O O3 0.645182 0.372564 0.121059
O O4 0.000000 0.000000 0.000000
O O5 0.082680 0.741885 0.285989
O O6 0.201160 0.622220 0.413686
O O7 0.274736 0.880018 0.313480
O O8 0.891716 0.159867 0.403824
O O9 0.507781 0.838998 0.071265
O O10 0.246450 0.793541 0.146694
O O11 0.500000 0.500000 0.000000
O O12 0.465818 0.097596 0.786428
O O13 0.684480 0.653385 0.852524
O O14 0.500000 0.500000 0.500000
O O15 0.316432 0.329574 0.528553
O O16 0.383932 0.415855 0.657368
O O17 0.000000 0.500000 0.500000
O O18 0.645485 0.883808 0.619640
#
# Coordination Sequence:
#
# PCOD9065415 Si02
#       8
#     2   2   2   2   2   2   2   2
#     4  11  26  47  71 111 143 181 235 292 356 433
#     4  12  25  45  71 100 148 185 235 300 359 414
#     4  11  24  48  73 105 142 184 234 296 352 423
#     4  11  27  45  75 105 143 190 240 291 359 427
#     4  12  26  43  73 107 142 189 236 299 357 418
#     4  11  25  46  71 103 144 185 236 296 357 420
#     4  12  24  45  70  99 141 187 240 289 357 421
#     4  12  25  46  70 105 141 189 241 293 355 422
#
# _framework density 22.323834999999999
#
# number of rings (size 3 to 8) (size 9 to 14) (size 15 to 20)
#    0.000    0.500    6.250    1.500    1.750    6.500 
#    0.000    0.000    0.000    0.000    0.000    0.000 
#    0.000    0.000    0.000    0.000    0.000    0.000 
#
# Total GULP energy -89505.112016 kJ/mol
# GULP energy per Si atom -5594.069501 kJ/mol
# Density = 2.227302 g / cm^3
# Si number density = 22.323835 Si / 1000 Ang^3
#
#
#
# Elastic Constant Matrix: (Units=GPa)
#
#
# Indices 1 2 3 4 5 6 
#
# 1 139.4736 34.7702 22.0843 2.6519 15.3042 15.8739
# 2 34.7702 83.1235 7.5827 -7.4788 24.1756 7.0355
# 3 22.0843 7.5827 77.6915 -5.5996 25.0633 6.2094
# 4 2.6519 -7.4788 -5.5996 41.4383 5.3066 8.4252
# 5 15.3042 24.1756 25.0633 5.3066 46.9360 -7.9562
# 6 15.8739 7.0355 6.2094 8.4252 -7.9562 36.1907
#
#
#
# Elastic Compliance Matrix: (Units=1/GPa)
#
#
# Indices 1 2 3 4 5 6 
#
# 1 0.008628 -0.003050 -0.001732 -0.000652 -0.000736 -0.002904
# 2 -0.003050 0.017783 0.004230 0.007038 -0.012443 -0.007219
# 3 -0.001732 0.004230 0.018409 0.006666 -0.013510 -0.007743
# 4 -0.000652 0.007038 0.006666 0.030386 -0.012448 -0.012036
# 5 -0.000736 -0.012443 -0.013510 -0.012448 0.039393 0.016618
# 6 -0.002904 -0.007219 -0.007743 -0.012036 0.016618 0.038093
#
#
# Mechanical properties :
#
#
# Convention : Reuss Voigt Hill
#
# Bulk Modulus (GPa) = 22.87539 47.68476 35.28008
# Shear Modulus (GPa) = 29.69667 40.63642 35.16654
#
# Velocity S-wave (km/s) = 3.65124 4.27114 3.97330
# Velocity P-wave (km/s) = 5.29573 6.76243 6.07351
#
# Compressibility (1/GPa) = 0.04371511
#
# Stress axis : x y z
#
# Youngs Moduli (GPa) = 115.89979 56.23222 54.32235
#
# Poissons Ratio (x) = 0.17150 0.09411
# Poissons Ratio (y) = 0.35348 -0.22977
# Poissons Ratio (z) = 0.20078 -0.23785
#
# Static dielectric constant tensor:
#      x y z
#    x 1.804890 0.017460 0.010800 
#    y 0.017460 1.834570 -0.038930 
#    z 0.010800 -0.038930 1.879630 
# 
# From -- ./inp_files/47279.got.cif
#   From: 2010.05.17/outbox.cif.g08.bks.cpg/sg2_24_cif.got.tgz:47279.got - 2010.06.03 11:33:40.
