data_PCOD9065490
_publ_section_title
;
Structure prediction by ZEFSAII (Michael W. Deem and Ramdas Pophale) SiO2 
 PCOD9065490
Probable space group: P -1
;
_chemical_formula_sum "Si O2"
_cell_formula_units_Z 12
_cell_length_a 15.002452
_cell_length_b 9.092690
_cell_length_c 7.500605
_cell_angle_alpha 129.785857
_cell_angle_beta 121.916833
_cell_angle_gamma 36.873364
_cell_volume 471.476916
_symmetry_space_group_name_H-M "P -1"
_symmetry_group_IT_number 2
_symmetry_cell_setting 'triclinic'
loop_
_space_group_symop_operation_xyz
x,y,z
-x,-y,-z
loop_
_atom_site_type_symbol
_atom_site_label
_atom_site_fract_x
_atom_site_fract_y
_atom_site_fract_z
Si Si1 0.444043 0.127044 0.738632
Si Si2 0.074845 0.110607 0.175115
Si Si3 0.958759 0.653467 0.337714
Si Si4 0.161701 0.684661 0.427366
Si Si5 0.661673 0.365293 0.121241
Si Si6 0.288510 0.204028 0.972637
O O1 0.361839 0.093893 0.767196
O O2 0.500000 0.000000 0.500000
O O3 0.331226 0.444232 0.830438
O O4 0.587461 0.001901 0.909669
O O5 0.118048 0.103772 0.416865
O O6 0.784348 0.069952 0.942048
O O7 0.769425 0.504314 0.821077
O O8 0.000000 0.000000 0.000000
O O9 0.114602 0.553230 0.385102
O O10 0.975735 0.419397 0.253306
O O11 0.850852 0.758765 0.139855
O O12 0.286508 0.644079 0.632086
O O13 0.000000 0.000000 0.500000
O O14 0.500000 0.500000 0.000000
#
# Coordination Sequence:
#
# PCOD9065490 Si02
#       6
#     2   2   2   2   2   2
#     4  11  26  49  74 105 157 204 256 319 400 461
#     4  11  24  48  76 119 152 206 268 320 393 480
#     4  11  26  44  83 108 158 205 259 328 398 454
#     4  12  27  48  74 113 158 203 265 327 388 475
#     4  12  28  44  77 110 158 206 259 326 396 468
#     4  11  26  47  77 113 149 204 264 323 389 477
#
# _framework density 25.451934000000001
#
# number of rings (size 3 to 8) (size 9 to 14) (size 15 to 20)
#    0.000    0.667    3.333    2.500   11.667    0.000 
#    0.000    1.667    0.000    0.000    0.000    0.000 
#    0.000    0.000    0.000    0.000    0.000    0.000 
#
# Total GULP energy -67084.446226 kJ/mol
# GULP energy per Si atom -5590.370519 kJ/mol
# Density = 2.539400 g / cm^3
# Si number density = 25.451934 Si / 1000 Ang^3
#
#
#
# Elastic Constant Matrix: (Units=GPa)
#
#
# Indices 1 2 3 4 5 6 
#
# 1 99.9799 11.0545 56.7745 -0.8230 4.6028 -10.7124
# 2 11.0545 103.1034 43.6592 3.2694 6.7611 1.8365
# 3 56.7745 43.6592 196.8431 -0.4909 7.3518 -24.8548
# 4 -0.8230 3.2694 -0.4909 42.7689 -10.5686 1.8114
# 5 4.6028 6.7611 7.3518 -10.5686 56.5681 -5.8676
# 6 -10.7124 1.8365 -24.8548 1.8114 -5.8676 40.7691
#
#
#
# Elastic Compliance Matrix: (Units=1/GPa)
#
#
# Indices 1 2 3 4 5 6 
#
# 1 0.012021 0.000139 -0.003349 0.000028 -0.000446 0.001045
# 2 0.000139 0.011004 -0.002717 -0.001124 -0.001419 -0.002270
# 3 -0.003349 -0.002717 0.007098 0.000089 0.000062 0.003575
# 4 0.000028 -0.001124 0.000089 0.024642 0.004692 -0.000307
# 5 -0.000446 -0.001419 0.000062 0.004692 0.019013 0.002513
# 6 0.001045 -0.002270 0.003575 -0.000307 0.002513 0.027460
#
#
# Mechanical properties :
#
#
# Convention : Reuss Voigt Hill
#
# Bulk Modulus (GPa) = 54.73927 69.21145 61.97536
# Shear Modulus (GPa) = 41.95265 47.25041 44.60153
#
# Velocity S-wave (km/s) = 4.06434 4.31334 4.19069
# Velocity P-wave (km/s) = 6.60142 7.21516 6.91510
#
# Compressibility (1/GPa) = 0.01826842
#
# Stress axis : x y z
#
# Youngs Moduli (GPa) = 83.18516 90.87782 140.88113
#
# Poissons Ratio (x) = -0.01265 0.47188
# Poissons Ratio (y) = -0.01158 0.38280
# Poissons Ratio (z) = 0.27863 0.24693
#
# Static dielectric constant tensor:
#      x y z
#    x 2.067720 0.044870 -0.054300 
#    y 0.044870 2.041050 -0.027180 
#    z -0.054300 -0.027180 2.108850 
# 
# From -- ./inp_files/353204.got.cif
#   From: 2010.05.17/outbox.cif.g08.bks.cpg/sg2_177_cif.got.tgz:353204.got - 2010.06.03 11:33:40.
