data_PCOD9065365
_publ_section_title
;
Structure prediction by ZEFSAII (Michael W. Deem and Ramdas Pophale) SiO2 
 PCOD9065365
Probable space group: P -1
;
_chemical_formula_sum "Si O2"
_cell_formula_units_Z 14
_cell_length_a 11.036201
_cell_length_b 5.936423
_cell_length_c 12.668039
_cell_angle_alpha 133.541203
_cell_angle_beta 71.695850
_cell_angle_gamma 99.588963
_cell_volume 569.680357
_symmetry_space_group_name_H-M "P -1"
_symmetry_group_IT_number 2
_symmetry_cell_setting 'triclinic'
loop_
_space_group_symop_operation_xyz
x,y,z
-x,-y,-z
loop_
_atom_site_type_symbol
_atom_site_label
_atom_site_fract_x
_atom_site_fract_y
_atom_site_fract_z
Si Si1 0.358039 0.052984 0.513068
Si Si2 0.666050 0.000851 0.713551
Si Si3 0.942452 0.702598 0.479510
Si Si4 0.805953 0.840405 0.214369
Si Si5 0.606102 0.233638 0.251360
Si Si6 0.283057 0.827079 0.016204
Si Si7 0.024545 0.122853 0.149268
O O1 0.348951 0.834837 0.343388
O O2 0.249843 0.008062 0.613814
O O3 0.351872 0.426929 0.618997
O O4 0.500000 0.000000 0.500000
O O5 0.801346 0.810632 0.595119
O O6 0.539129 0.810423 0.690499
O O7 0.670225 0.186801 0.881037
O O8 0.953622 0.454547 0.300892
O O9 0.000000 0.500000 0.500000
O O10 0.000000 0.000000 0.500000
O O11 0.710109 0.994442 0.201407
O O12 0.951893 0.902932 0.177188
O O13 0.789240 0.476987 0.093190
O O14 0.613334 0.172778 0.104225
O O15 0.175066 0.110613 0.125853
O O16 0.000000 0.000000 0.000000
#
# Coordination Sequence:
#
# PCOD9065365 Si02
#       7
#     2   2   2   2   2   2   2
#     4  11  25  44  71 106 148 202 252 317 387 478
#     4  12  26  46  77 108 158 193 254 329 394 463
#     4  12  31  53  78 120 160 205 265 331 403 469
#     4  11  25  46  74 107 149 196 266 307 392 470
#     4  11  24  48  71 109 147 196 258 313 393 471
#     4  11  26  47  72 112 149 200 256 323 393 465
#     4  12  26  49  79 105 150 210 261 323 384 481
#
# _framework density 24.575185000000001
#
# number of rings (size 3 to 8) (size 9 to 14) (size 15 to 20)
#    0.000    0.571    4.286    2.143    8.000    0.571 
#    2.571    0.000    0.000    0.000    0.000    0.000 
#    0.000    0.000    0.000    0.000    0.000    0.000 
#
# Total GULP energy -78267.271086 kJ/mol
# GULP energy per Si atom -5590.519363 kJ/mol
# Density = 2.451925 g / cm^3
# Si number density = 24.575185 Si / 1000 Ang^3
#
#
#
# Elastic Constant Matrix: (Units=GPa)
#
#
# Indices 1 2 3 4 5 6 
#
# 1 78.1677 14.7193 22.0246 -14.4299 -14.5509 -5.6500
# 2 14.7193 59.7439 37.7779 -14.5601 -4.9347 8.7436
# 3 22.0246 37.7779 170.1817 -54.9184 10.2255 6.1979
# 4 -14.4299 -14.5601 -54.9184 51.3988 -7.3045 -1.9839
# 5 -14.5509 -4.9347 10.2255 -7.3045 51.9239 -10.4502
# 6 -5.6500 8.7436 6.1979 -1.9839 -10.4502 37.3178
#
#
#
# Elastic Compliance Matrix: (Units=1/GPa)
#
#
# Indices 1 2 3 4 5 6 
#
# 1 0.015661 -0.002713 -0.000695 0.003903 0.005815 0.004958
# 2 -0.002713 0.020824 -0.003862 0.001028 0.001271 -0.004238
# 3 -0.000695 -0.003862 0.009836 0.008996 -0.001383 -0.000743
# 4 0.003903 0.001028 0.008996 0.031106 0.004131 0.001667
# 5 0.005815 0.001271 -0.001383 0.004131 0.023389 0.007581
# 6 0.004958 -0.004238 -0.000743 0.001667 0.007581 0.030876
#
#
# Mechanical properties :
#
#
# Convention : Reuss Voigt Hill
#
# Bulk Modulus (GPa) = 31.46417 50.79299 41.12858
# Shear Modulus (GPa) = 31.88260 43.69953 37.79106
#
# Velocity S-wave (km/s) = 3.60578 4.22144 3.92570
# Velocity P-wave (km/s) = 5.49241 6.66889 6.10903
#
# Compressibility (1/GPa) = 0.03178218
#
# Stress axis : x y z
#
# Youngs Moduli (GPa) = 63.85270 48.02089 101.66361
#
# Poissons Ratio (x) = 0.13029 0.07064
# Poissons Ratio (y) = 0.17324 0.39260
# Poissons Ratio (z) = 0.04437 0.18545
#
# Static dielectric constant tensor:
#      x y z
#    x 1.974430 -0.042130 0.027730 
#    y -0.042130 2.044250 -0.018140 
#    z 0.027730 -0.018140 1.948720 
# 
# From -- ./inp_files/70737.got.cif
#   From: 2010.05.17/outbox.cif.g08.bks.cpg/sg2_36_cif.got.tgz:70737.got - 2010.06.03 11:33:40.
