data_PCOD9065858
_publ_section_title
;
Structure prediction by ZEFSAII (Michael W. Deem and Ramdas Pophale) SiO2 
 PCOD9065858
Probable space group: P -1
;
_chemical_formula_sum "Si O2"
_cell_formula_units_Z 14
_cell_length_a 10.453891
_cell_length_b 7.714329
_cell_length_c 16.323410
_cell_angle_alpha 128.759792
_cell_angle_beta 145.859245
_cell_angle_gamma 70.686674
_cell_volume 520.589586
_symmetry_space_group_name_H-M "P -1"
_symmetry_group_IT_number 2
_symmetry_cell_setting 'triclinic'
loop_
_space_group_symop_operation_xyz
x,y,z
-x,-y,-z
loop_
_atom_site_type_symbol
_atom_site_label
_atom_site_fract_x
_atom_site_fract_y
_atom_site_fract_z
Si Si1 0.646756 0.436455 0.975291
Si Si2 0.507421 0.812561 0.901893
Si Si3 0.701148 0.169947 0.770094
Si Si4 0.004762 0.688555 0.608386
Si Si5 0.820707 0.812590 0.915584
Si Si6 0.119235 0.136285 0.686056
Si Si7 0.564213 0.674217 0.471208
O O1 0.675542 0.256709 0.872106
O O2 0.418903 0.262683 0.861665
O O3 0.582594 0.630545 0.943954
O O4 0.891445 0.619028 0.210738
O O5 0.205162 0.581551 0.637527
O O6 0.638819 0.866877 0.897805
O O7 0.700969 0.111487 0.133382
O O8 0.551645 0.260194 0.653651
O O9 0.590715 0.881173 0.610225
O O10 0.001084 0.253444 0.946434
O O11 0.823621 0.659787 0.581206
O O12 0.000934 0.910251 0.617409
O O13 0.646107 0.590075 0.700370
O O14 0.000000 0.000000 0.000000
O O15 0.000000 0.000000 0.500000
#
# Coordination Sequence:
#
# PCOD9065858 Si02
#       7
#     2   2   2   2   2   2   2
#     4  11  25  46  74 106 149 194 246 316 373 450
#     4  12  24  47  74 107 150 197 252 305 390 451
#     4  11  25  46  76 104 148 197 249 305 371 465
#     4  12  23  44  76 104 152 192 248 314 372 449
#     4  12  28  47  75 110 154 202 250 316 382 452
#     4  11  25  43  71 114 143 188 252 307 381 439
#     4  11  25  47  75 111 142 201 255 305 379 450
#
# _framework density 26.892586000000001
#
# number of rings (size 3 to 8) (size 9 to 14) (size 15 to 20)
#    0.000    0.571    4.286    3.000    2.000    2.857 
#    0.000    2.857    0.000    0.000    0.000    0.000 
#    0.000    0.000    0.000    0.000    0.000    0.000 
#
# Total GULP energy -78188.381471 kJ/mol
# GULP energy per Si atom -5584.884391 kJ/mol
# Density = 2.683138 g / cm^3
# Si number density = 26.892586 Si / 1000 Ang^3
#
#
#
# Elastic Constant Matrix: (Units=GPa)
#
#
# Indices 1 2 3 4 5 6 
#
# 1 148.9306 49.6452 102.8065 39.6441 -9.2138 -1.4776
# 2 49.6452 65.5731 33.5903 6.7564 17.8729 -1.6103
# 3 102.8065 33.5903 244.4804 40.7732 -12.2819 -17.8654
# 4 39.6441 6.7564 40.7732 60.3764 -7.2219 -1.4271
# 5 -9.2138 17.8729 -12.2819 -7.2219 74.9438 8.4900
# 6 -1.4776 -1.6103 -17.8654 -1.4271 8.4900 31.7874
#
#
#
# Elastic Compliance Matrix: (Units=1/GPa)
#
#
# Indices 1 2 3 4 5 6 
#
# 1 0.013859 -0.008910 -0.003794 -0.005248 0.003040 -0.002987
# 2 -0.008910 0.023702 -0.000073 0.002495 -0.006823 0.002680
# 3 -0.003794 -0.000073 0.006201 -0.001607 0.000047 0.003220
# 4 -0.005248 0.002495 -0.001607 0.020873 0.000534 -0.000226
# 5 0.003040 -0.006823 0.000047 0.000534 0.015902 -0.004401
# 6 -0.002987 0.002680 0.003220 -0.000226 -0.004401 0.034431
#
#
# Mechanical properties :
#
#
# Convention : Reuss Voigt Hill
#
# Bulk Modulus (GPa) = 54.91947 92.34089 73.63018
# Shear Modulus (GPa) = 34.10830 51.61765 42.86298
#
# Velocity S-wave (km/s) = 3.56521 4.38585 3.99665
# Velocity P-wave (km/s) = 6.11668 7.74978 6.98114
#
# Compressibility (1/GPa) = 0.01820848
#
# Stress axis : x y z
#
# Youngs Moduli (GPa) = 72.15469 42.19086 161.25395
#
# Poissons Ratio (x) = 0.37593 0.61180
# Poissons Ratio (y) = 0.64292 0.01170
# Poissons Ratio (z) = 0.27376 0.00306
#
# Static dielectric constant tensor:
#      x y z
#    x 2.100950 -0.070910 -0.020580 
#    y -0.070910 2.129470 -0.017950 
#    z -0.020580 -0.017950 2.434930 
# 
# From -- ./inp_files/566959.got.cif
#   From: 2010.05.17/outbox.cif.g08.bks.cpg/sg2_284_cif.got.tgz:566959.got - 2010.06.03 11:33:40.
