data_PCOD9065482
_publ_section_title
;
Structure prediction by ZEFSAII (Michael W. Deem and Ramdas Pophale) SiO2 
 PCOD9065482
Probable space group: P -1
;
_chemical_formula_sum "Si O2"
_cell_formula_units_Z 16
_cell_length_a 7.454607
_cell_length_b 22.810594
_cell_length_c 9.919462
_cell_angle_alpha 148.797550
_cell_angle_beta 48.834384
_cell_angle_gamma 128.347109
_cell_volume 650.671234
_symmetry_space_group_name_H-M "P -1"
_symmetry_group_IT_number 2
_symmetry_cell_setting 'triclinic'
loop_
_space_group_symop_operation_xyz
x,y,z
-x,-y,-z
loop_
_atom_site_type_symbol
_atom_site_label
_atom_site_fract_x
_atom_site_fract_y
_atom_site_fract_z
Si Si1 0.938795 0.129510 0.803593
Si Si2 0.352539 0.875603 0.322002
Si Si3 0.458160 0.643581 0.864070
Si Si4 0.924498 0.870563 0.734752
Si Si5 0.899304 0.556954 0.971388
Si Si6 0.883732 0.644196 0.455762
Si Si7 0.553564 0.135609 0.211732
Si Si8 0.620634 0.689299 0.159046
O O1 0.154234 0.226087 0.847484
O O2 0.733119 0.141765 0.821205
O O3 0.817059 0.152163 0.048856
O O4 0.000000 0.000000 0.500000
O O5 0.118482 0.858072 0.498039
O O6 0.499366 0.619911 0.954395
O O7 0.500000 0.000000 0.500000
O O8 0.509258 0.781454 0.103484
O O9 0.645034 0.608373 0.593768
O O10 0.176446 0.609852 0.902522
O O11 0.936529 0.779005 0.666658
O O12 0.661308 0.846587 0.750568
O O13 0.000000 0.000000 0.000000
O O14 0.853402 0.597470 0.225315
O O15 0.719790 0.604313 0.049708
O O16 0.913040 0.421471 0.705762
O O17 0.523907 0.219947 0.516008
O O18 0.500000 0.000000 0.000000
#
# Coordination Sequence:
#
# PCOD9065482 Si02
#       8
#     2   2   2   2   2   2   2   2
#     4  12  22  41  64  97 141 191 237 292 356 425
#     4  12  23  41  66 102 144 184 236 295 356 431
#     4  12  25  45  73 105 142 188 245 292 361 427
#     4  12  24  43  73 105 141 188 239 292 366 435
#     4  11  25  50  76 100 150 186 244 300 354 427
#     4  11  24  48  76 105 140 195 236 299 362 424
#     4  12  24  41  65  99 148 189 231 299 362 421
#     4  12  26  45  69 107 145 189 244 297 357 432
#
# _framework density 24.589991999999999
#
# number of rings (size 3 to 8) (size 9 to 14) (size 15 to 20)
#    0.000    0.250    6.250    3.375    1.750    2.500 
#    0.000    2.500    2.750    0.000    0.000    0.000 
#    0.000    0.000    0.000    0.000    0.000    0.000 
#
# Total GULP energy -89658.027822 kJ/mol
# GULP energy per Si atom -5603.626739 kJ/mol
# Density = 2.453402 g / cm^3
# Si number density = 24.589992 Si / 1000 Ang^3
#
#
#
# Elastic Constant Matrix: (Units=GPa)
#
#
# Indices 1 2 3 4 5 6 
#
# 1 97.4286 18.7785 24.1017 3.6459 -13.0004 -25.4190
# 2 18.7785 159.9538 70.4655 -8.2383 -6.2777 -2.6692
# 3 24.1017 70.4655 147.7712 -19.4556 -12.8046 -15.8258
# 4 3.6459 -8.2383 -19.4556 72.5503 -7.3142 -3.4502
# 5 -13.0004 -6.2777 -12.8046 -7.3142 32.7045 10.3980
# 6 -25.4190 -2.6692 -15.8258 -3.4502 10.3980 43.6564
#
#
#
# Elastic Compliance Matrix: (Units=1/GPa)
#
#
# Indices 1 2 3 4 5 6 
#
# 1 0.012652 -0.000971 -0.000756 -0.000400 0.002414 0.006427
# 2 -0.000971 0.008030 -0.003840 -0.000130 0.000100 -0.001500
# 3 -0.000756 -0.003840 0.009525 0.002521 0.002498 0.002382
# 4 -0.000400 -0.000130 0.002521 0.014896 0.003837 0.000937
# 5 0.002414 0.000100 0.002498 0.003837 0.035226 -0.005769
# 6 0.006427 -0.001500 0.002382 0.000937 -0.005769 0.028868
#
#
# Mechanical properties :
#
#
# Convention : Reuss Voigt Hill
#
# Bulk Modulus (GPa) = 52.42851 70.20500 61.31675
# Shear Modulus (GPa) = 39.46709 49.23610 44.35159
#
# Velocity S-wave (km/s) = 4.01060 4.47954 4.25154
# Velocity P-wave (km/s) = 6.54323 7.44092 7.00647
#
# Compressibility (1/GPa) = 0.01907359
#
# Stress axis : x y z
#
# Youngs Moduli (GPa) = 79.03997 124.54049 104.98603
#
# Poissons Ratio (x) = 0.12093 0.07933
# Poissons Ratio (y) = 0.07675 0.40312
# Poissons Ratio (z) = 0.05973 0.47821
#
# Static dielectric constant tensor:
#      x y z
#    x 1.946530 0.005080 0.004100 
#    y 0.005080 1.902770 -0.021950 
#    z 0.004100 -0.021950 1.958240 
# 
# From -- ./inp_files/406734.got.cif
#   From: 2010.05.17/outbox.cif.g08.bks.cpg/sg2_204_cif.got.tgz:406734.got - 2010.06.03 11:33:40.
