data_PCOD9065085
_publ_section_title
;
Structure prediction by ZEFSAII (Michael W. Deem and Ramdas Pophale) SiO2 
 PCOD9065085
Probable space group: P -1
;
_chemical_formula_sum "Si O2"
_cell_formula_units_Z 15
_cell_length_a 11.704943
_cell_length_b 10.277351
_cell_length_c 11.374628
_cell_angle_alpha 116.607451
_cell_angle_beta 42.238414
_cell_angle_gamma 85.996342
_cell_volume 612.093204
_symmetry_space_group_name_H-M "P -1"
_symmetry_group_IT_number 2
_symmetry_cell_setting 'triclinic'
loop_
_space_group_symop_operation_xyz
x,y,z
-x,-y,-z
loop_
_atom_site_type_symbol
_atom_site_label
_atom_site_fract_x
_atom_site_fract_y
_atom_site_fract_z
Si Si1 0.986463 0.589215 0.917913
Si Si2 0.876162 0.384906 0.790792
Si Si3 0.505839 0.697838 0.607608
Si Si4 0.731380 0.034125 0.559387
Si Si5 0.116120 0.725405 0.515015
Si Si6 0.591290 0.947716 0.043000
Si Si7 0.488464 0.548774 0.336537
Si Si8 0.500000 0.000000 0.500000
O O1 0.985236 0.477860 0.766562
O O2 0.236769 0.512175 0.685973
O O3 0.751478 0.807978 0.177656
O O4 0.000000 0.500000 0.000000
O O5 0.818340 0.386103 0.702327
O O6 0.658821 0.507198 0.090993
O O7 0.062947 0.165909 0.610793
O O8 0.423300 0.717685 0.544577
O O9 0.392361 0.652307 0.766182
O O10 0.494412 0.866597 0.734530
O O11 0.833003 0.132897 0.490408
O O12 0.514842 0.137603 0.853843
O O13 0.640645 0.006078 0.501055
O O14 0.276371 0.601180 0.452126
O O15 0.860468 0.822312 0.778643
O O16 0.500000 0.000000 0.000000
#
# Coordination Sequence:
#
# PCOD9065085 Si02
#       8
#     2   2   2   2   2   2   2   1
#     4  12  22  45  73 105 151 192 248 314 380 449
#     4  12  23  49  73 102 151 203 246 311 389 444
#     4  11  24  47  71 104 150 192 245 313 386 449
#     4  12  26  45  78 108 152 201 250 316 375 455
#     4  12  28  47  74 112 151 200 259 313 376 461
#     4  12  26  49  75 108 148 199 254 309 385 458
#     4  11  26  44  72 104 142 199 250 314 382 448
#     4  12  26  42  78 118 142 202 260 306 382 468
#
# _framework density 24.506070999999999
#
# number of rings (size 3 to 8) (size 9 to 14) (size 15 to 20)
#    0.000    0.267    5.333    2.400    5.600    1.600 
#    0.000    1.333    0.000    0.000    0.000    0.000 
#    0.000    0.000    0.000    0.000    0.000    0.000 
#
# Total GULP energy -83659.875115 kJ/mol
# GULP energy per Si atom -5577.325008 kJ/mol
# Density = 2.445029 g / cm^3
# Si number density = 24.506071 Si / 1000 Ang^3
#
#
#
# Elastic Constant Matrix: (Units=GPa)
#
#
# Indices 1 2 3 4 5 6 
#
# 1 186.1706 7.5774 33.8439 5.3355 13.1515 -15.4334
# 2 7.5774 58.3703 23.9267 -10.1802 9.4767 -5.5377
# 3 33.8439 23.9267 80.8872 -10.1592 1.9764 -6.0136
# 4 5.3355 -10.1802 -10.1592 35.7639 4.9365 -0.4802
# 5 13.1515 9.4767 1.9764 4.9365 46.6333 -4.4382
# 6 -15.4334 -5.5377 -6.0136 -0.4802 -4.4382 28.1801
#
#
#
# Elastic Compliance Matrix: (Units=1/GPa)
#
#
# Indices 1 2 3 4 5 6 
#
# 1 0.006193 0.000542 -0.002683 -0.001310 -0.001348 0.002691
# 2 0.000542 0.021201 -0.005559 0.005033 -0.004506 0.002653
# 3 -0.002683 -0.005559 0.015569 0.003117 0.000989 0.000970
# 4 -0.001310 0.005033 0.003117 0.031037 -0.003991 0.000837
# 5 -0.001348 -0.004506 0.000989 -0.003991 0.023329 0.002193
# 6 0.002691 0.002653 0.000970 0.000837 0.002193 0.038048
#
#
# Mechanical properties :
#
#
# Convention : Reuss Voigt Hill
#
# Bulk Modulus (GPa) = 36.27989 50.68045 43.48017
# Shear Modulus (GPa) = 31.25699 39.45413 35.35556
#
# Velocity S-wave (km/s) = 3.57526 4.01680 3.80244
# Velocity P-wave (km/s) = 5.64623 6.49912 6.08763
#
# Compressibility (1/GPa) = 0.02756348
#
# Stress axis : x y z
#
# Youngs Moduli (GPa) = 161.47432 47.16726 64.22987
#
# Poissons Ratio (x) = -0.02554 0.17232
# Poissons Ratio (y) = -0.08745 0.35702
# Poissons Ratio (z) = 0.43321 0.26218
#
# Static dielectric constant tensor:
#      x y z
#    x 1.930680 -0.040630 -0.016010 
#    y -0.040630 2.088920 -0.028610 
#    z -0.016010 -0.028610 1.976520 
# 
# From -- ./inp_files/425881.got.cif
#   From: 2010.05.17/outbox.cif.g08.bks.cpg/sg2_213_cif.got.tgz:425881.got - 2010.06.03 11:33:40.
