data_PCOD9065663
_publ_section_title
;
Structure prediction by ZEFSAII (Michael W. Deem and Ramdas Pophale) SiO2 
 PCOD9065663
Probable space group: P -1
;
_chemical_formula_sum "Si O2"
_cell_formula_units_Z 14
_cell_length_a 7.469912
_cell_length_b 13.994262
_cell_length_c 7.967698
_cell_angle_alpha 80.845669
_cell_angle_beta 54.974283
_cell_angle_gamma 112.984589
_cell_volume 540.743562
_symmetry_space_group_name_H-M "P -1"
_symmetry_group_IT_number 2
_symmetry_cell_setting 'triclinic'
loop_
_space_group_symop_operation_xyz
x,y,z
-x,-y,-z
loop_
_atom_site_type_symbol
_atom_site_label
_atom_site_fract_x
_atom_site_fract_y
_atom_site_fract_z
Si Si1 0.181880 0.493793 0.544762
Si Si2 0.654991 0.521644 0.079376
Si Si3 0.443009 0.688427 0.640838
Si Si4 0.719034 0.233213 0.832379
Si Si5 0.171896 0.778224 0.618368
Si Si6 0.014339 0.872711 0.183503
Si Si7 0.121073 0.120685 0.131306
O O1 0.453212 0.512472 0.328412
O O2 0.294780 0.600864 0.584629
O O3 0.965550 0.355714 0.754140
O O4 0.567595 0.786625 0.999353
O O5 0.682192 0.414024 0.121663
O O6 0.500000 0.500000 0.000000
O O7 0.927013 0.653590 0.872264
O O8 0.413515 0.795792 0.595141
O O9 0.765799 0.758867 0.450038
O O10 0.728697 0.130243 0.940164
O O11 0.000000 0.500000 0.500000
O O12 0.779306 0.232592 0.600737
O O13 0.088953 0.867639 0.658698
O O14 0.913274 0.856885 0.050926
O O15 0.071286 0.993136 0.192688
#
# Coordination Sequence:
#
# PCOD9065663 Si02
#       7
#     2   2   2   2   2   2   2
#     4  12  22  40  69  99 143 188 220 289 359 420
#     4  12  23  41  64 105 145 181 234 287 351 430
#     4  12  24  44  70 104 147 186 232 288 359 427
#     4  12  24  48  72 105 145 182 238 294 353 421
#     4  12  25  44  69 104 145 182 233 291 348 426
#     4  11  24  50  74 101 139 190 239 296 350 416
#     4  11  27  49  73 102 140 187 245 291 351 416
#
# _framework density 25.890277999999999
#
# number of rings (size 3 to 8) (size 9 to 14) (size 15 to 20)
#    0.000    0.286    5.714    3.000    2.000    1.143 
#    5.143    0.000    0.000    0.000    0.000    0.000 
#    0.000    0.000    0.000    0.000    0.000    0.000 
#
# Total GULP energy -78402.216384 kJ/mol
# GULP energy per Si atom -5600.158313 kJ/mol
# Density = 2.583135 g / cm^3
# Si number density = 25.890278 Si / 1000 Ang^3
#
#
#
# Elastic Constant Matrix: (Units=GPa)
#
#
# Indices 1 2 3 4 5 6 
#
# 1 110.2346 16.6120 10.8633 5.5173 4.6215 -28.8974
# 2 16.6120 105.9833 17.4530 13.6005 4.6383 -28.6120
# 3 10.8633 17.4530 31.8691 0.7732 7.3137 -1.4025
# 4 5.5173 13.6005 0.7732 34.5631 -12.8221 -6.9015
# 5 4.6215 4.6383 7.3137 -12.8221 38.7398 -8.6155
# 6 -28.8974 -28.6120 -1.4025 -6.9015 -8.6155 51.6784
#
#
#
# Elastic Compliance Matrix: (Units=1/GPa)
#
#
# Indices 1 2 3 4 5 6 
#
# 1 0.011064 0.000713 -0.004019 -0.000403 0.000672 0.006531
# 2 0.000713 0.012747 -0.006834 -0.003627 -0.000013 0.006784
# 3 -0.004019 -0.006834 0.038066 -0.001774 -0.007934 -0.006558
# 4 -0.000403 -0.003627 -0.001774 0.036669 0.014057 0.004959
# 5 0.000672 -0.000013 -0.007934 0.014057 0.033582 0.007629
# 6 0.006531 0.006784 -0.006558 0.004959 0.007629 0.028514
#
#
# Mechanical properties :
#
#
# Convention : Reuss Voigt Hill
#
# Bulk Modulus (GPa) = 24.04043 37.54930 30.79487
# Shear Modulus (GPa) = 25.66894 38.54017 32.10455
#
# Velocity S-wave (km/s) = 3.15215 3.86242 3.52522
# Velocity P-wave (km/s) = 4.74907 5.86735 5.33758
#
# Compressibility (1/GPa) = 0.04159659
#
# Stress axis : x y z
#
# Youngs Moduli (GPa) = 90.38178 78.45265 26.26986
#
# Poissons Ratio (x) = -0.05594 0.10558
# Poissons Ratio (y) = -0.06445 0.17953
# Poissons Ratio (z) = 0.36325 0.53616
#
# Static dielectric constant tensor:
#      x y z
#    x 1.986930 -0.026880 0.087750 
#    y -0.026880 2.065560 -0.024460 
#    z 0.087750 -0.024460 1.980530 
# 
# From -- ./inp_files/175924.got.cif
#   From: 2010.05.17/outbox.cif.g08.bks.cpg/sg2_88_cif.got.tgz:175924.got - 2010.06.03 11:33:40.
