data_PCOD9065544
_publ_section_title
;
Structure prediction by ZEFSAII (Michael W. Deem and Ramdas Pophale) SiO2 
 PCOD9065544
Probable space group: P -1
;
_chemical_formula_sum "Si O2"
_cell_formula_units_Z 16
_cell_length_a 20.028921
_cell_length_b 5.287351
_cell_length_c 7.801966
_cell_angle_alpha 116.111207
_cell_angle_beta 121.798900
_cell_angle_gamma 67.959854
_cell_volume 619.324082
_symmetry_space_group_name_H-M "P -1"
_symmetry_group_IT_number 2
_symmetry_cell_setting 'triclinic'
loop_
_space_group_symop_operation_xyz
x,y,z
-x,-y,-z
loop_
_atom_site_type_symbol
_atom_site_label
_atom_site_fract_x
_atom_site_fract_y
_atom_site_fract_z
Si Si1 0.582414 0.232321 0.867125
Si Si2 0.749082 0.970071 0.062578
Si Si3 0.409479 0.223115 0.789525
Si Si4 0.413825 0.689610 0.476026
Si Si5 0.844111 0.469643 0.277618
Si Si6 0.718406 0.582112 0.619004
Si Si7 0.964498 0.948313 0.120172
Si Si8 0.886833 0.465342 0.705103
O O1 0.494156 0.228881 0.811777
O O2 0.593428 0.131682 0.656441
O O3 0.593298 0.562812 0.993126
O O4 0.656129 0.051095 0.016184
O O5 0.801697 0.728305 0.178109
O O6 0.783446 0.259161 0.182493
O O7 0.746339 0.845225 0.830494
O O8 0.334102 0.338316 0.598690
O O9 0.413699 0.884558 0.702183
O O10 0.500000 0.500000 0.500000
O O11 0.339004 0.538955 0.360701
O O12 0.871254 0.587454 0.528740
O O13 0.914732 0.244524 0.213872
O O14 0.803727 0.383104 0.632814
O O15 0.040516 0.803145 0.291439
O O16 0.913845 0.697079 0.938994
O O17 0.000000 0.000000 0.000000
#
# Coordination Sequence:
#
# PCOD9065544 Si02
#       8
#     2   2   2   2   2   2   2   2
#     4  11  24  49  69 109 149 201 265 328 386 463
#     4  12  26  49  77 112 156 205 260 320 384 462
#     4  11  25  46  70 104 151 197 267 319 398 451
#     4  12  24  45  75 107 150 210 257 327 390 456
#     4  12  28  52  79 115 160 206 256 319 394 465
#     4  12  24  47  74 106 156 202 260 319 390 462
#     4  11  26  50  84 115 154 204 253 323 390 474
#     4  11  27  50  76 117 155 198 259 318 391 467
#
# _framework density 25.834617999999999
#
# number of rings (size 3 to 8) (size 9 to 14) (size 15 to 20)
#    0.000    0.500    3.750    3.750    3.500    2.000 
#   13.500    0.000    0.000    0.000    0.000    0.000 
#    0.000    0.000    0.000    0.000    0.000    0.000 
#
# Total GULP energy -89586.863819 kJ/mol
# GULP energy per Si atom -5599.178989 kJ/mol
# Density = 2.577582 g / cm^3
# Si number density = 25.834618 Si / 1000 Ang^3
#
#
#
# Elastic Constant Matrix: (Units=GPa)
#
#
# Indices 1 2 3 4 5 6 
#
# 1 133.2962 30.4131 17.8815 -14.3345 22.6158 -34.7994
# 2 30.4131 99.0996 11.9625 -23.9139 17.1689 -32.4762
# 3 17.8815 11.9625 81.1373 -10.8907 3.4718 -25.1665
# 4 -14.3345 -23.9139 -10.8907 60.4628 -10.1499 6.6775
# 5 22.6158 17.1689 3.4718 -10.1499 41.3708 -2.4404
# 6 -34.7994 -32.4762 -25.1665 6.6775 -2.4404 44.5882
#
#
#
# Elastic Compliance Matrix: (Units=1/GPa)
#
#
# Indices 1 2 3 4 5 6 
#
# 1 0.010529 0.000694 0.000620 0.001035 -0.005333 0.008626
# 2 0.000694 0.015588 0.002143 0.004500 -0.005208 0.012146
# 3 0.000620 0.002143 0.015459 0.002415 -0.001323 0.010336
# 4 0.001035 0.004500 0.002415 0.019069 0.002203 0.002713
# 5 -0.005333 -0.005208 -0.001323 0.002203 0.029462 -0.007420
# 6 0.008626 0.012146 0.010336 0.002713 -0.007420 0.043028
#
#
# Mechanical properties :
#
#
# Convention : Reuss Voigt Hill
#
# Bulk Modulus (GPa) = 20.62289 48.22748 34.42518
# Shear Modulus (GPa) = 35.11655 46.16941 40.64298
#
# Velocity S-wave (km/s) = 3.69084 4.23201 3.97066
# Velocity P-wave (km/s) = 5.11499 6.52596 5.86308
#
# Compressibility (1/GPa) = 0.04848982
#
# Stress axis : x y z
#
# Youngs Moduli (GPa) = 94.97970 64.15343 64.68741
#
# Poissons Ratio (x) = -0.04455 -0.04010
# Poissons Ratio (y) = -0.06596 -0.13863
# Poissons Ratio (z) = -0.05887 -0.13748
#
# Static dielectric constant tensor:
#      x y z
#    x 2.002100 -0.013480 0.047550 
#    y -0.013480 2.109230 -0.033230 
#    z 0.047550 -0.033230 2.057410 
# 
# From -- ./inp_files/340700.got.cif
#   From: 2010.05.17/outbox.cif.g08.bks.cpg/sg2_171_cif.got.tgz:340700.got - 2010.06.03 11:33:40.
