data_PCOD9065215
_publ_section_title
;
Structure prediction by ZEFSAII (Michael W. Deem and Ramdas Pophale) SiO2 
 PCOD9065215
Probable space group: P -1
;
_chemical_formula_sum "Si O2"
_cell_formula_units_Z 15
_cell_length_a 5.854650
_cell_length_b 15.006392
_cell_length_c 14.164592
_cell_angle_alpha 135.639719
_cell_angle_beta 88.002114
_cell_angle_gamma 121.022234
_cell_volume 619.367796
_symmetry_space_group_name_H-M "P -1"
_symmetry_group_IT_number 2
_symmetry_cell_setting 'triclinic'
loop_
_space_group_symop_operation_xyz
x,y,z
-x,-y,-z
loop_
_atom_site_type_symbol
_atom_site_label
_atom_site_fract_x
_atom_site_fract_y
_atom_site_fract_z
Si Si1 0.358083 0.226696 0.468070
Si Si2 0.882072 0.185299 0.959121
Si Si3 0.792111 0.864924 0.224572
Si Si4 0.532714 0.165346 0.615889
Si Si5 0.556259 0.595500 0.747739
Si Si6 0.149369 0.546770 0.879734
Si Si7 0.500000 0.000000 0.000000
Si Si8 0.347985 0.685526 0.662608
O O1 0.470142 0.193078 0.532839
O O2 0.505256 0.425028 0.617546
O O3 0.476542 0.212440 0.358806
O O4 0.970157 0.067837 0.351651
O O5 0.120469 0.229700 0.072938
O O6 0.997930 0.372855 0.075799
O O7 0.553760 0.058148 0.926741
O O8 0.956087 0.137568 0.825708
O O9 0.704697 0.848275 0.322309
O O10 0.461881 0.698534 0.052709
O O11 0.893357 0.350060 0.777717
O O12 0.500000 0.000000 0.500000
O O13 0.269436 0.536997 0.771724
O O14 0.539268 0.648716 0.685420
O O15 0.647977 0.194635 0.176191
O O16 0.000000 0.500000 0.500000
#
# Coordination Sequence:
#
# PCOD9065215 Si02
#       8
#     2   2   2   2   2   2   1   2
#     4  12  25  49  72 110 153 194 257 315 377 465
#     4  11  24  47  74 110 152 195 251 313 384 460
#     4  11  27  44  74 111 143 200 252 314 382 446
#     4  12  27  50  77 106 150 202 256 319 383 448
#     4  11  24  47  76 109 152 196 250 311 386 457
#     4  11  24  48  75 108 150 196 250 314 384 459
#     4  12  24  46  76 108 156 194 252 314 378 462
#     4  12  26  46  78 114 151 207 251 313 391 463
#
# _framework density 24.218242
#
# number of rings (size 3 to 8) (size 9 to 14) (size 15 to 20)
#    0.000    0.533    4.000    3.600    1.867    3.200 
#    0.000    0.000    0.000    0.000    0.000    0.000 
#    0.000    0.000    0.000    0.000    0.000    0.000 
#
# Total GULP energy -83623.006157 kJ/mol
# GULP energy per Si atom -5574.867077 kJ/mol
# Density = 2.416312 g / cm^3
# Si number density = 24.218242 Si / 1000 Ang^3
#
#
#
# Elastic Constant Matrix: (Units=GPa)
#
#
# Indices 1 2 3 4 5 6 
#
# 1 33.7520 23.0095 26.6730 -12.6078 -4.6557 -11.2253
# 2 23.0095 131.3341 43.0156 -19.6719 -7.1451 -4.5052
# 3 26.6730 43.0156 140.5113 -8.1346 -7.6294 -18.3719
# 4 -12.6078 -19.6719 -8.1346 59.0318 16.6251 -8.8136
# 5 -4.6557 -7.1451 -7.6294 16.6251 43.2819 3.4196
# 6 -11.2253 -4.5052 -18.3719 -8.8136 3.4196 30.6443
#
#
#
# Elastic Compliance Matrix: (Units=1/GPa)
#
#
# Indices 1 2 3 4 5 6 
#
# 1 0.045475 -0.004403 -0.004617 0.010654 -0.002048 0.016536
# 2 -0.004403 0.009276 -0.002029 0.001685 0.000131 -0.000996
# 3 -0.004617 -0.002029 0.009082 -0.000053 0.000522 0.003382
# 4 0.010654 0.001685 -0.000053 0.024031 -0.008764 0.012008
# 5 -0.002048 0.000131 0.000522 -0.008764 0.026833 -0.005933
# 6 0.016536 -0.000996 0.003382 0.012008 -0.005933 0.044687
#
#
# Mechanical properties :
#
#
# Convention : Reuss Voigt Hill
#
# Bulk Modulus (GPa) = 23.96134 54.55487 39.25810
# Shear Modulus (GPa) = 25.58940 40.78487 33.18713
#
# Velocity S-wave (km/s) = 3.25409 4.10818 3.70582
# Velocity P-wave (km/s) = 4.90247 6.71402 5.87845
#
# Compressibility (1/GPa) = 0.04173389
#
# Stress axis : x y z
#
# Youngs Moduli (GPa) = 21.99011 107.80875 110.10840
#
# Poissons Ratio (x) = 0.47472 0.50834
# Poissons Ratio (y) = 0.09683 0.22344
# Poissons Ratio (z) = 0.10152 0.21877
#
# Static dielectric constant tensor:
#      x y z
#    x 2.070900 0.065250 0.040690 
#    y 0.065250 1.973770 0.027550 
#    z 0.040690 0.027550 1.975410 
# 
# From -- ./inp_files/339756.got.cif
#   From: 2010.05.17/outbox.cif.g08.bks.cpg/sg2_170_cif.got.tgz:339756.got - 2010.06.03 11:33:40.
