data_PCOD9065920
_publ_section_title
;
Structure prediction by ZEFSAII (Michael W. Deem and Ramdas Pophale) SiO2 
 PCOD9065920
Probable space group: P -1
;
_chemical_formula_sum "Si O2"
_cell_formula_units_Z 16
_cell_length_a 7.728428
_cell_length_b 4.992823
_cell_length_c 17.550304
_cell_angle_alpha 92.622884
_cell_angle_beta 81.523895
_cell_angle_gamma 113.774526
_cell_volume 612.900352
_symmetry_space_group_name_H-M "P -1"
_symmetry_group_IT_number 2
_symmetry_cell_setting 'triclinic'
loop_
_space_group_symop_operation_xyz
x,y,z
-x,-y,-z
loop_
_atom_site_type_symbol
_atom_site_label
_atom_site_fract_x
_atom_site_fract_y
_atom_site_fract_z
Si Si1 0.842617 0.330994 0.216627
Si Si2 0.163875 0.914913 0.189959
Si Si3 0.527418 0.849747 0.151704
Si Si4 0.752921 0.922172 0.648452
Si Si5 0.573922 0.287976 0.448495
Si Si6 0.006811 0.599992 0.625547
Si Si7 0.080455 0.233985 0.064127
Si Si8 0.384024 0.606312 0.948790
O O1 0.942716 0.689561 0.212576
O O2 0.920318 0.283847 0.292330
O O3 0.931291 0.272337 0.131574
O O4 0.632450 0.074736 0.216142
O O5 0.299113 0.733320 0.176084
O O6 0.241426 0.116580 0.261452
O O7 0.189121 0.102992 0.114641
O O8 0.560601 0.070636 0.080969
O O9 0.610427 0.605510 0.125112
O O10 0.544156 0.779025 0.623804
O O11 0.898335 0.791611 0.602408
O O12 0.849266 0.270036 0.634301
O O13 0.500000 0.500000 0.500000
O O14 0.800663 0.391388 0.425786
O O15 0.500000 0.000000 0.500000
O O16 0.195335 0.519778 0.010996
O O17 0.000000 0.000000 0.000000
O O18 0.500000 0.500000 0.000000
#
# Coordination Sequence:
#
# PCOD9065920 Si02
#       8
#     2   2   2   2   2   2   2   2
#     4  11  25  44  67 100 135 189 238 295 356 421
#     4  11  25  44  68  97 137 189 236 294 354 430
#     4  12  26  42  66  90 131 177 235 297 366 413
#     4  11  25  47  75 109 150 197 238 291 364 433
#     4  12  27  48  79 119 152 186 238 295 353 437
#     4  11  25  47  75 107 153 194 242 288 360 440
#     4  12  23  40  65  92 136 176 244 301 349 406
#     4  12  25  40  60  90 125 171 231 301 357 417
#
# _framework density 26.105381999999999
#
# number of rings (size 3 to 8) (size 9 to 14) (size 15 to 20)
#    0.000    0.500    3.750    4.125    1.750    4.000 
#    0.000    2.500    0.000    0.000    0.000    0.000 
#    0.000    0.000    0.000    0.000    0.000    0.000 
#
# Total GULP energy -89483.223550 kJ/mol
# GULP energy per Si atom -5592.701472 kJ/mol
# Density = 2.604597 g / cm^3
# Si number density = 26.105382 Si / 1000 Ang^3
#
#
#
# Elastic Constant Matrix: (Units=GPa)
#
#
# Indices 1 2 3 4 5 6 
#
# 1 95.5039 -1.9276 2.0771 13.5557 -9.3560 -10.0029
# 2 -1.9276 93.6823 7.8037 13.3818 1.4718 -19.5975
# 3 2.0771 7.8037 87.2475 18.7937 -6.9713 -12.8251
# 4 13.5557 13.3818 18.7937 36.9396 3.2590 1.3624
# 5 -9.3560 1.4718 -6.9713 3.2590 42.4062 7.3369
# 6 -10.0029 -19.5975 -12.8251 1.3624 7.3369 40.5593
#
#
#
# Elastic Compliance Matrix: (Units=1/GPa)
#
#
# Indices 1 2 3 4 5 6 
#
# 1 0.012069 0.001839 0.001742 -0.006369 0.002657 0.004149
# 2 0.001839 0.013078 0.001173 -0.006226 -0.000670 0.007474
# 3 0.001742 0.001173 0.014161 -0.008679 0.002417 0.005328
# 4 -0.006369 -0.006226 -0.008679 0.036728 -0.004086 -0.007818
# 5 0.002657 -0.000670 0.002417 -0.004086 0.025487 -0.003377
# 6 0.004149 0.007474 0.005328 -0.007818 -0.003377 0.031848
#
#
# Mechanical properties :
#
#
# Convention : Reuss Voigt Hill
#
# Bulk Modulus (GPa) = 20.48499 32.48224 26.48362
# Shear Modulus (GPa) = 35.68011 41.87972 38.77991
#
# Velocity S-wave (km/s) = 3.70100 4.00966 3.85842
# Velocity P-wave (km/s) = 5.11148 5.82291 5.47876
#
# Compressibility (1/GPa) = 0.04881623
#
# Stress axis : x y z
#
# Youngs Moduli (GPa) = 82.85746 76.46570 70.61607
#
# Poissons Ratio (x) = -0.14064 -0.12304
# Poissons Ratio (y) = -0.15240 -0.08280
# Poissons Ratio (z) = -0.14437 -0.08966
#
# Static dielectric constant tensor:
#      x y z
#    x 2.249000 0.078440 0.008820 
#    y 0.078440 2.032170 0.045430 
#    z 0.008820 0.045430 2.091100 
# 
# From -- ./inp_files/44739.got.cif
#   From: 2010.05.17/outbox.cif.g08.bks.cpg/sg2_23_cif.got.tgz:44739.got - 2010.06.03 11:33:40.
