data_PCOD9065630
_publ_section_title
;
Structure prediction by ZEFSAII (Michael W. Deem and Ramdas Pophale) SiO2 
 PCOD9065630
Probable space group: P -1
;
_chemical_formula_sum "Si O2"
_cell_formula_units_Z 10
_cell_length_a 10.929529
_cell_length_b 8.710701
_cell_length_c 5.078936
_cell_angle_alpha 117.050204
_cell_angle_beta 64.108378
_cell_angle_gamma 113.667544
_cell_volume 374.791395
_symmetry_space_group_name_H-M "P -1"
_symmetry_group_IT_number 2
_symmetry_cell_setting 'triclinic'
loop_
_space_group_symop_operation_xyz
x,y,z
-x,-y,-z
loop_
_atom_site_type_symbol
_atom_site_label
_atom_site_fract_x
_atom_site_fract_y
_atom_site_fract_z
Si Si1 0.407151 0.014285 0.852274
Si Si2 0.341412 0.378612 0.104862
Si Si3 0.179733 0.646505 0.717095
Si Si4 0.885145 0.879291 0.231887
Si Si5 0.921112 0.240932 0.613418
O O1 0.279990 0.842833 0.802984
O O2 0.500000 0.000000 0.500000
O O3 0.500000 0.000000 0.000000
O O4 0.364949 0.199565 0.070517
O O5 0.261190 0.504737 0.432927
O O6 0.500000 0.500000 0.000000
O O7 0.234029 0.281598 0.900138
O O8 0.068751 0.675091 0.621704
O O9 0.129433 0.621621 0.045006
O O10 0.956993 0.806602 0.357110
O O11 0.822223 0.041298 0.517288
O O12 0.000000 0.000000 0.000000
#
# Coordination Sequence:
#
# PCOD9065630 Si02
#       5
#     2   2   2   2   2
#     4  12  26  48  76 107 165 211 254 318 400 472
#     4  12  28  50  80 124 157 209 267 328 398 476
#     4  12  26  48  78 116 157 200 266 327 389 467
#     4  11  24  51  83 111 159 210 266 322 395 480
#     4  11  24  49  79 112 150 211 257 323 390 458
#
# _framework density 26.681511
#
# number of rings (size 3 to 8) (size 9 to 14) (size 15 to 20)
#    0.000    0.400    6.000    1.200    0.000    4.000 
#    7.200    0.000    0.000    0.000    0.000    0.000 
#    0.000    0.000    0.000    0.000    0.000    0.000 
#
# Total GULP energy -55908.335130 kJ/mol
# GULP energy per Si atom -5590.833513 kJ/mol
# Density = 2.662078 g / cm^3
# Si number density = 26.681511 Si / 1000 Ang^3
#
#
#
# Elastic Constant Matrix: (Units=GPa)
#
#
# Indices 1 2 3 4 5 6 
#
# 1 171.1452 69.8874 55.9630 14.2136 38.2756 -17.3668
# 2 69.8874 173.7009 62.1778 47.6076 15.3392 19.1552
# 3 55.9630 62.1778 186.5696 33.6800 16.5467 -11.8145
# 4 14.2136 47.6076 33.6800 78.9735 -17.4061 4.4058
# 5 38.2756 15.3392 16.5467 -17.4061 51.8447 12.3367
# 6 -17.3668 19.1552 -11.8145 4.4058 12.3367 77.4122
#
#
#
# Elastic Compliance Matrix: (Units=1/GPa)
#
#
# Indices 1 2 3 4 5 6 
#
# 1 0.009430 -0.002941 -0.000682 -0.001468 -0.007316 0.003989
# 2 -0.002941 0.009016 -0.001441 -0.004324 -0.000838 -0.002731
# 3 -0.000682 -0.001441 0.006855 -0.002597 -0.002560 0.001805
# 4 -0.001468 -0.004324 -0.002597 0.019005 0.010133 -0.002352
# 5 -0.007316 -0.000838 -0.002560 0.010133 0.030900 -0.007326
# 6 0.003989 -0.002731 0.001805 -0.002352 -0.007326 0.016065
#
#
# Mechanical properties :
#
#
# Convention : Reuss Voigt Hill
#
# Bulk Modulus (GPa) = 65.90443 100.83025 83.36734
# Shear Modulus (GPa) = 46.96718 64.53857 55.75287
#
# Velocity S-wave (km/s) = 4.20013 4.92352 4.57614
# Velocity P-wave (km/s) = 6.94806 8.37817 7.69640
#
# Compressibility (1/GPa) = 0.01517349
#
# Stress axis : x y z
#
# Youngs Moduli (GPa) = 106.04471 110.90799 145.88447
#
# Poissons Ratio (x) = 0.32622 0.09946
# Poissons Ratio (y) = 0.31192 0.21017
# Poissons Ratio (z) = 0.07230 0.15978
#
# Static dielectric constant tensor:
#      x y z
#    x 2.155790 0.043780 -0.102750 
#    y 0.043780 2.160640 -0.131790 
#    z -0.102750 -0.131790 2.270930 
# 
# From -- ./inp_files/58724.got.cif
#   From: 2010.05.17/outbox.cif.g08.bks.cpg/sg2_30_cif.got.tgz:58724.got - 2010.06.03 11:33:40.
