data_PCOD9065820
_publ_section_title
;
Structure prediction by ZEFSAII (Michael W. Deem and Ramdas Pophale) SiO2 
 PCOD9065820
Probable space group: P -1
;
_chemical_formula_sum "Si O2"
_cell_formula_units_Z 16
_cell_length_a 8.361471
_cell_length_b 13.832449
_cell_length_c 5.534194
_cell_angle_alpha 102.839921
_cell_angle_beta 95.655860
_cell_angle_gamma 84.928361
_cell_volume 619.578795
_symmetry_space_group_name_H-M "P -1"
_symmetry_group_IT_number 2
_symmetry_cell_setting 'triclinic'
loop_
_space_group_symop_operation_xyz
x,y,z
-x,-y,-z
loop_
_atom_site_type_symbol
_atom_site_label
_atom_site_fract_x
_atom_site_fract_y
_atom_site_fract_z
Si Si1 0.095023 0.160963 0.431683
Si Si2 0.682645 0.724447 0.127091
Si Si3 0.463817 0.856459 0.788522
Si Si4 0.258652 0.523213 0.603064
Si Si5 0.385233 0.602108 0.149878
Si Si6 0.919235 0.644220 0.742657
Si Si7 0.241955 0.795260 0.365194
Si Si8 0.705644 0.012794 0.800219
O O1 0.069529 0.241639 0.262135
O O2 0.936276 0.171148 0.571218
O O3 0.132324 0.051818 0.271324
O O4 0.236285 0.201639 0.638401
O O5 0.585228 0.794500 0.952985
O O6 0.546745 0.660748 0.187139
O O7 0.826210 0.652036 0.989552
O O8 0.361437 0.776274 0.598191
O O9 0.575361 0.931248 0.711230
O O10 0.326274 0.935729 0.918726
O O11 0.367413 0.538700 0.865179
O O12 0.202430 0.413362 0.478130
O O13 0.091022 0.586722 0.680633
O O14 0.339452 0.555304 0.377642
O O15 0.249813 0.695573 0.158507
O O16 0.314771 0.890116 0.310951
#
# Coordination Sequence:
#
# PCOD9065820 Si02
#       8
#     2   2   2   2   2   2   2   2
#     4  12  27  45  70 107 148 194 249 314 372 448
#     4  12  27  46  76 108 153 194 250 317 381 441
#     4  11  25  44  71 103 144 198 248 305 373 450
#     4  11  28  51  79 111 147 206 251 316 379 459
#     4  12  26  48  79 110 151 195 257 308 380 448
#     4  11  27  48  77 106 153 194 252 311 384 445
#     4  12  25  45  73 103 148 199 251 302 376 451
#     4  11  25  43  69 105 145 192 247 307 376 445
#
# _framework density 25.823998
#
# number of rings (size 3 to 8) (size 9 to 14) (size 15 to 20)
#    0.000    0.500    3.750    3.000    7.000    3.500 
#    0.000    0.000    0.000    0.000    0.000    0.000 
#    0.000    0.000    0.000    0.000    0.000    0.000 
#
# Total GULP energy -89527.400526 kJ/mol
# GULP energy per Si atom -5595.462533 kJ/mol
# Density = 2.576522 g / cm^3
# Si number density = 25.823998 Si / 1000 Ang^3
#
#
#
# Elastic Constant Matrix: (Units=GPa)
#
#
# Indices 1 2 3 4 5 6 
#
# 1 68.6535 8.4774 47.3250 -6.3014 -17.7659 13.1856
# 2 8.4774 87.7591 21.0865 -0.8958 -5.5342 0.3098
# 3 47.3250 21.0865 122.0816 14.8708 -22.7027 11.6635
# 4 -6.3014 -0.8958 14.8708 33.1301 -10.7361 -4.2772
# 5 -17.7659 -5.5342 -22.7027 -10.7361 54.4033 14.1180
# 6 13.1856 0.3098 11.6635 -4.2772 14.1180 33.5989
#
#
#
# Elastic Compliance Matrix: (Units=1/GPa)
#
#
# Indices 1 2 3 4 5 6 
#
# 1 0.025784 0.000328 -0.008653 0.010606 0.009464 -0.009745
# 2 0.000328 0.011978 -0.002359 0.001690 0.000526 0.000574
# 3 -0.008653 -0.002359 0.013508 -0.007559 0.001863 -0.003017
# 4 0.010606 0.001690 -0.007559 0.038238 0.008044 -0.000066
# 5 0.009464 0.000526 0.001863 0.008044 0.027787 -0.015018
# 6 -0.009745 0.000574 -0.003017 -0.000066 -0.015018 0.040931
#
#
# Mechanical properties :
#
#
# Convention : Reuss Voigt Hill
#
# Bulk Modulus (GPa) = 33.44129 48.03023 40.73576
# Shear Modulus (GPa) = 26.37650 37.66681 32.02166
#
# Velocity S-wave (km/s) = 3.19939 3.82330 3.52518
# Velocity P-wave (km/s) = 5.16004 6.17492 5.69015
#
# Compressibility (1/GPa) = 0.02990316
#
# Stress axis : x y z
#
# Youngs Moduli (GPa) = 38.78331 83.48418 74.02871
#
# Poissons Ratio (x) = -0.02737 0.64055
# Poissons Ratio (y) = -0.01272 0.17463
# Poissons Ratio (z) = 0.33558 0.19693
#
# Static dielectric constant tensor:
#      x y z
#    x 2.060310 -0.040430 -0.050230 
#    y -0.040430 2.027900 -0.110500 
#    z -0.050230 -0.110500 2.184540 
# 
# From -- ./inp_files/39867.got.cif
#   From: 2010.05.17/outbox.cif.g08.bks.cpg/sg2_20_cif.got.tgz:39867.got - 2010.06.03 11:33:40.
