data_PCOD9065164
_publ_section_title
;
Structure prediction by ZEFSAII (Michael W. Deem and Ramdas Pophale) SiO2 
 PCOD9065164
Probable space group: P -1
;
_chemical_formula_sum "Si O2"
_cell_formula_units_Z 16
_cell_length_a 24.432799
_cell_length_b 6.048594
_cell_length_c 5.219743
_cell_angle_alpha 74.542804
_cell_angle_beta 86.000374
_cell_angle_gamma 58.942740
_cell_volume 634.767752
_symmetry_space_group_name_H-M "P -1"
_symmetry_group_IT_number 2
_symmetry_cell_setting 'triclinic'
loop_
_space_group_symop_operation_xyz
x,y,z
-x,-y,-z
loop_
_atom_site_type_symbol
_atom_site_label
_atom_site_fract_x
_atom_site_fract_y
_atom_site_fract_z
Si Si1 0.265006 0.286792 0.644492
Si Si2 0.437301 0.599687 0.314989
Si Si3 0.715315 0.304325 0.106861
Si Si4 0.464551 0.902684 0.861067
Si Si5 0.875954 0.284257 0.381915
Si Si6 0.039059 0.489290 0.740042
Si Si7 0.853006 0.073262 0.945291
Si Si8 0.628738 0.665163 0.630100
O O1 0.188737 0.450986 0.577983
O O2 0.314054 0.274022 0.422706
O O3 0.273016 0.501963 0.762294
O O4 0.283162 0.976989 0.764071
O O5 0.500000 0.500000 0.500000
O O6 0.473819 0.368905 0.165556
O O7 0.381256 0.558744 0.452336
O O8 0.417780 0.865266 0.080031
O O9 0.777178 0.191237 0.930953
O O10 0.647406 0.514394 0.940900
O O11 0.428301 0.071703 0.570622
O O12 0.500000 0.000000 0.000000
O O13 0.939776 0.294908 0.366017
O O14 0.878883 0.072079 0.653493
O O15 0.865101 0.245668 0.099428
O O16 0.000000 0.500000 0.500000
O O17 0.000000 0.500000 0.000000
O O18 0.107084 0.216886 0.849644
#
# Coordination Sequence:
#
# PCOD9065164 Si02
#       8
#     2   2   2   2   2   2   2   2
#     4  11  26  48  73 109 147 194 248 315 379 457
#     4  11  25  44  70  99 140 189 233 307 374 441
#     4  11  26  48  72 108 146 198 246 314 386 452
#     4  11  25  44  66  99 143 182 240 304 374 446
#     4  11  24  47  73 106 152 200 246 321 385 451
#     4  12  26  44  74 112 147 202 258 312 376 464
#     4  11  24  47  73 105 153 197 251 319 387 451
#     4  12  25  44  74 105 136 190 254 300 378 466
#
# _framework density 25.20607
#
# number of rings (size 3 to 8) (size 9 to 14) (size 15 to 20)
#    0.000    0.750    3.750    2.625    1.750    6.000 
#    0.000    0.000    0.000    0.000    0.000    0.000 
#    0.000    0.000    0.000    0.000    0.000    0.000 
#
# Total GULP energy -89067.813528 kJ/mol
# GULP energy per Si atom -5566.738346 kJ/mol
# Density = 2.514870 g / cm^3
# Si number density = 25.206070 Si / 1000 Ang^3
#
#
#
# Elastic Constant Matrix: (Units=GPa)
#
#
# Indices 1 2 3 4 5 6 
#
# 1 146.7869 28.7329 48.3037 -14.6085 -8.3333 25.0946
# 2 28.7329 97.5981 28.3992 -19.5041 -2.7415 3.4736
# 3 48.3037 28.3992 122.0803 -16.6532 -2.2709 8.4477
# 4 -14.6085 -19.5041 -16.6532 49.9478 1.5524 3.5722
# 5 -8.3333 -2.7415 -2.2709 1.5524 47.2431 -15.5071
# 6 25.0946 3.4736 8.4477 3.5722 -15.5071 40.6167
#
#
#
# Elastic Compliance Matrix: (Units=1/GPa)
#
#
# Indices 1 2 3 4 5 6 
#
# 1 0.008977 -0.001379 -0.002666 0.001578 -0.000368 -0.005153
# 2 -0.001379 0.011891 -0.001714 0.003665 0.000230 -0.000043
# 3 -0.002666 -0.001714 0.009940 0.001917 -0.000343 -0.000573
# 4 0.001578 0.003665 0.001917 0.022910 -0.001583 -0.004307
# 5 -0.000368 0.000230 -0.000343 -0.001583 0.024338 0.009711
# 6 -0.005153 -0.000043 -0.000573 -0.004307 0.009711 0.032013
#
#
# Mechanical properties :
#
#
# Convention : Reuss Voigt Hill
#
# Bulk Modulus (GPa) = 51.83759 64.14854 57.99307
# Shear Modulus (GPa) = 39.05761 44.96349 42.01055
#
# Velocity S-wave (km/s) = 3.94068 4.22813 4.08693
# Velocity P-wave (km/s) = 6.42771 7.02431 6.73262
#
# Compressibility (1/GPa) = 0.01929102
#
# Stress axis : x y z
#
# Youngs Moduli (GPa) = 111.39581 84.09784 100.60749
#
# Poissons Ratio (x) = 0.11593 0.26824
# Poissons Ratio (y) = 0.15356 0.17239
# Poissons Ratio (z) = 0.29700 0.14410
#
# Static dielectric constant tensor:
#      x y z
#    x 4.676800 0.891820 -0.267070 
#    y 0.891820 2.474630 -0.009560 
#    z -0.267070 -0.009560 2.093490 
# 
# From -- ./inp_files/121453.got.cif
#   From: 2010.05.17/outbox.cif.g08.bks.cpg/sg2_61_cif.got.tgz:121453.got - 2010.06.03 11:33:40.
