data_PCOD9065704
_publ_section_title
;
Structure prediction by ZEFSAII (Michael W. Deem and Ramdas Pophale) SiO2 
 PCOD9065704
Probable space group: P -1
;
_chemical_formula_sum "Si O2"
_cell_formula_units_Z 15
_cell_length_a 7.928057
_cell_length_b 9.915590
_cell_length_c 7.827317
_cell_angle_alpha 96.921635
_cell_angle_beta 63.765758
_cell_angle_gamma 108.068475
_cell_volume 524.617897
_symmetry_space_group_name_H-M "P -1"
_symmetry_group_IT_number 2
_symmetry_cell_setting 'triclinic'
loop_
_space_group_symop_operation_xyz
x,y,z
-x,-y,-z
loop_
_atom_site_type_symbol
_atom_site_label
_atom_site_fract_x
_atom_site_fract_y
_atom_site_fract_z
Si Si1 0.470126 0.745235 0.148058
Si Si2 0.765274 0.662611 0.812069
Si Si3 0.961149 0.983768 0.715583
Si Si4 0.749839 0.335152 0.122483
Si Si5 0.559606 0.571763 0.279319
Si Si6 0.947473 0.700773 0.244393
Si Si7 0.000000 0.500000 0.500000
Si Si8 0.645659 0.032669 0.282343
O O1 0.388715 0.664359 0.345542
O O2 0.557455 0.908914 0.163982
O O3 0.639688 0.650091 0.049730
O O4 0.348191 0.689779 0.028813
O O5 0.610264 0.570547 0.735716
O O6 0.942672 0.597097 0.699459
O O7 0.808917 0.829291 0.787739
O O8 0.921450 0.132160 0.796136
O O9 0.143374 0.975519 0.749558
O O10 0.000000 0.000000 0.500000
O O11 0.696997 0.465152 0.254867
O O12 0.663677 0.187613 0.231601
O O13 0.973886 0.351582 0.973081
O O14 0.720546 0.699928 0.334062
O O15 0.988639 0.626501 0.386355
O O16 0.500000 0.000000 0.500000
#
# Coordination Sequence:
#
# PCOD9065704 Si02
#       8
#     2   2   2   2   2   2   1   2
#     4  11  24  51  78 113 157 207 254 325 395 474
#     4  11  26  47  78 109 160 202 258 315 402 457
#     4  12  28  50  71 109 156 210 251 332 383 467
#     4  11  26  47  80 115 158 204 261 330 391 472
#     4  11  25  48  78 112 152 208 256 324 390 479
#     4  12  26  48  78 113 159 205 265 318 397 462
#     4  12  26  46  78 120 154 206 258 334 376 480
#     4  12  30  49  79 116 155 209 272 325 388 473
#
# _framework density 28.592241000000001
#
# number of rings (size 3 to 8) (size 9 to 14) (size 15 to 20)
#    0.000    0.533    2.667    4.800    9.333    2.667 
#    0.000    0.000    0.000    0.000    0.000    0.000 
#    0.000    0.000    0.000    0.000    0.000    0.000 
#
# Total GULP energy -83559.267151 kJ/mol
# GULP energy per Si atom -5570.617810 kJ/mol
# Density = 2.852716 g / cm^3
# Si number density = 28.592241 Si / 1000 Ang^3
#
#
#
# Elastic Constant Matrix: (Units=GPa)
#
#
# Indices 1 2 3 4 5 6 
#
# 1 101.3523 6.9071 3.8577 -14.8798 15.2963 -0.7060
# 2 6.9071 194.1895 35.0014 -24.3530 2.2555 -7.0092
# 3 3.8577 35.0014 123.6623 -24.7886 11.3410 -13.3671
# 4 -14.8798 -24.3530 -24.7886 56.1945 -12.7483 4.6035
# 5 15.2963 2.2555 11.3410 -12.7483 31.8134 -0.6702
# 6 -0.7060 -7.0092 -13.3671 4.6035 -0.6702 56.9240
#
#
#
# Elastic Compliance Matrix: (Units=1/GPa)
#
#
# Indices 1 2 3 4 5 6 
#
# 1 0.010844 -0.000179 0.000534 0.001985 -0.004596 0.000023
# 2 -0.000179 0.005634 -0.001240 0.002043 0.000953 0.000246
# 3 0.000534 -0.001240 0.009445 0.003113 -0.002251 0.001794
# 4 0.001985 0.002043 0.003113 0.022146 0.006651 -0.000706
# 5 -0.004596 0.000953 -0.002251 0.006651 0.037031 -0.000570
# 6 0.000023 0.000246 0.001794 -0.000706 -0.000570 0.018069
#
#
# Mechanical properties :
#
#
# Convention : Reuss Voigt Hill
#
# Bulk Modulus (GPa) = 41.40316 56.74850 49.07583
# Shear Modulus (GPa) = 44.25210 53.88224 49.06717
#
# Velocity S-wave (km/s) = 3.93834 4.34580 4.14708
# Velocity P-wave (km/s) = 5.93235 6.71356 6.33501
#
# Compressibility (1/GPa) = 0.02415275
#
# Stress axis : x y z
#
# Youngs Moduli (GPa) = 92.22038 177.50880 105.87400
#
# Poissons Ratio (x) = 0.03174 -0.05656
# Poissons Ratio (y) = 0.01649 0.13130
# Poissons Ratio (z) = -0.04927 0.22014
#
# Static dielectric constant tensor:
#      x y z
#    x 3.323960 0.921590 -0.235940 
#    y 0.921590 3.119590 -0.057860 
#    z -0.235940 -0.057860 2.429530 
# 
# From -- ./inp_files/158555.got.cif
#   From: 2010.05.17/outbox.cif.g08.bks.cpg/sg2_80_cif.got.tgz:158555.got - 2010.06.03 11:33:40.
