data_PCOD9065332
_publ_section_title
;
Structure prediction by ZEFSAII (Michael W. Deem and Ramdas Pophale) SiO2 
 PCOD9065332
Probable space group: P -1
;
_chemical_formula_sum "Si O2"
_cell_formula_units_Z 12
_cell_length_a 6.774296
_cell_length_b 16.596393
_cell_length_c 9.194057
_cell_angle_alpha 131.224730
_cell_angle_beta 52.932023
_cell_angle_gamma 97.443205
_cell_volume 555.223771
_symmetry_space_group_name_H-M "P -1"
_symmetry_group_IT_number 2
_symmetry_cell_setting 'triclinic'
loop_
_space_group_symop_operation_xyz
x,y,z
-x,-y,-z
loop_
_atom_site_type_symbol
_atom_site_label
_atom_site_fract_x
_atom_site_fract_y
_atom_site_fract_z
Si Si1 0.226991 0.107829 0.012624
Si Si2 0.708861 0.735104 0.607143
Si Si3 0.400057 0.836668 0.587891
Si Si4 0.261923 0.536144 0.269339
Si Si5 0.689873 0.371458 0.327201
Si Si6 0.704323 0.716193 0.036769
O O1 0.308627 0.189362 0.966593
O O2 0.385887 0.968076 0.742249
O O3 0.287736 0.146643 0.188925
O O4 0.900265 0.141916 0.193760
O O5 0.648392 0.753786 0.485241
O O6 0.450177 0.713859 0.748302
O O7 0.980933 0.622985 0.413238
O O8 0.460826 0.776005 0.331438
O O9 0.296441 0.604807 0.476897
O O10 0.500000 0.500000 0.000000
O O11 0.271473 0.411874 0.174821
O O12 0.500000 0.500000 0.500000
O O13 0.996770 0.319364 0.066842
#
# Coordination Sequence:
#
# PCOD9065332 Si02
#       6
#     2   2   2   2   2   2
#     4  11  24  48  68  95 136 175 228 274 325 386
#     4  12  22  44  67  96 138 172 218 274 336 390
#     4  11  26  44  70  98 130 181 224 275 325 390
#     4  12  26  42  68 103 133 173 219 275 335 398
#     4  12  24  41  65 100 134 176 214 271 336 397
#     4  12  23  45  68  98 136 171 223 271 333 393
#
# _framework density 21.612907
#
# number of rings (size 3 to 8) (size 9 to 14) (size 15 to 20)
#    0.000    0.333    5.000    4.500    2.333    1.333 
#    3.000    0.833    0.000    0.000    0.000    0.000 
#    0.000    0.000    0.000    0.000    0.000    0.000 
#
# Total GULP energy -67062.314989 kJ/mol
# GULP energy per Si atom -5588.526249 kJ/mol
# Density = 2.156371 g / cm^3
# Si number density = 21.612907 Si / 1000 Ang^3
#
#
#
# Elastic Constant Matrix: (Units=GPa)
#
#
# Indices 1 2 3 4 5 6 
#
# 1 90.0674 19.8748 11.1757 6.4862 3.0810 -2.1227
# 2 19.8748 100.0429 21.4936 25.9932 4.3464 -9.9815
# 3 11.1757 21.4936 74.2647 12.7635 4.8503 -3.0158
# 4 6.4862 25.9932 12.7635 39.0935 8.8800 17.0193
# 5 3.0810 4.3464 4.8503 8.8800 29.2447 4.7097
# 6 -2.1227 -9.9815 -3.0158 17.0193 4.7097 28.9694
#
#
#
# Elastic Compliance Matrix: (Units=1/GPa)
#
#
# Indices 1 2 3 4 5 6 
#
# 1 0.011723 -0.001956 -0.001088 -0.000275 -0.000737 0.000353
# 2 -0.001956 0.016617 -0.000945 -0.017340 0.000652 0.015565
# 3 -0.001088 -0.000945 0.015217 -0.006019 -0.001233 0.004915
# 4 -0.000275 -0.017340 -0.006019 0.058047 -0.007664 -0.039477
# 5 -0.000737 0.000652 -0.001233 -0.007664 0.036942 -0.001461
# 6 0.000353 0.015565 0.004915 -0.039477 -0.001461 0.063850
#
#
# Mechanical properties :
#
#
# Convention : Reuss Voigt Hill
#
# Bulk Modulus (GPa) = 28.10745 41.05146 34.57946
# Shear Modulus (GPa) = 22.49876 33.58357 28.04117
#
# Velocity S-wave (km/s) = 3.22993 3.94619 3.60589
# Velocity P-wave (km/s) = 5.19068 6.30860 5.77674
#
# Compressibility (1/GPa) = 0.03557775
#
# Stress axis : x y z
#
# Youngs Moduli (GPa) = 85.30331 60.17833 65.71495
#
# Poissons Ratio (x) = 0.11773 0.07151
# Poissons Ratio (y) = 0.16688 0.06213
# Poissons Ratio (z) = 0.09282 0.05689
#
# Static dielectric constant tensor:
#      x y z
#    x 1.768700 -0.008810 -0.001820 
#    y -0.008810 1.831600 -0.008900 
#    z -0.001820 -0.008900 1.757610 
# 
# From -- ./inp_files/18286.got.cif
#   From: 2010.05.17/outbox.cif.g08.bks.cpg/sg2_10_cif.got.tgz:18286.got - 2010.06.03 11:33:40.
