data_PCOD9065646
_publ_section_title
;
Structure prediction by ZEFSAII (Michael W. Deem and Ramdas Pophale) SiO2 
 PCOD9065646
Probable space group: P -1
;
_chemical_formula_sum "Si O2"
_cell_formula_units_Z 16
_cell_length_a 11.298321
_cell_length_b 8.878675
_cell_length_c 8.778291
_cell_angle_alpha 65.413764
_cell_angle_beta 109.947051
_cell_angle_gamma 72.762774
_cell_volume 646.241973
_symmetry_space_group_name_H-M "P -1"
_symmetry_group_IT_number 2
_symmetry_cell_setting 'triclinic'
loop_
_space_group_symop_operation_xyz
x,y,z
-x,-y,-z
loop_
_atom_site_type_symbol
_atom_site_label
_atom_site_fract_x
_atom_site_fract_y
_atom_site_fract_z
Si Si1 0.589270 0.107357 0.187094
Si Si2 0.332119 0.241846 0.833465
Si Si3 0.169242 0.637794 0.450063
Si Si4 0.756228 0.338278 0.858195
Si Si5 0.982223 0.698594 0.851441
Si Si6 0.082727 0.096398 0.569460
Si Si7 0.741610 0.991328 0.859593
Si Si8 0.561979 0.286062 0.419040
O O1 0.548780 0.179755 0.309714
O O2 0.608845 0.907026 0.218549
O O3 0.751993 0.064374 0.257721
O O4 0.464759 0.258585 0.956387
O O5 0.207883 0.444331 0.635087
O O6 0.282478 0.149166 0.982931
O O7 0.180166 0.613437 0.284756
O O8 0.295120 0.688370 0.530541
O O9 0.009055 0.795535 0.368359
O O10 0.774256 0.133798 0.910492
O O11 0.587089 0.508497 0.720728
O O12 0.857906 0.326298 0.046639
O O13 0.924762 0.759664 0.627970
O O14 0.867271 0.867252 0.842878
O O15 0.000000 0.500000 0.000000
O O16 0.000000 0.000000 0.500000
O O17 0.597618 0.142058 0.636845
#
# Coordination Sequence:
#
# PCOD9065646 Si02
#       8
#     2   2   2   2   2   2   2   2
#     4  11  27  47  71 108 145 187 232 299 359 427
#     4  11  29  44  73 109 144 185 236 296 369 408
#     4  11  25  48  71 107 142 187 237 297 353 425
#     4  11  28  46  75 102 145 193 240 292 355 429
#     4  12  28  46  70 112 140 190 243 295 359 422
#     4  12  25  48  74 105 141 190 239 290 356 426
#     4  11  24  50  70 103 146 191 238 294 357 426
#     4  11  25  48  75 100 143 192 245 287 353 429
#
# _framework density 24.75853
#
# number of rings (size 3 to 8) (size 9 to 14) (size 15 to 20)
#    0.000    0.750    2.500    3.375   15.750    1.500 
#    0.000    0.000    0.000    0.000    0.000    0.000 
#    0.000    0.000    0.000    0.000    0.000    0.000 
#
# Total GULP energy -89675.103558 kJ/mol
# GULP energy per Si atom -5604.693972 kJ/mol
# Density = 2.470218 g / cm^3
# Si number density = 24.758530 Si / 1000 Ang^3
#
#
#
# Elastic Constant Matrix: (Units=GPa)
#
#
# Indices 1 2 3 4 5 6 
#
# 1 103.8693 24.4366 44.4805 -10.9326 -6.2645 -12.2406
# 2 24.4366 72.7944 31.4832 0.7908 -5.9485 -11.1171
# 3 44.4805 31.4832 97.1835 -6.2285 -5.0844 9.4911
# 4 -10.9326 0.7908 -6.2285 46.0312 5.0476 8.0152
# 5 -6.2645 -5.9485 -5.0844 5.0476 51.0651 -2.1780
# 6 -12.2406 -11.1171 9.4911 8.0152 -2.1780 37.6835
#
#
#
# Elastic Compliance Matrix: (Units=1/GPa)
#
#
# Indices 1 2 3 4 5 6 
#
# 1 0.013330 -0.000896 -0.006204 0.001288 0.001017 0.005413
# 2 -0.000896 0.018043 -0.006230 -0.002856 0.001966 0.007322
# 3 -0.006204 -0.006230 0.016095 0.002331 -0.000474 -0.008430
# 4 0.001288 -0.002856 0.002331 0.023757 -0.002556 -0.006212
# 5 0.001017 0.001966 -0.000474 -0.002556 0.020259 0.002744
# 6 0.005413 0.007322 -0.008430 -0.006212 0.002744 0.034058
#
#
# Mechanical properties :
#
#
# Convention : Reuss Voigt Hill
#
# Bulk Modulus (GPa) = 48.05810 52.73862 50.39836
# Shear Modulus (GPa) = 31.41946 38.51909 34.96927
#
# Velocity S-wave (km/s) = 3.56622 3.94863 3.76229
# Velocity P-wave (km/s) = 6.03408 6.49125 6.26683
#
# Compressibility (1/GPa) = 0.02080815
#
# Stress axis : x y z
#
# Youngs Moduli (GPa) = 75.02112 55.42462 62.12963
#
# Poissons Ratio (x) = 0.04966 0.38542
# Poissons Ratio (y) = 0.06721 0.38708
# Poissons Ratio (z) = 0.46540 0.34531
#
# Static dielectric constant tensor:
#      x y z
#    x 2.017450 0.013620 -0.015490 
#    y 0.013620 1.925460 0.012980 
#    z -0.015490 0.012980 1.966110 
# 
# From -- ./inp_files/243105.got.cif
#   From: 2010.05.17/outbox.cif.g08.bks.cpg/sg2_122_cif.got.tgz:243105.got - 2010.06.03 11:33:40.
