data_PCOD9065923
_publ_section_title
;
Structure prediction by ZEFSAII (Michael W. Deem and Ramdas Pophale) SiO2 
 PCOD9065923
Probable space group: P -1
;
_chemical_formula_sum "Si O2"
_cell_formula_units_Z 12
_cell_length_a 10.967508
_cell_length_b 10.519961
_cell_length_c 5.598866
_cell_angle_alpha 60.548079
_cell_angle_beta 80.656022
_cell_angle_gamma 56.304901
_cell_volume 462.536074
_symmetry_space_group_name_H-M "P -1"
_symmetry_group_IT_number 2
_symmetry_cell_setting 'triclinic'
loop_
_space_group_symop_operation_xyz
x,y,z
-x,-y,-z
loop_
_atom_site_type_symbol
_atom_site_label
_atom_site_fract_x
_atom_site_fract_y
_atom_site_fract_z
Si Si1 0.579321 0.901718 0.893772
Si Si2 0.897794 0.448565 0.712745
Si Si3 0.115008 0.129643 0.226246
Si Si4 0.424728 0.597608 0.685491
Si Si5 0.890198 0.184120 0.609335
Si Si6 0.426961 0.213904 0.422563
O O1 0.547527 0.247215 0.452521
O O2 0.432257 0.107052 0.798260
O O3 0.731924 0.883078 0.812722
O O4 0.568460 0.755281 0.909672
O O5 0.871718 0.315899 0.697519
O O6 0.742626 0.626723 0.639367
O O7 0.000000 0.500000 0.500000
O O8 0.993322 0.329693 0.013173
O O9 0.051959 0.105123 0.514354
O O10 0.122250 0.982410 0.186860
O O11 0.500000 0.500000 0.500000
O O12 0.248001 0.691829 0.638176
O O13 0.500000 0.500000 0.000000
O O14 0.500000 0.000000 0.500000
#
# Coordination Sequence:
#
# PCOD9065923 Si02
#       6
#     2   2   2   2   2   2
#     4  11  25  45  71 102 144 195 251 317 382 457
#     4  12  25  44  72 106 146 194 250 316 382 456
#     4  11  25  46  70 106 146 199 252 311 386 460
#     4  12  26  46  77 112 151 197 256 319 382 458
#     4  11  25  46  72 105 151 198 249 314 384 462
#     4  11  25  44  67 105 142 189 254 305 382 448
#
# _framework density 25.943925
#
# number of rings (size 3 to 8) (size 9 to 14) (size 15 to 20)
#    0.000    0.667    3.333    3.500    2.333    6.667 
#    0.000    0.000    0.000    0.000    0.000    0.000 
#    0.000    0.000    0.000    0.000    0.000    0.000 
#
# Total GULP energy -66956.066364 kJ/mol
# GULP energy per Si atom -5579.672197 kJ/mol
# Density = 2.588487 g / cm^3
# Si number density = 25.943925 Si / 1000 Ang^3
#
#
#
# Elastic Constant Matrix: (Units=GPa)
#
#
# Indices 1 2 3 4 5 6 
#
# 1 159.7364 60.8563 24.3748 15.3224 0.1280 -4.4159
# 2 60.8563 170.6279 50.6878 16.1908 22.5805 13.6818
# 3 24.3748 50.6878 106.2710 -16.8470 15.3571 -5.6643
# 4 15.3224 16.1908 -16.8470 55.8005 -7.8663 8.2643
# 5 0.1280 22.5805 15.3571 -7.8663 33.8134 -5.2687
# 6 -4.4159 13.6818 -5.6643 8.2643 -5.2687 53.3238
#
#
#
# Elastic Compliance Matrix: (Units=1/GPa)
#
#
# Indices 1 2 3 4 5 6 
#
# 1 0.007626 -0.002717 -0.000911 -0.001533 0.002104 0.001677
# 2 -0.002717 0.009244 -0.003653 -0.003404 -0.005767 -0.003027
# 3 -0.000911 -0.003653 0.012439 0.004603 -0.001936 0.001279
# 4 -0.001533 -0.003404 0.004603 0.021662 0.004973 -0.001630
# 5 0.002104 -0.005767 -0.001936 0.004973 0.036115 0.004246
# 6 0.001677 -0.003027 0.001279 -0.001630 0.004246 0.020477
#
#
# Mechanical properties :
#
#
# Convention : Reuss Voigt Hill
#
# Bulk Modulus (GPa) = 67.81168 78.71922 73.26545
# Shear Modulus (GPa) = 39.35731 48.63530 43.99630
#
# Velocity S-wave (km/s) = 3.89911 4.33440 4.12250
# Velocity P-wave (km/s) = 6.81655 7.44696 7.13872
#
# Compressibility (1/GPa) = 0.01474672
#
# Stress axis : x y z
#
# Youngs Moduli (GPa) = 131.12944 108.17923 80.39142
#
# Poissons Ratio (x) = 0.29390 0.07323
# Poissons Ratio (y) = 0.35625 0.29371
# Poissons Ratio (z) = 0.11945 0.39523
#
# Static dielectric constant tensor:
#      x y z
#    x 2.787580 0.047900 1.701700 
#    y 0.047900 2.018110 0.065370 
#    z 1.701700 0.065370 5.599550 
# 
# From -- ./inp_files/68076.got.cif
#   From: 2010.05.17/outbox.cif.g08.bks.cpg/sg2_35_cif.got.tgz:68076.got - 2010.06.03 11:33:40.
