data_PCOD9065988
_publ_section_title
;
Structure prediction by ZEFSAII (Michael W. Deem and Ramdas Pophale) SiO2 
 PCOD9065988
Probable space group: P -1
;
_chemical_formula_sum "Si O2"
_cell_formula_units_Z 13
_cell_length_a 15.507188
_cell_length_b 8.442303
_cell_length_c 8.592869
_cell_angle_alpha 147.915128
_cell_angle_beta 60.988163
_cell_angle_gamma 123.742940
_cell_volume 496.617589
_symmetry_space_group_name_H-M "P -1"
_symmetry_group_IT_number 2
_symmetry_cell_setting 'triclinic'
loop_
_space_group_symop_operation_xyz
x,y,z
-x,-y,-z
loop_
_atom_site_type_symbol
_atom_site_label
_atom_site_fract_x
_atom_site_fract_y
_atom_site_fract_z
Si Si1 0.286392 0.696653 0.662091
Si Si2 0.824077 0.934308 0.132891
Si Si3 0.764137 0.967358 0.741638
Si Si4 0.000000 0.000000 0.500000
Si Si5 0.022217 0.241227 0.372102
Si Si6 0.492388 0.780537 0.126891
Si Si7 0.362476 0.238988 0.635208
O O1 0.282573 0.338511 0.361589
O O2 0.212480 0.780099 0.666379
O O3 0.399045 0.949301 0.759900
O O4 0.249173 0.745905 0.909412
O O5 0.718800 0.727398 0.133192
O O6 0.911212 0.969963 0.220722
O O7 0.886608 0.855765 0.868619
O O8 0.699469 0.884282 0.570592
O O9 0.885039 0.036894 0.660425
O O10 0.969430 0.707671 0.411215
O O11 0.000000 0.500000 0.500000
O O12 0.414949 0.970658 0.406750
O O13 0.500000 0.500000 0.000000
O O14 0.448051 0.581648 0.843162
#
# Coordination Sequence:
#
# PCOD9065988 Si02
#       7
#     2   2   2   1   2   2   2
#     4  12  27  48  76 107 152 196 250 317 379 446
#     4  11  25  44  70 111 145 194 250 310 377 446
#     4  12  28  48  75 112 151 196 249 316 381 455
#     4  12  24  50  74 114 150 204 254 308 384 464
#     4  11  25  46  74 109 151 200 253 315 380 466
#     4  12  27  47  78 110 145 199 258 310 381 458
#     4  12  27  47  77 109 150 197 251 316 375 453
#
# _framework density 26.177085999999999
#
# number of rings (size 3 to 8) (size 9 to 14) (size 15 to 20)
#    0.000    0.308    4.615    3.231    4.308    5.538 
#    0.000    0.000    0.000    0.000    0.000    0.000 
#    0.000    0.000    0.000    0.000    0.000    0.000 
#
# Total GULP energy -72504.632919 kJ/mol
# GULP energy per Si atom -5577.279455 kJ/mol
# Density = 2.611751 g / cm^3
# Si number density = 26.177086 Si / 1000 Ang^3
#
#
#
# Elastic Constant Matrix: (Units=GPa)
#
#
# Indices 1 2 3 4 5 6 
#
# 1 123.7863 22.8166 39.2874 -16.6692 -17.9503 28.9774
# 2 22.8166 91.7282 17.6648 -10.4442 -23.2859 5.6186
# 3 39.2874 17.6648 81.5027 9.2132 -8.1686 22.7160
# 4 -16.6692 -10.4442 9.2132 28.2061 -5.0468 -1.9124
# 5 -17.9503 -23.2859 -8.1686 -5.0468 48.4396 -2.5419
# 6 28.9774 5.6186 22.7160 -1.9124 -2.5419 46.6085
#
#
#
# Elastic Compliance Matrix: (Units=1/GPa)
#
#
# Indices 1 2 3 4 5 6 
#
# 1 0.013007 0.000606 -0.005781 0.010375 0.004974 -0.004646
# 2 0.000606 0.014220 -0.003687 0.008166 0.007313 0.000440
# 3 -0.005781 -0.003687 0.018491 -0.011611 -0.002299 -0.005576
# 4 0.010375 0.008166 -0.011611 0.050451 0.011116 0.000901
# 5 0.004974 0.007313 -0.002299 0.011116 0.026724 -0.000940
# 6 -0.004646 0.000440 -0.005576 0.000901 -0.000940 0.026994
#
#
# Mechanical properties :
#
#
# Convention : Reuss Voigt Hill
#
# Bulk Modulus (GPa) = 35.72004 50.72831 43.22418
# Shear Modulus (GPa) = 28.25769 39.13406 33.69587
#
# Velocity S-wave (km/s) = 3.28911 3.87068 3.59169
# Velocity P-wave (km/s) = 5.30090 6.27672 5.80933
#
# Compressibility (1/GPa) = 0.02799549
#
# Stress axis : x y z
#
# Youngs Moduli (GPa) = 76.88031 70.32183 54.07918
#
# Poissons Ratio (x) = -0.04264 0.31263
# Poissons Ratio (y) = -0.04661 0.19940
# Poissons Ratio (z) = 0.44444 0.25929
#
# Static dielectric constant tensor:
#      x y z
#    x 2.158840 0.006480 0.126210 
#    y 0.006480 1.996300 0.038300 
#    z 0.126210 0.038300 2.064200 
# 
# From -- ./inp_files/33264.got.cif
#   From: 2010.05.17/outbox.cif.g08.bks.cpg/sg2_17_cif.got.tgz:33264.got - 2010.06.03 11:33:40.
