data_PCOD9065561
_publ_section_title
;
Structure prediction by ZEFSAII (Michael W. Deem and Ramdas Pophale) SiO2 
 PCOD9065561
Probable space group: P -1
;
_chemical_formula_sum "Si O2"
_cell_formula_units_Z 16
_cell_length_a 9.521381
_cell_length_b 19.422233
_cell_length_c 9.279700
_cell_angle_alpha 150.812670
_cell_angle_beta 58.563213
_cell_angle_gamma 123.774393
_cell_volume 692.848583
_symmetry_space_group_name_H-M "P -1"
_symmetry_group_IT_number 2
_symmetry_cell_setting 'triclinic'
loop_
_space_group_symop_operation_xyz
x,y,z
-x,-y,-z
loop_
_atom_site_type_symbol
_atom_site_label
_atom_site_fract_x
_atom_site_fract_y
_atom_site_fract_z
Si Si1 0.922403 0.871087 0.694932
Si Si2 0.524491 0.709488 0.099585
Si Si3 0.097527 0.937002 0.213074
Si Si4 0.401729 0.207728 0.109008
Si Si5 0.538671 0.981838 0.778495
Si Si6 0.287769 0.543541 0.482948
Si Si7 0.131573 0.655327 0.223389
Si Si8 0.957775 0.358961 0.433195
O O1 0.764659 0.769044 0.678156
O O2 0.056030 0.777733 0.409491
O O3 0.865943 0.947980 0.726855
O O4 0.000000 0.000000 0.000000
O O5 0.322498 0.653874 0.080008
O O6 0.541532 0.822952 0.429268
O O7 0.603739 0.786510 0.049511
O O8 0.616966 0.580563 0.840153
O O9 0.271561 0.921754 0.161979
O O10 0.002721 0.780367 0.920307
O O11 0.000000 0.000000 0.500000
O O12 0.565598 0.327931 0.295436
O O13 0.418348 0.050467 0.868087
O O14 0.500000 0.000000 0.000000
O O15 0.183324 0.587108 0.485023
O O16 0.135335 0.479489 0.560581
O O17 0.123604 0.693261 0.466160
O O18 0.000000 0.500000 0.000000
#
# Coordination Sequence:
#
# PCOD9065561 Si02
#       8
#     2   2   2   2   2   2   2   2
#     4  12  26  45  74 101 145 191 232 294 361 412
#     4  12  27  44  72 108 142 188 240 292 352 430
#     4  12  26  44  75 106 141 185 239 292 349 428
#     4  12  25  47  72 104 146 186 235 296 359 424
#     4  12  25  47  69 102 143 187 235 291 358 414
#     4  11  25  46  77 101 141 192 236 290 363 421
#     4  12  26  44  71 106 148 186 241 289 357 422
#     4  11  24  49  72 104 146 187 234 301 349 425
#
# _framework density 23.093067000000001
#
# number of rings (size 3 to 8) (size 9 to 14) (size 15 to 20)
#    0.000    0.250    3.750    5.250    3.500    3.500 
#    0.000    0.000    0.000    0.000    0.000    0.000 
#    0.000    0.000    0.000    0.000    0.000    0.000 
#
# Total GULP energy -89595.868043 kJ/mol
# GULP energy per Si atom -5599.741753 kJ/mol
# Density = 2.304051 g / cm^3
# Si number density = 23.093067 Si / 1000 Ang^3
#
#
#
# Elastic Constant Matrix: (Units=GPa)
#
#
# Indices 1 2 3 4 5 6 
#
# 1 101.0949 34.8736 40.4454 -1.3309 -18.6319 8.4266
# 2 34.8736 79.7305 29.4217 -11.7629 -6.5286 8.0372
# 3 40.4454 29.4217 126.0031 -2.3147 -12.2920 -15.1357
# 4 -1.3309 -11.7629 -2.3147 37.9983 0.9016 -2.2677
# 5 -18.6319 -6.5286 -12.2920 0.9016 42.7199 6.2750
# 6 8.4266 8.0372 -15.1357 -2.2677 6.2750 47.0821
#
#
#
# Elastic Compliance Matrix: (Units=1/GPa)
#
#
# Indices 1 2 3 4 5 6 
#
# 1 0.013945 -0.004254 -0.003455 -0.001373 0.004998 -0.003612
# 2 -0.004254 0.016352 -0.002675 0.004585 0.000173 -0.002692
# 3 -0.003455 -0.002675 0.010224 -0.000079 0.000396 0.004305
# 4 -0.001373 0.004585 -0.000079 0.027750 -0.000633 0.000859
# 5 0.004998 0.000173 0.000396 -0.000633 0.026379 -0.004343
# 6 -0.003612 -0.002692 0.004305 0.000859 -0.004343 0.024350
#
#
# Mechanical properties :
#
#
# Convention : Reuss Voigt Hill
#
# Bulk Modulus (GPa) = 50.62205 57.36776 53.99490
# Shear Modulus (GPa) = 34.16409 39.03258 36.59834
#
# Velocity S-wave (km/s) = 3.85048 4.11570 3.98530
# Velocity P-wave (km/s) = 6.46040 6.89066 6.67900
#
# Compressibility (1/GPa) = 0.01975424
#
# Stress axis : x y z
#
# Youngs Moduli (GPa) = 71.70851 61.15437 97.80803
#
# Poissons Ratio (x) = 0.26015 0.33789
# Poissons Ratio (y) = 0.30505 0.26164
# Poissons Ratio (z) = 0.24772 0.16359
#
# Static dielectric constant tensor:
#      x y z
#    x 1.854420 0.007160 0.040550 
#    y 0.007160 1.861510 0.013880 
#    z 0.040550 0.013880 1.765730 
# 
# From -- ./inp_files/224336.got.cif
#   From: 2010.05.17/outbox.cif.g08.bks.cpg/sg2_113_cif.got.tgz:224336.got - 2010.06.03 11:33:40.
