data_PCOD9065369
_publ_section_title
;
Structure prediction by ZEFSAII (Michael W. Deem and Ramdas Pophale) SiO2 
 PCOD9065369
Probable space group: P -1
;
_chemical_formula_sum "Si O2"
_cell_formula_units_Z 16
_cell_length_a 10.845850
_cell_length_b 20.400793
_cell_length_c 17.954968
_cell_angle_alpha 159.385224
_cell_angle_beta 29.532314
_cell_angle_gamma 139.479440
_cell_volume 654.987454
_symmetry_space_group_name_H-M "P -1"
_symmetry_group_IT_number 2
_symmetry_cell_setting 'triclinic'
loop_
_space_group_symop_operation_xyz
x,y,z
-x,-y,-z
loop_
_atom_site_type_symbol
_atom_site_label
_atom_site_fract_x
_atom_site_fract_y
_atom_site_fract_z
Si Si1 0.607648 0.509867 0.869465
Si Si2 0.610059 0.978817 0.145374
Si Si3 0.081999 0.025430 0.289123
Si Si4 0.470257 0.327494 0.256202
Si Si5 0.519852 0.905422 0.277815
Si Si6 0.221545 0.400203 0.841212
Si Si7 0.061080 0.900863 0.726083
Si Si8 0.783497 0.584100 0.364557
O O1 0.421209 0.497983 0.882827
O O2 0.863456 0.324870 0.530963
O O3 0.500000 0.500000 0.000000
O O4 0.654784 0.716249 0.054977
O O5 0.389265 0.188010 0.497730
O O6 0.610915 0.870888 0.108119
O O7 0.866717 0.018494 0.017294
O O8 0.561814 0.825350 0.949281
O O9 0.179360 0.209463 0.460091
O O10 0.791568 0.048120 0.497292
O O11 0.069283 0.047851 0.230761
O O12 0.284313 0.817668 0.981468
O O13 0.543260 0.514876 0.386526
O O14 0.252160 0.403394 0.514914
O O15 0.653178 0.070078 0.402265
O O16 0.000000 0.500000 0.000000
O O17 0.033938 0.409498 0.020321
#
# Coordination Sequence:
#
# PCOD9065369 Si02
#       8
#     2   2   2   2   2   2   2   2
#     4  12  27  50  78 113 155 207 273 321 386 484
#     4  12  28  51  76 118 169 198 262 333 400 470
#     4  12  24  46  80 111 151 203 265 319 387 471
#     4  11  27  45  77 114 155 206 256 322 396 474
#     4  12  27  47  78 112 150 213 259 324 401 457
#     4  12  27  47  80 114 161 202 257 337 396 459
#     4  12  27  51  75 111 158 206 262 323 386 476
#     4  11  24  48  71 113 155 200 261 315 389 472
#
# _framework density 24.427948000000001
#
# number of rings (size 3 to 8) (size 9 to 14) (size 15 to 20)
#    0.000    0.250    5.000    2.625    3.500    2.500 
#    0.000    0.000    0.000    0.000    0.000    0.000 
#    0.000    0.000    0.000    0.000    0.000    0.000 
#
# Total GULP energy -89338.656787 kJ/mol
# GULP energy per Si atom -5583.666049 kJ/mol
# Density = 2.437235 g / cm^3
# Si number density = 24.427948 Si / 1000 Ang^3
#
#
#
# Elastic Constant Matrix: (Units=GPa)
#
#
# Indices 1 2 3 4 5 6 
#
# 1 114.9340 27.0135 36.9763 -1.1147 13.5098 -7.3698
# 2 27.0135 141.4267 61.4631 -15.2785 2.5068 0.2960
# 3 36.9763 61.4631 168.8666 -20.2204 14.8046 -9.7795
# 4 -1.1147 -15.2785 -20.2204 31.8478 -3.3296 8.5903
# 5 13.5098 2.5068 14.8046 -3.3296 43.1546 9.4434
# 6 -7.3698 0.2960 -9.7795 8.5903 9.4434 36.6645
#
#
#
# Elastic Compliance Matrix: (Units=1/GPa)
#
#
# Indices 1 2 3 4 5 6 
#
# 1 0.010113 -0.001503 -0.001485 -0.002513 -0.003447 0.003126
# 2 -0.001503 0.008901 -0.002803 0.003235 0.001670 -0.002310
# 3 -0.001485 -0.002803 0.007914 0.002928 -0.002239 0.001726
# 4 -0.002513 0.003235 0.002928 0.037860 0.004665 -0.009822
# 5 -0.003447 0.001670 -0.002239 0.004665 0.027348 -0.009440
# 6 0.003126 -0.002310 0.001726 -0.009822 -0.009440 0.033114
#
#
# Mechanical properties :
#
#
# Convention : Reuss Voigt Hill
#
# Bulk Modulus (GPa) = 65.16832 75.12591 70.14712
# Shear Modulus (GPa) = 35.22395 42.31832 38.77114
#
# Velocity S-wave (km/s) = 3.80142 4.16669 3.98824
# Velocity P-wave (km/s) = 6.78259 7.34638 7.07010
#
# Compressibility (1/GPa) = 0.01534488
#
# Stress axis : x y z
#
# Youngs Moduli (GPa) = 98.88329 112.34672 126.35428
#
# Poissons Ratio (x) = 0.16888 0.18764
# Poissons Ratio (y) = 0.14865 0.35422
# Poissons Ratio (z) = 0.14684 0.31495
#
# Static dielectric constant tensor:
#      x y z
#    x 2.036010 0.083370 0.009660 
#    y 0.083370 1.995620 -0.008770 
#    z 0.009660 -0.008770 1.907600 
# 
# From -- ./inp_files/570764.got.cif
#   From: 2010.05.17/outbox.cif.g08.bks.cpg/sg2_286_cif.got.tgz:570764.got - 2010.06.03 11:33:40.
