data_PCOD9065421
_publ_section_title
;
Structure prediction by ZEFSAII (Michael W. Deem and Ramdas Pophale) SiO2 
 PCOD9065421
Probable space group: P -1
;
_chemical_formula_sum "Si O2"
_cell_formula_units_Z 14
_cell_length_a 11.695073
_cell_length_b 18.484196
_cell_length_c 9.485852
_cell_angle_alpha 131.865201
_cell_angle_beta 115.683519
_cell_angle_gamma 26.858434
_cell_volume 604.704376
_symmetry_space_group_name_H-M "P -1"
_symmetry_group_IT_number 2
_symmetry_cell_setting 'triclinic'
loop_
_space_group_symop_operation_xyz
x,y,z
-x,-y,-z
loop_
_atom_site_type_symbol
_atom_site_label
_atom_site_fract_x
_atom_site_fract_y
_atom_site_fract_z
Si Si1 0.488599 0.112448 0.972980
Si Si2 0.949268 0.644197 0.718473
Si Si3 0.235561 0.686901 0.492942
Si Si4 0.580490 0.381017 0.021185
Si Si5 0.587713 0.050706 0.634498
Si Si6 0.801594 0.056621 0.237094
Si Si7 0.455538 0.772587 0.390135
O O1 0.751056 0.853025 0.792061
O O2 0.446372 0.173479 0.869353
O O3 0.217001 0.249516 0.082559
O O4 0.560953 0.157577 0.163824
O O5 0.000000 0.500000 0.500000
O O6 0.271913 0.457759 0.679419
O O7 0.500000 0.500000 0.500000
O O8 0.213969 0.817479 0.625751
O O9 0.925500 0.850855 0.573738
O O10 0.348573 0.554784 0.242637
O O11 0.611626 0.253529 0.806064
O O12 0.500000 0.500000 0.000000
O O13 0.901909 0.184629 0.987149
O O14 0.500000 0.000000 0.500000
O O15 0.481865 0.173623 0.593089
O O16 0.785128 0.047766 0.384945
#
# Coordination Sequence:
#
# PCOD9065421 Si02
#       7
#     2   2   2   2   2   2   2
#     4  11  27  45  77 105 146 198 247 299 368 448
#     4  11  24  48  73 106 144 198 247 296 365 459
#     4  12  29  48  75 107 152 200 247 307 373 448
#     4  12  24  44  74 105 140 189 242 302 377 423
#     4  12  29  49  71 112 154 189 246 316 370 434
#     4  12  25  48  74 108 145 191 256 302 362 456
#     4  12  25  45  74 107 150 186 244 311 369 433
#
# _framework density 23.151807999999999
#
# number of rings (size 3 to 8) (size 9 to 14) (size 15 to 20)
#    0.000    0.286    4.286    3.857    8.000    2.857 
#    0.000    0.000    0.000    0.000    0.000    0.000 
#    0.000    0.000    0.000    0.000    0.000    0.000 
#
# Total GULP energy -78251.766257 kJ/mol
# GULP energy per Si atom -5589.411876 kJ/mol
# Density = 2.309911 g / cm^3
# Si number density = 23.151808 Si / 1000 Ang^3
#
#
#
# Elastic Constant Matrix: (Units=GPa)
#
#
# Indices 1 2 3 4 5 6 
#
# 1 102.4442 6.1662 27.6863 -3.6280 10.3226 15.8475
# 2 6.1662 62.8077 11.7622 4.3390 3.0118 3.4045
# 3 27.6863 11.7622 93.7496 -9.2221 2.9128 9.5280
# 4 -3.6280 4.3390 -9.2221 38.0593 -5.2465 0.3571
# 5 10.3226 3.0118 2.9128 -5.2465 42.7058 -2.2280
# 6 15.8475 3.4045 9.5280 0.3571 -2.2280 43.0833
#
#
#
# Elastic Compliance Matrix: (Units=1/GPa)
#
#
# Indices 1 2 3 4 5 6 
#
# 1 0.011398 -0.000258 -0.002867 0.000080 -0.002724 -0.003680
# 2 -0.000258 0.016636 -0.002147 -0.002617 -0.001327 -0.000792
# 3 -0.002867 -0.002147 0.012219 0.002987 0.000301 -0.001487
# 4 0.000080 -0.002617 0.002987 0.027771 0.003345 -0.000541
# 5 -0.002724 -0.001327 0.000301 0.003345 0.024678 0.002289
# 6 -0.003680 -0.000792 -0.001487 -0.000541 0.002289 0.025079
#
#
# Mechanical properties :
#
#
# Convention : Reuss Voigt Hill
#
# Bulk Modulus (GPa) = 33.65916 38.91454 36.28685
# Shear Modulus (GPa) = 36.17231 38.99547 37.58389
#
# Velocity S-wave (km/s) = 3.95700 4.10852 4.03347
# Velocity P-wave (km/s) = 5.95376 6.27308 6.11550
#
# Compressibility (1/GPa) = 0.02970959
#
# Stress axis : x y z
#
# Youngs Moduli (GPa) = 87.73207 60.10946 81.84281
#
# Poissons Ratio (x) = 0.01548 0.23467
# Poissons Ratio (y) = 0.02259 0.17571
# Poissons Ratio (z) = 0.25156 0.12905
#
# Static dielectric constant tensor:
#      x y z
#    x 1.969150 -0.017780 0.029050 
#    y -0.017780 1.888760 -0.003270 
#    z 0.029050 -0.003270 1.834260 
# 
# From -- ./inp_files/71309.got.cif
#   From: 2010.05.17/outbox.cif.g08.bks.cpg/sg2_36_cif.got.tgz:71309.got - 2010.06.03 11:33:40.
