data_PCOD9065811
_publ_section_title
;
Structure prediction by ZEFSAII (Michael W. Deem and Ramdas Pophale) SiO2 
 PCOD9065811
Probable space group: P -1
;
_chemical_formula_sum "Si O2"
_cell_formula_units_Z 12
_cell_length_a 11.339546
_cell_length_b 5.203713
_cell_length_c 9.581897
_cell_angle_alpha 106.976111
_cell_angle_beta 112.499373
_cell_angle_gamma 100.509947
_cell_volume 471.116075
_symmetry_space_group_name_H-M "P -1"
_symmetry_group_IT_number 2
_symmetry_cell_setting 'triclinic'
loop_
_space_group_symop_operation_xyz
x,y,z
-x,-y,-z
loop_
_atom_site_type_symbol
_atom_site_label
_atom_site_fract_x
_atom_site_fract_y
_atom_site_fract_z
Si Si1 0.839568 0.125262 0.461132
Si Si2 0.534684 0.005573 0.349651
Si Si3 0.801487 0.854887 0.674694
Si Si4 0.945418 0.283259 0.240523
Si Si5 0.618179 0.617346 0.779139
Si Si6 0.840852 0.411188 0.944473
O O1 0.691796 0.150522 0.408837
O O2 0.878328 0.102553 0.316399
O O3 0.959082 0.398986 0.618708
O O4 0.822184 0.867608 0.520541
O O5 0.451246 0.143959 0.231941
O O6 0.500000 0.000000 0.500000
O O7 0.487981 0.665778 0.252018
O O8 0.672318 0.615814 0.642576
O O9 0.942696 0.838539 0.792419
O O10 0.784724 0.147988 0.769251
O O11 0.836036 0.306771 0.084343
O O12 0.758316 0.629033 0.921793
O O13 0.000000 0.500000 0.000000
#
# Coordination Sequence:
#
# PCOD9065811 Si02
#       6
#     2   2   2   2   2   2
#     4  11  25  44  67 104 142 184 225 296 348 411
#     4  12  24  43  71 100 142 181 235 284 341 416
#     4  12  21  41  71 104 136 176 235 289 344 408
#     4  11  25  43  68 105 143 178 233 287 358 406
#     4  12  25  42  70 106 131 181 239 285 337 408
#     4  12  23  42  70 104 138 182 232 289 342 413
#
# _framework density 25.471430000000002
#
# number of rings (size 3 to 8) (size 9 to 14) (size 15 to 20)
#    0.000    0.333    6.667    2.500    2.333    0.000 
#    0.000    1.667    0.000    0.000    0.000    0.000 
#    0.000    0.000    0.000    0.000    0.000    0.000 
#
# Total GULP energy -67059.554377 kJ/mol
# GULP energy per Si atom -5588.296198 kJ/mol
# Density = 2.541346 g / cm^3
# Si number density = 25.471430 Si / 1000 Ang^3
#
#
#
# Elastic Constant Matrix: (Units=GPa)
#
#
# Indices 1 2 3 4 5 6 
#
# 1 102.2897 29.1791 34.6107 -16.6228 24.8676 -0.3534
# 2 29.1791 125.1460 33.4332 -32.0700 7.2040 -10.8021
# 3 34.6107 33.4332 97.5208 -38.7456 16.2835 -4.8292
# 4 -16.6228 -32.0700 -38.7456 46.5302 -6.4141 8.7060
# 5 24.8676 7.2040 16.2835 -6.4141 42.8518 -19.9318
# 6 -0.3534 -10.8021 -4.8292 8.7060 -19.9318 42.0550
#
#
#
# Elastic Compliance Matrix: (Units=1/GPa)
#
#
# Indices 1 2 3 4 5 6 
#
# 1 0.013495 -0.002164 -0.002414 0.001064 -0.008759 -0.005091
# 2 -0.002164 0.010180 -0.000716 0.005469 0.001639 0.002159
# 3 -0.002414 -0.000716 0.017019 0.012765 -0.004426 -0.002990
# 4 0.001064 0.005469 0.012765 0.036970 -0.003944 -0.006643
# 5 -0.008759 0.001639 -0.004426 -0.003944 0.037894 0.018615
# 6 -0.005091 0.002159 -0.002990 -0.006643 0.018615 0.034145
#
#
# Mechanical properties :
#
#
# Convention : Reuss Voigt Hill
#
# Bulk Modulus (GPa) = 33.21609 57.71140 45.46374
# Shear Modulus (GPa) = 29.35539 41.46964 35.41251
#
# Velocity S-wave (km/s) = 3.39851 4.03933 3.73270
# Velocity P-wave (km/s) = 5.33560 6.66794 6.03863
#
# Compressibility (1/GPa) = 0.03010589
#
# Stress axis : x y z
#
# Youngs Moduli (GPa) = 74.10060 98.23169 58.75729
#
# Poissons Ratio (x) = 0.21258 0.14186
# Poissons Ratio (y) = 0.16036 0.04206
# Poissons Ratio (z) = 0.17890 0.07032
#
# Static dielectric constant tensor:
#      x y z
#    x 2.000720 -0.025930 0.052310 
#    y -0.025930 2.115850 0.037650 
#    z 0.052310 0.037650 2.089630 
# 
# From -- ./inp_files/64854.got.cif
#   From: 2010.05.17/outbox.cif.g08.bks.cpg/sg2_33_cif.got.tgz:64854.got - 2010.06.03 11:33:40.
