data_PCOD9065384
_publ_section_title
;
Structure prediction by ZEFSAII (Michael W. Deem and Ramdas Pophale) SiO2 
 PCOD9065384
Probable space group: P -1
;
_chemical_formula_sum "Si O2"
_cell_formula_units_Z 16
_cell_length_a 5.458728
_cell_length_b 8.160895
_cell_length_c 21.034116
_cell_angle_alpha 53.312949
_cell_angle_beta 95.007087
_cell_angle_gamma 117.637513
_cell_volume 641.464663
_symmetry_space_group_name_H-M "P -1"
_symmetry_group_IT_number 2
_symmetry_cell_setting 'triclinic'
loop_
_space_group_symop_operation_xyz
x,y,z
-x,-y,-z
loop_
_atom_site_type_symbol
_atom_site_label
_atom_site_fract_x
_atom_site_fract_y
_atom_site_fract_z
Si Si1 0.200847 0.704390 0.906872
Si Si2 0.076391 0.027690 0.195983
Si Si3 0.888309 0.082426 0.417557
Si Si4 0.308221 0.231760 0.278599
Si Si5 0.721831 0.987518 0.927003
Si Si6 0.202629 0.519060 0.668719
Si Si7 0.673051 0.398882 0.490601
Si Si8 0.686238 0.618157 0.108456
O O1 0.428042 0.933088 0.901062
O O2 0.328092 0.575454 0.896631
O O3 0.076825 0.822020 0.829190
O O4 0.000000 0.500000 0.000000
O O5 0.922266 0.746278 0.249389
O O6 0.260652 0.066405 0.255114
O O7 0.172625 0.109596 0.106440
O O8 0.985524 0.357169 0.370039
O O9 0.031567 0.102155 0.347564
O O10 0.547688 0.887471 0.449617
O O11 0.000000 0.000000 0.500000
O O12 0.562338 0.305883 0.316540
O O13 0.439801 0.487046 0.185798
O O14 0.650505 0.815234 0.025100
O O15 0.986232 0.243915 0.891057
O O16 0.310585 0.525552 0.599291
O O17 0.500000 0.500000 0.500000
O O18 0.000000 0.500000 0.500000
#
# Coordination Sequence:
#
# PCOD9065384 Si02
#       8
#     2   2   2   2   2   2   2   2
#     4  12  25  45  76 108 153 213 266 329 397 485
#     4  12  27  46  72 116 151 207 261 324 401 470
#     4  12  28  54  82 117 157 216 267 340 423 506
#     4  12  27  49  78 113 159 202 272 328 418 478
#     4  11  24  48  72 103 159 198 270 320 402 474
#     4  12  29  51  79 115 167 199 266 341 405 498
#     4  12  28  54  90 124 161 217 278 343 427 516
#     4  11  24  48  74 112 152 211 257 339 399 484
#
# _framework density 24.942914999999999
#
# number of rings (size 3 to 8) (size 9 to 14) (size 15 to 20)
#    0.000    0.250    5.000    3.000    5.250    2.500 
#    0.000    0.000    0.000    0.000    0.000    0.000 
#    0.000    0.000    0.000    0.000    0.000    0.000 
#
# Total GULP energy -89265.700192 kJ/mol
# GULP energy per Si atom -5579.106262 kJ/mol
# Density = 2.488614 g / cm^3
# Si number density = 24.942915 Si / 1000 Ang^3
#
#
#
# Elastic Constant Matrix: (Units=GPa)
#
#
# Indices 1 2 3 4 5 6 
#
# 1 64.7627 26.0875 35.0811 -0.0488 5.8852 22.0455
# 2 26.0875 130.0344 31.5166 1.6331 16.8897 34.0705
# 3 35.0811 31.5166 161.7803 4.3268 -12.1879 5.1381
# 4 -0.0488 1.6331 4.3268 47.1037 -8.8484 -0.6956
# 5 5.8852 16.8897 -12.1879 -8.8484 33.3384 2.8109
# 6 22.0455 34.0705 5.1381 -0.6956 2.8109 50.3475
#
#
#
# Elastic Compliance Matrix: (Units=1/GPa)
#
#
# Indices 1 2 3 4 5 6 
#
# 1 0.021386 -0.000340 -0.004647 -0.000554 -0.004740 -0.008403
# 2 -0.000340 0.010851 -0.002249 -0.001409 -0.006073 -0.006645
# 3 -0.004647 -0.002249 0.007895 0.000269 0.004707 0.002492
# 4 -0.000554 -0.001409 0.000269 0.022547 0.006801 0.001100
# 5 -0.004740 -0.006073 0.004707 0.006801 0.037121 0.003727
# 6 -0.008403 -0.006645 0.002492 0.001100 0.003727 0.027591
#
#
# Mechanical properties :
#
#
# Convention : Reuss Voigt Hill
#
# Bulk Modulus (GPa) = 38.96951 60.21640 49.59296
# Shear Modulus (GPa) = 33.24120 43.75073 38.49596
#
# Velocity S-wave (km/s) = 3.65456 4.19266 3.93283
# Velocity P-wave (km/s) = 5.78491 6.90159 6.36778
#
# Compressibility (1/GPa) = 0.02566109
#
# Stress axis : x y z
#
# Youngs Moduli (GPa) = 46.76041 92.15577 126.65859
#
# Poissons Ratio (x) = 0.03132 0.58853
# Poissons Ratio (y) = 0.01589 0.28486
# Poissons Ratio (z) = 0.21727 0.20726
#
# Static dielectric constant tensor:
#      x y z
#    x 2.250390 0.045860 0.001070 
#    y 0.045860 1.944860 -0.018730 
#    z 0.001070 -0.018730 1.989830 
# 
# From -- ./inp_files/582274.got.cif
#   From: 2010.05.17/outbox.cif.g08.bks.cpg/sg2_292_cif.got.tgz:582274.got - 2010.06.03 11:33:40.
