data_PCOD9065897
_publ_section_title
;
Structure prediction by ZEFSAII (Michael W. Deem and Ramdas Pophale) SiO2 
 PCOD9065897
Probable space group: P -1
;
_chemical_formula_sum "Si O2"
_cell_formula_units_Z 13
_cell_length_a 17.511228
_cell_length_b 10.436828
_cell_length_c 19.926977
_cell_angle_alpha 23.123164
_cell_angle_beta 159.464094
_cell_angle_gamma 150.662451
_cell_volume 500.239505
_symmetry_space_group_name_H-M "P -1"
_symmetry_group_IT_number 2
_symmetry_cell_setting 'triclinic'
loop_
_space_group_symop_operation_xyz
x,y,z
-x,-y,-z
loop_
_atom_site_type_symbol
_atom_site_label
_atom_site_fract_x
_atom_site_fract_y
_atom_site_fract_z
Si Si1 0.705195 0.798896 0.288558
Si Si2 0.163042 0.193898 0.454078
Si Si3 0.871737 0.717222 0.988941
Si Si4 0.254050 0.888794 0.422761
Si Si5 0.239191 0.079948 0.959217
Si Si6 0.500000 0.500000 0.500000
Si Si7 0.554573 0.583353 0.902245
O O1 0.712119 0.785119 0.381982
O O2 0.711836 0.446422 0.428216
O O3 0.946957 0.955410 0.392285
O O4 0.500000 0.000000 0.000000
O O5 0.323930 0.193484 0.524859
O O6 0.064561 0.540125 0.201090
O O7 0.731868 0.501820 0.031656
O O8 0.732732 0.837906 0.755240
O O9 0.000000 0.000000 0.000000
O O10 0.446451 0.897379 0.630865
O O11 0.022116 0.900317 0.263678
O O12 0.316475 0.292440 0.986211
O O13 0.311901 0.711657 0.204048
O O14 0.370583 0.292512 0.906713
#
# Coordination Sequence:
#
# PCOD9065897 Si02
#       7
#     2   2   2   2   2   1   2
#     4  11  26  44  73 103 134 177 232 287 339 403
#     4  11  25  46  68  99 141 180 224 286 345 398
#     4  12  21  45  70  99 134 178 229 279 336 399
#     4  12  24  46  71 101 133 178 234 276 336 410
#     4  11  26  47  68 100 138 180 227 274 345 407
#     4  12  26  46  70  98 142 184 220 282 342 406
#     4  11  25  43  74  97 134 181 225 284 336 405
#
# _framework density 25.987552999999998
#
# number of rings (size 3 to 8) (size 9 to 14) (size 15 to 20)
#    0.000    0.615    4.615    1.846   10.769    0.000 
#    0.000    1.538    0.000    0.000    0.000    0.000 
#    0.000    0.000    0.000    0.000    0.000    0.000 
#
# Total GULP energy -72503.262044 kJ/mol
# GULP energy per Si atom -5577.174003 kJ/mol
# Density = 2.592840 g / cm^3
# Si number density = 25.987553 Si / 1000 Ang^3
#
#
#
# Elastic Constant Matrix: (Units=GPa)
#
#
# Indices 1 2 3 4 5 6 
#
# 1 90.2378 31.6822 1.5179 5.5064 -17.1471 33.5946
# 2 31.6822 54.6152 -8.9275 16.7692 -3.3387 23.7177
# 3 1.5179 -8.9275 147.5523 9.1681 -10.5822 -0.8427
# 4 5.5064 16.7692 9.1681 42.4670 4.5878 2.1412
# 5 -17.1471 -3.3387 -10.5822 4.5878 37.7009 -5.7127
# 6 33.5946 23.7177 -0.8427 2.1412 -5.7127 41.3068
#
#
#
# Elastic Compliance Matrix: (Units=1/GPa)
#
#
# Indices 1 2 3 4 5 6 
#
# 1 0.018206 -0.005394 -0.000113 -0.000326 0.006168 -0.010842
# 2 -0.005394 0.030913 0.002603 -0.011485 0.000496 -0.012645
# 3 -0.000113 0.002603 0.007282 -0.002811 0.002448 -0.000770
# 4 -0.000326 -0.011485 -0.002811 0.029015 -0.004782 0.004637
# 5 0.006168 0.000496 0.002448 -0.004782 0.030525 -0.000782
# 6 -0.010842 -0.012645 -0.000770 0.004637 -0.000782 0.039923
#
#
# Mechanical properties :
#
#
# Convention : Reuss Voigt Hill
#
# Bulk Modulus (GPa) = 19.76609 37.88339 28.82474
# Shear Modulus (GPa) = 28.00553 42.17044 35.08799
#
# Velocity S-wave (km/s) = 3.28632 4.03267 3.67847
# Velocity P-wave (km/s) = 4.69280 6.02431 5.39976
#
# Compressibility (1/GPa) = 0.05059170
#
# Stress axis : x y z
#
# Youngs Moduli (GPa) = 54.92741 32.34887 137.32943
#
# Poissons Ratio (x) = 0.17450 0.01552
# Poissons Ratio (y) = 0.29630 -0.35745
# Poissons Ratio (z) = 0.00621 -0.08420
#
# Static dielectric constant tensor:
#      x y z
#    x 2.072730 0.021610 -0.000240 
#    y 0.021610 2.038100 -0.004360 
#    z -0.000240 -0.004360 2.080920 
# 
# From -- ./inp_files/565660.got.cif
#   From: 2010.05.17/outbox.cif.g08.bks.cpg/sg2_283_cif.got.tgz:565660.got - 2010.06.03 11:33:40.
