data_PCOD9065024
_publ_section_title
;
Structure prediction by ZEFSAII (Michael W. Deem and Ramdas Pophale) SiO2 
 PCOD9065024
Probable space group: P -1
;
_chemical_formula_sum "Si O2"
_cell_formula_units_Z 15
_cell_length_a 5.860936
_cell_length_b 5.619116
_cell_length_c 22.559662
_cell_angle_alpha 95.658562
_cell_angle_beta 53.292200
_cell_angle_gamma 83.689302
_cell_volume 579.298595
_symmetry_space_group_name_H-M "P -1"
_symmetry_group_IT_number 2
_symmetry_cell_setting 'triclinic'
loop_
_space_group_symop_operation_xyz
x,y,z
-x,-y,-z
loop_
_atom_site_type_symbol
_atom_site_label
_atom_site_fract_x
_atom_site_fract_y
_atom_site_fract_z
Si Si1 0.128964 0.170189 0.676355
Si Si2 0.629045 0.372589 0.136443
Si Si3 0.000000 0.500000 0.000000
Si Si4 0.183139 0.941240 0.059210
Si Si5 0.368131 0.478650 0.727360
Si Si6 0.130788 0.067716 0.202984
Si Si7 0.026379 0.517047 0.403282
Si Si8 0.756215 0.856112 0.553271
O O1 0.189455 0.279385 0.733034
O O2 0.862332 0.051400 0.735370
O O3 0.084026 0.390758 0.641676
O O4 0.420926 0.986383 0.606016
O O5 0.581601 0.490203 0.210966
O O6 0.382350 0.222383 0.161295
O O7 0.950010 0.186764 0.079129
O O8 0.679390 0.565532 0.084724
O O9 0.878060 0.295618 0.970566
O O10 0.138524 0.928549 0.136049
O O11 0.500000 0.000000 0.000000
O O12 0.664331 0.399966 0.642355
O O13 0.177887 0.738023 0.743503
O O14 0.136984 0.239949 0.400074
O O15 0.803470 0.639575 0.491476
O O16 0.000000 0.000000 0.500000
#
# Coordination Sequence:
#
# PCOD9065024 Si02
#       8
#     2   2   1   2   2   2   2   2
#     4  12  25  45  78 108 149 210 255 321 404 463
#     4  11  26  46  74 108 150 200 261 325 396 480
#     4  12  24  46  76 108 148 204 258 324 408 468
#     4  11  25  48  73 109 155 201 263 332 395 482
#     4  11  24  47  68 110 148 197 257 319 386 479
#     4  11  25  47  73 106 155 200 262 328 395 473
#     4  11  25  45  73 110 149 200 262 313 393 479
#     4  11  24  47  74 108 154 199 258 327 387 473
#
# _framework density 25.893380000000001
#
# number of rings (size 3 to 8) (size 9 to 14) (size 15 to 20)
#    0.000    0.800    4.000    2.400    0.000    7.467 
#    0.000    0.000    0.000    0.000    0.000    0.000 
#    0.000    0.000    0.000    0.000    0.000    0.000 
#
# Total GULP energy -83660.961330 kJ/mol
# GULP energy per Si atom -5577.397422 kJ/mol
# Density = 2.583445 g / cm^3
# Si number density = 25.893380 Si / 1000 Ang^3
#
#
#
# Elastic Constant Matrix: (Units=GPa)
#
#
# Indices 1 2 3 4 5 6 
#
# 1 97.4741 33.4224 58.6321 9.1824 0.8823 0.1677
# 2 33.4224 46.0274 34.9575 3.0779 -3.5824 6.4085
# 3 58.6321 34.9575 146.6216 -14.2036 9.1152 -0.4053
# 4 9.1824 3.0779 -14.2036 48.5821 4.8849 -3.9654
# 5 0.8823 -3.5824 9.1152 4.8849 43.1496 8.7777
# 6 0.1677 6.4085 -0.4053 -3.9654 8.7777 46.0778
#
#
#
# Elastic Compliance Matrix: (Units=1/GPa)
#
#
# Indices 1 2 3 4 5 6 
#
# 1 0.016389 -0.007772 -0.005125 -0.004106 0.000458 0.000536
# 2 -0.007772 0.032987 -0.005439 -0.003264 0.005629 -0.005961
# 3 -0.005125 -0.005439 0.010884 0.005022 -0.003620 0.001993
# 4 -0.004106 -0.003264 0.005022 0.023783 -0.004641 0.003444
# 5 0.000458 0.005629 -0.003620 -0.004641 0.026185 -0.006204
# 6 0.000536 -0.005961 0.001993 0.003444 -0.006204 0.024025
#
#
# Mechanical properties :
#
#
# Convention : Reuss Voigt Hill
#
# Bulk Modulus (GPa) = 42.39820 60.46078 51.42949
# Shear Modulus (GPa) = 27.96592 38.43596 33.20094
#
# Velocity S-wave (km/s) = 3.28996 3.85696 3.58469
# Velocity P-wave (km/s) = 5.55351 6.57537 6.08593
#
# Compressibility (1/GPa) = 0.02358591
#
# Stress axis : x y z
#
# Youngs Moduli (GPa) = 61.01702 30.31466 91.87986
#
# Poissons Ratio (x) = 0.23561 0.47092
# Poissons Ratio (y) = 0.47424 0.49977
# Poissons Ratio (z) = 0.31274 0.16489
#
# Static dielectric constant tensor:
#      x y z
#    x 1.909070 0.386210 -0.210070 
#    y 0.386210 0.898510 0.646260 
#    z -0.210070 0.646260 1.649230 
# 
# From -- ./inp_files/603304.got.cif
#   From: 2010.05.17/outbox.cif.g08.bks.cpg/sg2_302_cif.got.tgz:603304.got - 2010.06.03 11:33:40.
