data_PCOD9065598
_publ_section_title
;
Structure prediction by ZEFSAII (Michael W. Deem and Ramdas Pophale) SiO2 
 PCOD9065598
Probable space group: P -1
;
_chemical_formula_sum "Si O2"
_cell_formula_units_Z 14
_cell_length_a 9.562065
_cell_length_b 16.737725
_cell_length_c 7.921803
_cell_angle_alpha 144.487163
_cell_angle_beta 112.014487
_cell_angle_gamma 56.801548
_cell_volume 609.691731
_symmetry_space_group_name_H-M "P -1"
_symmetry_group_IT_number 2
_symmetry_cell_setting 'triclinic'
loop_
_space_group_symop_operation_xyz
x,y,z
-x,-y,-z
loop_
_atom_site_type_symbol
_atom_site_label
_atom_site_fract_x
_atom_site_fract_y
_atom_site_fract_z
Si Si1 0.297785 0.225341 0.486906
Si Si2 0.922600 0.451649 0.222939
Si Si3 0.152559 0.996965 0.951641
Si Si4 0.278154 0.224726 0.873740
Si Si5 0.334230 0.919148 0.574708
Si Si6 0.650579 0.372825 0.111084
Si Si7 0.450128 0.687447 0.683163
O O1 0.205998 0.400050 0.683797
O O2 0.324217 0.205712 0.665833
O O3 0.485937 0.134273 0.340050
O O4 0.177906 0.148428 0.249858
O O5 0.820501 0.367323 0.108406
O O6 0.000000 0.500000 0.500000
O O7 0.081056 0.340845 0.994390
O O8 0.173408 0.967001 0.708270
O O9 0.317781 0.852283 0.845300
O O10 0.000000 0.000000 0.000000
O O11 0.307578 0.064687 0.697926
O O12 0.387484 0.296340 0.143673
O O13 0.366770 0.766424 0.223615
O O14 0.506750 0.550620 0.335667
O O15 0.643023 0.351074 0.270650
#
# Coordination Sequence:
#
# PCOD9065598 Si02
#       7
#     2   2   2   2   2   2   2
#     4  12  26  49  74 108 148 197 248 298 370 442
#     4  12  27  45  72 108 154 194 240 303 369 437
#     4  12  29  45  74 110 149 191 250 309 368 433
#     4  12  25  49  77 107 146 199 243 302 369 441
#     4  12  26  49  80 105 146 196 250 303 370 440
#     4  11  26  46  75 107 144 194 244 305 364 433
#     4  11  24  49  75 106 149 193 247 303 365 440
#
# _framework density 22.962425
#
# number of rings (size 3 to 8) (size 9 to 14) (size 15 to 20)
#    0.000    0.286    4.286    3.857    6.000    2.857 
#    0.000    0.000    0.000    0.000    0.000    0.000 
#    0.000    0.000    0.000    0.000    0.000    0.000 
#
# Total GULP energy -78360.341911 kJ/mol
# GULP energy per Si atom -5597.167279 kJ/mol
# Density = 2.291016 g / cm^3
# Si number density = 22.962425 Si / 1000 Ang^3
#
#
#
# Elastic Constant Matrix: (Units=GPa)
#
#
# Indices 1 2 3 4 5 6 
#
# 1 212.2596 -14.3327 49.0203 -19.2500 -31.5677 -25.2802
# 2 -14.3327 125.5853 16.3704 46.8487 3.7890 50.1898
# 3 49.0203 16.3704 132.5700 5.1430 -1.1784 6.2410
# 4 -19.2500 46.8487 5.1430 43.5159 13.4392 23.7670
# 5 -31.5677 3.7890 -1.1784 13.4392 45.0330 16.2386
# 6 -25.2802 50.1898 6.2410 23.7670 16.2386 72.3575
#
#
#
# Elastic Compliance Matrix: (Units=1/GPa)
#
#
# Indices 1 2 3 4 5 6 
#
# 1 0.005987 -0.000088 -0.002280 0.001353 0.003323 0.001159
# 2 -0.000088 0.016887 -0.001022 -0.015658 0.005998 -0.007859
# 3 -0.002280 -0.001022 0.008540 -0.000340 -0.001013 -0.000485
# 4 0.001353 -0.015658 -0.000340 0.044181 -0.010655 -0.000757
# 5 0.003323 0.005998 -0.001013 -0.010655 0.029347 -0.005998
# 6 0.001159 -0.007859 -0.000485 -0.000757 -0.005998 0.021313
#
#
# Mechanical properties :
#
#
# Convention : Reuss Voigt Hill
#
# Bulk Modulus (GPa) = 40.59618 63.61455 52.10536
# Shear Modulus (GPa) = 35.39944 60.13840 47.76892
#
# Velocity S-wave (km/s) = 3.93061 5.12316 4.56599
# Velocity P-wave (km/s) = 6.19010 7.92210 7.10904
#
# Compressibility (1/GPa) = 0.02463286
#
# Stress axis : x y z
#
# Youngs Moduli (GPa) = 167.03233 59.21756 117.10045
#
# Poissons Ratio (x) = 0.00520 0.26704
# Poissons Ratio (y) = 0.01465 0.11969
# Poissons Ratio (z) = 0.38091 0.06053
#
# Static dielectric constant tensor:
#      x y z
#    x 1.862300 0.003600 -0.007920 
#    y 0.003600 1.875530 -0.014510 
#    z -0.007920 -0.014510 1.915380 
# 
# From -- ./inp_files/219055.got.cif
#   From: 2010.05.17/outbox.cif.g08.bks.cpg/sg2_110_cif.got.tgz:219055.got - 2010.06.03 11:33:40.
