data_PCOD9065336
_publ_section_title
;
Structure prediction by ZEFSAII (Michael W. Deem and Ramdas Pophale) SiO2 
 PCOD9065336
Probable space group: P -1
;
_chemical_formula_sum "Si O2"
_cell_formula_units_Z 16
_cell_length_a 17.389737
_cell_length_b 12.565631
_cell_length_c 9.925027
_cell_angle_alpha 46.247738
_cell_angle_beta 131.224936
_cell_angle_gamma 148.143903
_cell_volume 812.085931
_symmetry_space_group_name_H-M "P -1"
_symmetry_group_IT_number 2
_symmetry_cell_setting 'triclinic'
loop_
_space_group_symop_operation_xyz
x,y,z
-x,-y,-z
loop_
_atom_site_type_symbol
_atom_site_label
_atom_site_fract_x
_atom_site_fract_y
_atom_site_fract_z
Si Si1 0.979220 0.065241 0.779192
Si Si2 0.409030 0.271856 0.739575
Si Si3 0.619946 0.063958 0.477078
Si Si4 0.081446 0.986790 0.721237
Si Si5 0.634102 0.775351 0.585712
Si Si6 0.927008 0.500905 0.539166
Si Si7 0.935278 0.522956 0.029993
Si Si8 0.393890 0.801098 0.950677
O O1 0.069072 0.070383 0.766652
O O2 0.045450 0.298630 0.633761
O O3 0.801414 0.888846 0.701033
O O4 0.000000 0.000000 0.000000
O O5 0.248332 0.119545 0.755110
O O6 0.500945 0.517288 0.661212
O O7 0.374858 0.195374 0.610003
O O8 0.522722 0.264975 0.922166
O O9 0.763892 0.265130 0.549115
O O10 0.623065 0.145369 0.262987
O O11 0.500000 0.000000 0.500000
O O12 0.612650 0.885037 0.574294
O O13 0.000000 0.000000 0.500000
O O14 0.997846 0.750360 0.873206
O O15 0.000000 0.500000 0.500000
O O16 0.005073 0.515858 0.746091
O O17 0.762557 0.367169 0.003856
O O18 0.000000 0.500000 0.000000
O O19 0.500000 0.000000 0.000000
#
# Coordination Sequence:
#
# PCOD9065336 Si02
#       8
#     2   2   2   2   2   2   2   2
#     4  12  26  45  73 103 143 190 236 296 364 432
#     4  11  26  44  74 103 144 185 240 302 361 428
#     4  12  29  46  74 105 147 188 242 298 370 437
#     4  12  26  45  71 107 139 187 249 296 353 430
#     4  11  24  48  69 101 144 188 233 300 366 425
#     4  12  25  49  72 101 144 192 244 297 359 431
#     4  12  27  45  76 105 142 194 249 300 354 433
#     4  12  25  46  72 104 143 190 241 299 365 430
#
# _framework density 19.702347
#
# number of rings (size 3 to 8) (size 9 to 14) (size 15 to 20)
#    0.000    0.250    5.000    3.000    8.750    0.000 
#    0.000    1.250    0.000    0.000    0.000    0.000 
#    0.000    0.000    0.000    0.000    0.000    0.000 
#
# Total GULP energy -89189.449668 kJ/mol
# GULP energy per Si atom -5574.340604 kJ/mol
# Density = 1.965750 g / cm^3
# Si number density = 19.702347 Si / 1000 Ang^3
#
#
#
# Elastic Constant Matrix: (Units=GPa)
#
#
# Indices 1 2 3 4 5 6 
#
# 1 189.6228 73.7393 40.0512 -18.1830 0.5373 11.0585
# 2 73.7393 123.8607 22.8784 -15.5250 14.8070 7.8499
# 3 40.0512 22.8784 95.0528 -8.6905 11.9020 -19.1941
# 4 -18.1830 -15.5250 -8.6905 32.3125 -0.5779 7.2944
# 5 0.5373 14.8070 11.9020 -0.5779 32.9603 2.0070
# 6 11.0585 7.8499 -19.1941 7.2944 2.0070 45.5782
#
#
#
# Elastic Compliance Matrix: (Units=1/GPa)
#
#
# Indices 1 2 3 4 5 6 
#
# 1 0.007888 -0.003977 -0.003144 0.002431 0.003023 -0.003075
# 2 -0.003977 0.011657 -0.000532 0.003497 -0.004820 -0.001614
# 3 -0.003144 -0.000532 0.014043 0.000082 -0.005204 0.006984
# 4 0.002431 0.003497 0.000082 0.035547 -0.000602 -0.006820
# 5 0.003023 -0.004820 -0.005204 -0.000602 0.034539 -0.003520
# 6 -0.003075 -0.001614 0.006984 -0.006820 -0.003520 0.027152
#
#
# Mechanical properties :
#
#
# Convention : Reuss Voigt Hill
#
# Bulk Modulus (GPa) = 54.70278 75.76378 65.23328
# Shear Modulus (GPa) = 32.84604 40.29470 36.57037
#
# Velocity S-wave (km/s) = 4.08746 4.52726 4.31297
# Velocity P-wave (km/s) = 7.07823 8.11578 7.61469
#
# Compressibility (1/GPa) = 0.01828061
#
# Stress axis : x y z
#
# Youngs Moduli (GPa) = 126.77298 85.78753 71.21137
#
# Poissons Ratio (x) = 0.34121 0.22386
# Poissons Ratio (y) = 0.50422 0.03792
# Poissons Ratio (z) = 0.39853 0.04568
#
# Static dielectric constant tensor:
#      x y z
#    x 1.593820 -0.060380 -0.016490 
#    y -0.060380 1.664010 0.038540 
#    z -0.016490 0.038540 1.820040 
# 
# From -- ./inp_files/332962.got.cif
#   From: 2010.05.17/outbox.cif.g08.bks.cpg/sg2_167_cif.got.tgz:332962.got - 2010.06.03 11:33:40.
