data_PCOD9065928
_publ_section_title
;
Structure prediction by ZEFSAII (Michael W. Deem and Ramdas Pophale) SiO2 
 PCOD9065928
Probable space group: P -1
;
_chemical_formula_sum "Si O2"
_cell_formula_units_Z 16
_cell_length_a 14.406971
_cell_length_b 9.323194
_cell_length_c 9.201952
_cell_angle_alpha 61.792388
_cell_angle_beta 138.907509
_cell_angle_gamma 110.483484
_cell_volume 715.870375
_symmetry_space_group_name_H-M "P -1"
_symmetry_group_IT_number 2
_symmetry_cell_setting 'triclinic'
loop_
_space_group_symop_operation_xyz
x,y,z
-x,-y,-z
loop_
_atom_site_type_symbol
_atom_site_label
_atom_site_fract_x
_atom_site_fract_y
_atom_site_fract_z
Si Si1 0.591234 0.125630 0.955065
Si Si2 0.374506 0.567722 0.009069
Si Si3 0.165623 0.359114 0.379155
Si Si4 0.881212 0.017947 0.471706
Si Si5 0.062059 0.126410 0.899581
Si Si6 0.354472 0.940401 0.286952
Si Si7 0.885334 0.533753 0.055770
Si Si8 0.644691 0.376980 0.372783
O O1 0.605735 0.095009 0.816403
O O2 0.541074 0.305535 0.851572
O O3 0.500000 0.000000 0.000000
O O4 0.748961 0.115348 0.208281
O O5 0.235037 0.522724 0.951285
O O6 0.341827 0.641517 0.775965
O O7 0.478447 0.413962 0.183577
O O8 0.175698 0.164111 0.476052
O O9 0.269305 0.463915 0.551977
O O10 0.009705 0.404302 0.234896
O O11 0.176211 0.424577 0.195844
O O12 0.000000 0.000000 0.500000
O O13 0.959131 0.107707 0.650904
O O14 0.055785 0.302577 0.880738
O O15 0.222618 0.067524 0.079398
O O16 0.000000 0.000000 0.000000
O O17 0.311606 0.778026 0.404059
O O18 0.500000 0.000000 0.500000
#
# Coordination Sequence:
#
# PCOD9065928 Si02
#       8
#     2   2   2   2   2   2   2   2
#     4  12  27  46  73 103 140 186 236 286 349 416
#     4  11  26  45  69 104 137 180 232 286 348 415
#     4  11  25  44  68 101 140 182 224 286 341 411
#     4  12  26  46  71 103 146 183 233 290 346 409
#     4  12  26  45  73 106 140 187 234 286 347 417
#     4  12  27  47  72 102 141 185 234 290 347 416
#     4  11  25  44  70 101 139 178 233 278 347 409
#     4  11  26  45  70 100 141 179 230 288 346 413
#
# _framework density 22.350415999999999
#
# number of rings (size 3 to 8) (size 9 to 14) (size 15 to 20)
#    0.000    0.500    2.500    4.500    8.750    6.500 
#    0.000    0.000    0.000    0.000    0.000    0.000 
#    0.000    0.000    0.000    0.000    0.000    0.000 
#
# Total GULP energy -89578.543029 kJ/mol
# GULP energy per Si atom -5598.658939 kJ/mol
# Density = 2.229955 g / cm^3
# Si number density = 22.350416 Si / 1000 Ang^3
#
#
#
# Elastic Constant Matrix: (Units=GPa)
#
#
# Indices 1 2 3 4 5 6 
#
# 1 146.1944 9.4360 34.2761 7.0105 -13.8112 -5.7509
# 2 9.4360 84.6935 6.6755 12.1022 -4.7525 -8.5401
# 3 34.2761 6.6755 104.4745 19.4958 -8.5036 -17.8254
# 4 7.0105 12.1022 19.4958 43.7173 -8.3463 -2.7499
# 5 -13.8112 -4.7525 -8.5036 -8.3463 33.3881 11.2613
# 6 -5.7509 -8.5401 -17.8254 -2.7499 11.2613 40.1665
#
#
#
# Elastic Compliance Matrix: (Units=1/GPa)
#
#
# Indices 1 2 3 4 5 6 
#
# 1 0.007681 -0.000670 -0.002505 0.000566 0.002898 -0.000928
# 2 -0.000670 0.012592 0.000494 -0.003454 -0.000096 0.002591
# 3 -0.002505 0.000494 0.012073 -0.004961 -0.000815 0.004993
# 4 0.000566 -0.003454 -0.004961 0.026952 0.006137 -0.002730
# 5 0.002898 -0.000096 -0.000815 0.006137 0.035684 -0.009552
# 6 -0.000928 0.002591 0.004993 -0.002730 -0.009552 0.030021
#
#
# Mechanical properties :
#
#
# Convention : Reuss Voigt Hill
#
# Bulk Modulus (GPa) = 37.05869 48.45973 42.75921
# Shear Modulus (GPa) = 35.87784 42.45271 39.16528
#
# Velocity S-wave (km/s) = 4.01089 4.36296 4.19062
# Velocity P-wave (km/s) = 6.16980 6.86363 6.52594
#
# Compressibility (1/GPa) = 0.02698423
#
# Stress axis : x y z
#
# Youngs Moduli (GPa) = 130.19135 79.41254 82.82678
#
# Poissons Ratio (x) = 0.05322 0.20750
# Poissons Ratio (y) = 0.08725 -0.04093
# Poissons Ratio (z) = 0.32617 -0.03924
#
# Static dielectric constant tensor:
#      x y z
#    x 1.747220 0.172670 -0.030210 
#    y 0.172670 1.494920 0.054680 
#    z -0.030210 0.054680 1.759160 
# 
# From -- ./inp_files/298060.got.cif
#   From: 2010.05.17/outbox.cif.g08.bks.cpg/sg2_150_cif.got.tgz:298060.got - 2010.06.03 11:33:40.
