data_PCOD9065924
_publ_section_title
;
Structure prediction by ZEFSAII (Michael W. Deem and Ramdas Pophale) SiO2 
 PCOD9065924
Probable space group: P -1
;
_chemical_formula_sum "Si O2"
_cell_formula_units_Z 16
_cell_length_a 20.738392
_cell_length_b 8.511266
_cell_length_c 4.978074
_cell_angle_alpha 118.578091
_cell_angle_beta 65.752851
_cell_angle_gamma 125.180317
_cell_volume 619.416178
_symmetry_space_group_name_H-M "P -1"
_symmetry_group_IT_number 2
_symmetry_cell_setting 'triclinic'
loop_
_space_group_symop_operation_xyz
x,y,z
-x,-y,-z
loop_
_atom_site_type_symbol
_atom_site_label
_atom_site_fract_x
_atom_site_fract_y
_atom_site_fract_z
Si Si1 0.795750 0.078001 0.828061
Si Si2 0.614551 0.446464 0.264168
Si Si3 0.982928 0.352146 0.661014
Si Si4 0.865365 0.688375 0.537893
Si Si5 0.251941 0.772994 0.459040
Si Si6 0.595207 0.094606 0.390254
Si Si7 0.210335 0.256172 0.808427
Si Si8 0.541256 0.689062 0.878607
O O1 0.891141 0.184176 0.701060
O O2 0.764897 0.205989 0.803224
O O3 0.764834 0.871498 0.544172
O O4 0.771460 0.092438 0.186351
O O5 0.621831 0.306196 0.366453
O O6 0.703438 0.566943 0.093905
O O7 0.588847 0.615382 0.539245
O O8 0.534979 0.301866 0.114418
O O9 0.000000 0.500000 0.500000
O O10 0.044366 0.262030 0.511121
O O11 0.000000 0.500000 0.000000
O O12 0.808271 0.455072 0.532727
O O13 0.844528 0.696095 0.268214
O O14 0.840759 0.818592 0.891164
O O15 0.345809 0.849677 0.412251
O O16 0.500000 0.000000 0.500000
O O17 0.599220 0.905730 0.083760
O O18 0.500000 0.500000 0.000000
#
# Coordination Sequence:
#
# PCOD9065924 Si02
#       8
#     2   2   2   2   2   2   2   2
#     4  12  26  48  74 108 141 192 234 301 358 432
#     4  11  26  46  68  99 141 189 237 304 366 427
#     4  12  23  44  75 105 144 185 239 292 357 426
#     4  12  25  46  72 108 140 190 234 298 353 442
#     4  12  26  46  75 104 141 188 250 283 358 440
#     4  12  26  44  72 102 138 191 239 301 364 429
#     4  12  28  44  73 105 148 186 235 301 367 422
#     4  11  25  44  67  99 135 180 245 298 356 429
#
# _framework density 25.830777999999999
#
# number of rings (size 3 to 8) (size 9 to 14) (size 15 to 20)
#    0.000    0.250    5.000    3.375    5.250    2.000 
#    0.000    0.000    0.000    0.000    0.000    0.000 
#    0.000    0.000    0.000    0.000    0.000    0.000 
#
# Total GULP energy -89610.834150 kJ/mol
# GULP energy per Si atom -5600.677134 kJ/mol
# Density = 2.577199 g / cm^3
# Si number density = 25.830778 Si / 1000 Ang^3
#
#
#
# Elastic Constant Matrix: (Units=GPa)
#
#
# Indices 1 2 3 4 5 6 
#
# 1 167.8428 23.6529 16.8637 -15.3284 -8.3559 27.8946
# 2 23.6529 40.4775 -1.9192 -1.5050 -4.4706 13.5481
# 3 16.8637 -1.9192 110.6810 0.5889 -5.0044 -2.4995
# 4 -15.3284 -1.5050 0.5889 48.3661 1.1192 -2.8659
# 5 -8.3559 -4.4706 -5.0044 1.1192 48.4789 -6.2395
# 6 27.8946 13.5481 -2.4995 -2.8659 -6.2395 49.5974
#
#
#
# Elastic Compliance Matrix: (Units=1/GPa)
#
#
# Indices 1 2 3 4 5 6 
#
# 1 0.007243 -0.003130 -0.001221 0.002019 0.000386 -0.003115
# 2 -0.003130 0.028686 0.000910 -0.000492 0.001455 -0.005875
# 3 -0.001221 0.000910 0.009306 -0.000435 0.000973 0.001005
# 4 0.002019 -0.000492 -0.000435 0.021321 -0.000211 0.000182
# 5 0.000386 0.001455 0.000973 -0.000211 0.021203 0.002090
# 6 -0.003115 -0.005875 0.001005 0.000182 0.002090 0.023843
#
#
# Mechanical properties :
#
#
# Convention : Reuss Voigt Hill
#
# Bulk Modulus (GPa) = 26.07421 44.02179 35.04800
# Shear Modulus (GPa) = 38.08967 47.98208 43.03588
#
# Velocity S-wave (km/s) = 3.84420 4.31461 4.08618
# Velocity P-wave (km/s) = 5.46077 6.47306 5.98834
#
# Compressibility (1/GPa) = 0.03835207
#
# Stress axis : x y z
#
# Youngs Moduli (GPa) = 138.06183 34.86008 107.45896
#
# Poissons Ratio (x) = 0.10911 0.13126
# Poissons Ratio (y) = 0.43215 -0.09779
# Poissons Ratio (z) = 0.16864 -0.03172
#
# Static dielectric constant tensor:
#      x y z
#    x 1.804420 -0.252030 -0.141900 
#    y -0.252030 1.837710 0.010460 
#    z -0.141900 0.010460 2.109460 
# 
# From -- ./inp_files/107547.got.cif
#   From: 2010.05.17/outbox.cif.g08.bks.cpg/sg2_54_cif.got.tgz:107547.got - 2010.06.03 11:33:40.
