data_PCOD9065717
_publ_section_title
;
Structure prediction by ZEFSAII (Michael W. Deem and Ramdas Pophale) SiO2 
 PCOD9065717
Probable space group: P -1
;
_chemical_formula_sum "Si O2"
_cell_formula_units_Z 13
_cell_length_a 14.616101
_cell_length_b 7.762190
_cell_length_c 8.218588
_cell_angle_alpha 108.190777
_cell_angle_beta 57.374075
_cell_angle_gamma 141.517663
_cell_volume 477.809638
_symmetry_space_group_name_H-M "P -1"
_symmetry_group_IT_number 2
_symmetry_cell_setting 'triclinic'
loop_
_space_group_symop_operation_xyz
x,y,z
-x,-y,-z
loop_
_atom_site_type_symbol
_atom_site_label
_atom_site_fract_x
_atom_site_fract_y
_atom_site_fract_z
Si Si1 0.328336 0.836690 0.774346
Si Si2 0.090904 0.587054 0.235581
Si Si3 0.574669 0.909938 0.769385
Si Si4 0.133805 0.360789 0.556674
Si Si5 0.500000 0.500000 0.500000
Si Si6 0.107494 0.040749 0.767043
Si Si7 0.439552 0.616692 0.148791
O O1 0.462426 0.869775 0.733250
O O2 0.254144 0.652079 0.632024
O O3 0.438353 0.161241 0.753564
O O4 0.180242 0.685490 0.001619
O O5 0.014376 0.689717 0.358914
O O6 0.759174 0.229060 0.721518
O O7 0.962557 0.254155 0.269155
O O8 0.590890 0.730075 0.629000
O O9 0.482869 0.786369 0.995272
O O10 0.080057 0.131673 0.662134
O O11 0.250970 0.414598 0.326467
O O12 0.306865 0.305062 0.695024
O O13 0.000000 0.000000 0.000000
O O14 0.500000 0.500000 0.000000
#
# Coordination Sequence:
#
# PCOD9065717 Si02
#       7
#     2   2   2   2   1   2   2
#     4  11  24  53  84 115 169 228 283 338 435 516
#     4  11  26  51  83 125 175 214 285 363 425 495
#     4  11  26  55  82 118 165 227 282 345 432 514
#     4  12  26  52  83 131 164 225 284 352 430 511
#     4  12  26  52  90 116 160 234 292 330 442 520
#     4  12  27  52  87 126 172 223 286 354 427 515
#     4  11  26  48  78 122 169 211 282 351 419 509
#
# _framework density 27.207488000000001
#
# number of rings (size 3 to 8) (size 9 to 14) (size 15 to 20)
#    0.000    0.615    3.077    3.692    2.154    3.077 
#   24.923    3.846    0.000    0.000    0.000    0.000 
#    0.000    0.000    0.000    0.000    0.000    0.000 
#
# Total GULP energy -72768.277629 kJ/mol
# GULP energy per Si atom -5597.559818 kJ/mol
# Density = 2.714556 g / cm^3
# Si number density = 27.207488 Si / 1000 Ang^3
#
#
#
# Elastic Constant Matrix: (Units=GPa)
#
#
# Indices 1 2 3 4 5 6 
#
# 1 154.6441 43.1328 29.7993 -13.5587 -40.0742 -9.3948
# 2 43.1328 172.1449 30.6420 -1.7564 -28.3533 3.5098
# 3 29.7993 30.6420 191.3611 -14.9845 -35.9133 -12.3479
# 4 -13.5587 -1.7564 -14.9845 50.6874 9.6867 3.8346
# 5 -40.0742 -28.3533 -35.9133 9.6867 32.6129 3.5169
# 6 -9.3948 3.5098 -12.3479 3.8346 3.5169 58.7750
#
#
#
# Elastic Compliance Matrix: (Units=1/GPa)
#
#
# Indices 1 2 3 4 5 6 
#
# 1 0.009726 -0.000609 0.000986 0.000450 0.012263 0.001035
# 2 -0.000609 0.006892 -0.000103 -0.000945 0.005497 -0.000798
# 3 0.000986 -0.000103 0.006755 0.000597 0.008271 0.001049
# 4 0.000450 -0.000945 0.000597 0.021163 -0.005812 -0.000779
# 5 0.012263 0.005497 0.008271 -0.005812 0.061336 0.000079
# 6 0.001035 -0.000798 0.001049 -0.000779 0.000079 0.017494
#
#
# Mechanical properties :
#
#
# Convention : Reuss Voigt Hill
#
# Bulk Modulus (GPa) = 41.80149 80.58871 61.19510
# Shear Modulus (GPa) = 38.22884 56.05344 47.14114
#
# Velocity S-wave (km/s) = 3.75251 4.54389 4.16703
# Velocity P-wave (km/s) = 5.84572 7.56397 6.75966
#
# Compressibility (1/GPa) = 0.02392259
#
# Stress axis : x y z
#
# Youngs Moduli (GPa) = 102.81202 145.09643 148.03176
#
# Poissons Ratio (x) = 0.08842 -0.14602
# Poissons Ratio (y) = 0.06266 0.01518
# Poissons Ratio (z) = -0.10141 0.01488
#
# Static dielectric constant tensor:
#      x y z
#    x 2.175710 -0.062640 0.009200 
#    y -0.062640 2.210020 -0.016980 
#    z 0.009200 -0.016980 2.118070 
# 
# From -- ./inp_files/326412.got.cif
#   From: 2010.05.17/outbox.cif.g08.bks.cpg/sg2_164_cif.got.tgz:326412.got - 2010.06.03 11:33:40.
