data_PCOD9065671
_publ_section_title
;
Structure prediction by ZEFSAII (Michael W. Deem and Ramdas Pophale) SiO2 
 PCOD9065671
Probable space group: P -1
;
_chemical_formula_sum "Si O2"
_cell_formula_units_Z 12
_cell_length_a 13.267142
_cell_length_b 6.363787
_cell_length_c 11.713472
_cell_angle_alpha 96.707946
_cell_angle_beta 33.338597
_cell_angle_gamma 82.678893
_cell_volume 491.793573
_symmetry_space_group_name_H-M "P -1"
_symmetry_group_IT_number 2
_symmetry_cell_setting 'triclinic'
loop_
_space_group_symop_operation_xyz
x,y,z
-x,-y,-z
loop_
_atom_site_type_symbol
_atom_site_label
_atom_site_fract_x
_atom_site_fract_y
_atom_site_fract_z
Si Si1 0.591118 0.078292 0.029321
Si Si2 0.188964 0.831277 0.669224
Si Si3 0.163945 0.672053 0.267299
Si Si4 0.172183 0.481872 0.494784
Si Si5 0.394566 0.307861 0.858316
Si Si6 0.886281 0.350903 0.044543
O O1 0.403506 0.300640 0.270691
O O2 0.657327 0.899313 0.059839
O O3 0.781699 0.117720 0.805166
O O4 0.500000 0.000000 0.000000
O O5 0.108911 0.661477 0.669148
O O6 0.384389 0.801085 0.410118
O O7 0.229968 0.724482 0.751155
O O8 0.042663 0.101824 0.833246
O O9 0.149841 0.628499 0.410218
O O10 0.969805 0.655197 0.393215
O O11 0.357200 0.455691 0.019526
O O12 0.258006 0.487754 0.905387
O O13 0.000000 0.500000 0.000000
#
# Coordination Sequence:
#
# PCOD9065671 Si02
#       6
#     2   2   2   2   2   2
#     4  12  25  46  75 114 162 200 250 312 373 459
#     4  11  26  51  80 103 157 200 253 325 376 449
#     4  11  25  46  75 114 156 198 258 299 380 460
#     4  11  24  50  75 114 152 208 251 310 380 452
#     4  12  26  47  78 113 149 202 251 312 385 456
#     4  11  28  52  75 113 147 197 266 317 382 451
#
# _framework density 24.400480000000002
#
# number of rings (size 3 to 8) (size 9 to 14) (size 15 to 20)
#    0.000    0.667    3.333    3.000    4.667    5.333 
#    0.000    0.000    0.000    0.000    0.000    0.000 
#    0.000    0.000    0.000    0.000    0.000    0.000 
#
# Total GULP energy -67225.178789 kJ/mol
# GULP energy per Si atom -5602.098232 kJ/mol
# Density = 2.434494 g / cm^3
# Si number density = 24.400480 Si / 1000 Ang^3
#
#
#
# Elastic Constant Matrix: (Units=GPa)
#
#
# Indices 1 2 3 4 5 6 
#
# 1 90.1288 69.4032 40.5575 -0.4662 8.6452 -11.9302
# 2 69.4032 161.3702 55.3374 -15.3213 -7.8137 -16.0673
# 3 40.5575 55.3374 134.1638 -14.8846 7.3296 -3.5096
# 4 -0.4662 -15.3213 -14.8846 68.0056 7.7310 8.4813
# 5 8.6452 -7.8137 7.3296 7.7310 39.9075 -3.8800
# 6 -11.9302 -16.0673 -3.5096 8.4813 -3.8800 41.0172
#
#
#
# Elastic Compliance Matrix: (Units=1/GPa)
#
#
# Indices 1 2 3 4 5 6 
#
# 1 0.018542 -0.007274 -0.002510 -0.001847 -0.004399 0.002295
# 2 -0.007274 0.010584 -0.002207 0.001146 0.004024 0.001985
# 3 -0.002510 -0.002207 0.009421 0.001964 -0.002135 -0.001397
# 4 -0.001847 0.001146 0.001964 0.016192 -0.003220 -0.003573
# 5 -0.004399 0.004024 -0.002135 -0.003220 0.028150 0.003443
# 6 0.002295 0.001985 -0.001397 -0.003573 0.003443 0.026770
#
#
# Mechanical properties :
#
#
# Convention : Reuss Voigt Hill
#
# Bulk Modulus (GPa) = 68.65840 79.58432 74.12136
# Shear Modulus (GPa) = 36.10268 44.47704 40.28986
#
# Velocity S-wave (km/s) = 3.85072 4.27405 4.06789
# Velocity P-wave (km/s) = 6.92603 7.55271 7.24615
#
# Compressibility (1/GPa) = 0.01456486
#
# Stress axis : x y z
#
# Youngs Moduli (GPa) = 53.93170 94.48588 106.15026
#
# Poissons Ratio (x) = 0.68729 0.26639
# Poissons Ratio (y) = 0.39230 0.23429
# Poissons Ratio (z) = 0.13534 0.20854
#
# Static dielectric constant tensor:
#      x y z
#    x 1.944340 0.046490 -0.016690 
#    y 0.046490 2.022440 0.005630 
#    z -0.016690 0.005630 1.922920 
# 
# From -- ./inp_files/368208.got.cif
#   From: 2010.05.17/outbox.cif.g08.bks.cpg/sg2_185_cif.got.tgz:368208.got - 2010.06.03 11:33:40.
