data_PCOD9065657
_publ_section_title
;
Structure prediction by ZEFSAII (Michael W. Deem and Ramdas Pophale) SiO2 
 PCOD9065657
Probable space group: P -1
;
_chemical_formula_sum "Si O2"
_cell_formula_units_Z 14
_cell_length_a 16.449162
_cell_length_b 6.587095
_cell_length_c 23.655744
_cell_angle_alpha 131.957569
_cell_angle_beta 157.452585
_cell_angle_gamma 61.012346
_cell_volume 646.700287
_symmetry_space_group_name_H-M "P -1"
_symmetry_group_IT_number 2
_symmetry_cell_setting 'triclinic'
loop_
_space_group_symop_operation_xyz
x,y,z
-x,-y,-z
loop_
_atom_site_type_symbol
_atom_site_label
_atom_site_fract_x
_atom_site_fract_y
_atom_site_fract_z
Si Si1 0.078440 0.243815 0.983207
Si Si2 0.483102 0.794528 0.115108
Si Si3 0.326795 0.694639 0.866898
Si Si4 0.175018 0.786434 0.023295
Si Si5 0.755581 0.110226 0.654414
Si Si6 0.863199 0.495829 0.468085
Si Si7 0.549147 0.775341 0.342542
O O1 0.907691 0.032133 0.784089
O O2 0.089224 0.038230 0.002143
O O3 0.346221 0.440313 0.169538
O O4 0.000000 0.500000 0.000000
O O5 0.610829 0.576702 0.162835
O O6 0.678193 0.151654 0.303619
O O7 0.364737 0.727388 0.964442
O O8 0.294215 0.735068 0.032905
O O9 0.060968 0.628127 0.668376
O O10 0.500000 0.000000 0.000000
O O11 0.942809 0.470835 0.832626
O O12 0.390771 0.894650 0.227677
O O13 0.500000 0.000000 0.500000
O O14 0.685541 0.962694 0.520207
O O15 0.735452 0.708053 0.414793
O O16 0.000000 0.500000 0.500000
#
# Coordination Sequence:
#
# PCOD9065657 Si02
#       7
#     2   2   2   2   2   2   2
#     4  11  24  50  72 102 143 183 232 303 361 428
#     4  11  25  45  66 106 140 192 240 291 355 423
#     4  11  25  42  71 101 147 186 241 295 354 412
#     4  11  27  44  75 102 146 186 238 296 361 427
#     4  11  26  47  72 106 142 181 242 295 367 429
#     4  12  24  43  73  98 147 189 236 290 352 421
#     4  11  26  45  70 106 144 187 242 294 360 426
#
# _framework density 21.648358000000002
#
# number of rings (size 3 to 8) (size 9 to 14) (size 15 to 20)
#    0.000    0.857    4.286    1.286    4.000    5.143 
#    0.000    0.000    0.000    0.000    0.000    0.000 
#    0.000    0.000    0.000    0.000    0.000    0.000 
#
# Total GULP energy -78244.618663 kJ/mol
# GULP energy per Si atom -5588.901333 kJ/mol
# Density = 2.159909 g / cm^3
# Si number density = 21.648358 Si / 1000 Ang^3
#
#
#
# Elastic Constant Matrix: (Units=GPa)
#
#
# Indices 1 2 3 4 5 6 
#
# 1 120.4302 30.7429 35.4472 -6.1686 -0.5830 -0.2271
# 2 30.7429 125.9535 52.5736 -30.6670 -1.8541 5.7176
# 3 35.4472 52.5736 144.5443 -24.4317 -18.4632 -2.8418
# 4 -6.1686 -30.6670 -24.4317 25.1668 9.9660 -2.2110
# 5 -0.5830 -1.8541 -18.4632 9.9660 41.4447 -6.1331
# 6 -0.2271 5.7176 -2.8418 -2.2110 -6.1331 31.6234
#
#
#
# Elastic Compliance Matrix: (Units=1/GPa)
#
#
# Indices 1 2 3 4 5 6 
#
# 1 0.009262 -0.001888 -0.001929 -0.001746 -0.000388 0.000037
# 2 -0.001888 0.012994 -0.002410 0.014553 -0.004375 -0.002411
# 3 -0.001929 -0.002410 0.009535 0.004735 0.003307 0.002251
# 4 -0.001746 0.014553 0.004735 0.066923 -0.013376 -0.000133
# 5 -0.000388 -0.004375 0.003307 -0.013376 0.029486 0.005869
# 6 0.000037 -0.002411 0.002251 -0.000133 0.005869 0.033389
#
#
# Mechanical properties :
#
#
# Convention : Reuss Voigt Hill
#
# Bulk Modulus (GPa) = 51.71049 69.82838 60.76943
# Shear Modulus (GPa) = 27.70266 37.79126 32.74696
#
# Velocity S-wave (km/s) = 3.58112 4.18267 3.89353
# Velocity P-wave (km/s) = 6.40606 7.46003 6.95305
#
# Compressibility (1/GPa) = 0.01933844
#
# Stress axis : x y z
#
# Youngs Moduli (GPa) = 107.96838 76.95565 104.87922
#
# Poissons Ratio (x) = 0.14531 0.20226
# Poissons Ratio (y) = 0.20387 0.25273
# Poissons Ratio (z) = 0.20822 0.18544
#
# Static dielectric constant tensor:
#      x y z
#    x 1.828340 -0.012940 -0.035150 
#    y -0.012940 1.802160 -0.025330 
#    z -0.035150 -0.025330 1.782270 
# 
# From -- ./inp_files/142720.got.cif
#   From: 2010.05.17/outbox.cif.g08.bks.cpg/sg2_72_cif.got.tgz:142720.got - 2010.06.03 11:33:40.
