data_PCOD9065978
_publ_section_title
;
Structure prediction by ZEFSAII (Michael W. Deem and Ramdas Pophale) SiO2 
 PCOD9065978
Probable space group: P -1
;
_chemical_formula_sum "Si O2"
_cell_formula_units_Z 16
_cell_length_a 15.669781
_cell_length_b 12.058697
_cell_length_c 15.427349
_cell_angle_alpha 125.635327
_cell_angle_beta 28.368875
_cell_angle_gamma 142.956797
_cell_volume 757.943781
_symmetry_space_group_name_H-M "P -1"
_symmetry_group_IT_number 2
_symmetry_cell_setting 'triclinic'
loop_
_space_group_symop_operation_xyz
x,y,z
-x,-y,-z
loop_
_atom_site_type_symbol
_atom_site_label
_atom_site_fract_x
_atom_site_fract_y
_atom_site_fract_z
Si Si1 0.111999 0.281155 0.527095
Si Si2 0.422939 0.191039 0.191914
Si Si3 0.695054 0.278759 0.170609
Si Si4 0.841917 0.383084 0.757652
Si Si5 0.251278 0.844824 0.586444
Si Si6 0.520911 0.399449 0.511392
Si Si7 0.029577 0.017279 0.877347
Si Si8 0.470535 0.113645 0.813212
O O1 0.330450 0.295029 0.305683
O O2 0.230362 0.421764 0.569519
O O3 0.021047 0.347829 0.573594
O O4 0.846608 0.048170 0.681099
O O5 0.546037 0.247097 0.203246
O O6 0.637235 0.257042 0.962729
O O7 0.562171 0.278358 0.371728
O O8 0.661273 0.096935 0.123434
O O9 0.000000 0.500000 0.000000
O O10 0.662674 0.294248 0.792197
O O11 0.035377 0.616875 0.710511
O O12 0.359623 0.844328 0.400316
O O13 0.500000 0.000000 0.500000
O O14 0.110030 0.909972 0.730977
O O15 0.500000 0.500000 0.500000
O O16 0.265573 0.245603 0.732507
O O17 0.000000 0.000000 0.000000
O O18 0.758997 0.916997 0.030395
#
# Coordination Sequence:
#
# PCOD9065978 Si02
#       8
#     2   2   2   2   2   2   2   2
#     4  11  25  44  70 106 149 184 240 301 367 432
#     4  11  26  45  71 108 147 192 235 303 370 440
#     4  12  25  44  72 110 149 188 245 304 366 438
#     4  12  28  45  75 103 147 192 242 299 371 437
#     4  12  27  50  74 103 140 190 249 301 363 437
#     4  12  25  44  78 111 144 195 249 308 368 435
#     4  12  28  47  77 109 148 191 248 307 366 436
#     4  12  28  48  72 105 146 192 245 299 364 442
#
# _framework density 21.109745
#
# number of rings (size 3 to 8) (size 9 to 14) (size 15 to 20)
#    0.000    0.250    5.000    3.000    7.000    1.500 
#    0.000    0.000    0.000    0.000    0.000    0.000 
#    0.000    0.000    0.000    0.000    0.000    0.000 
#
# Total GULP energy -89579.383722 kJ/mol
# GULP energy per Si atom -5598.711483 kJ/mol
# Density = 2.106170 g / cm^3
# Si number density = 21.109745 Si / 1000 Ang^3
#
#
#
# Elastic Constant Matrix: (Units=GPa)
#
#
# Indices 1 2 3 4 5 6 
#
# 1 118.8983 32.9871 48.8659 -0.8906 -28.9403 17.5392
# 2 32.9871 80.2976 19.1936 1.6193 -20.0671 6.3861
# 3 48.8659 19.1936 90.6319 8.0349 -12.9893 4.2613
# 4 -0.8906 1.6193 8.0349 35.3854 -7.3764 -5.9616
# 5 -28.9403 -20.0671 -12.9893 -7.3764 46.9102 7.2558
# 6 17.5392 6.3861 4.2613 -5.9616 7.2558 52.0695
#
#
#
# Elastic Compliance Matrix: (Units=1/GPa)
#
#
# Indices 1 2 3 4 5 6 
#
# 1 0.013927 -0.002188 -0.006034 0.002520 0.007098 -0.004629
# 2 -0.002188 0.015035 -0.001229 0.000306 0.005049 -0.001675
# 3 -0.006034 -0.001229 0.014705 -0.003491 -0.000833 0.000696
# 4 0.002520 0.000306 -0.003491 0.030550 0.005187 0.002174
# 5 0.007098 0.005049 -0.000833 0.005187 0.029438 -0.006450
# 6 -0.004629 -0.001675 0.000696 0.002174 -0.006450 0.022061
#
#
# Mechanical properties :
#
#
# Convention : Reuss Voigt Hill
#
# Bulk Modulus (GPa) = 40.38109 54.65792 47.51950
# Shear Modulus (GPa) = 32.70697 39.45844 36.08271
#
# Velocity S-wave (km/s) = 3.94048 4.32812 4.13884
# Velocity P-wave (km/s) = 6.31458 7.13620 6.73792
#
# Compressibility (1/GPa) = 0.02476407
#
# Stress axis : x y z
#
# Youngs Moduli (GPa) = 71.80356 66.51127 68.00547
#
# Poissons Ratio (x) = 0.14552 0.41036
# Poissons Ratio (y) = 0.15710 0.08360
# Poissons Ratio (z) = 0.43327 0.08176
#
# Static dielectric constant tensor:
#      x y z
#    x 1.740950 -0.034930 0.007760 
#    y -0.034930 1.746060 -0.001850 
#    z 0.007760 -0.001850 1.747520 
# 
# From -- ./inp_files/447294.got.cif
#   From: 2010.05.17/outbox.cif.g08.bks.cpg/sg2_224_cif.got.tgz:447294.got - 2010.06.03 11:33:40.
