data_PCOD9065047
_publ_section_title
;
Structure prediction by ZEFSAII (Michael W. Deem and Ramdas Pophale) SiO2 
 PCOD9065047
Probable space group: P -1
;
_chemical_formula_sum "Si O2"
_cell_formula_units_Z 14
_cell_length_a 7.889620
_cell_length_b 7.550616
_cell_length_c 11.906610
_cell_angle_alpha 111.203417
_cell_angle_beta 103.453069
_cell_angle_gamma 57.738506
_cell_volume 558.483928
_symmetry_space_group_name_H-M "P -1"
_symmetry_group_IT_number 2
_symmetry_cell_setting 'triclinic'
loop_
_space_group_symop_operation_xyz
x,y,z
-x,-y,-z
loop_
_atom_site_type_symbol
_atom_site_label
_atom_site_fract_x
_atom_site_fract_y
_atom_site_fract_z
Si Si1 0.995864 0.378318 0.084861
Si Si2 0.584200 0.564662 0.165616
Si Si3 0.762402 0.409268 0.743988
Si Si4 0.915091 0.050882 0.373179
Si Si5 0.381118 0.987675 0.086967
Si Si6 0.535559 0.775449 0.641883
Si Si7 0.212587 0.451987 0.576856
O O1 0.079915 0.501569 0.207172
O O2 0.153318 0.123580 0.044182
O O3 0.789136 0.401327 0.097695
O O4 0.000000 0.500000 0.000000
O O5 0.415990 0.510029 0.173586
O O6 0.676354 0.626397 0.302888
O O7 0.471690 0.751784 0.099254
O O8 0.629197 0.518829 0.637046
O O9 0.905397 0.148175 0.712435
O O10 0.701045 0.065323 0.352375
O O11 0.842525 0.293447 0.373787
O O12 0.000000 0.000000 0.500000
O O13 0.391945 0.123178 0.226484
O O14 0.500000 0.000000 0.000000
O O15 0.629701 0.735211 0.525118
O O16 0.000000 0.500000 0.500000
#
# Coordination Sequence:
#
# PCOD9065047 Si02
#       7
#     2   2   2   2   2   2   2
#     4  11  25  50  73 100 147 186 238 305 354 417
#     4  12  26  46  72 107 146 187 242 295 360 431
#     4  11  25  45  71 106 141 187 237 292 357 429
#     4  12  24  42  69  99 143 190 234 281 362 430
#     4  11  25  46  74 103 139 193 241 292 364 419
#     4  11  24  47  69  99 150 188 229 298 362 421
#     4  12  26  44  69 109 148 185 239 298 358 432
#
# _framework density 25.067862999999999
#
# number of rings (size 3 to 8) (size 9 to 14) (size 15 to 20)
#    0.000    0.571    4.286    3.857    6.000    1.143 
#    0.000    0.714    0.000    0.000    0.000    0.000 
#    0.000    0.000    0.000    0.000    0.000    0.000 
#
# Total GULP energy -78096.065447 kJ/mol
# GULP energy per Si atom -5578.290389 kJ/mol
# Density = 2.501081 g / cm^3
# Si number density = 25.067863 Si / 1000 Ang^3
#
#
#
# Elastic Constant Matrix: (Units=GPa)
#
#
# Indices 1 2 3 4 5 6 
#
# 1 111.0823 42.4067 25.5974 16.7473 -13.6631 -31.0371
# 2 42.4067 127.8289 21.0176 -3.4415 -13.3009 -32.7708
# 3 25.5974 21.0176 102.5560 -8.5263 -6.5064 -18.4139
# 4 16.7473 -3.4415 -8.5263 42.9144 -9.3953 -5.4892
# 5 -13.6631 -13.3009 -6.5064 -9.3953 36.3745 9.0505
# 6 -31.0371 -32.7708 -18.4139 -5.4892 9.0505 43.8119
#
#
#
# Elastic Compliance Matrix: (Units=1/GPa)
#
#
# Indices 1 2 3 4 5 6 
#
# 1 0.012802 -0.002520 -0.002011 -0.004682 0.000935 0.005559
# 2 -0.002520 0.010513 -0.000058 0.003060 0.002188 0.005985
# 3 -0.002011 -0.000058 0.011286 0.003762 0.001351 0.003468
# 4 -0.004682 0.003060 0.003762 0.027905 0.006571 0.002692
# 5 0.000935 0.002188 0.001351 0.006571 0.031271 -0.002769
# 6 0.005559 0.005985 0.003468 0.002692 -0.002769 0.033607
#
#
# Mechanical properties :
#
#
# Convention : Reuss Voigt Hill
#
# Bulk Modulus (GPa) = 39.33266 57.72340 48.52803
# Shear Modulus (GPa) = 34.47455 41.44985 37.96220
#
# Velocity S-wave (km/s) = 3.71246 4.07074 3.89572
# Velocity P-wave (km/s) = 5.83961 6.72097 6.29573
#
# Compressibility (1/GPa) = 0.02542417
#
# Stress axis : x y z
#
# Youngs Moduli (GPa) = 78.11402 95.12082 88.60897
#
# Poissons Ratio (x) = 0.23969 0.17815
# Poissons Ratio (y) = 0.19684 0.00511
# Poissons Ratio (z) = 0.15705 0.00548
#
# Static dielectric constant tensor:
#      x y z
#    x 2.024400 0.010010 -0.088940 
#    y 0.010010 2.028290 -0.053300 
#    z -0.088940 -0.053300 1.656420 
# 
# From -- ./inp_files/187318.got.cif
#   From: 2010.05.17/outbox.cif.g08.bks.cpg/sg2_94_cif.got.tgz:187318.got - 2010.06.03 11:33:40.
