data_PCOD9065729
_publ_section_title
;
Structure prediction by ZEFSAII (Michael W. Deem and Ramdas Pophale) SiO2 
 PCOD9065729
Probable space group: P -1
;
_chemical_formula_sum "Si O2"
_cell_formula_units_Z 16
_cell_length_a 17.401085
_cell_length_b 29.409738
_cell_length_c 24.340967
_cell_angle_alpha 169.632811
_cell_angle_beta 20.324475
_cell_angle_gamma 161.010917
_cell_volume 723.246979
_symmetry_space_group_name_H-M "P -1"
_symmetry_group_IT_number 2
_symmetry_cell_setting 'triclinic'
loop_
_space_group_symop_operation_xyz
x,y,z
-x,-y,-z
loop_
_atom_site_type_symbol
_atom_site_label
_atom_site_fract_x
_atom_site_fract_y
_atom_site_fract_z
Si Si1 0.103191 0.756453 0.329187
Si Si2 0.544208 0.302167 0.575042
Si Si3 0.300020 0.117169 0.290912
Si Si4 0.012628 0.202306 0.781332
Si Si5 0.435971 0.098875 0.602983
Si Si6 0.417981 0.705865 0.960987
Si Si7 0.790191 0.489979 0.748993
Si Si8 0.187710 0.310436 0.239101
O O1 0.929856 0.924943 0.643705
O O2 0.326435 0.889543 0.378372
O O3 0.972575 0.459638 0.088879
O O4 0.195543 0.722617 0.165806
O O5 0.276874 0.296937 0.743181
O O6 0.640564 0.333815 0.610212
O O7 0.717981 0.553232 0.721036
O O8 0.527594 0.001364 0.209760
O O9 0.379793 0.440859 0.634963
O O10 0.186077 0.957275 0.232232
O O11 0.500000 0.000000 0.000000
O O12 0.000000 0.000000 0.500000
O O13 0.663420 0.334599 0.704193
O O14 0.500000 0.000000 0.500000
O O15 0.236369 0.223869 0.896420
O O16 0.592380 0.679120 0.859526
O O17 0.050988 0.490051 0.569917
O O18 0.000000 0.000000 0.000000
#
# Coordination Sequence:
#
# PCOD9065729 Si02
#       8
#     2   2   2   2   2   2   2   2
#     4  12  23  47  75 102 139 196 249 290 360 447
#     4  12  23  43  74 106 137 194 246 294 356 440
#     4  12  28  48  74 111 149 182 242 318 370 420
#     4  12  23  43  77 104 140 192 249 294 359 444
#     4  11  25  44  69 100 147 197 237 291 367 431
#     4  12  24  45  75 104 141 194 247 294 362 445
#     4  11  25  41  65 103 145 183 243 295 359 427
#     4  12  25  42  70 107 147 183 241 304 358 426
#
# _framework density 22.122457000000001
#
# number of rings (size 3 to 8) (size 9 to 14) (size 15 to 20)
#    0.000    0.250    6.250    2.250    3.500    1.500 
#    2.250    0.000    0.000    0.000    0.000    0.000 
#    0.000    0.000    0.000    0.000    0.000    0.000 
#
# Total GULP energy -89446.033286 kJ/mol
# GULP energy per Si atom -5590.377080 kJ/mol
# Density = 2.207211 g / cm^3
# Si number density = 22.122457 Si / 1000 Ang^3
#
#
#
# Elastic Constant Matrix: (Units=GPa)
#
#
# Indices 1 2 3 4 5 6 
#
# 1 103.7485 37.2551 33.6397 -3.9762 -23.1458 -11.7329
# 2 37.2551 80.1906 46.3259 -10.0826 -14.2746 -23.6481
# 3 33.6397 46.3259 126.1896 -15.6208 -19.4876 -6.9110
# 4 -3.9762 -10.0826 -15.6208 51.1615 5.8313 -11.7991
# 5 -23.1458 -14.2746 -19.4876 5.8313 38.0765 7.5997
# 6 -11.7329 -23.6481 -6.9110 -11.7991 7.5997 36.7380
#
#
#
# Elastic Compliance Matrix: (Units=1/GPa)
#
#
# Indices 1 2 3 4 5 6 
#
# 1 0.012820 -0.004680 -0.000962 -0.001031 0.005832 -0.000636
# 2 -0.004680 0.022641 -0.005741 0.005690 -0.000966 0.014027
# 3 -0.000962 -0.005741 0.010789 0.001234 0.003036 -0.002205
# 4 -0.001031 0.005690 0.001234 0.024228 -0.004002 0.012175
# 5 0.005832 -0.000966 0.003036 -0.004002 0.032864 -0.006272
# 6 -0.000636 0.014027 -0.002205 0.012175 -0.006272 0.040839
#
#
# Mechanical properties :
#
#
# Convention : Reuss Voigt Hill
#
# Bulk Modulus (GPa) = 42.57798 60.50779 51.54289
# Shear Modulus (GPa) = 28.60821 38.05572 33.33196
#
# Velocity S-wave (km/s) = 3.59998 4.15207 3.88584
# Velocity P-wave (km/s) = 6.04715 7.09908 6.59412
#
# Compressibility (1/GPa) = 0.02348632
#
# Stress axis : x y z
#
# Youngs Moduli (GPa) = 78.00009 44.16780 92.68431
#
# Poissons Ratio (x) = 0.20670 0.08912
# Poissons Ratio (y) = 0.36503 0.53208
# Poissons Ratio (z) = 0.07500 0.25356
#
# Static dielectric constant tensor:
#      x y z
#    x 1.837990 0.050720 0.029860 
#    y 0.050720 1.836620 0.036040 
#    z 0.029860 0.036040 1.857640 
# 
# From -- ./inp_files/613352.got.cif
#   From: 2010.05.17/outbox.cif.g08.bks.cpg/sg2_307_cif.got.tgz:613352.got - 2010.06.03 11:33:40.
