data_PCOD9065508
_publ_section_title
;
Structure prediction by ZEFSAII (Michael W. Deem and Ramdas Pophale) SiO2 
 PCOD9065508
Probable space group: P -1
;
_chemical_formula_sum "Si O2"
_cell_formula_units_Z 14
_cell_length_a 24.140128
_cell_length_b 18.590985
_cell_length_c 7.256530
_cell_angle_alpha 137.092205
_cell_angle_beta 136.422239
_cell_angle_gamma 14.017508
_cell_volume 535.161206
_symmetry_space_group_name_H-M "P -1"
_symmetry_group_IT_number 2
_symmetry_cell_setting 'triclinic'
loop_
_space_group_symop_operation_xyz
x,y,z
-x,-y,-z
loop_
_atom_site_type_symbol
_atom_site_label
_atom_site_fract_x
_atom_site_fract_y
_atom_site_fract_z
Si Si1 0.338743 0.799872 0.163478
Si Si2 0.511090 0.805158 0.924274
Si Si3 0.978863 0.149502 0.683714
Si Si4 0.908976 0.561665 0.100145
Si Si5 0.945715 0.836308 0.481691
Si Si6 0.729106 0.752048 0.418102
Si Si7 0.431785 0.316513 0.775626
O O1 0.472115 0.718366 0.203918
O O2 0.710883 0.511675 0.727098
O O3 0.500000 0.500000 0.000000
O O4 0.109722 0.051868 0.974290
O O5 0.617229 0.778151 0.231253
O O6 0.479948 0.770133 0.965109
O O7 0.304840 0.110047 0.881465
O O8 0.254221 0.932431 0.414724
O O9 0.094577 0.042683 0.570199
O O10 0.000000 0.000000 0.500000
O O11 0.868004 0.568902 0.220175
O O12 0.111996 0.395725 0.316978
O O13 0.973331 0.378675 0.797011
O O14 0.159525 0.635843 0.713247
O O15 0.544164 0.068225 0.517674
#
# Coordination Sequence:
#
# PCOD9065508 Si02
#       7
#     2   2   2   2   2   2   2
#     4  12  31  57  83 122 163 223 297 345 420 513
#     4  12  25  52  83 122 177 220 278 347 428 502
#     4  12  28  54  85 121 161 222 288 355 422 494
#     4  11  25  47  83 127 170 227 274 342 431 510
#     4  12  26  55  88 117 172 223 275 357 428 493
#     4  11  24  48  78 125 180 214 282 341 421 518
#     4  12  27  50  83 119 168 222 274 352 417 504
#
# _framework density 26.160339
#
# number of rings (size 3 to 8) (size 9 to 14) (size 15 to 20)
#    0.000    0.286    4.286    3.429    4.000    2.286 
#   15.429    0.000    0.000    0.000    0.000    0.000 
#    0.000    0.000    0.000    0.000    0.000    0.000 
#
# Total GULP energy -78557.818964 kJ/mol
# GULP energy per Si atom -5611.272783 kJ/mol
# Density = 2.610080 g / cm^3
# Si number density = 26.160339 Si / 1000 Ang^3
#
#
#
# Elastic Constant Matrix: (Units=GPa)
#
#
# Indices 1 2 3 4 5 6 
#
# 1 229.2137 53.8928 66.5242 6.8982 2.6881 7.4334
# 2 53.8928 131.3355 45.6451 -0.9548 6.6298 8.3730
# 3 66.5242 45.6451 109.2880 -13.0818 -8.8662 6.2014
# 4 6.8982 -0.9548 -13.0818 44.9645 3.3109 3.3055
# 5 2.6881 6.6298 -8.8662 3.3109 48.6376 2.3809
# 6 7.4334 8.3730 6.2014 3.3055 2.3809 45.8511
#
#
#
# Elastic Compliance Matrix: (Units=1/GPa)
#
#
# Indices 1 2 3 4 5 6 
#
# 1 0.005629 -0.001177 -0.003189 -0.001764 -0.000607 -0.000108
# 2 -0.001177 0.009407 -0.003348 -0.000394 -0.001754 -0.000955
# 3 -0.003189 -0.003348 0.013279 0.004155 0.002825 -0.001114
# 4 -0.001764 -0.000394 0.004155 0.023896 -0.000625 -0.001894
# 5 -0.000607 -0.001754 0.002825 -0.000625 0.021441 -0.001032
# 6 -0.000108 -0.000955 -0.001114 -0.001894 -0.001032 0.022342
#
#
# Mechanical properties :
#
#
# Convention : Reuss Voigt Hill
#
# Bulk Modulus (GPa) = 77.59292 89.10683 83.34987
# Shear Modulus (GPa) = 43.20858 48.14230 45.67544
#
# Velocity S-wave (km/s) = 4.06850 4.29450 4.18303
# Velocity P-wave (km/s) = 7.19688 7.66329 7.43375
#
# Compressibility (1/GPa) = 0.01288777
#
# Stress axis : x y z
#
# Youngs Moduli (GPa) = 177.66380 106.30304 75.30468
#
# Poissons Ratio (x) = 0.12509 0.24014
# Poissons Ratio (y) = 0.20906 0.25212
# Poissons Ratio (z) = 0.56656 0.35590
#
# Static dielectric constant tensor:
#      x y z
#    x 2.087430 -0.063780 0.023120 
#    y -0.063780 2.089820 -0.052920 
#    z 0.023120 -0.052920 2.074800 
# 
# From -- ./inp_files/317576.got.cif
#   From: 2010.05.17/outbox.cif.g08.bks.cpg/sg2_159_cif.got.tgz:317576.got - 2010.06.03 11:33:40.
