data_PCOD9065628
_publ_section_title
;
Structure prediction by ZEFSAII (Michael W. Deem and Ramdas Pophale) SiO2 
 PCOD9065628
Probable space group: P -1
;
_chemical_formula_sum "Si O2"
_cell_formula_units_Z 13
_cell_length_a 7.989387
_cell_length_b 9.619074
_cell_length_c 13.955165
_cell_angle_alpha 50.694177
_cell_angle_beta 57.228975
_cell_angle_gamma 38.534334
_cell_volume 514.644084
_symmetry_space_group_name_H-M "P -1"
_symmetry_group_IT_number 2
_symmetry_cell_setting 'triclinic'
loop_
_space_group_symop_operation_xyz
x,y,z
-x,-y,-z
loop_
_atom_site_type_symbol
_atom_site_label
_atom_site_fract_x
_atom_site_fract_y
_atom_site_fract_z
Si Si1 0.915179 0.749179 0.954453
Si Si2 0.000000 0.000000 0.000000
Si Si3 0.059057 0.265962 0.542961
Si Si4 0.405775 0.730762 0.273600
Si Si5 0.509795 0.515823 0.132293
Si Si6 0.324118 0.126313 0.817027
Si Si7 0.584927 0.835509 0.689312
O O1 0.200571 0.665562 0.932050
O O2 0.735506 0.838322 0.065645
O O3 0.775015 0.985562 0.828798
O O4 0.000000 0.500000 0.000000
O O5 0.086933 0.134196 0.856402
O O6 0.185587 0.208105 0.423704
O O7 0.000000 0.500000 0.500000
O O8 0.802912 0.290196 0.614815
O O9 0.302521 0.047765 0.630162
O O10 0.545673 0.557879 0.212358
O O11 0.628638 0.687008 0.292493
O O12 0.314939 0.778859 0.030282
O O13 0.392598 0.390247 0.222313
O O14 0.570315 0.903445 0.773947
#
# Coordination Sequence:
#
# PCOD9065628 Si02
#       7
#     2   1   2   2   2   2   2
#     4  12  24  44  73 104 150 197 232 298 375 443
#     4  12  26  44  70 110 150 186 242 296 358 448
#     4  11  24  49  79 102 143 194 256 299 372 428
#     4  12  24  48  72 110 143 194 249 300 363 446
#     4  12  24  47  73 104 149 196 240 295 375 440
#     4  12  26  45  70 113 148 180 256 294 367 445
#     4  11  26  47  76 106 143 197 241 315 362 428
#
# _framework density 25.260176000000001
#
# number of rings (size 3 to 8) (size 9 to 14) (size 15 to 20)
#    0.000    0.308    6.154    3.231    0.000    4.308 
#    0.000    0.769    0.000    0.000    0.000    0.000 
#    0.000    0.000    0.000    0.000    0.000    0.000 
#
# Total GULP energy -72433.465494 kJ/mol
# GULP energy per Si atom -5571.805038 kJ/mol
# Density = 2.520268 g / cm^3
# Si number density = 25.260176 Si / 1000 Ang^3
#
#
#
# Elastic Constant Matrix: (Units=GPa)
#
#
# Indices 1 2 3 4 5 6 
#
# 1 87.8175 40.4696 54.2801 15.0069 -45.5245 1.5430
# 2 40.4696 113.1857 68.1932 -3.9688 -7.3036 22.6797
# 3 54.2801 68.1932 142.4476 17.2538 -51.4063 -4.7955
# 4 15.0069 -3.9688 17.2538 57.2485 -17.3122 -0.0329
# 5 -45.5245 -7.3036 -51.4063 -17.3122 52.3107 -9.2682
# 6 1.5430 22.6797 -4.7955 -0.0329 -9.2682 66.8713
#
#
#
# Elastic Compliance Matrix: (Units=1/GPa)
#
#
# Indices 1 2 3 4 5 6 
#
# 1 0.032687 -0.017533 0.009920 -0.001516 0.037205 0.011059
# 2 -0.017533 0.027159 -0.018399 0.002562 -0.031261 -0.014457
# 3 0.009920 -0.018399 0.023885 -0.001657 0.031120 0.012036
# 4 -0.001516 0.002562 -0.001657 0.019709 0.003861 -0.000408
# 5 0.037205 -0.031261 0.031120 0.003861 0.083155 0.023502
# 6 0.011059 -0.014457 0.012036 -0.000408 0.023502 0.023722
#
#
# Mechanical properties :
#
#
# Convention : Reuss Voigt Hill
#
# Bulk Modulus (GPa) = 31.53811 74.37072 52.95442
# Shear Modulus (GPa) = 18.32115 47.31996 32.82055
#
# Velocity S-wave (km/s) = 2.69606 4.33286 3.60849
# Velocity P-wave (km/s) = 4.71212 7.38494 6.19441
#
# Compressibility (1/GPa) = 0.03170767
#
# Stress axis : x y z
#
# Youngs Moduli (GPa) = 30.59311 36.82073 41.86797
#
# Poissons Ratio (x) = 0.64556 -0.41534
# Poissons Ratio (y) = 0.53638 0.77033
# Poissons Ratio (z) = -0.30349 0.67747
#
# Static dielectric constant tensor:
#      x y z
#    x 2.455920 0.112370 0.151520 
#    y 0.112370 2.079280 -0.025690 
#    z 0.151520 -0.025690 2.072990 
# 
# From -- ./inp_files/491970.got.cif
#   From: 2010.05.17/outbox.cif.g08.bks.cpg/sg2_246_cif.got.tgz:491970.got - 2010.06.03 11:33:40.
