data_PCOD9065802
_publ_section_title
;
Structure prediction by ZEFSAII (Michael W. Deem and Ramdas Pophale) SiO2 
 PCOD9065802
Probable space group: P -1
;
_chemical_formula_sum "Si O2"
_cell_formula_units_Z 14
_cell_length_a 21.831209
_cell_length_b 6.618324
_cell_length_c 9.162566
_cell_angle_alpha 55.709780
_cell_angle_beta 34.172038
_cell_angle_gamma 64.963687
_cell_volume 611.713167
_symmetry_space_group_name_H-M "P -1"
_symmetry_group_IT_number 2
_symmetry_cell_setting 'triclinic'
loop_
_space_group_symop_operation_xyz
x,y,z
-x,-y,-z
loop_
_atom_site_type_symbol
_atom_site_label
_atom_site_fract_x
_atom_site_fract_y
_atom_site_fract_z
Si Si1 0.430444 0.500217 0.460970
Si Si2 0.124104 0.975588 0.585959
Si Si3 0.334908 0.280306 0.456380
Si Si4 0.275202 0.694295 0.214287
Si Si5 0.126945 0.945573 0.937137
Si Si6 0.477565 0.077083 0.728285
Si Si7 0.780351 0.483156 0.922369
O O1 0.374920 0.470594 0.426836
O O2 0.487622 0.258176 0.494126
O O3 0.515607 0.733903 0.226516
O O4 0.330128 0.516085 0.765212
O O5 0.152911 0.957075 0.708155
O O6 0.173508 0.239652 0.318802
O O7 0.171513 0.758645 0.488791
O O8 0.993170 0.971219 0.836793
O O9 0.323065 0.444145 0.271521
O O10 0.218263 0.125006 0.767298
O O11 0.425482 0.089338 0.361856
O O12 0.244383 0.663534 0.119580
O O13 0.366503 0.911367 0.987534
O O14 0.137424 0.671127 0.085651
#
# Coordination Sequence:
#
# PCOD9065802 Si02
#       7
#     2   2   2   2   2   2   2
#     4  11  25  43  72  96 142 184 225 282 346 399
#     4  11  26  50  70 103 138 179 230 291 336 412
#     4  12  25  45  67 104 137 186 227 283 340 411
#     4  12  27  43  70 103 142 177 234 280 342 407
#     4  11  25  49  74  98 141 179 231 284 347 402
#     4  11  25  43  67 103 137 182 228 281 340 410
#     4  12  24  48  71 106 136 182 232 282 341 411
#
# _framework density 22.886543
#
# number of rings (size 3 to 8) (size 9 to 14) (size 15 to 20)
#    0.000    0.571    4.286    3.000    4.000    1.714 
#    2.571    0.000    0.000    0.000    0.000    0.000 
#    0.000    0.000    0.000    0.000    0.000    0.000 
#
# Total GULP energy -78409.638738 kJ/mol
# GULP energy per Si atom -5600.688481 kJ/mol
# Density = 2.283445 g / cm^3
# Si number density = 22.886543 Si / 1000 Ang^3
#
#
#
# Elastic Constant Matrix: (Units=GPa)
#
#
# Indices 1 2 3 4 5 6 
#
# 1 99.4192 27.9333 0.7317 6.1341 13.8037 -18.9639
# 2 27.9333 84.5796 16.2343 9.3850 5.8142 -6.0495
# 3 0.7317 16.2343 29.1144 5.5244 7.7932 -1.3889
# 4 6.1341 9.3850 5.5244 38.3828 -5.0696 0.6394
# 5 13.8037 5.8142 7.7932 -5.0696 31.8532 -4.4067
# 6 -18.9639 -6.0495 -1.3889 0.6394 -4.4067 31.1109
#
#
#
# Elastic Compliance Matrix: (Units=1/GPa)
#
#
# Indices 1 2 3 4 5 6 
#
# 1 0.013414 -0.004085 0.004255 -0.002608 -0.005578 0.006836
# 2 -0.004085 0.014871 -0.008062 -0.001723 0.000780 0.000187
# 3 0.004255 -0.008062 0.043191 -0.006504 -0.011778 0.001419
# 4 -0.002608 -0.001723 -0.006504 0.028832 0.007381 -0.001762
# 5 -0.005578 0.000780 -0.011778 0.007381 0.037925 0.001446
# 6 0.006836 0.000187 0.001419 -0.001762 0.001446 0.036651
#
#
# Mechanical properties :
#
#
# Convention : Reuss Voigt Hill
#
# Bulk Modulus (GPa) = 17.95654 33.65685 25.80669
# Shear Modulus (GPa) = 23.89695 31.48365 27.69030
#
# Velocity S-wave (km/s) = 3.23483 3.71299 3.48213
# Velocity P-wave (km/s) = 4.67067 5.75496 5.24093
#
# Compressibility (1/GPa) = 0.05569002
#
# Stress axis : x y z
#
# Youngs Moduli (GPa) = 74.54837 67.24605 23.15323
#
# Poissons Ratio (x) = 0.27470 -0.09851
# Poissons Ratio (y) = 0.30454 0.18667
# Poissons Ratio (z) = -0.31718 0.54216
#
# Static dielectric constant tensor:
#      x y z
#    x 1.818180 0.007590 0.010990 
#    y 0.007590 1.876470 -0.001130 
#    z 0.010990 -0.001130 1.872060 
# 
# From -- ./inp_files/116712.got.cif
#   From: 2010.05.17/outbox.cif.g08.bks.cpg/sg2_59_cif.got.tgz:116712.got - 2010.06.03 11:33:40.
