data_PCOD9065439
_publ_section_title
;
Structure prediction by ZEFSAII (Michael W. Deem and Ramdas Pophale) SiO2 
 PCOD9065439
Probable space group: P -1
;
_chemical_formula_sum "Si O2"
_cell_formula_units_Z 13
_cell_length_a 14.775953
_cell_length_b 12.189244
_cell_length_c 8.469500
_cell_angle_alpha 58.148165
_cell_angle_beta 45.623348
_cell_angle_gamma 30.345383
_cell_volume 538.553105
_symmetry_space_group_name_H-M "P -1"
_symmetry_group_IT_number 2
_symmetry_cell_setting 'triclinic'
loop_
_space_group_symop_operation_xyz
x,y,z
-x,-y,-z
loop_
_atom_site_type_symbol
_atom_site_label
_atom_site_fract_x
_atom_site_fract_y
_atom_site_fract_z
Si Si1 0.000000 0.000000 0.000000
Si Si2 0.477971 0.189532 0.977841
Si Si3 0.165809 0.475550 0.862403
Si Si4 0.134860 0.753021 0.530876
Si Si5 0.561469 0.504570 0.090312
Si Si6 0.135009 0.090276 0.533991
Si Si7 0.453836 0.975774 0.406150
O O1 0.807332 0.265923 0.008237
O O2 0.867266 0.045974 0.277071
O O3 0.259098 0.375864 0.998990
O O4 0.476894 0.311764 0.000910
O O5 0.675005 0.046506 0.723983
O O6 0.501291 0.042025 0.162712
O O7 0.078420 0.693476 0.777657
O O8 0.374514 0.281765 0.639391
O O9 0.000000 0.500000 0.000000
O O10 0.385082 0.587041 0.359961
O O11 0.076845 0.726642 0.457516
O O12 0.000000 0.000000 0.500000
O O13 0.500000 0.500000 0.000000
O O14 0.210241 0.126160 0.553635
O O15 0.500000 0.000000 0.500000
#
# Coordination Sequence:
#
# PCOD9065439 Si02
#       7
#     1   2   2   2   2   2   2
#     4  12  28  44  74 110 154 198 250 318 388 454
#     4  11  25  47  77 105 146 206 257 313 388 469
#     4  11  25  46  74 106 147 199 258 310 387 464
#     4  12  25  46  79 111 149 202 259 320 384 461
#     4  12  27  45  73 110 156 194 256 318 391 448
#     4  11  24  48  74 104 154 192 259 308 382 462
#     4  11  26  46  75 109 151 196 258 322 388 459
#
# _framework density 24.138753000000001
#
# number of rings (size 3 to 8) (size 9 to 14) (size 15 to 20)
#    0.000    0.615    3.077    5.538    6.462    2.462 
#    0.000    2.308    0.000    0.000    0.000    0.000 
#    0.000    0.000    0.000    0.000    0.000    0.000 
#
# Total GULP energy -72458.929193 kJ/mol
# GULP energy per Si atom -5573.763784 kJ/mol
# Density = 2.408381 g / cm^3
# Si number density = 24.138753 Si / 1000 Ang^3
#
#
#
# Elastic Constant Matrix: (Units=GPa)
#
#
# Indices 1 2 3 4 5 6 
#
# 1 130.4080 18.5657 8.7622 -5.6030 -0.9628 4.5397
# 2 18.5657 108.2497 36.1871 -15.0417 -15.7919 7.2866
# 3 8.7622 36.1871 101.5680 -27.6195 0.4869 -9.5169
# 4 -5.6030 -15.0417 -27.6195 49.8362 -9.1464 -2.5467
# 5 -0.9628 -15.7919 0.4869 -9.1464 40.5664 -0.9948
# 6 4.5397 7.2866 -9.5169 -2.5467 -0.9948 29.1138
#
#
#
# Elastic Compliance Matrix: (Units=1/GPa)
#
#
# Indices 1 2 3 4 5 6 
#
# 1 0.007902 -0.001191 -0.000274 0.000283 -0.000234 -0.001007
# 2 -0.001191 0.012065 -0.004029 0.002012 0.005077 -0.003802
# 3 -0.000274 -0.004029 0.013679 0.006628 -0.000095 0.006099
# 4 0.000283 0.002012 0.006628 0.025805 0.006629 0.004103
# 5 -0.000234 0.005077 -0.000095 0.006629 0.028124 0.000275
# 6 -0.001007 -0.003802 0.006099 0.004103 0.000275 0.037818
#
#
# Mechanical properties :
#
#
# Convention : Reuss Voigt Hill
#
# Bulk Modulus (GPa) = 44.13313 51.91731 48.02522
# Shear Modulus (GPa) = 34.73811 42.35068 38.54439
#
# Velocity S-wave (km/s) = 3.79766 4.19318 4.00031
# Velocity P-wave (km/s) = 6.12801 6.70807 6.42459
#
# Compressibility (1/GPa) = 0.02265872
#
# Stress axis : x y z
#
# Youngs Moduli (GPa) = 126.55625 82.88226 73.10351
#
# Poissons Ratio (x) = 0.09869 0.02001
# Poissons Ratio (y) = 0.15069 0.29456
# Poissons Ratio (z) = 0.03464 0.33396
#
# Static dielectric constant tensor:
#      x y z
#    x 2.302330 0.227000 -0.431090 
#    y 0.227000 2.057050 -0.258390 
#    z -0.431090 -0.258390 2.542340 
# 
# From -- ./inp_files/180994.got.cif
#   From: 2010.05.17/outbox.cif.g08.bks.cpg/sg2_91_cif.got.tgz:180994.got - 2010.06.03 11:33:40.
