data_PCOD9065219
_publ_section_title
;
Structure prediction by ZEFSAII (Michael W. Deem and Ramdas Pophale) SiO2 
 PCOD9065219
Probable space group: P -1
;
_chemical_formula_sum "Si O2"
_cell_formula_units_Z 14
_cell_length_a 5.484562
_cell_length_b 21.174778
_cell_length_c 5.766094
_cell_angle_alpha 90.037236
_cell_angle_beta 103.681398
_cell_angle_gamma 68.556523
_cell_volume 602.870237
_symmetry_space_group_name_H-M "P -1"
_symmetry_group_IT_number 2
_symmetry_cell_setting 'triclinic'
loop_
_space_group_symop_operation_xyz
x,y,z
-x,-y,-z
loop_
_atom_site_type_symbol
_atom_site_label
_atom_site_fract_x
_atom_site_fract_y
_atom_site_fract_z
Si Si1 0.093470 0.928730 0.885123
Si Si2 0.239098 0.540434 0.585271
Si Si3 0.843818 0.269927 0.685521
Si Si4 0.319673 0.656034 0.852684
Si Si5 0.466696 0.071212 0.371548
Si Si6 0.531417 0.813924 0.278872
Si Si7 0.875260 0.566045 0.132418
O O1 0.252704 0.940650 0.697385
O O2 0.822670 0.911738 0.818493
O O3 0.330259 0.864600 0.049298
O O4 0.000000 0.000000 0.000000
O O5 0.500000 0.500000 0.500000
O O6 0.252413 0.588200 0.798591
O O7 0.212054 0.473088 0.682949
O O8 0.061284 0.589971 0.340998
O O9 0.768576 0.303945 0.409806
O O10 0.641521 0.228273 0.659598
O O11 0.169272 0.229641 0.749055
O O12 0.786719 0.309107 0.923849
O O13 0.645753 0.625414 0.950222
O O14 0.425530 0.134598 0.526688
O O15 0.500000 0.000000 0.500000
O O16 0.000000 0.500000 0.000000
#
# Coordination Sequence:
#
# PCOD9065219 Si02
#       7
#     2   2   2   2   2   2   2
#     4  12  26  46  80 118 156 196 260 334 407 468
#     4  11  24  47  74 115 149 193 248 337 404 461
#     4  12  33  53  80 109 167 225 264 325 381 490
#     4  12  29  53  74 115 154 213 270 317 398 482
#     4  12  26  46  80 118 155 198 259 334 406 470
#     4  12  30  54  75 113 157 212 269 323 397 474
#     4  11  25  43  79 112 152 189 255 334 408 459
#
# _framework density 23.222242999999999
#
# number of rings (size 3 to 8) (size 9 to 14) (size 15 to 20)
#    0.000    0.286    2.857    3.857   14.000    0.000 
#    0.000    0.000    0.000    0.000    0.000    0.000 
#    0.000    0.000    0.000    0.000    0.000    0.000 
#
# Total GULP energy -78013.096469 kJ/mol
# GULP energy per Si atom -5572.364033 kJ/mol
# Density = 2.316939 g / cm^3
# Si number density = 23.222243 Si / 1000 Ang^3
#
#
#
# Elastic Constant Matrix: (Units=GPa)
#
#
# Indices 1 2 3 4 5 6 
#
# 1 84.1644 46.2813 31.4166 -5.3288 6.8802 -22.5885
# 2 46.2813 119.5629 62.9048 7.1275 2.5250 -16.5627
# 3 31.4166 62.9048 122.2940 0.4130 11.7400 -15.1487
# 4 -5.3288 7.1275 0.4130 46.9144 -2.2633 -0.1504
# 5 6.8802 2.5250 11.7400 -2.2633 56.2841 -0.3650
# 6 -22.5885 -16.5627 -15.1487 -0.1504 -0.3650 53.4886
#
#
#
# Elastic Compliance Matrix: (Units=1/GPa)
#
#
# Indices 1 2 3 4 5 6 
#
# 1 0.016908 -0.005593 -0.000683 0.002719 -0.001530 0.005212
# 2 -0.005593 0.013679 -0.005667 -0.002607 0.001149 0.000269
# 3 -0.000683 -0.005667 0.011616 0.000586 -0.002054 0.001234
# 4 0.002719 -0.002607 0.000586 0.022044 0.000552 0.000573
# 5 -0.001530 0.001149 -0.002054 0.000552 0.018348 -0.000745
# 6 0.005212 0.000269 0.001234 0.000573 -0.000745 0.021326
#
#
# Mechanical properties :
#
#
# Convention : Reuss Voigt Hill
#
# Bulk Modulus (GPa) = 54.59939 67.46964 61.03452
# Shear Modulus (GPa) = 37.33727 43.69866 40.51796
#
# Velocity S-wave (km/s) = 4.01412 4.34263 4.18160
# Velocity P-wave (km/s) = 6.71170 7.36624 7.04658
#
# Compressibility (1/GPa) = 0.01831522
#
# Stress axis : x y z
#
# Youngs Moduli (GPa) = 59.14204 73.10408 86.09012
#
# Poissons Ratio (x) = 0.40890 0.05882
# Poissons Ratio (y) = 0.33080 0.48791
# Poissons Ratio (z) = 0.04041 0.41432
#
# Static dielectric constant tensor:
#      x y z
#    x 1.919850 -0.087270 -0.058230 
#    y -0.087270 1.841430 -0.084880 
#    z -0.058230 -0.084880 1.989900 
# 
# From -- ./inp_files/11117.got.cif
#   From: 2010.05.17/outbox.cif.g08.bks.cpg/sg2_6_cif.got.tgz:11117.got - 2010.06.03 11:33:40.
