data_PCOD9065106
_publ_section_title
;
Structure prediction by ZEFSAII (Michael W. Deem and Ramdas Pophale) SiO2 
 PCOD9065106
Probable space group: P -1
;
_chemical_formula_sum "Si O2"
_cell_formula_units_Z 14
_cell_length_a 8.920171
_cell_length_b 18.805075
_cell_length_c 12.781900
_cell_angle_alpha 152.536098
_cell_angle_beta 45.589110
_cell_angle_gamma 118.278146
_cell_volume 631.953499
_symmetry_space_group_name_H-M "P -1"
_symmetry_group_IT_number 2
_symmetry_cell_setting 'triclinic'
loop_
_space_group_symop_operation_xyz
x,y,z
-x,-y,-z
loop_
_atom_site_type_symbol
_atom_site_label
_atom_site_fract_x
_atom_site_fract_y
_atom_site_fract_z
Si Si1 0.370418 0.579169 0.822487
Si Si2 0.673736 0.759878 0.603052
Si Si3 0.140843 0.042315 0.898597
Si Si4 0.119522 0.836234 0.456366
Si Si5 0.449219 0.010649 0.224572
Si Si6 0.921235 0.380336 0.314307
Si Si7 0.980790 0.832465 0.202498
O O1 0.273524 0.437170 0.676557
O O2 0.648978 0.484786 0.553553
O O3 0.302043 0.675850 0.092849
O O4 0.230213 0.723323 0.993330
O O5 0.548542 0.840709 0.659290
O O6 0.901162 0.797362 0.542236
O O7 0.511412 0.861090 0.912218
O O8 0.224220 0.887608 0.572603
O O9 0.351951 0.058230 0.874222
O O10 0.973745 0.216312 0.147725
O O11 0.000000 0.000000 0.000000
O O12 0.036393 0.004979 0.643269
O O13 0.210747 0.097768 0.520987
O O14 0.000000 0.500000 0.500000
O O15 0.055502 0.294665 0.028878
#
# Coordination Sequence:
#
# PCOD9065106 Si02
#       7
#     2   2   2   2   2   2   2
#     4  12  26  46  71 104 143 183 235 293 348 408
#     4  11  25  46  73 108 138 183 238 291 339 423
#     4  11  24  47  71  99 140 192 231 285 358 415
#     4  11  25  45  71 107 141 181 241 285 347 424
#     4  11  25  44  77  99 142 184 239 280 359 410
#     4  11  29  46  67 105 146 182 234 291 348 419
#     4  11  27  44  73 104 139 187 236 288 355 411
#
# _framework density 22.153528999999999
#
# number of rings (size 3 to 8) (size 9 to 14) (size 15 to 20)
#    0.000    0.857    2.857    2.143   12.000    1.143 
#    0.000    1.429    0.000    0.000    0.000    0.000 
#    0.000    0.000    0.000    0.000    0.000    0.000 
#
# Total GULP energy -78325.693188 kJ/mol
# GULP energy per Si atom -5594.692371 kJ/mol
# Density = 2.210311 g / cm^3
# Si number density = 22.153529 Si / 1000 Ang^3
#
#
#
# Elastic Constant Matrix: (Units=GPa)
#
#
# Indices 1 2 3 4 5 6 
#
# 1 91.3304 33.4801 50.9255 -18.4925 13.6777 -17.0826
# 2 33.4801 106.8601 64.7744 -12.3785 15.5657 -10.5653
# 3 50.9255 64.7744 147.2336 -19.0421 28.8981 -5.7296
# 4 -18.4925 -12.3785 -19.0421 37.1236 -7.4998 6.3968
# 5 13.6777 15.5657 28.8981 -7.4998 57.0530 0.5564
# 6 -17.0826 -10.5653 -5.7296 6.3968 0.5564 33.1433
#
#
#
# Elastic Compliance Matrix: (Units=1/GPa)
#
#
# Indices 1 2 3 4 5 6 
#
# 1 0.015761 -0.001341 -0.003896 0.004137 -0.000956 0.006240
# 2 -0.001341 0.013268 -0.005065 0.000579 -0.000682 0.002562
# 3 -0.003896 -0.005065 0.011124 0.001802 -0.003062 -0.001996
# 4 0.004137 0.000579 0.001802 0.031120 0.002062 -0.003412
# 5 -0.000956 -0.000682 -0.003062 0.002062 0.019784 -0.001970
# 6 0.006240 0.002562 -0.001996 -0.003412 -0.001970 0.034552
#
#
# Mechanical properties :
#
#
# Convention : Reuss Voigt Hill
#
# Bulk Modulus (GPa) = 51.15170 71.53155 61.34163
# Shear Modulus (GPa) = 32.73758 38.54693 35.64226
#
# Velocity S-wave (km/s) = 3.84833 4.17584 4.01543
# Velocity P-wave (km/s) = 6.54874 7.45717 7.01767
#
# Compressibility (1/GPa) = 0.01954969
#
# Stress axis : x y z
#
# Youngs Moduli (GPa) = 63.44637 75.36882 89.89436
#
# Poissons Ratio (x) = 0.10107 0.35022
# Poissons Ratio (y) = 0.08508 0.45531
# Poissons Ratio (z) = 0.24718 0.38174
#
# Static dielectric constant tensor:
#      x y z
#    x 1.904110 0.035220 0.028670 
#    y 0.035220 1.804750 0.011260 
#    z 0.028670 0.011260 1.810910 
# 
# From -- ./inp_files/403474.got.cif
#   From: 2010.05.17/outbox.cif.g08.bks.cpg/sg2_202_cif.got.tgz:403474.got - 2010.06.03 11:33:40.
