data_PCOD9065200
_publ_section_title
;
Structure prediction by ZEFSAII (Michael W. Deem and Ramdas Pophale) SiO2 
 PCOD9065200
Probable space group: P -1
;
_chemical_formula_sum "Si O2"
_cell_formula_units_Z 16
_cell_length_a 9.313433
_cell_length_b 15.347167
_cell_length_c 7.300322
_cell_angle_alpha 91.520667
_cell_angle_beta 82.032676
_cell_angle_gamma 142.699680
_cell_volume 620.108252
_symmetry_space_group_name_H-M "P -1"
_symmetry_group_IT_number 2
_symmetry_cell_setting 'triclinic'
loop_
_space_group_symop_operation_xyz
x,y,z
-x,-y,-z
loop_
_atom_site_type_symbol
_atom_site_label
_atom_site_fract_x
_atom_site_fract_y
_atom_site_fract_z
Si Si1 0.460034 0.087960 0.824227
Si Si2 0.531838 0.719203 0.297899
Si Si3 0.978217 0.281478 0.864875
Si Si4 0.270950 0.195107 0.319415
Si Si5 0.220634 0.577632 0.837882
Si Si6 0.993468 0.585448 0.622743
Si Si7 0.056217 0.795394 0.717467
Si Si8 0.958334 0.082140 0.815003
O O1 0.524602 0.206592 0.713384
O O2 0.697599 0.170493 0.888115
O O3 0.330818 0.957760 0.706834
O O4 0.248341 0.007374 0.002084
O O5 0.607786 0.737340 0.496814
O O6 0.290148 0.552104 0.275118
O O7 0.780494 0.820923 0.152597
O O8 0.008216 0.204786 0.749237
O O9 0.133913 0.439534 0.781168
O O10 0.027797 0.284069 0.072276
O O11 0.504054 0.301886 0.150585
O O12 0.102410 0.196400 0.304378
O O13 0.130133 0.035925 0.312072
O O14 0.209938 0.659997 0.722219
O O15 0.000000 0.500000 0.000000
O O16 0.041628 0.708104 0.574976
O O17 0.000000 0.500000 0.500000
#
# Coordination Sequence:
#
# PCOD9065200 Si02
#       8
#     2   2   2   2   2   2   2   2
#     4  11  24  47  74 106 140 184 242 295 346 417
#     4  12  26  47  70 102 147 188 232 291 358 417
#     4  11  25  44  75 108 137 182 244 296 349 411
#     4  12  28  46  70 106 151 184 231 295 358 425
#     4  12  25  46  72 105 138 188 241 291 350 417
#     4  12  27  48  72 100 144 189 234 292 357 423
#     4  11  26  45  72 104 144 182 238 289 359 414
#     4  11  25  44  74 105 140 189 234 293 350 421
#
# _framework density 25.801946999999998
#
# number of rings (size 3 to 8) (size 9 to 14) (size 15 to 20)
#    0.000    0.500    5.000    3.000    5.250    2.000 
#    0.000    1.250    0.000    0.000    0.000    0.000 
#    0.000    0.000    0.000    0.000    0.000    0.000 
#
# Total GULP energy -89459.579464 kJ/mol
# GULP energy per Si atom -5591.223716 kJ/mol
# Density = 2.574322 g / cm^3
# Si number density = 25.801947 Si / 1000 Ang^3
#
#
#
# Elastic Constant Matrix: (Units=GPa)
#
#
# Indices 1 2 3 4 5 6 
#
# 1 173.8100 73.9758 41.1733 21.6080 10.0034 -17.5909
# 2 73.9758 192.1685 15.8171 12.9515 -7.4255 -21.1800
# 3 41.1733 15.8171 54.2541 11.1950 -2.5978 -3.1687
# 4 21.6080 12.9515 11.1950 23.2955 2.0618 -3.0878
# 5 10.0034 -7.4255 -2.5978 2.0618 46.4745 -4.7862
# 6 -17.5909 -21.1800 -3.1687 -3.0878 -4.7862 67.6220
#
#
#
# Elastic Compliance Matrix: (Units=1/GPa)
#
#
# Indices 1 2 3 4 5 6 
#
# 1 0.008840 -0.002712 -0.005181 -0.003879 -0.002365 0.000863
# 2 -0.002712 0.006520 0.000615 -0.001381 0.001869 0.001435
# 3 -0.005181 0.000615 0.023807 -0.007252 0.002848 -0.000169
# 4 -0.003879 -0.001381 -0.007252 0.051009 -0.002012 0.000405
# 5 -0.002365 0.001869 0.002848 -0.002012 0.022740 0.001621
# 6 0.000863 0.001435 -0.000169 0.000405 0.001621 0.015587
#
#
# Mechanical properties :
#
#
# Convention : Reuss Voigt Hill
#
# Bulk Modulus (GPa) = 40.62857 75.79609 58.21233
# Shear Modulus (GPa) = 33.05479 46.76283 39.90881
#
# Velocity S-wave (km/s) = 3.58312 4.26182 3.93712
# Velocity P-wave (km/s) = 5.73575 7.32512 6.57861
#
# Compressibility (1/GPa) = 0.02461322
#
# Stress axis : x y z
#
# Youngs Moduli (GPa) = 113.11635 153.36531 42.00431
#
# Poissons Ratio (x) = 0.41585 0.21762
# Poissons Ratio (y) = 0.30672 -0.02583
# Poissons Ratio (z) = 0.58604 -0.09433
#
# Static dielectric constant tensor:
#      x y z
#    x 1.955610 -0.026450 -0.011950 
#    y -0.026450 1.956300 0.046060 
#    z -0.011950 0.046060 2.337310 
# 
# From -- ./inp_files/206819.got.cif
#   From: 2010.05.17/outbox.cif.g08.bks.cpg/sg2_104_cif.got.tgz:206819.got - 2010.06.03 11:33:40.
