data_PCOD9065395
_publ_section_title
;
Structure prediction by ZEFSAII (Michael W. Deem and Ramdas Pophale) SiO2 
 PCOD9065395
Probable space group: P -1
;
_chemical_formula_sum "Si O2"
_cell_formula_units_Z 16
_cell_length_a 14.695898
_cell_length_b 8.678221
_cell_length_c 10.869641
_cell_angle_alpha 31.266800
_cell_angle_beta 107.905194
_cell_angle_gamma 97.680192
_cell_volume 660.828329
_symmetry_space_group_name_H-M "P -1"
_symmetry_group_IT_number 2
_symmetry_cell_setting 'triclinic'
loop_
_space_group_symop_operation_xyz
x,y,z
-x,-y,-z
loop_
_atom_site_type_symbol
_atom_site_label
_atom_site_fract_x
_atom_site_fract_y
_atom_site_fract_z
Si Si1 0.765185 0.194292 0.679790
Si Si2 0.253698 0.262343 0.517110
Si Si3 0.760835 0.553966 0.054157
Si Si4 0.018590 0.842039 0.255492
Si Si5 0.542584 0.184273 0.992818
Si Si6 0.377133 0.627978 0.716822
Si Si7 0.082296 0.914799 0.699832
Si Si8 0.382514 0.249084 0.356273
O O1 0.761071 0.412149 0.644937
O O2 0.665523 0.318208 0.475481
O O3 0.864707 0.207128 0.642066
O O4 0.775870 0.834675 0.949650
O O5 0.287136 0.303163 0.366642
O O6 0.350878 0.018407 0.780595
O O7 0.157913 0.133708 0.577668
O O8 0.663634 0.658568 0.858597
O O9 0.725368 0.322643 0.285489
O O10 0.851276 0.411583 0.099493
O O11 0.000000 0.500000 0.500000
O O12 0.960815 0.051622 0.201654
O O13 0.000000 0.000000 0.000000
O O14 0.454539 0.296808 0.978448
O O15 0.557607 0.515693 0.732795
O O16 0.500000 0.000000 0.000000
O O17 0.427235 0.884836 0.613121
O O18 0.000000 0.000000 0.500000
#
# Coordination Sequence:
#
# PCOD9065395 Si02
#       8
#     2   2   2   2   2   2   2   2
#     4  11  27  45  76 108 153 198 258 326 397 481
#     4  12  26  49  73 112 154 197 259 323 392 481
#     4  11  26  47  75 109 146 204 249 330 390 479
#     4  12  30  51  82 121 163 217 273 342 422 491
#     4  12  26  45  74 111 149 202 255 323 394 475
#     4  11  24  48  72 107 152 197 263 313 395 481
#     4  12  27  52  82 113 161 207 275 332 412 489
#     4  11  25  45  73 108 151 200 251 314 399 468
#
# _framework density 24.212036999999999
#
# number of rings (size 3 to 8) (size 9 to 14) (size 15 to 20)
#    0.000    0.500    5.000    1.125    8.750    5.000 
#    0.000    0.000    0.000    0.000    0.000    0.000 
#    0.000    0.000    0.000    0.000    0.000    0.000 
#
# Total GULP energy -89381.263713 kJ/mol
# GULP energy per Si atom -5586.328982 kJ/mol
# Density = 2.415693 g / cm^3
# Si number density = 24.212037 Si / 1000 Ang^3
#
#
#
# Elastic Constant Matrix: (Units=GPa)
#
#
# Indices 1 2 3 4 5 6 
#
# 1 133.2355 65.1180 37.3933 -3.4951 8.0792 2.5870
# 2 65.1180 168.3201 73.0564 -24.3640 3.0070 -1.9588
# 3 37.3933 73.0564 82.1493 -10.2448 11.1759 7.4871
# 4 -3.4951 -24.3640 -10.2448 56.9582 2.6309 6.0797
# 5 8.0792 3.0070 11.1759 2.6309 40.7048 -3.1516
# 6 2.5870 -1.9588 7.4871 6.0797 -3.1516 59.5550
#
#
#
# Elastic Compliance Matrix: (Units=1/GPa)
#
#
# Indices 1 2 3 4 5 6 
#
# 1 0.009516 -0.003181 -0.001426 -0.000944 -0.001225 -0.000307
# 2 -0.003181 0.011336 -0.008696 0.002840 0.002108 0.001426
# 3 -0.001426 -0.008696 0.021666 0.000688 -0.005323 -0.003300
# 4 -0.000944 0.002840 0.000688 0.019124 -0.001601 -0.001989
# 5 -0.001225 0.002108 -0.005323 -0.001601 0.026402 0.002352
# 6 -0.000307 0.001426 -0.003300 -0.001989 0.002352 0.017594
#
#
# Mechanical properties :
#
#
# Convention : Reuss Voigt Hill
#
# Bulk Modulus (GPa) = 62.84253 81.64893 72.24573
# Shear Modulus (GPa) = 36.35137 45.31938 40.83538
#
# Velocity S-wave (km/s) = 3.87896 4.33109 4.11125
# Velocity P-wave (km/s) = 6.78773 7.66856 7.24155
#
# Compressibility (1/GPa) = 0.01591279
#
# Stress axis : x y z
#
# Youngs Moduli (GPa) = 105.08876 88.21452 46.15517
#
# Poissons Ratio (x) = 0.28060 0.06580
# Poissons Ratio (y) = 0.33427 0.40136
# Poissons Ratio (z) = 0.14983 0.76711
#
# Static dielectric constant tensor:
#      x y z
#    x 1.977790 -0.028360 -0.006570 
#    y -0.028360 1.950480 0.002540 
#    z -0.006570 0.002540 2.020420 
# 
# From -- ./inp_files/446545.got.cif
#   From: 2010.05.17/outbox.cif.g08.bks.cpg/sg2_224_cif.got.tgz:446545.got - 2010.06.03 11:33:40.
