data_PCOD9065853
_publ_section_title
;
Structure prediction by ZEFSAII (Michael W. Deem and Ramdas Pophale) SiO2 
 PCOD9065853
Probable space group: P -1
;
_chemical_formula_sum "Si O2"
_cell_formula_units_Z 10
_cell_length_a 12.808077
_cell_length_b 5.597251
_cell_length_c 9.121370
_cell_angle_alpha 90.379946
_cell_angle_beta 44.684665
_cell_angle_gamma 92.871260
_cell_volume 458.864758
_symmetry_space_group_name_H-M "P -1"
_symmetry_group_IT_number 2
_symmetry_cell_setting 'triclinic'
loop_
_space_group_symop_operation_xyz
x,y,z
-x,-y,-z
loop_
_atom_site_type_symbol
_atom_site_label
_atom_site_fract_x
_atom_site_fract_y
_atom_site_fract_z
Si Si1 0.407720 0.178491 0.496035
Si Si2 0.460953 0.747331 0.114848
Si Si3 0.097511 0.322302 0.310429
Si Si4 0.352634 0.437589 0.837088
Si Si5 0.811465 0.030902 0.533776
O O1 0.333373 0.353071 0.688711
O O2 0.535002 0.328664 0.278145
O O3 0.279024 0.072049 0.516697
O O4 0.500000 0.000000 0.500000
O O5 0.552382 0.753228 0.173825
O O6 0.285726 0.751485 0.317071
O O7 0.500000 0.500000 0.000000
O O8 0.500000 0.000000 0.000000
O O9 0.183654 0.166012 0.342394
O O10 0.000000 0.500000 0.500000
O O11 0.206114 0.449702 0.081908
O O12 0.979916 0.134969 0.345292
#
# Coordination Sequence:
#
# PCOD9065853 Si02
#       5
#     2   2   2   2   2
#     4  11  25  45  71 103 143 188 248 295 364 431
#     4  12  23  40  75 108 139 190 246 310 359 427
#     4  11  26  45  70 105 145 187 241 301 370 430
#     4  11  25  43  71 106 141 191 241 302 360 435
#     4  11  25  44  69 105 143 189 237 304 364 439
#
# _framework density 21.792915000000001
#
# number of rings (size 3 to 8) (size 9 to 14) (size 15 to 20)
#    0.000    0.800    4.000    2.400    2.800    4.000 
#    0.000    2.000    0.000    0.000    0.000    0.000 
#    0.000    0.000    0.000    0.000    0.000    0.000 
#
# Total GULP energy -55881.282597 kJ/mol
# GULP energy per Si atom -5588.128260 kJ/mol
# Density = 2.174331 g / cm^3
# Si number density = 21.792915 Si / 1000 Ang^3
#
#
#
# Elastic Constant Matrix: (Units=GPa)
#
#
# Indices 1 2 3 4 5 6 
#
# 1 174.9118 54.9795 55.3075 -3.7664 -1.8544 20.7781
# 2 54.9795 102.7482 49.1363 -0.7327 8.9392 2.2630
# 3 55.3075 49.1363 156.2583 -11.7507 -0.3487 9.0916
# 4 -3.7664 -0.7327 -11.7507 50.6653 -0.8306 -0.1520
# 5 -1.8544 8.9392 -0.3487 -0.8306 26.7209 4.0583
# 6 20.7781 2.2630 9.0916 -0.1520 4.0583 39.1392
#
#
#
# Elastic Compliance Matrix: (Units=1/GPa)
#
#
# Indices 1 2 3 4 5 6 
#
# 1 0.007774 -0.003622 -0.001366 0.000235 0.002324 -0.003840
# 2 -0.003622 0.013605 -0.003216 -0.000897 -0.005241 0.002423
# 3 -0.001366 -0.003216 0.008093 0.001747 0.001308 -0.001097
# 4 0.000235 -0.000897 0.001747 0.020163 0.001043 -0.000509
# 5 0.002324 -0.005241 0.001308 0.001043 0.040208 -0.005400
# 6 -0.003840 0.002423 -0.001097 -0.000509 -0.005400 0.028261
#
#
# Mechanical properties :
#
#
# Convention : Reuss Voigt Hill
#
# Bulk Modulus (GPa) = 76.55708 83.64054 80.09881
# Shear Modulus (GPa) = 36.00589 41.60473 38.80531
#
# Velocity S-wave (km/s) = 4.06912 4.37406 4.22434
# Velocity P-wave (km/s) = 7.56852 7.99830 7.78638
#
# Compressibility (1/GPa) = 0.01306215
#
# Stress axis : x y z
#
# Youngs Moduli (GPa) = 128.64111 73.50252 123.56791
#
# Poissons Ratio (x) = 0.26624 0.16881
# Poissons Ratio (y) = 0.46596 0.39743
# Poissons Ratio (z) = 0.17574 0.23640
#
# Static dielectric constant tensor:
#      x y z
#    x 1.831320 0.044470 0.026290 
#    y 0.044470 1.845670 0.005640 
#    z 0.026290 0.005640 1.878850 
# 
# From -- ./inp_files/16077.got.cif
#   From: 2010.05.17/outbox.cif.g08.bks.cpg/sg2_9_cif.got.tgz:16077.got - 2010.06.03 11:33:40.
