data_PCOD9065337
_publ_section_title
;
Structure prediction by ZEFSAII (Michael W. Deem and Ramdas Pophale) SiO2 
 PCOD9065337
Probable space group: P -1
;
_chemical_formula_sum "Si O2"
_cell_formula_units_Z 14
_cell_length_a 9.758093
_cell_length_b 13.129840
_cell_length_c 7.918762
_cell_angle_alpha 73.507650
_cell_angle_beta 66.384713
_cell_angle_gamma 122.262405
_cell_volume 602.437456
_symmetry_space_group_name_H-M "P -1"
_symmetry_group_IT_number 2
_symmetry_cell_setting 'triclinic'
loop_
_space_group_symop_operation_xyz
x,y,z
-x,-y,-z
loop_
_atom_site_type_symbol
_atom_site_label
_atom_site_fract_x
_atom_site_fract_y
_atom_site_fract_z
Si Si1 0.088806 0.816997 0.071828
Si Si2 0.545540 0.124956 0.301629
Si Si3 0.818595 0.013810 0.731008
Si Si4 0.299267 0.525076 0.434138
Si Si5 0.828442 0.370410 0.288078
Si Si6 0.129995 0.345243 0.271512
Si Si7 0.214803 0.238696 0.000889
O O1 0.855856 0.647706 0.331242
O O2 0.009101 0.853424 0.947049
O O3 0.224046 0.949704 0.086293
O O4 0.235486 0.796178 0.945416
O O5 0.362054 0.058444 0.288800
O O6 0.603094 0.245706 0.351055
O O7 0.500000 0.000000 0.500000
O O8 0.825684 0.892897 0.820375
O O9 0.037664 0.190610 0.479088
O O10 0.208027 0.580808 0.548586
O O11 0.257582 0.488894 0.270512
O O12 0.561733 0.656807 0.266802
O O13 0.921347 0.304778 0.330009
O O14 0.000000 0.500000 0.000000
O O15 0.255883 0.363265 0.040812
#
# Coordination Sequence:
#
# PCOD9065337 Si02
#       7
#     2   2   2   2   2   2   2
#     4  11  24  48  69 101 145 177 229 291 342 410
#     4  12  24  45  72  99 140 182 233 284 345 405
#     4  11  26  43  70 106 136 182 231 285 346 409
#     4  11  26  43  70 106 136 182 231 285 346 409
#     4  12  24  45  72  99 140 182 233 284 345 405
#     4  11  24  48  69 101 145 177 229 291 342 410
#     4  12  24  46  72 104 138 186 228 282 352 412
#
# _framework density 23.238924999999998
#
# number of rings (size 3 to 8) (size 9 to 14) (size 15 to 20)
#    0.000    0.571    4.286    2.571    4.000    2.286 
#   10.286    0.000    0.000    0.000    0.000    0.000 
#    0.000    0.000    0.000    0.000    0.000    0.000 
#
# Total GULP energy -78223.224334 kJ/mol
# GULP energy per Si atom -5587.373167 kJ/mol
# Density = 2.318603 g / cm^3
# Si number density = 23.238925 Si / 1000 Ang^3
#
#
#
# Elastic Constant Matrix: (Units=GPa)
#
#
# Indices 1 2 3 4 5 6 
#
# 1 51.3412 19.6140 -13.1711 3.0749 11.8518 -5.8079
# 2 19.6140 138.9179 8.1248 15.7714 4.7206 -6.5347
# 3 -13.1711 8.1248 36.2854 8.4489 -5.9411 -15.6476
# 4 3.0749 15.7714 8.4489 32.0052 -3.6516 -6.5709
# 5 11.8518 4.7206 -5.9411 -3.6516 29.6258 5.4254
# 6 -5.8079 -6.5347 -15.6476 -6.5709 5.4254 41.7270
#
#
#
# Elastic Compliance Matrix: (Units=1/GPa)
#
#
# Indices 1 2 3 4 5 6 
#
# 1 0.028145 -0.003583 0.014358 -0.003937 -0.010020 0.009423
# 2 -0.003583 0.008223 -0.002806 -0.003186 -0.000709 -0.000673
# 3 0.014358 -0.002806 0.042091 -0.007871 -0.000794 0.016207
# 4 -0.003937 -0.003186 -0.007871 0.036030 0.004752 0.001057
# 5 -0.010020 -0.000709 -0.000794 0.004752 0.039434 -0.006183
# 6 0.009423 -0.000673 0.016207 0.001057 -0.006183 0.032220
#
#
# Mechanical properties :
#
#
# Convention : Reuss Voigt Hill
#
# Bulk Modulus (GPa) = 10.59349 28.40888 19.50119
# Shear Modulus (GPa) = 24.79302 34.80340 29.79821
#
# Velocity S-wave (km/s) = 3.26985 3.87413 3.58474
# Velocity P-wave (km/s) = 4.33870 5.68006 5.05407
#
# Compressibility (1/GPa) = 0.09439757
#
# Stress axis : x y z
#
# Youngs Moduli (GPa) = 35.53079 121.61573 23.75786
#
# Poissons Ratio (x) = 0.43572 -0.34112
# Poissons Ratio (y) = 0.12730 0.06667
# Poissons Ratio (z) = -0.51016 0.34126
#
# Static dielectric constant tensor:
#      x y z
#    x 1.845820 0.030010 0.019640 
#    y 0.030010 1.965040 0.024960 
#    z 0.019640 0.024960 1.942940 
# 
# From -- ./inp_files/185827.got.cif
#   From: 2010.05.17/outbox.cif.g08.bks.cpg/sg2_93_cif.got.tgz:185827.got - 2010.06.03 11:33:40.
