data_PCOD9065026
_publ_section_title
;
Structure prediction by ZEFSAII (Michael W. Deem and Ramdas Pophale) SiO2 
 PCOD9065026
Probable space group: P -1
;
_chemical_formula_sum "Si O2"
_cell_formula_units_Z 16
_cell_length_a 8.430731
_cell_length_b 11.524545
_cell_length_c 8.137257
_cell_angle_alpha 95.083228
_cell_angle_beta 88.604887
_cell_angle_gamma 125.539152
_cell_volume 640.451075
_symmetry_space_group_name_H-M "P -1"
_symmetry_group_IT_number 2
_symmetry_cell_setting 'triclinic'
loop_
_space_group_symop_operation_xyz
x,y,z
-x,-y,-z
loop_
_atom_site_type_symbol
_atom_site_label
_atom_site_fract_x
_atom_site_fract_y
_atom_site_fract_z
Si Si1 0.558781 0.021029 0.191672
Si Si2 0.747220 0.428540 0.209321
Si Si3 0.103781 0.185273 0.440143
Si Si4 0.179716 0.988610 0.292780
Si Si5 0.523829 0.281544 0.859657
Si Si6 0.844243 0.711488 0.088037
Si Si7 0.986609 0.320440 0.244155
Si Si8 0.476887 0.623871 0.465904
O O1 0.396758 0.032441 0.284505
O O2 0.531922 0.873015 0.213126
O O3 0.775199 0.163835 0.227681
O O4 0.500000 0.000000 0.000000
O O5 0.790343 0.582094 0.194340
O O6 0.937925 0.434365 0.242615
O O7 0.616064 0.359583 0.367106
O O8 0.653638 0.339183 0.030242
O O9 0.297247 0.242158 0.545612
O O10 0.913331 0.075684 0.534699
O O11 0.089525 0.312138 0.400295
O O12 0.137517 0.107914 0.281277
O O13 0.042136 0.857944 0.157987
O O14 0.333794 0.275238 0.912974
O O15 0.614438 0.382409 0.707991
O O16 0.888573 0.670533 0.909861
O O17 0.500000 0.500000 0.500000
#
# Coordination Sequence:
#
# PCOD9065026 Si02
#       8
#     2   2   2   2   2   2   2   2
#     4  12  25  45  69 107 143 187 240 295 363 426
#     4  12  26  48  71 109 146 189 239 296 361 429
#     4  11  26  45  70 105 138 187 237 294 354 424
#     4  11  24  47  68  99 146 181 238 295 351 426
#     4  12  26  46  78 105 145 193 236 302 357 429
#     4  12  24  46  72 102 140 187 242 291 354 427
#     4  12  27  43  73 103 143 189 237 297 359 427
#     4  12  26  49  75 109 143 191 245 289 364 432
#
# _framework density 24.982391
#
# number of rings (size 3 to 8) (size 9 to 14) (size 15 to 20)
#    0.000    0.250    5.000    3.000    7.000    1.500 
#    0.000    1.250    0.000    0.000    0.000    0.000 
#    0.000    0.000    0.000    0.000    0.000    0.000 
#
# Total GULP energy -89627.944059 kJ/mol
# GULP energy per Si atom -5601.746504 kJ/mol
# Density = 2.492553 g / cm^3
# Si number density = 24.982391 Si / 1000 Ang^3
#
#
#
# Elastic Constant Matrix: (Units=GPa)
#
#
# Indices 1 2 3 4 5 6 
#
# 1 150.2082 24.2925 51.9014 -23.6813 -5.3297 -8.2805
# 2 24.2925 61.6211 8.5194 -2.6788 1.8229 -9.2587
# 3 51.9014 8.5194 124.5612 -18.0209 -9.1812 4.9605
# 4 -23.6813 -2.6788 -18.0209 37.3118 8.1204 6.3708
# 5 -5.3297 1.8229 -9.1812 8.1204 43.9093 -0.9128
# 6 -8.2805 -9.2587 4.9605 6.3708 -0.9128 47.7036
#
#
#
# Elastic Compliance Matrix: (Units=1/GPa)
#
#
# Indices 1 2 3 4 5 6 
#
# 1 0.008766 -0.002761 -0.002949 0.003837 -0.000131 0.000778
# 2 -0.002761 0.017828 -0.000407 -0.001007 -0.000909 0.003140
# 3 -0.002949 -0.000407 0.009876 0.002962 0.001135 -0.001992
# 4 0.003837 -0.001007 0.002962 0.032400 -0.004954 -0.004259
# 5 -0.000131 -0.000909 0.001135 -0.004954 0.023966 0.000803
# 6 0.000778 0.003140 -0.001992 -0.004259 0.000803 0.022499
#
#
# Mechanical properties :
#
#
# Convention : Reuss Voigt Hill
#
# Bulk Modulus (GPa) = 41.25958 56.20193 48.73075
# Shear Modulus (GPa) = 36.86032 42.56342 39.71187
#
# Velocity S-wave (km/s) = 3.84533 4.13211 3.99130
# Velocity P-wave (km/s) = 6.02219 6.73136 6.38663
#
# Compressibility (1/GPa) = 0.02423679
#
# Stress axis : x y z
#
# Youngs Moduli (GPa) = 114.07620 56.09255 101.25103
#
# Poissons Ratio (x) = 0.15484 0.29862
# Poissons Ratio (y) = 0.31491 0.04119
# Poissons Ratio (z) = 0.33645 0.02282
#
# Static dielectric constant tensor:
#      x y z
#    x 1.916370 -0.008970 -0.013230 
#    y -0.008970 2.062080 0.016700 
#    z -0.013230 0.016700 2.020840 
# 
# From -- ./inp_files/187677.got.cif
#   From: 2010.05.17/outbox.cif.g08.bks.cpg/sg2_94_cif.got.tgz:187677.got - 2010.06.03 11:33:40.
