data_PCOD9065391
_publ_section_title
;
Structure prediction by ZEFSAII (Michael W. Deem and Ramdas Pophale) SiO2 
 PCOD9065391
Probable space group: P -1
;
_chemical_formula_sum "Si O2"
_cell_formula_units_Z 14
_cell_length_a 10.925104
_cell_length_b 22.334850
_cell_length_c 7.025717
_cell_angle_alpha 42.099640
_cell_angle_beta 141.721421
_cell_angle_gamma 148.489602
_cell_volume 540.882102
_symmetry_space_group_name_H-M "P -1"
_symmetry_group_IT_number 2
_symmetry_cell_setting 'triclinic'
loop_
_space_group_symop_operation_xyz
x,y,z
-x,-y,-z
loop_
_atom_site_type_symbol
_atom_site_label
_atom_site_fract_x
_atom_site_fract_y
_atom_site_fract_z
Si Si1 0.583760 0.931857 0.168839
Si Si2 0.268306 0.241219 0.651697
Si Si3 0.602096 0.524007 0.847608
Si Si4 0.255838 0.870428 0.575018
Si Si5 0.063134 0.325598 0.644298
Si Si6 0.831836 0.840646 0.697283
Si Si7 0.202917 0.585710 0.876044
O O1 0.642208 0.856788 0.526871
O O2 0.357657 0.851818 0.930745
O O3 0.872632 0.040665 0.189663
O O4 0.500000 0.000000 0.000000
O O5 0.255680 0.342406 0.340063
O O6 0.254520 0.183256 0.574151
O O7 0.997693 0.143941 0.658804
O O8 0.524492 0.310071 0.931378
O O9 0.323804 0.439993 0.597156
O O10 0.500000 0.500000 0.000000
O O11 0.750371 0.479410 0.065156
O O12 0.160649 0.770855 0.543418
O O13 0.500000 0.000000 0.500000
O O14 0.932670 0.368099 0.498473
O O15 0.162999 0.261463 0.002853
O O16 0.000000 0.500000 0.000000
#
# Coordination Sequence:
#
# PCOD9065391 Si02
#       7
#     2   2   2   2   2   2   2
#     4  11  24  48  72 106 145 200 249 316 385 453
#     4  12  24  49  75 111 157 203 255 323 387 468
#     4  12  26  48  77 115 159 203 263 325 392 468
#     4  12  25  47  77 109 150 202 262 314 391 467
#     4  12  25  49  72 115 154 201 258 319 389 469
#     4  11  25  45  74 108 151 194 253 319 382 460
#     4  12  26  47  80 114 158 212 260 320 393 467
#
# _framework density 25.883642999999999
#
# number of rings (size 3 to 8) (size 9 to 14) (size 15 to 20)
#    0.000    0.286    7.143    2.143    0.000    1.714 
#    0.000    3.571    0.000    0.000    0.000    0.000 
#    0.000    0.000    0.000    0.000    0.000    0.000 
#
# Total GULP energy -78301.756377 kJ/mol
# GULP energy per Si atom -5592.982598 kJ/mol
# Density = 2.582473 g / cm^3
# Si number density = 25.883643 Si / 1000 Ang^3
#
#
#
# Elastic Constant Matrix: (Units=GPa)
#
#
# Indices 1 2 3 4 5 6 
#
# 1 124.3933 42.9021 63.8435 -6.0922 31.3765 -11.5318
# 2 42.9021 147.0053 39.2086 23.2142 11.9211 3.5307
# 3 63.8435 39.2086 176.1337 -9.9755 48.7565 -8.8226
# 4 -6.0922 23.2142 -9.9755 46.5154 -9.5946 9.9537
# 5 31.3765 11.9211 48.7565 -9.5946 50.6441 -0.6422
# 6 -11.5318 3.5307 -8.8226 9.9537 -0.6422 57.2170
#
#
#
# Elastic Compliance Matrix: (Units=1/GPa)
#
#
# Indices 1 2 3 4 5 6 
#
# 1 0.011331 -0.002590 -0.002270 0.001066 -0.004000 0.001863
# 2 -0.002590 0.008686 -0.001244 -0.004891 -0.000174 -0.000401
# 3 -0.002270 -0.001244 0.008650 0.000676 -0.006491 0.000763
# 4 0.001066 -0.004891 0.000676 0.026022 0.004721 -0.003853
# 5 -0.004000 -0.000174 -0.006491 0.004721 0.029379 -0.002288
# 6 0.001863 -0.000401 0.000763 -0.003853 -0.002288 0.018640
#
#
# Mechanical properties :
#
#
# Convention : Reuss Voigt Hill
#
# Bulk Modulus (GPa) = 60.75065 82.16007 71.45536
# Shear Modulus (GPa) = 41.52720 50.98049 46.25385
#
# Velocity S-wave (km/s) = 4.00982 4.44284 4.23187
# Velocity P-wave (km/s) = 6.70521 7.62426 7.17946
#
# Compressibility (1/GPa) = 0.01646073
#
# Stress axis : x y z
#
# Youngs Moduli (GPa) = 88.25260 115.12453 115.60138
#
# Poissons Ratio (x) = 0.29821 0.26238
# Poissons Ratio (y) = 0.22860 0.14375
# Poissons Ratio (z) = 0.20031 0.14316
#
# Static dielectric constant tensor:
#      x y z
#    x 2.150790 -0.002510 -0.061160 
#    y -0.002510 2.125720 -0.087810 
#    z -0.061160 -0.087810 2.144290 
# 
# From -- ./inp_files/100648.got.cif
#   From: 2010.05.17/outbox.cif.g08.bks.cpg/sg2_51_cif.got.tgz:100648.got - 2010.06.03 11:33:40.
