data_PCOD9065011
_publ_section_title
;
Structure prediction by ZEFSAII (Michael W. Deem and Ramdas Pophale) SiO2 
 PCOD9065011
Probable space group: P -1
;
_chemical_formula_sum "Si O2"
_cell_formula_units_Z 16
_cell_length_a 5.416650
_cell_length_b 9.389999
_cell_length_c 17.947824
_cell_angle_alpha 82.052388
_cell_angle_beta 87.186371
_cell_angle_gamma 50.734533
_cell_volume 699.094627
_symmetry_space_group_name_H-M "P -1"
_symmetry_group_IT_number 2
_symmetry_cell_setting 'triclinic'
loop_
_space_group_symop_operation_xyz
x,y,z
-x,-y,-z
loop_
_atom_site_type_symbol
_atom_site_label
_atom_site_fract_x
_atom_site_fract_y
_atom_site_fract_z
Si Si1 0.646440 0.846440 0.573814
Si Si2 0.986153 0.272842 0.820503
Si Si3 0.131309 0.109844 0.992925
Si Si4 0.578502 0.398506 0.427618
Si Si5 0.205204 0.548998 0.951302
Si Si6 0.421485 0.692635 0.299182
Si Si7 0.425279 0.006264 0.278814
Si Si8 0.981013 0.427847 0.208862
O O1 0.552097 0.715779 0.567747
O O2 0.487392 0.944664 0.649247
O O3 0.033498 0.732285 0.580207
O O4 0.500000 0.000000 0.500000
O O5 0.024837 0.220196 0.909271
O O6 0.832213 0.489691 0.806495
O O7 0.769631 0.246953 0.778820
O O8 0.317185 0.130323 0.779324
O O9 0.007052 0.231192 0.059870
O O10 0.500000 0.000000 0.000000
O O11 0.000000 0.000000 0.000000
O O12 0.500000 0.500000 0.500000
O O13 0.374868 0.572976 0.360754
O O14 0.233894 0.495465 0.868946
O O15 0.500000 0.500000 0.000000
O O16 0.000000 0.500000 0.000000
O O17 0.782324 0.533811 0.278269
O O18 0.335180 0.879714 0.318687
O O19 0.173483 0.210119 0.231641
#
# Coordination Sequence:
#
# PCOD9065011 Si02
#       8
#     2   2   2   2   2   2   2   2
#     4  12  27  49  78 113 151 193 246 296 355 438
#     4  11  26  44  72 100 148 194 240 309 366 434
#     4  12  27  47  70 104 142 188 247 306 369 435
#     4  12  27  49  79 110 155 194 237 302 362 426
#     4  12  25  45  72  99 139 188 242 300 365 431
#     4  11  26  45  72 107 149 191 243 298 366 431
#     4  11  26  45  73 109 145 194 245 296 363 433
#     4  11  24  47  68 102 144 190 242 303 364 435
#
# _framework density 22.886745000000001
#
# number of rings (size 3 to 8) (size 9 to 14) (size 15 to 20)
#    0.000    0.500    2.500    4.500   10.500    1.000 
#    0.000    0.000    0.000    0.000    0.000    0.000 
#    0.000    0.000    0.000    0.000    0.000    0.000 
#
# Total GULP energy -89228.947855 kJ/mol
# GULP energy per Si atom -5576.809241 kJ/mol
# Density = 2.283465 g / cm^3
# Si number density = 22.886745 Si / 1000 Ang^3
#
#
#
# Elastic Constant Matrix: (Units=GPa)
#
#
# Indices 1 2 3 4 5 6 
#
# 1 119.2031 49.5093 11.5360 -5.3809 4.6908 29.9424
# 2 49.5093 142.9226 30.1607 -9.8208 -3.3810 37.7568
# 3 11.5360 30.1607 126.7654 -3.9853 3.6105 21.2882
# 4 -5.3809 -9.8208 -3.9853 43.1610 8.9234 3.7010
# 5 4.6908 -3.3810 3.6105 8.9234 33.0747 -1.6734
# 6 29.9424 37.7568 21.2882 3.7010 -1.6734 51.3837
#
#
#
# Elastic Compliance Matrix: (Units=1/GPa)
#
#
# Indices 1 2 3 4 5 6 
#
# 1 0.010784 -0.002501 0.000564 0.001779 -0.002574 -0.004892
# 2 -0.002501 0.009663 -0.001132 0.002107 0.000629 -0.005306
# 3 0.000564 -0.001132 0.008740 0.001240 -0.001650 -0.003261
# 4 0.001779 0.002107 0.001240 0.025971 -0.007443 -0.005212
# 5 -0.002574 0.000629 -0.001650 -0.007443 0.033021 0.003333
# 6 -0.004892 -0.005306 -0.003261 -0.005212 0.003333 0.028046
#
#
# Mechanical properties :
#
#
# Convention : Reuss Voigt Hill
#
# Bulk Modulus (GPa) = 43.38443 63.47811 53.43127
# Shear Modulus (GPa) = 38.44834 45.36955 41.90894
#
# Velocity S-wave (km/s) = 4.10315 4.45719 4.28383
# Velocity P-wave (km/s) = 6.43779 7.36781 6.91845
#
# Compressibility (1/GPa) = 0.02304974
#
# Stress axis : x y z
#
# Youngs Moduli (GPa) = 92.73393 103.48386 114.41329
#
# Poissons Ratio (x) = 0.25880 -0.06458
# Poissons Ratio (y) = 0.23192 0.12955
# Poissons Ratio (z) = -0.05235 0.11717
#
# Static dielectric constant tensor:
#      x y z
#    x 1.919110 -0.050140 -0.071110 
#    y -0.050140 1.903430 -0.007400 
#    z -0.071110 -0.007400 1.860730 
# 
# From -- ./inp_files/548037.got.cif
#   From: 2010.05.17/outbox.cif.g08.bks.cpg/sg2_275_cif.got.tgz:548037.got - 2010.06.03 11:33:40.
