data_PCOD9065280
_publ_section_title
;
Structure prediction by ZEFSAII (Michael W. Deem and Ramdas Pophale) SiO2 
 PCOD9065280
Probable space group: P -1
;
_chemical_formula_sum "Si O2"
_cell_formula_units_Z 16
_cell_length_a 8.627084
_cell_length_b 14.569467
_cell_length_c 20.407197
_cell_angle_alpha 22.613593
_cell_angle_beta 46.478125
_cell_angle_gamma 43.387993
_cell_volume 675.978387
_symmetry_space_group_name_H-M "P -1"
_symmetry_group_IT_number 2
_symmetry_cell_setting 'triclinic'
loop_
_space_group_symop_operation_xyz
x,y,z
-x,-y,-z
loop_
_atom_site_type_symbol
_atom_site_label
_atom_site_fract_x
_atom_site_fract_y
_atom_site_fract_z
Si Si1 0.284885 0.926226 0.684227
Si Si2 0.958158 0.743172 0.707567
Si Si3 0.218374 0.761211 0.095434
Si Si4 0.193566 0.287582 0.365090
Si Si5 0.891823 0.772270 0.935412
Si Si6 0.345766 0.823893 0.162159
Si Si7 0.442186 0.091480 0.180392
Si Si8 0.265552 0.332158 0.537957
O O1 0.542563 0.801941 0.670498
O O2 0.152711 0.733800 0.867127
O O3 0.154512 0.065432 0.564935
O O4 0.293706 0.127644 0.605509
O O5 0.934156 0.624761 0.722582
O O6 0.729480 0.828987 0.760803
O O7 0.000000 0.000000 0.500000
O O8 0.123650 0.500845 0.858463
O O9 0.141858 0.519238 0.275583
O O10 0.319860 0.782154 0.121409
O O11 0.395330 0.751060 0.992829
O O12 0.000000 0.000000 0.000000
O O13 0.853505 0.988643 0.859690
O O14 0.718681 0.889751 0.848882
O O15 0.397368 0.538606 0.360444
O O16 0.500000 0.000000 0.000000
O O17 0.629917 0.829102 0.321488
O O18 0.000000 0.500000 0.500000
#
# Coordination Sequence:
#
# PCOD9065280 Si02
#       8
#     2   2   2   2   2   2   2   2
#     4  11  24  47  77 111 149 198 257 315 382 456
#     4  12  28  49  78 113 153 202 257 318 393 461
#     4  12  26  46  73 109 148 199 255 311 381 454
#     4  11  25  45  77 109 149 198 256 317 377 452
#     4  12  27  49  76 110 155 200 257 314 389 465
#     4  12  26  48  72 105 154 202 247 318 378 455
#     4  12  28  47  75 112 155 198 249 321 383 455
#     4  12  25  49  79 110 152 202 264 316 382 461
#
# _framework density 23.669395999999999
#
# number of rings (size 3 to 8) (size 9 to 14) (size 15 to 20)
#    0.000    0.250    5.000    3.375    3.500    3.500 
#    2.250    0.000    0.000    0.000    0.000    0.000 
#    0.000    0.000    0.000    0.000    0.000    0.000 
#
# Total GULP energy -89257.691133 kJ/mol
# GULP energy per Si atom -5578.605696 kJ/mol
# Density = 2.361552 g / cm^3
# Si number density = 23.669396 Si / 1000 Ang^3
#
#
#
# Elastic Constant Matrix: (Units=GPa)
#
#
# Indices 1 2 3 4 5 6 
#
# 1 85.3234 18.5913 46.7208 -6.6844 27.2921 7.9253
# 2 18.5913 69.7292 26.7066 -8.1842 4.9330 7.0952
# 3 46.7208 26.7066 158.2355 -1.5002 17.8405 5.4682
# 4 -6.6844 -8.1842 -1.5002 37.5397 -1.8972 1.7048
# 5 27.2921 4.9330 17.8405 -1.8972 35.1484 -0.4947
# 6 7.9253 7.0952 5.4682 1.7048 -0.4947 29.3442
#
#
#
# Elastic Compliance Matrix: (Units=1/GPa)
#
#
# Indices 1 2 3 4 5 6 
#
# 1 0.018641 -0.002018 -0.003610 0.002305 -0.012294 -0.004215
# 2 -0.002018 0.016354 -0.002074 0.003292 0.000457 -0.003206
# 3 -0.003610 -0.002074 0.007830 -0.000831 -0.000925 0.000050
# 4 0.002305 0.003292 -0.000831 0.027846 -0.000368 -0.002888
# 5 -0.012294 0.000457 -0.000925 -0.000368 0.038439 0.004051
# 6 -0.004215 -0.003206 0.000050 -0.002888 0.004051 0.036219
#
#
# Mechanical properties :
#
#
# Convention : Reuss Voigt Hill
#
# Bulk Modulus (GPa) = 36.46802 55.25839 45.86321
# Shear Modulus (GPa) = 29.43381 35.15775 32.29578
#
# Velocity S-wave (km/s) = 3.53021 3.85823 3.69786
# Velocity P-wave (km/s) = 5.66191 6.57605 6.13603
#
# Compressibility (1/GPa) = 0.02742128
#
# Stress axis : x y z
#
# Youngs Moduli (GPa) = 53.64540 61.14766 127.71149
#
# Poissons Ratio (x) = 0.12342 0.46100
# Poissons Ratio (y) = 0.10828 0.26484
# Poissons Ratio (z) = 0.19364 0.12681
#
# Static dielectric constant tensor:
#      x y z
#    x 1.890760 -0.032330 -0.028880 
#    y -0.032330 2.039520 0.057000 
#    z -0.028880 0.057000 1.927390 
# 
# From -- ./inp_files/590387.got.cif
#   From: 2010.05.17/outbox.cif.g08.bks.cpg/sg2_296_cif.got.tgz:590387.got - 2010.06.03 11:33:40.
