data_PCOD9065358
_publ_section_title
;
Structure prediction by ZEFSAII (Michael W. Deem and Ramdas Pophale) SiO2 
 PCOD9065358
Probable space group: P -1
;
_chemical_formula_sum "Si O2"
_cell_formula_units_Z 13
_cell_length_a 11.219085
_cell_length_b 10.713283
_cell_length_c 10.722710
_cell_angle_alpha 39.909547
_cell_angle_beta 49.202915
_cell_angle_gamma 67.802912
_cell_volume 605.422404
_symmetry_space_group_name_H-M "P -1"
_symmetry_group_IT_number 2
_symmetry_cell_setting 'triclinic'
loop_
_space_group_symop_operation_xyz
x,y,z
-x,-y,-z
loop_
_atom_site_type_symbol
_atom_site_label
_atom_site_fract_x
_atom_site_fract_y
_atom_site_fract_z
Si Si1 0.839164 0.073072 0.084058
Si Si2 0.000000 0.500000 0.000000
Si Si3 0.527053 0.666716 0.044420
Si Si4 0.662337 0.731831 0.644387
Si Si5 0.744675 0.155125 0.823216
Si Si6 0.056144 0.458154 0.288832
Si Si7 0.865638 0.853593 0.791295
O O1 0.740697 0.937032 0.364294
O O2 0.741538 0.052450 0.037935
O O3 0.884282 0.306597 0.906949
O O4 0.000000 0.000000 0.000000
O O5 0.019266 0.431129 0.186860
O O6 0.049019 0.293390 0.078962
O O7 0.439478 0.433571 0.255717
O O8 0.418479 0.769353 0.127680
O O9 0.549773 0.755824 0.819703
O O10 0.706014 0.711574 0.944306
O O11 0.805555 0.643913 0.673776
O O12 0.893245 0.354061 0.555766
O O13 0.789116 0.003427 0.810892
O O14 0.000000 0.000000 0.500000
#
# Coordination Sequence:
#
# PCOD9065358 Si02
#       7
#     2   1   2   2   2   2   2
#     4  12  24  41  75 108 140 195 239 286 360 423
#     4  12  26  44  78 104 132 198 248 284 362 426
#     4  11  25  47  73 106 152 187 231 309 359 415
#     4  11  24  48  71 105 154 186 235 294 356 430
#     4  12  24  46  73 110 149 185 238 303 357 423
#     4  12  24  46  73 108 143 187 245 292 347 436
#     4  12  26  51  73 101 142 190 246 297 357 433
#
# _framework density 21.472611000000001
#
# number of rings (size 3 to 8) (size 9 to 14) (size 15 to 20)
#    0.000    0.308    6.154    2.769    2.154    0.615 
#    2.769    1.538    0.000    0.000    0.000    0.000 
#    0.000    0.000    0.000    0.000    0.000    0.000 
#
# Total GULP energy -72424.364164 kJ/mol
# GULP energy per Si atom -5571.104936 kJ/mol
# Density = 2.142374 g / cm^3
# Si number density = 21.472611 Si / 1000 Ang^3
#
#
#
# Elastic Constant Matrix: (Units=GPa)
#
#
# Indices 1 2 3 4 5 6 
#
# 1 69.5569 6.0981 38.7445 -5.5363 4.1670 -15.9119
# 2 6.0981 110.9451 50.5688 8.2137 1.1407 -18.2057
# 3 38.7445 50.5688 138.8970 -19.2507 -0.6080 -14.5861
# 4 -5.5363 8.2137 -19.2507 24.9317 -5.0790 -0.1795
# 5 4.1670 1.1407 -0.6080 -5.0790 24.7458 8.6752
# 6 -15.9119 -18.2057 -14.5861 -0.1795 8.6752 33.5032
#
#
#
# Elastic Compliance Matrix: (Units=1/GPa)
#
#
# Indices 1 2 3 4 5 6 
#
# 1 0.020447 0.004026 -0.006504 -0.003445 -0.008433 0.011232
# 2 0.004026 0.014089 -0.006845 -0.010296 -0.006488 0.008212
# 3 -0.006504 -0.006845 0.012906 0.011776 0.004993 -0.002420
# 4 -0.003445 -0.010296 0.011776 0.054750 0.014536 -0.005575
# 5 -0.008433 -0.006488 0.004993 0.014536 0.051788 -0.018689
# 6 0.011232 0.008212 -0.002420 -0.005575 -0.018689 0.043401
#
#
# Mechanical properties :
#
#
# Convention : Reuss Voigt Hill
#
# Bulk Modulus (GPa) = 34.72892 56.69133 45.71012
# Shear Modulus (GPa) = 22.16056 31.56864 26.86460
#
# Velocity S-wave (km/s) = 3.21602 3.83845 3.54094
# Velocity P-wave (km/s) = 5.47714 6.78999 6.16859
#
# Compressibility (1/GPa) = 0.02879445
#
# Stress axis : x y z
#
# Youngs Moduli (GPa) = 48.90641 70.97854 77.48445
#
# Poissons Ratio (x) = -0.28573 0.50396
# Poissons Ratio (y) = -0.19688 0.53040
# Poissons Ratio (z) = 0.31809 0.48586
#
# Static dielectric constant tensor:
#      x y z
#    x 1.774170 -0.040220 0.017270 
#    y -0.040220 1.855820 -0.011030 
#    z 0.017270 -0.011030 1.756400 
# 
# From -- ./inp_files/422611.got.cif
#   From: 2010.05.17/outbox.cif.g08.bks.cpg/sg2_212_cif.got.tgz:422611.got - 2010.06.03 11:33:40.
