data_PCOD9065309
_publ_section_title
;
Structure prediction by ZEFSAII (Michael W. Deem and Ramdas Pophale) SiO2 
 PCOD9065309
Probable space group: P -1
;
_chemical_formula_sum "Si O2"
_cell_formula_units_Z 13
_cell_length_a 11.935989
_cell_length_b 5.047252
_cell_length_c 10.175159
_cell_angle_alpha 95.493129
_cell_angle_beta 127.256474
_cell_angle_gamma 98.716575
_cell_volume 468.373685
_symmetry_space_group_name_H-M "P -1"
_symmetry_group_IT_number 2
_symmetry_cell_setting 'triclinic'
loop_
_space_group_symop_operation_xyz
x,y,z
-x,-y,-z
loop_
_atom_site_type_symbol
_atom_site_label
_atom_site_fract_x
_atom_site_fract_y
_atom_site_fract_z
Si Si1 0.641502 0.002094 0.967906
Si Si2 0.500000 0.500000 0.500000
Si Si3 0.012033 0.811234 0.380444
Si Si4 0.970511 0.159122 0.114050
Si Si5 0.422178 0.178811 0.644634
Si Si6 0.773408 0.356087 0.609929
Si Si7 0.692813 0.544824 0.174045
O O1 0.627693 0.226781 0.078386
O O2 0.797740 0.120166 0.009493
O O3 0.649815 0.724282 0.033575
O O4 0.510481 0.983893 0.772989
O O5 0.553516 0.386535 0.667529
O O6 0.656752 0.530806 0.538446
O O7 0.151562 0.691390 0.476592
O O8 0.863702 0.578831 0.273913
O O9 0.017827 0.000954 0.265101
O O10 0.000000 0.000000 0.500000
O O11 0.081189 0.468441 0.204149
O O12 0.000000 0.000000 0.000000
O O13 0.346468 0.316230 0.713156
O O14 0.327479 0.956043 0.459942
#
# Coordination Sequence:
#
# PCOD9065309 Si02
#       7
#     2   1   2   2   2   2   2
#     4  11  27  49  81 121 163 210 270 337 418 488
#     4  12  32  46  74 112 160 216 266 332 408 478
#     4  11  24  47  79 119 152 205 272 341 407 484
#     4  11  28  48  78 115 162 212 266 334 413 489
#     4  12  28  49  79 112 163 210 279 334 409 491
#     4  12  27  50  77 111 160 212 276 330 408 495
#     4  11  25  49  83 123 157 213 271 343 416 483
#
# _framework density 27.755618999999999
#
# number of rings (size 3 to 8) (size 9 to 14) (size 15 to 20)
#    0.000    0.615    3.077    2.308    8.615    2.462 
#    0.000    0.000    0.000    0.000    0.000    0.000 
#    0.000    0.000    0.000    0.000    0.000    0.000 
#
# Total GULP energy -72551.809480 kJ/mol
# GULP energy per Si atom -5580.908422 kJ/mol
# Density = 2.769245 g / cm^3
# Si number density = 27.755619 Si / 1000 Ang^3
#
#
#
# Elastic Constant Matrix: (Units=GPa)
#
#
# Indices 1 2 3 4 5 6 
#
# 1 190.8922 6.3842 51.3082 8.5251 4.0162 -26.1060
# 2 6.3842 130.8800 38.4548 24.9815 -20.9295 -11.3064
# 3 51.3082 38.4548 83.5950 15.3291 -26.5817 7.5077
# 4 8.5251 24.9815 15.3291 52.2961 5.1511 -9.2337
# 5 4.0162 -20.9295 -26.5817 5.1511 55.4274 -8.5398
# 6 -26.1060 -11.3064 7.5077 -9.2337 -8.5398 29.2485
#
#
#
# Elastic Compliance Matrix: (Units=1/GPa)
#
#
# Indices 1 2 3 4 5 6 
#
# 1 0.008995 0.002276 -0.008768 0.002228 -0.002488 0.011135
# 2 0.002276 0.010807 -0.005710 -0.002782 0.002600 0.007556
# 3 -0.008768 -0.005710 0.025552 -0.007074 0.008890 -0.016229
# 4 0.002228 -0.002782 -0.007074 0.024253 -0.005506 0.008778
# 5 -0.002488 0.002600 0.008890 -0.005506 0.024264 0.001848
# 6 0.011135 0.007556 -0.016229 0.008778 0.001848 0.054526
#
#
# Mechanical properties :
#
#
# Convention : Reuss Voigt Hill
#
# Bulk Modulus (GPa) = 47.73121 66.40684 57.06902
# Shear Modulus (GPa) = 27.81128 48.00907 37.91017
#
# Velocity S-wave (km/s) = 3.16888 4.16349 3.69976
# Velocity P-wave (km/s) = 5.53384 6.86224 6.23352
#
# Compressibility (1/GPa) = 0.02095065
#
# Stress axis : x y z
#
# Youngs Moduli (GPa) = 111.17643 92.53545 39.13560
#
# Poissons Ratio (x) = -0.21063 0.34312
# Poissons Ratio (y) = -0.25305 0.22347
# Poissons Ratio (z) = 0.97475 0.52838
#
# Static dielectric constant tensor:
#      x y z
#    x 2.219890 0.161970 -0.050210 
#    y 0.161970 2.663540 -0.060020 
#    z -0.050210 -0.060020 2.287880 
# 
# From -- ./inp_files/229947.got.cif
#   From: 2010.05.17/outbox.cif.g08.bks.cpg/sg2_115_cif.got.tgz:229947.got - 2010.06.03 11:33:40.
