data_PCOD9065760
_publ_section_title
;
Structure prediction by ZEFSAII (Michael W. Deem and Ramdas Pophale) SiO2 
 PCOD9065760
Probable space group: P -1
;
_chemical_formula_sum "Si O2"
_cell_formula_units_Z 10
_cell_length_a 9.455272
_cell_length_b 20.074413
_cell_length_c 6.751941
_cell_angle_alpha 59.140943
_cell_angle_beta 49.967516
_cell_angle_gamma 30.167182
_cell_volume 490.002740
_symmetry_space_group_name_H-M "P -1"
_symmetry_group_IT_number 2
_symmetry_cell_setting 'triclinic'
loop_
_space_group_symop_operation_xyz
x,y,z
-x,-y,-z
loop_
_atom_site_type_symbol
_atom_site_label
_atom_site_fract_x
_atom_site_fract_y
_atom_site_fract_z
Si Si1 0.789899 0.960453 0.287774
Si Si2 0.711601 0.440390 0.094622
Si Si3 0.597851 0.339533 0.647929
Si Si4 0.148312 0.912611 0.696044
Si Si5 0.758843 0.634305 0.385293
O O1 0.104820 0.812507 0.318052
O O2 0.500000 0.000000 0.500000
O O3 0.730888 0.058852 0.316014
O O4 0.884547 0.955261 0.990225
O O5 0.709039 0.365619 0.348143
O O6 0.558413 0.561436 0.179736
O O7 0.500000 0.500000 0.000000
O O8 0.059615 0.348538 0.856218
O O9 0.344166 0.373144 0.711483
O O10 0.442227 0.758777 0.604477
O O11 0.000000 0.000000 0.500000
O O12 0.000000 0.500000 0.500000
#
# Coordination Sequence:
#
# PCOD9065760 Si02
#       5
#     2   2   2   2   2
#     4  11  27  44  71  98 139 184 227 284 340 406
#     4  11  25  42  68 103 134 175 233 279 339 414
#     4  11  25  44  65 102 137 179 230 280 345 403
#     4  11  26  47  67 104 137 179 237 274 341 415
#     4  12  24  44  73  96 140 181 222 288 341 399
#
# _framework density 20.408048000000001
#
# number of rings (size 3 to 8) (size 9 to 14) (size 15 to 20)
#    0.000    0.800    4.000    1.800    5.600    0.800 
#    0.000    0.000    0.000    0.000    0.000    0.000 
#    0.000    0.000    0.000    0.000    0.000    0.000 
#
# Total GULP energy -55977.947451 kJ/mol
# GULP energy per Si atom -5597.794745 kJ/mol
# Density = 2.036160 g / cm^3
# Si number density = 20.408048 Si / 1000 Ang^3
#
#
#
# Elastic Constant Matrix: (Units=GPa)
#
#
# Indices 1 2 3 4 5 6 
#
# 1 123.9556 24.3536 61.4371 9.6379 0.0228 -13.4466
# 2 24.3536 98.5812 23.1870 -8.8437 20.4755 -7.6459
# 3 61.4371 23.1870 147.5017 0.8829 -0.0669 -12.9674
# 4 9.6379 -8.8437 0.8829 29.6932 -3.0768 5.8318
# 5 0.0228 20.4755 -0.0669 -3.0768 43.1555 4.4279
# 6 -13.4466 -7.6459 -12.9674 5.8318 4.4279 34.9334
#
#
#
# Elastic Compliance Matrix: (Units=1/GPa)
#
#
# Indices 1 2 3 4 5 6 
#
# 1 0.011169 -0.002057 -0.004028 -0.004694 0.000311 0.003098
# 2 -0.002057 0.012556 -0.000986 0.003482 -0.005890 0.001755
# 3 -0.004028 -0.000986 0.008727 0.000532 0.000384 0.001336
# 4 -0.004694 0.003482 0.000532 0.037863 0.001810 -0.007398
# 5 0.000311 -0.005890 0.000384 0.001810 0.026578 -0.004697
# 6 0.003098 0.001755 0.001336 -0.007398 -0.004697 0.032529
#
#
# Mechanical properties :
#
#
# Convention : Reuss Voigt Hill
#
# Bulk Modulus (GPa) = 54.61867 65.33266 59.97567
# Shear Modulus (GPa) = 33.40741 38.96047 36.18394
#
# Velocity S-wave (km/s) = 4.05034 4.37404 4.21530
# Velocity P-wave (km/s) = 6.97819 7.58896 7.28997
#
# Compressibility (1/GPa) = 0.01830876
#
# Stress axis : x y z
#
# Youngs Moduli (GPa) = 89.53256 79.64406 114.58979
#
# Poissons Ratio (x) = 0.16386 0.46158
# Poissons Ratio (y) = 0.18420 0.11299
# Poissons Ratio (z) = 0.36065 0.07853
#
# Static dielectric constant tensor:
#      x y z
#    x 1.703270 0.017400 0.001230 
#    y 0.017400 1.702210 -0.006590 
#    z 0.001230 -0.006590 1.745030 
# 
# From -- ./inp_files/1945.got.cif
#   From: 2010.05.17/outbox.cif.g08.bks.cpg/sg2_1_cif.got.tgz:1945.got - 2010.06.03 11:33:40.
