data_PCOD9065845
_publ_section_title
;
Structure prediction by ZEFSAII (Michael W. Deem and Ramdas Pophale) SiO2 
 PCOD9065845
Probable space group: P -1
;
_chemical_formula_sum "Si O2"
_cell_formula_units_Z 16
_cell_length_a 6.907517
_cell_length_b 24.427891
_cell_length_c 12.140648
_cell_angle_alpha 28.185702
_cell_angle_beta 50.674921
_cell_angle_gamma 49.310505
_cell_volume 723.639390
_symmetry_space_group_name_H-M "P -1"
_symmetry_group_IT_number 2
_symmetry_cell_setting 'triclinic'
loop_
_space_group_symop_operation_xyz
x,y,z
-x,-y,-z
loop_
_atom_site_type_symbol
_atom_site_label
_atom_site_fract_x
_atom_site_fract_y
_atom_site_fract_z
Si Si1 0.874045 0.375347 0.270221
Si Si2 0.469281 0.287162 0.131503
Si Si3 0.390968 0.126723 0.256575
Si Si4 0.497638 0.773470 0.397243
Si Si5 0.911140 0.406331 0.776715
Si Si6 0.874131 0.536166 0.788011
Si Si7 0.258916 0.148187 0.037702
Si Si8 0.816048 0.105113 0.500938
O O1 0.173917 0.321932 0.219605
O O2 0.895571 0.430460 0.284857
O O3 0.708418 0.279995 0.499794
O O4 0.759892 0.467892 0.047442
O O5 0.470462 0.230772 0.110206
O O6 0.633453 0.182339 0.336868
O O7 0.619301 0.391873 0.895416
O O8 0.080516 0.145732 0.340794
O O9 0.500000 0.000000 0.500000
O O10 0.465532 0.120199 0.112815
O O11 0.691944 0.659804 0.588471
O O12 0.638092 0.837631 0.145244
O O13 0.343350 0.861051 0.389637
O O14 0.947256 0.447255 0.815958
O O15 0.000000 0.500000 0.500000
O O16 0.079648 0.276742 0.908203
O O17 0.129431 0.036954 0.284761
#
# Coordination Sequence:
#
# PCOD9065845 Si02
#       8
#     2   2   2   2   2   2   2   2
#     4  11  25  43  73 107 136 195 244 291 350 424
#     4  12  24  45  76 105 140 189 248 293 349 436
#     4  12  24  46  75 106 141 188 247 293 351 437
#     4  12  25  47  70 107 150 183 237 306 359 420
#     4  12  26  45  71 102 146 193 231 292 364 422
#     4  11  25  43  71 101 143 193 244 287 348 428
#     4  12  26  47  72 107 148 190 234 299 371 417
#     4  12  24  48  77 105 141 192 242 293 364 427
#
# _framework density 22.110458999999999
#
# number of rings (size 3 to 8) (size 9 to 14) (size 15 to 20)
#    0.000    0.250    6.250    3.375    3.500    1.000 
#    2.250    3.125    0.000    0.000    0.000    0.000 
#    0.000    0.000    0.000    0.000    0.000    0.000 
#
# Total GULP energy -89504.010571 kJ/mol
# GULP energy per Si atom -5594.000661 kJ/mol
# Density = 2.206014 g / cm^3
# Si number density = 22.110459 Si / 1000 Ang^3
#
#
#
# Elastic Constant Matrix: (Units=GPa)
#
#
# Indices 1 2 3 4 5 6 
#
# 1 117.0223 36.9671 50.4769 1.2524 1.8951 20.3636
# 2 36.9671 102.3240 38.9591 -2.8322 5.7720 26.1548
# 3 50.4769 38.9591 139.1759 1.3998 -3.4167 0.9971
# 4 1.2524 -2.8322 1.3998 35.6326 5.9657 1.7136
# 5 1.8951 5.7720 -3.4167 5.9657 33.5361 -12.6170
# 6 20.3636 26.1548 0.9971 1.7136 -12.6170 51.3544
#
#
#
# Elastic Compliance Matrix: (Units=1/GPa)
#
#
# Indices 1 2 3 4 5 6 
#
# 1 0.011417 -0.001435 -0.003771 0.000253 -0.002458 -0.004335
# 2 -0.001435 0.014190 -0.003576 0.002772 -0.006316 -0.008233
# 3 -0.003771 -0.003576 0.009626 -0.001322 0.003568 0.004050
# 4 0.000253 0.002772 -0.001322 0.029802 -0.007560 -0.004338
# 5 -0.002458 -0.006316 0.003568 -0.007560 0.037902 0.013687
# 6 -0.004335 -0.008233 0.004050 -0.004338 0.013687 0.028813
#
#
# Mechanical properties :
#
#
# Convention : Reuss Voigt Hill
#
# Bulk Modulus (GPa) = 56.59503 67.92537 62.26020
# Shear Modulus (GPa) = 32.21596 39.57923 35.89759
#
# Velocity S-wave (km/s) = 3.82127 4.23551 4.03371
# Velocity P-wave (km/s) = 6.71726 7.39642 7.06500
#
# Compressibility (1/GPa) = 0.01766940
#
# Stress axis : x y z
#
# Youngs Moduli (GPa) = 87.59054 70.47149 103.88990
#
# Poissons Ratio (x) = 0.10113 0.39175
# Poissons Ratio (y) = 0.12569 0.37148
# Poissons Ratio (z) = 0.33029 0.25198
#
# Static dielectric constant tensor:
#      x y z
#    x 1.835680 -0.008190 0.019760 
#    y -0.008190 1.853070 -0.032340 
#    z 0.019760 -0.032340 1.791820 
# 
# From -- ./inp_files/370946.got.cif
#   From: 2010.05.17/outbox.cif.g08.bks.cpg/sg2_186_cif.got.tgz:370946.got - 2010.06.03 11:33:40.
