data_PCOD9065195
_publ_section_title
;
Structure prediction by ZEFSAII (Michael W. Deem and Ramdas Pophale) SiO2 
 PCOD9065195
Probable space group: P -1
;
_chemical_formula_sum "Si O2"
_cell_formula_units_Z 16
_cell_length_a 8.695347
_cell_length_b 15.865564
_cell_length_c 9.487480
_cell_angle_alpha 33.813612
_cell_angle_beta 111.692614
_cell_angle_gamma 112.657366
_cell_volume 669.021386
_symmetry_space_group_name_H-M "P -1"
_symmetry_group_IT_number 2
_symmetry_cell_setting 'triclinic'
loop_
_space_group_symop_operation_xyz
x,y,z
-x,-y,-z
loop_
_atom_site_type_symbol
_atom_site_label
_atom_site_fract_x
_atom_site_fract_y
_atom_site_fract_z
Si Si1 0.237346 0.186500 0.171845
Si Si2 0.529132 0.642843 0.459121
Si Si3 0.179563 0.524057 0.599365
Si Si4 0.655681 0.889576 0.381385
Si Si5 0.088158 0.644233 0.670486
Si Si6 0.491282 0.846072 0.913026
Si Si7 0.032100 0.033634 0.798319
Si Si8 0.768362 0.397619 0.933166
O O1 0.244886 0.148894 0.391623
O O2 0.408125 0.156678 0.193673
O O3 0.215516 0.363159 0.898689
O O4 0.095529 0.078856 0.185253
O O5 0.332710 0.581686 0.469391
O O6 0.568631 0.740678 0.477693
O O7 0.632013 0.504083 0.700533
O O8 0.576898 0.748001 0.193260
O O9 0.175008 0.652160 0.538855
O O10 0.000000 0.500000 0.500000
O O11 0.785021 0.974703 0.191702
O O12 0.521459 0.992230 0.247149
O O13 0.999965 0.790178 0.474314
O O14 0.948204 0.492101 0.824418
O O15 0.217497 0.624407 0.864457
O O16 0.300176 0.765288 0.932077
O O17 0.000000 0.000000 0.000000
#
# Coordination Sequence:
#
# PCOD9065195 Si02
#       8
#     2   2   2   2   2   2   2   2
#     4  12  28  47  74 107 148 191 243 299 360 431
#     4  12  26  48  75 104 147 188 245 300 357 429
#     4  12  28  45  74 109 144 189 242 298 366 429
#     4  12  28  49  75 105 146 195 243 293 365 430
#     4  11  26  44  74 107 144 189 241 294 367 426
#     4  12  27  46  75 105 147 192 241 298 361 426
#     4  12  27  48  74 106 151 192 241 299 359 433
#     4  11  24  47  74 104 145 190 237 303 359 427
#
# _framework density 23.915527999999998
#
# number of rings (size 3 to 8) (size 9 to 14) (size 15 to 20)
#    0.000    0.250    2.500    5.250   12.250    1.000 
#    0.000    0.000    0.000    0.000    0.000    0.000 
#    0.000    0.000    0.000    0.000    0.000    0.000 
#
# Total GULP energy -89673.082515 kJ/mol
# GULP energy per Si atom -5604.567657 kJ/mol
# Density = 2.386110 g / cm^3
# Si number density = 23.915528 Si / 1000 Ang^3
#
#
#
# Elastic Constant Matrix: (Units=GPa)
#
#
# Indices 1 2 3 4 5 6 
#
# 1 80.4190 19.2151 12.6459 12.9132 -0.9273 -7.9061
# 2 19.2151 133.3808 12.2062 8.1776 -3.9215 -4.8836
# 3 12.6459 12.2062 47.9064 22.6864 -5.9871 -7.3410
# 4 12.9132 8.1776 22.6864 49.4041 -7.4185 2.7269
# 5 -0.9273 -3.9215 -5.9871 -7.4185 27.0649 -3.4425
# 6 -7.9061 -4.8836 -7.3410 2.7269 -3.4425 41.4319
#
#
#
# Elastic Compliance Matrix: (Units=1/GPa)
#
#
# Indices 1 2 3 4 5 6 
#
# 1 0.013737 -0.001593 -0.001620 -0.002798 -0.000595 0.002281
# 2 -0.001593 0.007901 -0.001333 -0.000185 0.000805 0.000470
# 3 -0.001620 -0.001333 0.028820 -0.012387 0.003462 0.005743
# 4 -0.002798 -0.000185 -0.012387 0.027548 0.004151 -0.004219
# 5 -0.000595 0.000805 0.003462 0.004151 0.039405 0.003596
# 6 0.002281 0.000470 0.005743 -0.004219 0.003596 0.026221
#
#
# Mechanical properties :
#
#
# Convention : Reuss Voigt Hill
#
# Bulk Modulus (GPa) = 24.17404 38.87119 31.52261
# Shear Modulus (GPa) = 30.02789 38.08944 34.05866
#
# Velocity S-wave (km/s) = 3.54726 3.99515 3.77785
# Velocity P-wave (km/s) = 5.18724 6.12948 5.67794
#
# Compressibility (1/GPa) = 0.04136670
#
# Stress axis : x y z
#
# Youngs Moduli (GPa) = 72.79602 126.56656 34.69819
#
# Poissons Ratio (x) = 0.20164 0.05621
# Poissons Ratio (y) = 0.11598 0.04624
# Poissons Ratio (z) = 0.11793 0.16865
#
# Static dielectric constant tensor:
#      x y z
#    x 1.895820 0.025320 -0.028100 
#    y 0.025320 1.872390 0.008220 
#    z -0.028100 0.008220 1.892800 
# 
# From -- ./inp_files/205414.got.cif
#   From: 2010.05.17/outbox.cif.g08.bks.cpg/sg2_103_cif.got.tgz:205414.got - 2010.06.03 11:33:40.
