data_PCOD9065502
_publ_section_title
;
Structure prediction by ZEFSAII (Michael W. Deem and Ramdas Pophale) SiO2 
 PCOD9065502
Probable space group: P -1
;
_chemical_formula_sum "Si O2"
_cell_formula_units_Z 15
_cell_length_a 5.422842
_cell_length_b 18.626862
_cell_length_c 12.207256
_cell_angle_alpha 28.167743
_cell_angle_beta 87.171337
_cell_angle_gamma 87.801554
_cell_volume 581.328392
_symmetry_space_group_name_H-M "P -1"
_symmetry_group_IT_number 2
_symmetry_cell_setting 'triclinic'
loop_
_space_group_symop_operation_xyz
x,y,z
-x,-y,-z
loop_
_atom_site_type_symbol
_atom_site_label
_atom_site_fract_x
_atom_site_fract_y
_atom_site_fract_z
Si Si1 0.138685 0.747372 0.828483
Si Si2 0.561620 0.314420 0.893357
Si Si3 0.745918 0.940537 0.664377
Si Si4 0.982211 0.982474 0.816535
Si Si5 0.717727 0.413821 0.353133
Si Si6 0.479161 0.106690 0.749201
Si Si7 0.000000 0.500000 0.000000
Si Si8 0.092194 0.658479 0.334924
O O1 0.865576 0.818069 0.745369
O O2 0.314789 0.894611 0.602606
O O3 0.209045 0.676345 0.039290
O O4 0.157942 0.628055 0.892015
O O5 0.381216 0.441071 0.772725
O O6 0.639950 0.327119 0.749162
O O7 0.448717 0.148046 0.138770
O O8 0.975540 0.972815 0.699164
O O9 0.770311 0.942397 0.241565
O O10 0.959074 0.810580 0.093571
O O11 0.738197 0.074358 0.726976
O O12 0.497139 0.288958 0.517062
O O13 0.902011 0.340651 0.536192
O O14 0.843639 0.459287 0.175094
O O15 0.500000 0.000000 0.000000
O O16 0.000000 0.500000 0.500000
#
# Coordination Sequence:
#
# PCOD9065502 Si02
#       8
#     2   2   2   2   2   2   1   2
#     4  11  25  47  78 110 161 205 277 329 409 483
#     4  12  25  50  79 118 152 210 281 343 413 481
#     4  11  24  48  77 114 151 212 270 342 398 487
#     4  12  26  50  81 116 165 204 283 340 412 494
#     4  12  28  48  79 113 170 211 269 340 415 504
#     4  12  28  50  77 122 162 224 266 338 418 504
#     4  12  26  54  66 118 158 216 260 326 416 498
#     4  12  26  45  80 117 153 205 268 353 410 477
#
# _framework density 25.802973000000001
#
# number of rings (size 3 to 8) (size 9 to 14) (size 15 to 20)
#    0.000    0.267    4.000    4.400    1.867    2.667 
#    4.800    0.000    0.000    0.000    0.000    0.000 
#    0.000    0.000    0.000    0.000    0.000    0.000 
#
# Total GULP energy -83745.449727 kJ/mol
# GULP energy per Si atom -5583.029982 kJ/mol
# Density = 2.574424 g / cm^3
# Si number density = 25.802973 Si / 1000 Ang^3
#
#
#
# Elastic Constant Matrix: (Units=GPa)
#
#
# Indices 1 2 3 4 5 6 
#
# 1 89.9001 21.1418 22.9671 0.4641 -11.1548 2.9334
# 2 21.1418 114.5798 20.6354 17.2236 -4.2055 6.2037
# 3 22.9671 20.6354 121.3648 5.9582 -28.7825 2.8336
# 4 0.4641 17.2236 5.9582 46.7924 6.9471 -13.0244
# 5 -11.1548 -4.2055 -28.7825 6.9471 53.7480 -1.3421
# 6 2.9334 6.2037 2.8336 -13.0244 -1.3421 39.3541
#
#
#
# Elastic Compliance Matrix: (Units=1/GPa)
#
#
# Indices 1 2 3 4 5 6 
#
# 1 0.012190 -0.001965 -0.001658 0.000533 0.001413 -0.000255
# 2 -0.001965 0.010095 -0.000977 -0.004411 0.000358 -0.002822
# 3 -0.001658 -0.000977 0.010068 -0.001931 0.005198 -0.000909
# 4 0.000533 -0.004411 -0.001931 0.026519 -0.004461 0.009419
# 5 0.001413 0.000358 0.005198 -0.004461 0.022255 -0.001253
# 6 -0.000255 -0.002822 -0.000909 0.009419 -0.001253 0.029014
#
#
# Mechanical properties :
#
#
# Convention : Reuss Voigt Hill
#
# Bulk Modulus (GPa) = 43.19048 50.59258 46.89153
# Shear Modulus (GPa) = 39.35152 45.38559 42.36855
#
# Velocity S-wave (km/s) = 3.90946 4.19851 4.05656
# Velocity P-wave (km/s) = 6.09536 6.56910 6.33666
#
# Compressibility (1/GPa) = 0.02315325
#
# Stress axis : x y z
#
# Youngs Moduli (GPa) = 82.03429 99.05826 99.32248
#
# Poissons Ratio (x) = 0.19466 0.16465
# Poissons Ratio (y) = 0.16121 0.09705
# Poissons Ratio (z) = 0.13599 0.09679
#
# Static dielectric constant tensor:
#      x y z
#    x 2.125550 -0.017200 0.014020 
#    y -0.017200 2.006420 -0.038260 
#    z 0.014020 -0.038260 2.063450 
# 
# From -- ./inp_files/369268.got.cif
#   From: 2010.05.17/outbox.cif.g08.bks.cpg/sg2_185_cif.got.tgz:369268.got - 2010.06.03 11:33:40.
