data_PCOD9065372
_publ_section_title
;
Structure prediction by ZEFSAII (Michael W. Deem and Ramdas Pophale) SiO2 
 PCOD9065372
Probable space group: P -1
;
_chemical_formula_sum "Si O2"
_cell_formula_units_Z 16
_cell_length_a 17.799722
_cell_length_b 6.884277
_cell_length_c 8.463943
_cell_angle_alpha 101.737378
_cell_angle_beta 48.765706
_cell_angle_gamma 92.426908
_cell_volume 757.703209
_symmetry_space_group_name_H-M "P -1"
_symmetry_group_IT_number 2
_symmetry_cell_setting 'triclinic'
loop_
_space_group_symop_operation_xyz
x,y,z
-x,-y,-z
loop_
_atom_site_type_symbol
_atom_site_label
_atom_site_fract_x
_atom_site_fract_y
_atom_site_fract_z
Si Si1 0.515906 0.216304 0.079591
Si Si2 0.408173 0.927483 0.712404
Si Si3 0.662301 0.462590 0.726788
Si Si4 0.764472 0.214114 0.270821
Si Si5 0.909248 0.879425 0.158779
Si Si6 0.940772 0.832930 0.474927
Si Si7 0.892361 0.480484 0.935698
Si Si8 0.757192 0.710228 0.901724
O O1 0.414776 0.369493 0.225387
O O2 0.551458 0.191242 0.206727
O O3 0.598023 0.304041 0.870564
O O4 0.500000 0.000000 0.000000
O O5 0.500000 0.000000 0.500000
O O6 0.338736 0.801800 0.681762
O O7 0.333608 0.122331 0.900611
O O8 0.740178 0.356770 0.476989
O O9 0.717603 0.564917 0.805193
O O10 0.810599 0.997498 0.234261
O O11 0.846142 0.306816 0.066344
O O12 0.903717 0.886539 0.356967
O O13 0.923756 0.654104 0.034786
O O14 0.000000 0.000000 0.000000
O O15 0.847286 0.809214 0.712239
O O16 0.015790 0.627425 0.313122
O O17 0.000000 0.000000 0.500000
O O18 0.804617 0.586151 0.963630
#
# Coordination Sequence:
#
# PCOD9065372 Si02
#       8
#     2   2   2   2   2   2   2   2
#     4  11  24  48  71  99 144 180 238 295 353 410
#     4  12  27  47  74 102 146 190 233 296 354 419
#     4  11  27  43  74 106 134 189 238 290 352 419
#     4  12  27  46  74 107 141 190 238 290 357 424
#     4  12  26  47  74 105 149 185 238 291 356 428
#     4  12  27  46  75 106 143 189 236 298 357 421
#     4  12  26  49  73 104 148 189 237 291 360 425
#     4  12  26  46  72 106 141 187 240 287 356 424
#
# _framework density 21.116447999999998
#
# number of rings (size 3 to 8) (size 9 to 14) (size 15 to 20)
#    0.000    0.250    3.750    4.500    8.750    2.500 
#    0.000    0.000    0.000    0.000    0.000    0.000 
#    0.000    0.000    0.000    0.000    0.000    0.000 
#
# Total GULP energy -89637.053345 kJ/mol
# GULP energy per Si atom -5602.315834 kJ/mol
# Density = 2.106839 g / cm^3
# Si number density = 21.116448 Si / 1000 Ang^3
#
#
#
# Elastic Constant Matrix: (Units=GPa)
#
#
# Indices 1 2 3 4 5 6 
#
# 1 126.3942 52.3936 18.6679 1.7446 14.4760 -9.3766
# 2 52.3936 113.2224 40.3627 5.2048 1.5280 2.8292
# 3 18.6679 40.3627 107.4608 17.4334 -10.3135 -3.4845
# 4 1.7446 5.2048 17.4334 22.5175 7.2457 8.9696
# 5 14.4760 1.5280 -10.3135 7.2457 37.3213 -5.0316
# 6 -9.3766 2.8292 -3.4845 8.9696 -5.0316 50.0041
#
#
#
# Elastic Compliance Matrix: (Units=1/GPa)
#
#
# Indices 1 2 3 4 5 6 
#
# 1 0.010518 -0.004680 -0.000669 0.001530 -0.004168 0.001497
# 2 -0.004680 0.012518 -0.004329 0.001918 -0.000575 -0.002289
# 3 -0.000669 -0.004329 0.014244 -0.014235 0.007736 0.004444
# 4 0.001530 0.001918 -0.014235 0.067090 -0.019629 -0.014823
# 5 -0.004168 -0.000575 0.007736 -0.019629 0.035309 0.006864
# 6 0.001497 -0.002289 0.004444 -0.014823 0.006864 0.024068
#
#
# Mechanical properties :
#
#
# Convention : Reuss Voigt Hill
#
# Bulk Modulus (GPa) = 55.79434 63.32510 59.55972
# Shear Modulus (GPa) = 26.44424 37.67877 32.06150
#
# Velocity S-wave (km/s) = 3.54263 4.22872 3.90079
# Velocity P-wave (km/s) = 6.57368 7.34141 6.96813
#
# Compressibility (1/GPa) = 0.01792297
#
# Stress axis : x y z
#
# Youngs Moduli (GPa) = 95.07613 79.88448 70.20580
#
# Poissons Ratio (x) = 0.37387 0.04696
# Poissons Ratio (y) = 0.44497 0.30394
# Poissons Ratio (z) = 0.06360 0.34584
#
# Static dielectric constant tensor:
#      x y z
#    x 1.754390 -0.011070 0.003420 
#    y -0.011070 1.736270 0.015930 
#    z 0.003420 0.015930 1.717950 
# 
# From -- ./inp_files/135133.got.cif
#   From: 2010.05.17/outbox.cif.g08.bks.cpg/sg2_68_cif.got.tgz:135133.got - 2010.06.03 11:33:40.
