data_PCOD9065139
_publ_section_title
;
Structure prediction by ZEFSAII (Michael W. Deem and Ramdas Pophale) SiO2 
 PCOD9065139
Probable space group: P -1
;
_chemical_formula_sum "Si O2"
_cell_formula_units_Z 10
_cell_length_a 6.835308
_cell_length_b 18.104796
_cell_length_c 5.123104
_cell_angle_alpha 79.506108
_cell_angle_beta 45.436815
_cell_angle_gamma 64.205642
_cell_volume 399.126902
_symmetry_space_group_name_H-M "P -1"
_symmetry_group_IT_number 2
_symmetry_cell_setting 'triclinic'
loop_
_space_group_symop_operation_xyz
x,y,z
-x,-y,-z
loop_
_atom_site_type_symbol
_atom_site_label
_atom_site_fract_x
_atom_site_fract_y
_atom_site_fract_z
Si Si1 0.800669 0.818329 0.253986
Si Si2 0.649508 0.666408 0.384589
Si Si3 0.650695 0.057975 0.728276
Si Si4 0.232097 0.792544 0.354670
Si Si5 0.344722 0.555507 0.860457
O O1 0.689104 0.745337 0.410456
O O2 0.499568 0.906044 0.437028
O O3 0.011669 0.809287 0.307754
O O4 0.014906 0.810612 0.804192
O O5 0.503728 0.700230 0.213088
O O6 0.419084 0.635210 0.747316
O O7 0.982608 0.590196 0.143453
O O8 0.611580 0.144549 0.841723
O O9 0.000000 0.000000 0.500000
O O10 0.500000 0.000000 0.000000
O O11 0.500000 0.500000 0.500000
O O12 0.500000 0.500000 0.000000
#
# Coordination Sequence:
#
# PCOD9065139 Si02
#       5
#     2   2   2   2   2
#     4  11  26  47  74 106 141 194 238 290 356 419
#     4  11  26  50  74 105 146 188 240 293 350 436
#     4  11  24  47  72 108 146 188 238 298 352 419
#     4  11  26  47  74 106 141 194 238 290 356 419
#     4  12  28  47  74 107 144 186 234 295 364 419
#
# _framework density 25.054687999999999
#
# number of rings (size 3 to 8) (size 9 to 14) (size 15 to 20)
#    0.000    0.800    4.000    1.200    2.800   11.200 
#    0.000    0.000    0.000    0.000    0.000    0.000 
#    0.000    0.000    0.000    0.000    0.000    0.000 
#
# Total GULP energy -55982.189038 kJ/mol
# GULP energy per Si atom -5598.218904 kJ/mol
# Density = 2.499766 g / cm^3
# Si number density = 25.054688 Si / 1000 Ang^3
#
#
#
# Elastic Constant Matrix: (Units=GPa)
#
#
# Indices 1 2 3 4 5 6 
#
# 1 236.6229 76.0501 64.0776 -23.4328 -4.7860 -51.3110
# 2 76.0501 150.8117 26.6865 -29.2243 0.5322 -42.7149
# 3 64.0776 26.6865 92.5425 -17.5830 -16.6038 -8.9581
# 4 -23.4328 -29.2243 -17.5830 56.4665 -3.5198 -23.4767
# 5 -4.7860 0.5322 -16.6038 -3.5198 60.1779 -3.7666
# 6 -51.3110 -42.7149 -8.9581 -23.4767 -3.7666 77.1642
#
#
#
# Elastic Compliance Matrix: (Units=1/GPa)
#
#
# Indices 1 2 3 4 5 6 
#
# 1 0.006724 -0.000886 -0.003332 0.003201 0.000097 0.004572
# 2 -0.000886 0.011176 0.000069 0.008978 0.000900 0.008381
# 3 -0.003332 0.000069 0.014633 0.003830 0.004051 0.000885
# 4 0.003201 0.008978 0.003830 0.032471 0.004235 0.017629
# 5 0.000097 0.000900 0.004051 0.004235 0.018183 0.003209
# 6 0.004572 0.008381 0.000885 0.017629 0.003209 0.026262
#
#
# Mechanical properties :
#
#
# Convention : Reuss Voigt Hill
#
# Bulk Modulus (GPa) = 41.26204 90.40061 65.83133
# Shear Modulus (GPa) = 39.73790 59.63925 49.68857
#
# Velocity S-wave (km/s) = 3.98684 4.88419 4.45815
# Velocity P-wave (km/s) = 6.13985 8.24419 7.26858
#
# Compressibility (1/GPa) = 0.02423535
#
# Stress axis : x y z
#
# Youngs Moduli (GPa) = 148.72939 89.48010 68.33823
#
# Poissons Ratio (x) = 0.07927 0.22769
# Poissons Ratio (y) = 0.13176 -0.00473
# Poissons Ratio (z) = 0.49554 -0.00619
#
# Static dielectric constant tensor:
#      x y z
#    x 1.984180 -0.013590 0.054160 
#    y -0.013590 2.009000 0.083400 
#    z 0.054160 0.083400 2.038130 
# 
# From -- ./inp_files/4814.got.cif
#   From: 2010.05.17/outbox.cif.g08.bks.cpg/sg2_3_cif.got.tgz:4814.got - 2010.06.03 11:33:40.
