data_PCOD9065302
_publ_section_title
;
Structure prediction by ZEFSAII (Michael W. Deem and Ramdas Pophale) SiO2 
 PCOD9065302
Probable space group: P -1
;
_chemical_formula_sum "Si O2"
_cell_formula_units_Z 10
_cell_length_a 18.510205
_cell_length_b 12.696961
_cell_length_c 9.052818
_cell_angle_alpha 144.197768
_cell_angle_beta 144.111092
_cell_angle_gamma 18.494954
_cell_volume 385.066541
_symmetry_space_group_name_H-M "P -1"
_symmetry_group_IT_number 2
_symmetry_cell_setting 'triclinic'
loop_
_space_group_symop_operation_xyz
x,y,z
-x,-y,-z
loop_
_atom_site_type_symbol
_atom_site_label
_atom_site_fract_x
_atom_site_fract_y
_atom_site_fract_z
Si Si1 0.209239 0.217386 0.142087
Si Si2 0.944517 0.252800 0.330711
Si Si3 0.672557 0.674367 0.094592
Si Si4 0.418336 0.819559 0.568032
Si Si5 0.793031 0.191119 0.265695
O O1 0.175656 0.414718 0.429366
O O2 0.443724 0.946977 0.128711
O O3 0.000000 0.500000 0.000000
O O4 0.200477 0.031120 0.985247
O O5 0.876347 0.331211 0.135732
O O6 0.834041 0.238709 0.234148
O O7 0.221514 0.938118 0.448528
O O8 0.709453 0.838619 0.306996
O O9 0.605955 0.655805 0.812595
O O10 0.554872 0.552978 0.359922
O O11 0.000000 0.000000 0.500000
#
# Coordination Sequence:
#
# PCOD9065302 Si02
#       5
#     2   2   2   2   2
#     4  12  23  48  77 104 145 197 238 297 367 428
#     4  12  26  50  76 109 146 192 245 298 357 437
#     4  11  24  47  79 105 152 191 240 300 365 424
#     4  11  25  49  76 108 147 193 239 301 362 428
#     4  12  26  47  78 107 147 193 242 299 365 427
#
# _framework density 25.969539000000001
#
# number of rings (size 3 to 8) (size 9 to 14) (size 15 to 20)
#    0.000    0.400    6.000    1.200    2.800    4.000 
#    0.000    2.000    0.000    0.000    0.000    0.000 
#    0.000    0.000    0.000    0.000    0.000    0.000 
#
# Total GULP energy -56237.794473 kJ/mol
# GULP energy per Si atom -5623.779447 kJ/mol
# Density = 2.591043 g / cm^3
# Si number density = 25.969539 Si / 1000 Ang^3
#
#
#
# Elastic Constant Matrix: (Units=GPa)
#
#
# Indices 1 2 3 4 5 6 
#
# 1 165.3857 36.5078 72.7472 43.3088 19.3714 12.3256
# 2 36.5078 82.3518 35.0903 19.8509 -7.2604 4.6148
# 3 72.7472 35.0903 110.1768 30.2761 1.8843 8.6495
# 4 43.3088 19.8509 30.2761 46.0517 10.3369 -7.1720
# 5 19.3714 -7.2604 1.8843 10.3369 47.7620 3.9899
# 6 12.3256 4.6148 8.6495 -7.1720 3.9899 63.4757
#
#
#
# Elastic Compliance Matrix: (Units=1/GPa)
#
#
# Indices 1 2 3 4 5 6 
#
# 1 0.010354 -0.001387 -0.004636 -0.005726 -0.002842 -0.001746
# 2 -0.001387 0.015482 -0.002683 -0.004738 0.004155 -0.001287
# 3 -0.004636 -0.002683 0.014340 -0.004601 0.002028 -0.001506
# 4 -0.005726 -0.004738 -0.004601 0.034559 -0.006229 0.006380
# 5 -0.002842 0.004155 0.002028 -0.006229 0.024178 -0.002250
# 6 -0.001746 -0.001287 -0.001506 0.006380 -0.002250 0.017254
#
#
# Mechanical properties :
#
#
# Convention : Reuss Voigt Hill
#
# Bulk Modulus (GPa) = 43.92933 71.84503 57.88718
# Shear Modulus (GPa) = 35.41941 45.69579 40.55760
#
# Velocity S-wave (km/s) = 3.69709 4.19930 3.95617
# Velocity P-wave (km/s) = 5.93102 7.15803 6.57322
#
# Compressibility (1/GPa) = 0.02276384
#
# Stress axis : x y z
#
# Youngs Moduli (GPa) = 96.57854 64.59211 69.73738
#
# Poissons Ratio (x) = 0.08962 0.32328
# Poissons Ratio (y) = 0.13400 0.18708
# Poissons Ratio (z) = 0.44771 0.17328
#
# Static dielectric constant tensor:
#      x y z
#    x 1.976090 0.041530 -0.034260 
#    y 0.041530 2.016200 -0.018010 
#    z -0.034260 -0.018010 2.075830 
# 
# From -- ./inp_files/146729.got.cif
#   From: 2010.05.17/outbox.cif.g08.bks.cpg/sg2_74_cif.got.tgz:146729.got - 2010.06.03 11:33:40.
