data_PCOD9065331
_publ_section_title
;
Structure prediction by ZEFSAII (Michael W. Deem and Ramdas Pophale) SiO2 
 PCOD9065331
Probable space group: P -1
;
_chemical_formula_sum "Si O2"
_cell_formula_units_Z 16
_cell_length_a 9.237827
_cell_length_b 9.617160
_cell_length_c 12.159420
_cell_angle_alpha 134.322282
_cell_angle_beta 86.336972
_cell_angle_gamma 86.068108
_cell_volume 761.506460
_symmetry_space_group_name_H-M "P -1"
_symmetry_group_IT_number 2
_symmetry_cell_setting 'triclinic'
loop_
_space_group_symop_operation_xyz
x,y,z
-x,-y,-z
loop_
_atom_site_type_symbol
_atom_site_label
_atom_site_fract_x
_atom_site_fract_y
_atom_site_fract_z
Si Si1 0.892224 0.540986 0.630757
Si Si2 0.556997 0.195912 0.642957
Si Si3 0.465067 0.132961 0.849658
Si Si4 0.142243 0.050886 0.848849
Si Si5 0.411545 0.621632 0.831721
Si Si6 0.878069 0.120211 0.493553
Si Si7 0.907339 0.243565 0.115144
Si Si8 0.561518 0.689858 0.651018
O O1 0.900981 0.340573 0.586784
O O2 0.731120 0.623809 0.638503
O O3 0.000000 0.500000 0.500000
O O4 0.959095 0.686827 0.788000
O O5 0.495703 0.230526 0.787384
O O6 0.499512 0.401246 0.699640
O O7 0.728785 0.144152 0.583350
O O8 0.500000 0.000000 0.500000
O O9 0.291714 0.146917 0.894844
O O10 0.530782 0.898630 0.705279
O O11 0.549650 0.248715 0.996734
O O12 0.136080 0.968878 0.678749
O O13 0.149559 0.900620 0.870223
O O14 0.983038 0.172335 0.956169
O O15 0.239955 0.608587 0.822399
O O16 0.468216 0.735860 0.790732
O O17 0.000000 0.000000 0.500000
O O18 0.500000 0.500000 0.500000
#
# Coordination Sequence:
#
# PCOD9065331 Si02
#       8
#     2   2   2   2   2   2   2   2
#     4  12  25  44  71 105 144 184 238 297 351 423
#     4  12  27  49  72  99 144 190 242 299 349 430
#     4  12  26  45  74 103 146 189 237 295 357 426
#     4  11  24  48  68 108 143 185 232 297 355 425
#     4  12  26  46  71 108 139 191 242 292 361 420
#     4  12  28  48  71 104 144 187 240 291 364 426
#     4  11  26  42  75 105 148 180 235 296 359 421
#     4  12  24  44  73 104 141 185 245 293 350 419
#
# _framework density 21.010983
#
# number of rings (size 3 to 8) (size 9 to 14) (size 15 to 20)
#    0.000    0.250    5.000    3.750    8.750    0.000 
#    0.000    1.250    0.000    0.000    0.000    0.000 
#    0.000    0.000    0.000    0.000    0.000    0.000 
#
# Total GULP energy -89275.526846 kJ/mol
# GULP energy per Si atom -5579.720428 kJ/mol
# Density = 2.096316 g / cm^3
# Si number density = 21.010983 Si / 1000 Ang^3
#
#
#
# Elastic Constant Matrix: (Units=GPa)
#
#
# Indices 1 2 3 4 5 6 
#
# 1 170.0928 33.9375 24.3292 4.7902 -29.4600 -3.2794
# 2 33.9375 74.6284 -10.1441 -1.3360 -11.6379 12.6478
# 3 24.3292 -10.1441 57.4350 -11.6303 3.7486 1.6908
# 4 4.7902 -1.3360 -11.6303 39.9180 0.9089 -11.4006
# 5 -29.4600 -11.6379 3.7486 0.9089 43.2481 4.4451
# 6 -3.2794 12.6478 1.6908 -11.4006 4.4451 34.7316
#
#
#
# Elastic Compliance Matrix: (Units=1/GPa)
#
#
# Indices 1 2 3 4 5 6 
#
# 1 0.008344 -0.003919 -0.005077 -0.002434 0.005016 0.001021
# 2 -0.003919 0.017420 0.004873 0.000387 0.002319 -0.007121
# 3 -0.005077 0.004873 0.022166 0.007201 -0.004175 -0.000435
# 4 -0.002434 0.000387 0.007201 0.030317 -0.003814 0.009718
# 5 0.005016 0.002319 -0.004175 -0.003814 0.028121 -0.005019
# 6 0.001021 -0.007121 -0.000435 0.009718 -0.005019 0.035335
#
#
# Mechanical properties :
#
#
# Convention : Reuss Voigt Hill
#
# Bulk Modulus (GPa) = 25.19906 44.26685 34.73296
# Shear Modulus (GPa) = 30.64156 40.51514 35.57835
#
# Velocity S-wave (km/s) = 3.82299 4.39599 4.11946
# Velocity P-wave (km/s) = 5.61305 6.84693 6.26046
#
# Compressibility (1/GPa) = 0.03968402
#
# Stress axis : x y z
#
# Youngs Moduli (GPa) = 119.84266 57.40586 45.11439
#
# Poissons Ratio (x) = 0.22499 0.22905
# Poissons Ratio (y) = 0.46969 -0.21986
# Poissons Ratio (z) = 0.60846 -0.27976
#
# Static dielectric constant tensor:
#      x y z
#    x 1.733990 -0.017240 -0.008450 
#    y -0.017240 1.719130 -0.001630 
#    z -0.008450 -0.001630 1.824670 
# 
# From -- ./inp_files/187825.got.cif
#   From: 2010.05.17/outbox.cif.g08.bks.cpg/sg2_94_cif.got.tgz:187825.got - 2010.06.03 11:33:40.
