data_PCOD9065431
_publ_section_title
;
Structure prediction by ZEFSAII (Michael W. Deem and Ramdas Pophale) SiO2 
 PCOD9065431
Probable space group: P -1
;
_chemical_formula_sum "Si O2"
_cell_formula_units_Z 16
_cell_length_a 5.514773
_cell_length_b 11.190948
_cell_length_c 11.772720
_cell_angle_alpha 102.256807
_cell_angle_beta 63.193547
_cell_angle_gamma 101.429128
_cell_volume 629.314519
_symmetry_space_group_name_H-M "P -1"
_symmetry_group_IT_number 2
_symmetry_cell_setting 'triclinic'
loop_
_space_group_symop_operation_xyz
x,y,z
-x,-y,-z
loop_
_atom_site_type_symbol
_atom_site_label
_atom_site_fract_x
_atom_site_fract_y
_atom_site_fract_z
Si Si1 0.562789 0.857570 0.972142
Si Si2 0.376752 0.754753 0.756514
Si Si3 0.764775 0.298624 0.794149
Si Si4 0.148284 0.899467 0.522245
Si Si5 0.321943 0.193709 0.702439
Si Si6 0.030114 0.456995 0.282214
Si Si7 0.800493 0.638127 0.534437
Si Si8 0.114340 0.962312 0.800610
O O1 0.494534 0.767134 0.860411
O O2 0.889465 0.891295 0.914242
O O3 0.392122 0.785959 0.093481
O O4 0.500000 0.000000 0.000000
O O5 0.101374 0.661642 0.782195
O O6 0.530786 0.703875 0.606384
O O7 0.379251 0.898834 0.759507
O O8 0.542711 0.289656 0.736904
O O9 0.063089 0.245638 0.708741
O O10 0.832807 0.445256 0.818287
O O11 0.472854 0.889382 0.424771
O O12 0.058244 0.927986 0.674642
O O13 0.028738 0.755425 0.505871
O O14 0.000000 0.000000 0.500000
O O15 0.174661 0.106790 0.814748
O O16 0.826580 0.538365 0.412008
O O17 0.197455 0.419630 0.350201
#
# Coordination Sequence:
#
# PCOD9065431 Si02
#       8
#     2   2   2   2   2   2   2   2
#     4  12  27  50  76 108 154 206 262 322 386 458
#     4  12  25  45  77 109 149 204 265 314 391 463
#     4  12  29  48  79 112 154 208 267 318 379 460
#     4  12  24  45  75 115 156 193 251 330 399 472
#     4  12  27  48  75 116 154 198 258 326 396 461
#     4  11  26  47  76 109 155 210 255 319 382 475
#     4  11  24  48  73 112 157 202 250 319 401 466
#     4  12  26  46  76 111 154 201 251 325 400 466
#
# _framework density 25.424488
#
# number of rings (size 3 to 8) (size 9 to 14) (size 15 to 20)
#    0.000    0.250    5.000    3.000    5.250    1.500 
#    0.000    2.500    0.000    0.000    0.000    0.000 
#    0.000    0.000    0.000    0.000    0.000    0.000 
#
# Total GULP energy -89176.590385 kJ/mol
# GULP energy per Si atom -5573.536899 kJ/mol
# Density = 2.536662 g / cm^3
# Si number density = 25.424488 Si / 1000 Ang^3
#
#
#
# Elastic Constant Matrix: (Units=GPa)
#
#
# Indices 1 2 3 4 5 6 
#
# 1 83.3125 17.7961 27.0170 -6.2389 -3.6793 8.5031
# 2 17.7961 119.8411 25.7483 -19.8648 -6.9158 10.5874
# 3 27.0170 25.7483 82.0904 -12.9533 2.4831 -3.6153
# 4 -6.2389 -19.8648 -12.9533 49.7542 7.4155 6.6781
# 5 -3.6793 -6.9158 2.4831 7.4155 31.0618 4.2682
# 6 8.5031 10.5874 -3.6153 6.6781 4.2682 35.5934
#
#
#
# Elastic Compliance Matrix: (Units=1/GPa)
#
#
# Indices 1 2 3 4 5 6 
#
# 1 0.014194 -0.000512 -0.004676 0.000555 0.002372 -0.004102
# 2 -0.000512 0.010052 -0.002678 0.003480 0.002117 -0.004046
# 3 -0.004676 -0.002678 0.015184 0.002344 -0.003394 0.003423
# 4 0.000555 0.003480 0.002344 0.023453 -0.004284 -0.004816
# 5 0.002372 0.002117 -0.003394 -0.004284 0.034917 -0.004924
# 6 -0.004102 -0.004046 0.003423 -0.004816 -0.004924 0.032120
#
#
# Mechanical properties :
#
#
# Convention : Reuss Voigt Hill
#
# Bulk Modulus (GPa) = 42.19544 47.37411 44.78478
# Shear Modulus (GPa) = 32.56281 37.59403 35.07842
#
# Velocity S-wave (km/s) = 3.58266 3.84950 3.71847
# Velocity P-wave (km/s) = 5.80916 6.19935 6.00742
#
# Compressibility (1/GPa) = 0.02369924
#
# Stress axis : x y z
#
# Youngs Moduli (GPa) = 70.45455 99.48146 65.86045
#
# Poissons Ratio (x) = 0.05092 0.30793
# Poissons Ratio (y) = 0.03606 0.17635
# Poissons Ratio (z) = 0.32941 0.26638
#
# Static dielectric constant tensor:
#      x y z
#    x 2.208200 -0.016360 -0.097070 
#    y -0.016360 2.049350 0.002890 
#    z -0.097070 0.002890 2.143710 
# 
# From -- ./inp_files/364708.got.cif
#   From: 2010.05.17/outbox.cif.g08.bks.cpg/sg2_183_cif.got.tgz:364708.got - 2010.06.03 11:33:40.
