data_PCOD9065762
_publ_section_title
;
Structure prediction by ZEFSAII (Michael W. Deem and Ramdas Pophale) SiO2 
 PCOD9065762
Probable space group: P -1
;
_chemical_formula_sum "Si O2"
_cell_formula_units_Z 16
_cell_length_a 16.968143
_cell_length_b 8.982969
_cell_length_c 5.252383
_cell_angle_alpha 91.926960
_cell_angle_beta 94.710376
_cell_angle_gamma 59.787128
_cell_volume 689.475767
_symmetry_space_group_name_H-M "P -1"
_symmetry_group_IT_number 2
_symmetry_cell_setting 'triclinic'
loop_
_space_group_symop_operation_xyz
x,y,z
-x,-y,-z
loop_
_atom_site_type_symbol
_atom_site_label
_atom_site_fract_x
_atom_site_fract_y
_atom_site_fract_z
Si Si1 0.023774 0.065849 0.258235
Si Si2 0.383747 0.409846 0.048690
Si Si3 0.531401 0.799402 0.458572
Si Si4 0.803006 0.013073 0.948478
Si Si5 0.240470 0.680676 0.684278
Si Si6 0.932117 0.650653 0.180853
Si Si7 0.091201 0.607055 0.536764
Si Si8 0.624649 0.283790 0.664979
O O1 0.955892 0.269104 0.229667
O O2 0.129936 0.006331 0.265775
O O3 0.000000 0.000000 0.500000
O O4 0.000000 0.000000 0.000000
O O5 0.395303 0.305524 0.305020
O O6 0.413786 0.549970 0.149496
O O7 0.434792 0.276594 0.822076
O O8 0.284188 0.536721 0.910206
O O9 0.449111 0.758306 0.472668
O O10 0.500000 0.000000 0.500000
O O11 0.847800 0.818874 0.048615
O O12 0.807412 0.137258 0.171936
O O13 0.699433 0.115803 0.829418
O O14 0.176236 0.631667 0.500694
O O15 0.320347 0.676964 0.534521
O O16 0.892800 0.576703 0.383562
O O17 0.005034 0.690840 0.332114
O O18 0.000000 0.500000 0.000000
#
# Coordination Sequence:
#
# PCOD9065762 Si02
#       8
#     2   2   2   2   2   2   2   2
#     4  12  23  40  69  99 135 182 245 304 344 417
#     4  11  25  50  78 112 148 194 246 302 363 450
#     4  12  27  50  79 113 153 193 239 295 380 450
#     4  11  25  42  68 105 142 188 254 305 366 425
#     4  11  25  46  73 110 141 190 248 312 357 427
#     4  11  25  45  65  97 147 201 243 299 369 433
#     4  11  25  42  68  99 142 195 247 298 371 424
#     4  11  26  45  79 107 151 190 250 306 366 439
#
# _framework density 23.206040000000002
#
# number of rings (size 3 to 8) (size 9 to 14) (size 15 to 20)
#    0.000    0.750    3.750    2.625    5.250    3.000 
#    4.500    0.000    0.000    0.000    0.000    0.000 
#    0.000    0.000    0.000    0.000    0.000    0.000 
#
# Total GULP energy -89369.071945 kJ/mol
# GULP energy per Si atom -5585.566997 kJ/mol
# Density = 2.315322 g / cm^3
# Si number density = 23.206040 Si / 1000 Ang^3
#
#
#
# Elastic Constant Matrix: (Units=GPa)
#
#
# Indices 1 2 3 4 5 6 
#
# 1 51.3393 -0.2002 12.8651 15.0362 -2.6173 8.5487
# 2 -0.2002 142.2762 32.4197 -1.9792 -2.9683 -4.2961
# 3 12.8651 32.4197 89.1026 -2.8029 -9.8216 2.9732
# 4 15.0362 -1.9792 -2.8029 46.3962 -4.4512 2.5505
# 5 -2.6173 -2.9683 -9.8216 -4.4512 39.1715 0.8680
# 6 8.5487 -4.2961 2.9732 2.5505 0.8680 30.0155
#
#
#
# Elastic Compliance Matrix: (Units=1/GPa)
#
#
# Indices 1 2 3 4 5 6 
#
# 1 0.023535 0.000594 -0.003667 -0.007518 -0.000032 -0.005615
# 2 0.000594 0.007737 -0.002964 -0.000125 -0.000159 0.001247
# 3 -0.003667 -0.002964 0.013279 0.002218 0.003133 -0.000974
# 4 -0.007518 -0.000125 0.002218 0.024403 0.002823 -0.000252
# 5 -0.000032 -0.000159 0.003133 0.002823 0.026651 -0.001335
# 6 -0.005615 0.001247 -0.000974 -0.000252 -0.001335 0.035250
#
#
# Mechanical properties :
#
#
# Convention : Reuss Voigt Hill
#
# Bulk Modulus (GPa) = 30.79134 41.43193 36.11164
# Shear Modulus (GPa) = 32.51943 38.95886 35.73915
#
# Velocity S-wave (km/s) = 3.74750 4.10179 3.92864
# Velocity P-wave (km/s) = 5.65884 6.35025 6.01449
#
# Compressibility (1/GPa) = 0.03247666
#
# Stress axis : x y z
#
# Youngs Moduli (GPa) = 42.49074 129.24205 75.30916
#
# Poissons Ratio (x) = -0.07675 0.27614
# Poissons Ratio (y) = -0.02523 0.22322
# Poissons Ratio (z) = 0.15580 0.38308
#
# Static dielectric constant tensor:
#      x y z
#    x 1.150820 -0.836980 -0.992890 
#    y -0.836980 1.039610 -1.082470 
#    z -0.992890 -1.082470 0.652260 
# 
# From -- ./inp_files/105418.got.cif
#   From: 2010.05.17/outbox.cif.g08.bks.cpg/sg2_53_cif.got.tgz:105418.got - 2010.06.03 11:33:40.
