data_PCOD9065032
_publ_section_title
;
Structure prediction by ZEFSAII (Michael W. Deem and Ramdas Pophale) SiO2 
 PCOD9065032
Probable space group: P -1
;
_chemical_formula_sum "Si O2"
_cell_formula_units_Z 15
_cell_length_a 9.561758
_cell_length_b 9.295103
_cell_length_c 13.472293
_cell_angle_alpha 92.408121
_cell_angle_beta 46.454672
_cell_angle_gamma 64.959606
_cell_volume 677.302418
_symmetry_space_group_name_H-M "P -1"
_symmetry_group_IT_number 2
_symmetry_cell_setting 'triclinic'
loop_
_space_group_symop_operation_xyz
x,y,z
-x,-y,-z
loop_
_atom_site_type_symbol
_atom_site_label
_atom_site_fract_x
_atom_site_fract_y
_atom_site_fract_z
Si Si1 0.697895 0.738592 0.238947
Si Si2 0.500000 0.500000 0.000000
Si Si3 0.782750 0.120326 0.192190
Si Si4 0.260593 0.301396 0.344086
Si Si5 0.607782 0.782900 0.947926
Si Si6 0.032506 0.199779 0.755472
Si Si7 0.988997 0.325428 0.093442
Si Si8 0.853896 0.941477 0.518858
O O1 0.791288 0.750948 0.299360
O O2 0.797997 0.535733 0.160792
O O3 0.408583 0.878308 0.381991
O O4 0.822574 0.782689 0.094880
O O5 0.525956 0.303818 0.954191
O O6 0.241340 0.630757 0.071304
O O7 0.504798 0.226047 0.288484
O O8 0.831973 0.262087 0.200598
O O9 0.852803 0.988127 0.247530
O O10 0.000000 0.000000 0.000000
O O11 0.328279 0.295570 0.197139
O O12 0.204562 0.159472 0.380649
O O13 0.000000 0.500000 0.500000
O O14 0.842658 0.696434 0.900560
O O15 0.500000 0.000000 0.000000
O O16 0.019357 0.184867 0.643871
O O17 0.000000 0.000000 0.500000
#
# Coordination Sequence:
#
# PCOD9065032 Si02
#       8
#     2   1   2   2   2   2   2   2
#     4  11  24  47  69 104 141 183 240 298 363 447
#     4  12  26  44  78 112 140 192 248 306 384 436
#     4  12  24  47  74 105 139 192 243 309 375 441
#     4  12  29  49  70 107 155 193 248 309 380 450
#     4  12  26  46  75 111 152 190 251 312 374 444
#     4  12  25  46  74  98 144 191 239 298 376 440
#     4  11  25  42  74 105 139 180 245 303 359 437
#     4  12  29  46  71 102 142 194 243 297 370 451
#
# _framework density 22.146681000000001
#
# number of rings (size 3 to 8) (size 9 to 14) (size 15 to 20)
#    0.000    0.267    4.000    4.400    7.467    0.000 
#    0.000    1.333    0.000    0.000    0.000    0.000 
#    0.000    0.000    0.000    0.000    0.000    0.000 
#
# Total GULP energy -83518.250393 kJ/mol
# GULP energy per Si atom -5567.883360 kJ/mol
# Density = 2.209627 g / cm^3
# Si number density = 22.146681 Si / 1000 Ang^3
#
#
#
# Elastic Constant Matrix: (Units=GPa)
#
#
# Indices 1 2 3 4 5 6 
#
# 1 125.6643 13.4976 15.9131 2.9876 -31.3427 13.8729
# 2 13.4976 62.6038 16.2312 19.7334 -23.3560 13.8559
# 3 15.9131 16.2312 52.5316 7.3708 -15.0364 -3.5241
# 4 2.9876 19.7334 7.3708 29.1115 -8.0522 -2.5567
# 5 -31.3427 -23.3560 -15.0364 -8.0522 44.0291 -6.9822
# 6 13.8729 13.8559 -3.5241 -2.5567 -6.9822 43.6822
#
#
#
# Elastic Compliance Matrix: (Units=1/GPa)
#
#
# Indices 1 2 3 4 5 6 
#
# 1 0.010035 0.001401 -0.001690 0.000127 0.006912 -0.002656
# 2 0.001401 0.027342 -0.004495 -0.015632 0.009705 -0.008844
# 3 -0.001690 -0.004495 0.022709 -0.000826 0.004731 0.004502
# 4 0.000127 -0.015632 -0.000826 0.046151 0.001184 0.007742
# 5 0.006912 0.009705 0.004731 0.001184 0.034728 0.000728
# 6 -0.002656 -0.008844 0.004502 0.007742 0.000728 0.027474
#
#
# Mechanical properties :
#
#
# Convention : Reuss Voigt Hill
#
# Bulk Modulus (GPa) = 19.79466 36.89817 28.34641
# Shear Modulus (GPa) = 25.66110 36.37510 31.01810
#
# Velocity S-wave (km/s) = 3.40764 4.05713 3.74649
# Velocity P-wave (km/s) = 4.94369 6.21643 5.61623
#
# Compressibility (1/GPa) = 0.05051869
#
# Stress axis : x y z
#
# Youngs Moduli (GPa) = 99.64768 36.57321 44.03548
#
# Poissons Ratio (x) = -0.05124 0.07444
# Poissons Ratio (y) = -0.13960 0.19792
# Poissons Ratio (z) = 0.16845 0.16438
#
# Static dielectric constant tensor:
#      x y z
#    x 1.799060 0.022560 0.029830 
#    y 0.022560 1.952810 -0.001140 
#    z 0.029830 -0.001140 1.870780 
# 
# From -- ./inp_files/495140.got.cif
#   From: 2010.05.17/outbox.cif.g08.bks.cpg/sg2_248_cif.got.tgz:495140.got - 2010.06.03 11:33:40.
