data_PCOD9065408
_publ_section_title
;
Structure prediction by ZEFSAII (Michael W. Deem and Ramdas Pophale) SiO2 
 PCOD9065408
Probable space group: P -1
;
_chemical_formula_sum "Si O2"
_cell_formula_units_Z 16
_cell_length_a 11.954731
_cell_length_b 17.604429
_cell_length_c 19.751382
_cell_angle_alpha 20.157423
_cell_angle_beta 34.934627
_cell_angle_gamma 45.627947
_cell_volume 766.490187
_symmetry_space_group_name_H-M "P -1"
_symmetry_group_IT_number 2
_symmetry_cell_setting 'triclinic'
loop_
_space_group_symop_operation_xyz
x,y,z
-x,-y,-z
loop_
_atom_site_type_symbol
_atom_site_label
_atom_site_fract_x
_atom_site_fract_y
_atom_site_fract_z
Si Si1 0.604940 0.568924 0.161330
Si Si2 0.861946 0.086112 0.615783
Si Si3 0.270727 0.876779 0.748327
Si Si4 0.496273 0.097996 0.696021
Si Si5 0.799038 0.278085 0.763664
Si Si6 0.767113 0.574086 0.924910
Si Si7 0.401837 0.700675 0.967126
Si Si8 0.975297 0.766083 0.440517
O O1 0.548570 0.341829 0.426806
O O2 0.397050 0.635205 0.207271
O O3 0.678177 0.529009 0.082835
O O4 0.788624 0.805035 0.897842
O O5 0.662610 0.131601 0.645442
O O6 0.944439 0.211735 0.540815
O O7 0.041451 0.187875 0.385270
O O8 0.500000 0.000000 0.500000
O O9 0.167529 0.639903 0.954292
O O10 0.317050 0.809508 0.856618
O O11 0.135936 0.043226 0.674659
O O12 0.267555 0.956704 0.959754
O O13 0.511859 0.908047 0.792214
O O14 0.843843 0.205692 0.727012
O O15 0.000000 0.500000 0.500000
O O16 0.578142 0.588213 0.959960
O O17 0.202936 0.488293 0.270688
#
# Coordination Sequence:
#
# PCOD9065408 Si02
#       8
#     2   2   2   2   2   2   2   2
#     4  11  26  45  70 103 140 187 232 276 349 413
#     4  11  26  46  69 102 146 185 224 289 345 413
#     4  12  25  39  69 105 141 181 228 287 346 412
#     4  11  26  45  71 105 138 183 234 282 345 413
#     4  11  24  48  73 100 139 179 231 294 340 405
#     4  12  22  46  67 103 147 183 226 285 348 413
#     4  12  23  44  68 103 144 175 230 291 340 405
#     4  12  26  47  72 104 138 183 234 285 351 401
#
# _framework density 20.874371
#
# number of rings (size 3 to 8) (size 9 to 14) (size 15 to 20)
#    0.000    0.500    6.250    2.250    3.500    4.000 
#    0.000    1.250    0.000    0.000    0.000    0.000 
#    0.000    0.000    0.000    0.000    0.000    0.000 
#
# Total GULP energy -89398.419655 kJ/mol
# GULP energy per Si atom -5587.401228 kJ/mol
# Density = 2.082686 g / cm^3
# Si number density = 20.874371 Si / 1000 Ang^3
#
#
#
# Elastic Constant Matrix: (Units=GPa)
#
#
# Indices 1 2 3 4 5 6 
#
# 1 85.9436 40.6799 42.5466 -2.3494 13.8850 0.3634
# 2 40.6799 74.7113 31.9416 3.7013 19.2492 8.6888
# 3 42.5466 31.9416 168.5883 2.4702 25.6332 -4.5978
# 4 -2.3494 3.7013 2.4702 34.6175 -1.3922 3.3413
# 5 13.8850 19.2492 25.6332 -1.3922 38.1300 -3.5145
# 6 0.3634 8.6888 -4.5978 3.3413 -3.5145 20.5454
#
#
#
# Elastic Compliance Matrix: (Units=1/GPa)
#
#
# Indices 1 2 3 4 5 6 
#
# 1 0.017022 -0.008567 -0.002670 0.002036 0.000220 0.002431
# 2 -0.008567 0.021935 -0.000978 -0.002187 -0.008336 -0.010414
# 3 -0.002670 -0.000978 0.007361 -0.000899 -0.003360 0.001680
# 4 0.002036 -0.002187 -0.000899 0.029764 0.001698 -0.003862
# 5 0.000220 -0.008336 -0.003360 0.001698 0.033432 0.008212
# 6 0.002431 -0.010414 0.001680 -0.003862 0.008212 0.055443
#
#
# Mechanical properties :
#
#
# Convention : Reuss Voigt Hill
#
# Bulk Modulus (GPa) = 45.68823 62.17548 53.93186
# Shear Modulus (GPa) = 25.42150 32.93025 29.17587
#
# Velocity S-wave (km/s) = 3.49353 3.97614 3.74262
# Velocity P-wave (km/s) = 6.18124 7.13651 6.67599
#
# Compressibility (1/GPa) = 0.02188747
#
# Stress axis : x y z
#
# Youngs Moduli (GPa) = 58.74666 45.58870 135.85885
#
# Poissons Ratio (x) = 0.39057 0.36269
# Poissons Ratio (y) = 0.50330 0.13292
# Poissons Ratio (z) = 0.15683 0.04460
#
# Static dielectric constant tensor:
#      x y z
#    x 1.755280 0.019440 0.010550 
#    y 0.019440 1.764100 -0.009140 
#    z 0.010550 -0.009140 1.788050 
# 
# From -- ./inp_files/472403.got.cif
#   From: 2010.05.17/outbox.cif.g08.bks.cpg/sg2_237_cif.got.tgz:472403.got - 2010.06.03 11:33:40.
