data_PCOD9065293
_publ_section_title
;
Structure prediction by ZEFSAII (Michael W. Deem and Ramdas Pophale) SiO2 
 PCOD9065293
Probable space group: P -1
;
_chemical_formula_sum "Si O2"
_cell_formula_units_Z 15
_cell_length_a 14.960828
_cell_length_b 9.150473
_cell_length_c 5.329550
_cell_angle_alpha 69.060642
_cell_angle_beta 93.167905
_cell_angle_gamma 121.739930
_cell_volume 571.363442
_symmetry_space_group_name_H-M "P -1"
_symmetry_group_IT_number 2
_symmetry_cell_setting 'triclinic'
loop_
_space_group_symop_operation_xyz
x,y,z
-x,-y,-z
loop_
_atom_site_type_symbol
_atom_site_label
_atom_site_fract_x
_atom_site_fract_y
_atom_site_fract_z
Si Si1 0.097155 0.934348 0.097383
Si Si2 0.252133 0.249382 0.597701
Si Si3 0.000000 0.000000 0.500000
Si Si4 0.057729 0.386660 0.048432
Si Si5 0.549755 0.672812 0.093317
Si Si6 0.297540 0.729800 0.835211
Si Si7 0.293449 0.030868 0.353658
Si Si8 0.368154 0.657296 0.380085
O O1 0.074747 0.037503 0.243694
O O2 0.196336 0.923920 0.210385
O O3 0.998506 0.736573 0.131283
O O4 0.136892 0.072893 0.770389
O O5 0.340911 0.287576 0.793945
O O6 0.284708 0.190810 0.388694
O O7 0.266432 0.446017 0.463395
O O8 0.971470 0.775908 0.654622
O O9 0.182667 0.537831 0.944535
O O10 0.000000 0.500000 0.000000
O O11 0.469507 0.650377 0.312429
O O12 0.500000 0.500000 0.000000
O O13 0.592600 0.861275 0.827223
O O14 0.364666 0.716695 0.624522
O O15 0.282273 0.893515 0.651228
O O16 0.353146 0.767920 0.088967
#
# Coordination Sequence:
#
# PCOD9065293 Si02
#       8
#     2   2   1   2   2   2   2   2
#     4  11  26  47  77 112 149 205 260 327 388 472
#     4  11  24  47  78 108 149 198 261 308 385 468
#     4  12  26  44  74 110 148 198 262 324 396 456
#     4  12  29  50  78 108 157 213 265 325 393 473
#     4  11  24  47  81 111 145 202 258 313 385 469
#     4  12  31  48  74 116 159 200 255 322 396 455
#     4  11  27  48  77 107 152 200 255 315 389 470
#     4  12  28  48  75 114 156 199 253 326 383 462
#
# _framework density 26.252991999999999
#
# number of rings (size 3 to 8) (size 9 to 14) (size 15 to 20)
#    0.000    0.533    1.333    4.800   14.933    2.133 
#    0.000    0.000    0.000    0.000    0.000    0.000 
#    0.000    0.000    0.000    0.000    0.000    0.000 
#
# Total GULP energy -83906.135657 kJ/mol
# GULP energy per Si atom -5593.742377 kJ/mol
# Density = 2.619324 g / cm^3
# Si number density = 26.252992 Si / 1000 Ang^3
#
#
#
# Elastic Constant Matrix: (Units=GPa)
#
#
# Indices 1 2 3 4 5 6 
#
# 1 105.4856 30.0872 32.4560 3.2985 -10.0918 5.5476
# 2 30.0872 91.8670 28.0583 7.3078 0.9718 3.2774
# 3 32.4560 28.0583 128.3281 -8.4970 -12.1107 -7.2133
# 4 3.2985 7.3078 -8.4970 44.1090 -13.8646 -3.9275
# 5 -10.0918 0.9718 -12.1107 -13.8646 52.6978 -0.8138
# 6 5.5476 3.2774 -7.2133 -3.9275 -0.8138 48.9574
#
#
#
# Elastic Compliance Matrix: (Units=1/GPa)
#
#
# Indices 1 2 3 4 5 6 
#
# 1 0.011220 -0.002955 -0.002146 -0.000388 0.001586 -0.001395
# 2 -0.002955 0.012969 -0.002586 -0.003248 -0.002273 -0.001213
# 3 -0.002146 -0.002586 0.009513 0.003484 0.002773 0.002144
# 4 -0.000388 -0.003248 0.003484 0.026646 0.007844 0.003043
# 5 0.001586 -0.002273 0.002773 0.007844 0.022044 0.001377
# 6 -0.001395 -0.001213 0.002144 0.003043 0.001377 0.021248
#
#
# Mechanical properties :
#
#
# Convention : Reuss Voigt Hill
#
# Bulk Modulus (GPa) = 54.56089 56.32040 55.44065
# Shear Modulus (GPa) = 39.96028 44.82477 42.39253
#
# Velocity S-wave (km/s) = 3.90567 4.13657 4.02278
# Velocity P-wave (km/s) = 6.41614 6.65691 6.53764
#
# Compressibility (1/GPa) = 0.01832815
#
# Stress axis : x y z
#
# Youngs Moduli (GPa) = 89.12265 77.10889 105.11383
#
# Poissons Ratio (x) = 0.22790 0.22558
# Poissons Ratio (y) = 0.26340 0.27180
# Poissons Ratio (z) = 0.19126 0.19938
#
# Static dielectric constant tensor:
#      x y z
#    x 2.006680 -0.067270 -0.006640 
#    y -0.067270 1.947070 -0.061890 
#    z -0.006640 -0.061890 2.088720 
# 
# From -- ./inp_files/89907.got.cif
#   From: 2010.05.17/outbox.cif.g08.bks.cpg/sg2_45_cif.got.tgz:89907.got - 2010.06.03 11:33:40.
