data_PCOD9065148
_publ_section_title
;
Structure prediction by ZEFSAII (Michael W. Deem and Ramdas Pophale) SiO2 
 PCOD9065148
Probable space group: P -1
;
_chemical_formula_sum "Si O2"
_cell_formula_units_Z 15
_cell_length_a 21.514756
_cell_length_b 5.047007
_cell_length_c 5.342893
_cell_angle_alpha 96.410804
_cell_angle_beta 102.215068
_cell_angle_gamma 109.885455
_cell_volume 522.464693
_symmetry_space_group_name_H-M "P -1"
_symmetry_group_IT_number 2
_symmetry_cell_setting 'triclinic'
loop_
_space_group_symop_operation_xyz
x,y,z
-x,-y,-z
loop_
_atom_site_type_symbol
_atom_site_label
_atom_site_fract_x
_atom_site_fract_y
_atom_site_fract_z
Si Si1 0.061798 0.793803 0.518140
Si Si2 0.667460 0.950430 0.339144
Si Si3 0.000000 0.000000 0.000000
Si Si4 0.557124 0.655439 0.862605
Si Si5 0.398004 0.782460 0.342766
Si Si6 0.741045 0.692630 0.777803
Si Si7 0.876162 0.708167 0.972794
Si Si8 0.800776 0.230944 0.256626
O O1 0.042455 0.951888 0.288646
O O2 0.136420 0.782328 0.532142
O O3 0.000000 0.500000 0.500000
O O4 0.076208 0.981393 0.821207
O O5 0.608114 0.053278 0.396055
O O6 0.732139 0.219986 0.330222
O O7 0.629529 0.722591 0.073004
O O8 0.699222 0.806210 0.558101
O O9 0.942087 0.660172 0.927953
O O10 0.500000 0.500000 0.000000
O O11 0.561590 0.431238 0.631972
O O12 0.565287 0.964471 0.794910
O O13 0.316019 0.607739 0.208790
O O14 0.813690 0.691823 0.741107
O O15 0.770834 0.934923 0.041182
O O16 0.835612 0.493739 0.130728
#
# Coordination Sequence:
#
# PCOD9065148 Si02
#       8
#     2   2   1   2   2   2   2   2
#     4  11  25  46  67 102 152 196 268 333 409 490
#     4  12  25  46  83 108 159 210 261 331 404 467
#     4  12  24  44  68 100 142 202 246 332 408 484
#     4  12  29  52  81 119 167 209 256 329 396 477
#     4  12  26  52  77 119 157 203 272 316 393 491
#     4  11  24  47  72 114 145 201 270 330 388 490
#     4  11  25  44  72 103 149 197 269 331 408 488
#     4  11  24  48  73 106 151 203 267 341 400 477
#
# _framework density 28.710073000000001
#
# number of rings (size 3 to 8) (size 9 to 14) (size 15 to 20)
#    0.000    0.533    4.000    3.200    1.867    5.867 
#    0.000    0.000    0.000    0.000    0.000    0.000 
#    0.000    0.000    0.000    0.000    0.000    0.000 
#
# Total GULP energy -83901.983575 kJ/mol
# GULP energy per Si atom -5593.465572 kJ/mol
# Density = 2.864473 g / cm^3
# Si number density = 28.710073 Si / 1000 Ang^3
#
#
#
# Elastic Constant Matrix: (Units=GPa)
#
#
# Indices 1 2 3 4 5 6 
#
# 1 146.0485 42.6774 -7.7534 -0.2228 13.1448 34.0747
# 2 42.6774 170.2550 26.7376 -7.4788 17.6077 45.5515
# 3 -7.7534 26.7376 109.1581 12.4234 24.9039 11.6875
# 4 -0.2228 -7.4788 12.4234 50.3907 12.0568 10.6954
# 5 13.1448 17.6077 24.9039 12.0568 45.8865 6.0036
# 6 34.0747 45.5515 11.6875 10.6954 6.0036 70.5869
#
#
#
# Elastic Compliance Matrix: (Units=1/GPa)
#
#
# Indices 1 2 3 4 5 6 
#
# 1 0.008320 -0.001118 0.001753 0.000815 -0.002664 -0.003482
# 2 -0.001118 0.007973 -0.001383 0.003027 -0.002176 -0.004650
# 3 0.001753 -0.001383 0.011161 -0.001391 -0.005517 -0.001122
# 4 0.000815 0.003027 -0.001391 0.023176 -0.006061 -0.005113
# 5 -0.002664 -0.002176 -0.005517 -0.006061 0.027694 0.002167
# 6 -0.003482 -0.004650 -0.001122 -0.005113 0.002167 0.019625
#
#
# Mechanical properties :
#
#
# Convention : Reuss Voigt Hill
#
# Bulk Modulus (GPa) = 38.52214 60.97610 49.74912
# Shear Modulus (GPa) = 46.25429 57.62613 51.94021
#
# Velocity S-wave (km/s) = 4.01818 4.48501 4.25800
# Velocity P-wave (km/s) = 5.91392 6.93578 6.44514
#
# Compressibility (1/GPa) = 0.02595910
#
# Stress axis : x y z
#
# Youngs Moduli (GPa) = 120.18911 125.42332 89.59584
#
# Poissons Ratio (x) = 0.14020 -0.15703
# Poissons Ratio (y) = 0.13435 0.12387
# Poissons Ratio (z) = -0.21065 0.17340
#
# Static dielectric constant tensor:
#      x y z
#    x 1.173710 -0.065160 0.332180 
#    y -0.065160 2.188600 0.039330 
#    z 0.332180 0.039330 2.080790 
# 
# From -- ./inp_files/121282.got.cif
#   From: 2010.05.17/outbox.cif.g08.bks.cpg/sg2_61_cif.got.tgz:121282.got - 2010.06.03 11:33:40.
