data_PCOD9065034
_publ_section_title
;
Structure prediction by ZEFSAII (Michael W. Deem and Ramdas Pophale) SiO2 
 PCOD9065034
Probable space group: P -1
;
_chemical_formula_sum "Si O2"
_cell_formula_units_Z 13
_cell_length_a 8.277151
_cell_length_b 20.909944
_cell_length_c 5.177295
_cell_angle_alpha 90.871051
_cell_angle_beta 64.016493
_cell_angle_gamma 132.606829
_cell_volume 536.562145
_symmetry_space_group_name_H-M "P -1"
_symmetry_group_IT_number 2
_symmetry_cell_setting 'triclinic'
loop_
_space_group_symop_operation_xyz
x,y,z
-x,-y,-z
loop_
_atom_site_type_symbol
_atom_site_label
_atom_site_fract_x
_atom_site_fract_y
_atom_site_fract_z
Si Si1 0.673119 0.565442 0.127077
Si Si2 0.303404 0.055318 0.826824
Si Si3 0.500000 0.000000 0.500000
Si Si4 0.278905 0.277044 0.781751
Si Si5 0.078925 0.888967 0.326475
Si Si6 0.168613 0.610336 0.879136
Si Si7 0.421751 0.206630 0.062944
O O1 0.500000 0.500000 0.500000
O O2 0.723816 0.654193 0.094456
O O3 0.500000 0.500000 0.000000
O O4 0.956238 0.604080 0.917334
O O5 0.454998 0.148837 0.889789
O O6 0.463798 0.070664 0.473573
O O7 0.260732 0.972670 0.983788
O O8 0.000000 0.000000 0.000000
O O9 0.247494 0.920567 0.464012
O O10 0.569367 0.341797 0.455993
O O11 0.272413 0.217582 0.983365
O O12 0.049762 0.206861 0.723391
O O13 0.813125 0.863108 0.559850
O O14 0.309674 0.686078 0.023202
O O15 0.000000 0.500000 0.000000
#
# Coordination Sequence:
#
# PCOD9065034 Si02
#       7
#     2   2   1   2   2   2   2
#     4  12  28  49  77 109 148 198 248 312 378 449
#     4  12  24  47  68 101 143 190 241 296 374 434
#     4  12  26  40  72  98 144 192 238 302 366 440
#     4  11  25  47  72 106 148 187 251 307 368 453
#     4  11  24  47  69 104 146 191 242 308 367 444
#     4  11  25  47  74 105 144 193 242 303 377 438
#     4  11  25  45  74 103 141 193 244 305 367 443
#
# _framework density 24.228321000000001
#
# number of rings (size 3 to 8) (size 9 to 14) (size 15 to 20)
#    0.000    0.615    4.615    1.846    6.462    1.231 
#    5.538    0.000    0.000    0.000    0.000    0.000 
#    0.000    0.000    0.000    0.000    0.000    0.000 
#
# Total GULP energy -72486.294293 kJ/mol
# GULP energy per Si atom -5575.868792 kJ/mol
# Density = 2.417318 g / cm^3
# Si number density = 24.228321 Si / 1000 Ang^3
#
#
#
# Elastic Constant Matrix: (Units=GPa)
#
#
# Indices 1 2 3 4 5 6 
#
# 1 126.2992 88.5641 21.6605 12.2726 -26.2518 18.7796
# 2 88.5641 246.3653 61.5318 26.0481 -29.7194 15.5528
# 3 21.6605 61.5318 51.2932 -13.8445 -6.1819 3.1026
# 4 12.2726 26.0481 -13.8445 44.1582 -6.0861 -6.4337
# 5 -26.2518 -29.7194 -6.1819 -6.0861 41.8255 11.5708
# 6 18.7796 15.5528 3.1026 -6.4337 11.5708 62.0609
#
#
#
# Elastic Compliance Matrix: (Units=1/GPa)
#
#
# Indices 1 2 3 4 5 6 
#
# 1 0.012301 -0.002878 -0.001203 -0.001843 0.006428 -0.004331
# 2 -0.002878 0.009410 -0.011922 -0.008469 0.002504 -0.002236
# 3 -0.001203 -0.011922 0.039296 0.020021 -0.001542 0.003750
# 4 -0.001843 -0.008469 0.020021 0.035139 -0.000606 0.005435
# 5 0.006428 0.002504 -0.001542 -0.000606 0.031752 -0.008478
# 6 -0.004331 -0.002236 0.003750 0.005435 -0.008478 0.019941
#
#
# Mechanical properties :
#
#
# Convention : Reuss Voigt Hill
#
# Bulk Modulus (GPa) = 34.48082 85.27449 59.87765
# Shear Modulus (GPa) = 26.38364 46.42235 36.40300
#
# Velocity S-wave (km/s) = 3.30352 4.38200 3.88041
# Velocity P-wave (km/s) = 5.36782 7.80226 6.69659
#
# Compressibility (1/GPa) = 0.02900163
#
# Stress axis : x y z
#
# Youngs Moduli (GPa) = 81.29296 106.27293 25.44783
#
# Poissons Ratio (x) = 0.30584 0.03062
# Poissons Ratio (y) = 0.23395 0.30338
# Poissons Ratio (z) = 0.09782 1.26694
#
# Static dielectric constant tensor:
#      x y z
#    x 1.899960 0.076300 0.171750 
#    y 0.076300 1.861720 -0.133410 
#    z 0.171750 -0.133410 1.448510 
# 
# From -- ./inp_files/35348.got.cif
#   From: 2010.05.17/outbox.cif.g08.bks.cpg/sg2_18_cif.got.tgz:35348.got - 2010.06.03 11:33:40.
