data_PCOD9065746
_publ_section_title
;
Structure prediction by ZEFSAII (Michael W. Deem and Ramdas Pophale) SiO2 
 PCOD9065746
Probable space group: P -1
;
_chemical_formula_sum "Si O2"
_cell_formula_units_Z 14
_cell_length_a 5.604011
_cell_length_b 23.795684
_cell_length_c 14.616456
_cell_angle_alpha 22.168509
_cell_angle_beta 102.791188
_cell_angle_gamma 90.847194
_cell_volume 613.916614
_symmetry_space_group_name_H-M "P -1"
_symmetry_group_IT_number 2
_symmetry_cell_setting 'triclinic'
loop_
_space_group_symop_operation_xyz
x,y,z
-x,-y,-z
loop_
_atom_site_type_symbol
_atom_site_label
_atom_site_fract_x
_atom_site_fract_y
_atom_site_fract_z
Si Si1 0.110687 0.676830 0.179265
Si Si2 0.153179 0.108059 0.825112
Si Si3 0.355885 0.954752 0.474147
Si Si4 0.312797 0.696827 0.979319
Si Si5 0.920585 0.414611 0.487414
Si Si6 0.837136 0.363327 0.250400
Si Si7 0.088075 0.334704 0.130638
O O1 0.071709 0.518697 0.379094
O O2 0.294700 0.707304 0.072038
O O3 0.185587 0.639524 0.348360
O O4 0.826476 0.866116 0.864673
O O5 0.096409 0.248394 0.688639
O O6 0.963835 0.212941 0.562431
O O7 0.500000 0.000000 0.000000
O O8 0.000000 0.000000 0.000000
O O9 0.589621 0.809518 0.646977
O O10 0.500000 0.000000 0.500000
O O11 0.213580 0.867803 0.652467
O O12 0.638072 0.556499 0.195377
O O13 0.101598 0.636162 0.018090
O O14 0.969248 0.281259 0.287476
O O15 0.500000 0.500000 0.000000
O O16 0.950197 0.485182 0.113376
#
# Coordination Sequence:
#
# PCOD9065746 Si02
#       7
#     2   2   2   2   2   2   2
#     4  11  25  43  71 103 145 189 244 299 376 449
#     4  12  31  52  78 113 156 203 256 321 385 450
#     4  12  23  41  65 107 140 183 233 302 364 440
#     4  12  22  44  70 106 140 189 235 305 370 450
#     4  11  26  47  71 101 147 193 248 299 376 452
#     4  11  26  50  77 106 141 199 255 311 378 449
#     4  11  25  41  79 101 146 180 250 302 377 441
#
# _framework density 22.804403000000001
#
# number of rings (size 3 to 8) (size 9 to 14) (size 15 to 20)
#    0.000    0.571    2.857    4.286   10.000    1.143 
#    0.000    0.000    0.000    0.000    0.000    0.000 
#    0.000    0.000    0.000    0.000    0.000    0.000 
#
# Total GULP energy -78185.354208 kJ/mol
# GULP energy per Si atom -5584.668158 kJ/mol
# Density = 2.275250 g / cm^3
# Si number density = 22.804403 Si / 1000 Ang^3
#
#
#
# Elastic Constant Matrix: (Units=GPa)
#
#
# Indices 1 2 3 4 5 6 
#
# 1 89.1740 31.4723 38.9975 -2.2778 3.0184 -18.4468
# 2 31.4723 103.9511 57.4484 6.2419 -1.6151 -34.7876
# 3 38.9975 57.4484 129.8924 15.0521 0.8785 -14.2465
# 4 -2.2778 6.2419 15.0521 50.4318 -6.1105 4.7690
# 5 3.0184 -1.6151 0.8785 -6.1105 38.5701 -1.2090
# 6 -18.4468 -34.7876 -14.2465 4.7690 -1.2090 42.6830
#
#
#
# Elastic Compliance Matrix: (Units=1/GPa)
#
#
# Indices 1 2 3 4 5 6 
#
# 1 0.013958 -0.001173 -0.003410 0.001348 -0.000732 0.003766
# 2 -0.001173 0.017242 -0.005821 -0.001433 0.001089 0.011793
# 3 -0.003410 -0.005821 0.011383 -0.002718 -0.000734 -0.002136
# 4 0.001348 -0.001433 -0.002718 0.021627 0.003203 -0.003818
# 5 -0.000732 0.001089 -0.000734 0.003203 0.026576 0.000721
# 6 0.003766 0.011793 -0.002136 -0.003818 0.000721 0.034402
#
#
# Mechanical properties :
#
#
# Convention : Reuss Voigt Hill
#
# Bulk Modulus (GPa) = 45.92739 64.31708 55.12224
# Shear Modulus (GPa) = 32.62544 39.34363 35.98453
#
# Velocity S-wave (km/s) = 3.78652 4.15814 3.97667
# Velocity P-wave (km/s) = 6.26900 7.16369 6.73123
#
# Compressibility (1/GPa) = 0.02177350
#
# Stress axis : x y z
#
# Youngs Moduli (GPa) = 71.64535 57.99819 87.85320
#
# Poissons Ratio (x) = 0.06805 0.29956
# Poissons Ratio (y) = 0.08406 0.51142
# Poissons Ratio (z) = 0.24429 0.33762
#
# Static dielectric constant tensor:
#      x y z
#    x 1.957600 -0.025140 -0.064960 
#    y -0.025140 1.926320 -0.082560 
#    z -0.064960 -0.082560 2.206660 
# 
# From -- ./inp_files/90626.got.cif
#   From: 2010.05.17/outbox.cif.g08.bks.cpg/sg2_46_cif.got.tgz:90626.got - 2010.06.03 11:33:40.
