data_PCOD9065030
_publ_section_title
;
Structure prediction by ZEFSAII (Michael W. Deem and Ramdas Pophale) SiO2 
 PCOD9065030
Probable space group: P -1
;
_chemical_formula_sum "Si O2"
_cell_formula_units_Z 14
_cell_length_a 12.659391
_cell_length_b 9.681638
_cell_length_c 17.430722
_cell_angle_alpha 69.905777
_cell_angle_beta 148.662386
_cell_angle_gamma 132.504944
_cell_volume 649.655813
_symmetry_space_group_name_H-M "P -1"
_symmetry_group_IT_number 2
_symmetry_cell_setting 'triclinic'
loop_
_space_group_symop_operation_xyz
x,y,z
-x,-y,-z
loop_
_atom_site_type_symbol
_atom_site_label
_atom_site_fract_x
_atom_site_fract_y
_atom_site_fract_z
Si Si1 0.634115 0.164056 0.645285
Si Si2 0.740631 0.757645 0.639013
Si Si3 0.221485 0.458746 0.855353
Si Si4 0.180441 0.644689 0.507425
Si Si5 0.827678 0.468168 0.972281
Si Si6 0.789223 0.784848 0.844913
Si Si7 0.608790 0.902106 0.114487
O O1 0.442930 0.190220 0.484070
O O2 0.879520 0.216898 0.729361
O O3 0.881112 0.379981 0.815259
O O4 0.395744 0.915939 0.587297
O O5 0.500000 0.500000 0.500000
O O6 0.877646 0.816732 0.801333
O O7 0.030767 0.924084 0.724976
O O8 0.100513 0.484411 0.703801
O O9 0.500000 0.500000 0.000000
O O10 0.395477 0.663167 0.982955
O O11 0.437700 0.662802 0.646033
O O12 0.000000 0.500000 0.500000
O O13 0.762334 0.604641 0.895187
O O14 0.506064 0.196543 0.851229
O O15 0.000000 0.500000 0.000000
O O16 0.000000 0.000000 0.000000
O O17 0.500000 0.000000 0.000000
#
# Coordination Sequence:
#
# PCOD9065030 Si02
#       7
#     2   2   2   2   2   2   2
#     4  11  24  47  69 103 142 190 247 297 363 439
#     4  12  26  49  77 106 145 197 251 305 365 449
#     4  11  25  45  74 102 141 191 244 300 360 438
#     4  12  28  41  69 110 148 186 243 304 373 431
#     4  11  25  49  71 104 149 193 240 305 376 438
#     4  12  27  48  75 108 152 193 243 310 377 429
#     4  11  26  44  75 104 140 191 251 292 369 444
#
# _framework density 21.549873000000002
#
# number of rings (size 3 to 8) (size 9 to 14) (size 15 to 20)
#    0.000    0.571    2.857    4.714   10.000    1.143 
#    0.000    1.429    0.000    0.000    0.000    0.000 
#    0.000    0.000    0.000    0.000    0.000    0.000 
#
# Total GULP energy -78096.548035 kJ/mol
# GULP energy per Si atom -5578.324860 kJ/mol
# Density = 2.150082 g / cm^3
# Si number density = 21.549873 Si / 1000 Ang^3
#
#
#
# Elastic Constant Matrix: (Units=GPa)
#
#
# Indices 1 2 3 4 5 6 
#
# 1 138.4941 46.9590 41.3071 11.7679 17.5234 19.2490
# 2 46.9590 120.1408 31.7111 9.5595 24.3898 10.8573
# 3 41.3071 31.7111 105.7794 -8.4374 23.3308 8.5850
# 4 11.7679 9.5595 -8.4374 41.8668 -1.4439 5.6535
# 5 17.5234 24.3898 23.3308 -1.4439 39.9469 -1.2848
# 6 19.2490 10.8573 8.5850 5.6535 -1.2848 52.3183
#
#
#
# Elastic Compliance Matrix: (Units=1/GPa)
#
#
# Indices 1 2 3 4 5 6 
#
# 1 0.009524 -0.002328 -0.002733 -0.002425 -0.001324 -0.002343
# 2 -0.002328 0.010854 -0.001339 -0.002120 -0.004935 -0.001068
# 3 -0.002733 -0.001339 0.012450 0.003577 -0.005167 -0.001273
# 4 -0.002425 -0.002120 0.003577 0.026088 0.001146 -0.002046
# 5 -0.001324 -0.004935 -0.005167 0.001146 0.031783 0.003016
# 6 -0.002343 -0.001068 -0.001273 -0.002046 0.003016 0.020702
#
#
# Mechanical properties :
#
#
# Convention : Reuss Voigt Hill
#
# Bulk Modulus (GPa) = 49.92582 67.15208 58.53895
# Shear Modulus (GPa) = 38.20419 43.12221 40.66320
#
# Velocity S-wave (km/s) = 4.21506 4.47815 4.34860
# Velocity P-wave (km/s) = 6.84886 7.61363 7.24135
#
# Compressibility (1/GPa) = 0.02002972
#
# Stress axis : x y z
#
# Youngs Moduli (GPa) = 104.99664 92.13316 80.31896
#
# Poissons Ratio (x) = 0.21448 0.21949
# Poissons Ratio (y) = 0.24442 0.10752
# Poissons Ratio (z) = 0.28692 0.12334
#
# Static dielectric constant tensor:
#      x y z
#    x 2.189830 0.325690 0.041330 
#    y 0.325690 2.055360 0.067020 
#    z 0.041330 0.067020 1.786510 
# 
# From -- ./inp_files/223250.got.cif
#   From: 2010.05.17/outbox.cif.g08.bks.cpg/sg2_112_cif.got.tgz:223250.got - 2010.06.03 11:33:40.
