data_PCOD9065658
_publ_section_title
;
Structure prediction by ZEFSAII (Michael W. Deem and Ramdas Pophale) SiO2 
 PCOD9065658
Probable space group: P -1
;
_chemical_formula_sum "Si O2"
_cell_formula_units_Z 12
_cell_length_a 24.788797
_cell_length_b 22.151028
_cell_length_c 11.086716
_cell_angle_alpha 30.097281
_cell_angle_beta 149.774153
_cell_angle_gamma 169.714355
_cell_volume 539.515722
_symmetry_space_group_name_H-M "P -1"
_symmetry_group_IT_number 2
_symmetry_cell_setting 'triclinic'
loop_
_space_group_symop_operation_xyz
x,y,z
-x,-y,-z
loop_
_atom_site_type_symbol
_atom_site_label
_atom_site_fract_x
_atom_site_fract_y
_atom_site_fract_z
Si Si1 0.195864 0.143327 0.256388
Si Si2 0.354480 0.905827 0.499847
Si Si3 0.699409 0.877346 0.935931
Si Si4 0.317332 0.763528 0.173357
Si Si5 0.417658 0.591383 0.642181
Si Si6 0.158945 0.175556 0.376353
O O1 0.406821 0.267858 0.381412
O O2 0.086089 0.005661 0.421667
O O3 0.432621 0.503168 0.105233
O O4 0.840916 0.769394 0.173605
O O5 0.000000 0.500000 0.500000
O O6 0.500000 0.000000 0.500000
O O7 0.369553 0.066052 0.242076
O O8 0.513741 0.041523 0.704750
O O9 0.683050 0.872214 0.769458
O O10 0.027781 0.166485 0.098162
O O11 0.280882 0.581142 0.399916
O O12 0.000000 0.500000 0.000000
O O13 0.500000 0.000000 0.000000
O O14 0.500000 0.500000 0.500000
O O15 0.000000 0.000000 0.500000
#
# Coordination Sequence:
#
# PCOD9065658 Si02
#       6
#     2   2   2   2   2   2
#     4  12  23  43  67 106 133 175 224 277 349 417
#     4  11  27  49  72 105 135 191 249 285 347 429
#     4  11  26  44  74  94 146 178 222 293 343 409
#     4  11  24  50  72 103 144 184 234 307 348 402
#     4  11  25  41  73 106 134 173 233 277 356 417
#     4  12  25  44  61  96 145 184 223 272 342 410
#
# _framework density 22.242167999999999
#
# number of rings (size 3 to 8) (size 9 to 14) (size 15 to 20)
#    0.000    0.667    3.333    3.000    4.667    2.667 
#   18.000    0.000    0.000    0.000    0.000    0.000 
#    0.000    0.000    0.000    0.000    0.000    0.000 
#
# Total GULP energy -66828.216225 kJ/mol
# GULP energy per Si atom -5569.018019 kJ/mol
# Density = 2.219154 g / cm^3
# Si number density = 22.242168 Si / 1000 Ang^3
#
#
#
# Elastic Constant Matrix: (Units=GPa)
#
#
# Indices 1 2 3 4 5 6 
#
# 1 225.6251 76.0873 73.6837 5.4864 16.2823 26.0392
# 2 76.0873 135.8816 56.6742 26.5556 8.1457 23.7795
# 3 73.6837 56.6742 129.1141 29.3001 21.1835 2.0602
# 4 5.4864 26.5556 29.3001 45.0887 2.8816 4.8250
# 5 16.2823 8.1457 21.1835 2.8816 31.1176 -0.3604
# 6 26.0392 23.7795 2.0602 4.8250 -0.3604 50.8348
#
#
#
# Elastic Compliance Matrix: (Units=1/GPa)
#
#
# Indices 1 2 3 4 5 6 
#
# 1 0.006567 -0.002483 -0.003151 0.003025 -0.000949 -0.002368
# 2 -0.002483 0.011239 -0.002557 -0.004313 0.000457 -0.003469
# 3 -0.003151 -0.002557 0.013079 -0.006535 -0.005947 0.002858
# 4 0.003025 -0.004313 -0.006535 0.028726 0.001312 -0.001984
# 5 -0.000949 0.000457 -0.005947 0.001312 0.036447 0.000647
# 6 -0.002368 -0.003469 0.002858 -0.001984 0.000647 0.022585
#
#
# Mechanical properties :
#
#
# Convention : Reuss Voigt Hill
#
# Bulk Modulus (GPa) = 68.95057 100.39015 84.67036
# Shear Modulus (GPa) = 35.75062 44.35325 40.05194
#
# Velocity S-wave (km/s) = 4.01351 4.47039 4.24809
# Velocity P-wave (km/s) = 7.24879 8.47814 7.88745
#
# Compressibility (1/GPa) = 0.01450314
#
# Stress axis : x y z
#
# Youngs Moduli (GPa) = 152.28796 88.97765 76.45966
#
# Poissons Ratio (x) = 0.22090 0.24089
# Poissons Ratio (y) = 0.37807 0.19553
# Poissons Ratio (z) = 0.47980 0.22754
#
# Static dielectric constant tensor:
#      x y z
#    x 2.135500 -0.379050 -0.239840 
#    y -0.379050 2.463680 0.165940 
#    z -0.239840 0.165940 1.994290 
# 
# From -- ./inp_files/477111.got.cif
#   From: 2010.05.17/outbox.cif.g08.bks.cpg/sg2_239_cif.got.tgz:477111.got - 2010.06.03 11:33:40.
