data_PCOD9065382
_publ_section_title
;
Structure prediction by ZEFSAII (Michael W. Deem and Ramdas Pophale) SiO2 
 PCOD9065382
Probable space group: P -1
;
_chemical_formula_sum "Si O2"
_cell_formula_units_Z 16
_cell_length_a 6.581541
_cell_length_b 9.470408
_cell_length_c 13.711712
_cell_angle_alpha 100.021404
_cell_angle_beta 78.720031
_cell_angle_gamma 65.533958
_cell_volume 731.082609
_symmetry_space_group_name_H-M "P -1"
_symmetry_group_IT_number 2
_symmetry_cell_setting 'triclinic'
loop_
_space_group_symop_operation_xyz
x,y,z
-x,-y,-z
loop_
_atom_site_type_symbol
_atom_site_label
_atom_site_fract_x
_atom_site_fract_y
_atom_site_fract_z
Si Si1 0.598997 0.474948 0.829496
Si Si2 0.073186 0.881138 0.662104
Si Si3 0.108309 0.310231 0.468638
Si Si4 0.648097 0.923896 0.073656
Si Si5 0.428985 0.831282 0.238233
Si Si6 0.883272 0.380742 0.987810
Si Si7 0.507665 0.235381 0.261973
Si Si8 0.296925 0.108312 0.606191
O O1 0.611526 0.321104 0.752290
O O2 0.792640 0.400086 0.887223
O O3 0.618697 0.607451 0.775397
O O4 0.344455 0.563807 0.916135
O O5 0.254258 0.776923 0.715880
O O6 0.051640 0.764012 0.570177
O O7 0.167399 0.003332 0.630631
O O8 0.810184 0.004086 0.731334
O O9 0.338631 0.244267 0.368778
O O10 0.147413 0.260985 0.571846
O O11 0.000000 0.500000 0.500000
O O12 0.552324 0.810073 0.120081
O O13 0.923920 0.802396 0.025142
O O14 0.589067 0.073752 0.170191
O O15 0.500000 0.000000 0.000000
O O16 0.593793 0.849590 0.305908
O O17 0.000000 0.500000 0.000000
O O18 0.500000 0.000000 0.500000
#
# Coordination Sequence:
#
# PCOD9065382 Si02
#       8
#     2   2   2   2   2   2   2   2
#     4  11  28  43  73 108 143 196 235 296 366 422
#     4  12  24  46  75 100 143 188 240 289 368 425
#     4  12  29  46  72 106 145 184 239 302 360 422
#     4  12  25  47  76 102 149 188 237 301 348 424
#     4  12  26  46  71 108 139 191 240 286 361 432
#     4  11  24  48  72 103 147 190 246 291 355 428
#     4  12  27  48  67 112 144 182 244 295 355 430
#     4  12  24  49  72 102 139 185 241 295 351 436
#
# _framework density 21.885352000000001
#
# number of rings (size 3 to 8) (size 9 to 14) (size 15 to 20)
#    0.000    0.250    6.250    1.875    7.000    2.000 
#    0.000    0.000    0.000    0.000    0.000    0.000 
#    0.000    0.000    0.000    0.000    0.000    0.000 
#
# Total GULP energy -89498.434823 kJ/mol
# GULP energy per Si atom -5593.652176 kJ/mol
# Density = 2.183554 g / cm^3
# Si number density = 21.885352 Si / 1000 Ang^3
#
#
#
# Elastic Constant Matrix: (Units=GPa)
#
#
# Indices 1 2 3 4 5 6 
#
# 1 123.1859 37.8828 45.1132 1.6664 25.9363 -11.4619
# 2 37.8828 124.4498 31.8870 2.5405 23.8712 -15.9240
# 3 45.1132 31.8870 75.8991 -7.6225 19.1324 -13.4702
# 4 1.6664 2.5405 -7.6225 43.0769 -6.6427 1.6160
# 5 25.9363 23.8712 19.1324 -6.6427 30.6142 -3.6921
# 6 -11.4619 -15.9240 -13.4702 1.6160 -3.6921 42.7270
#
#
#
# Elastic Compliance Matrix: (Units=1/GPa)
#
#
# Indices 1 2 3 4 5 6 
#
# 1 0.011706 -0.000882 -0.005054 -0.002323 -0.006486 0.000746
# 2 -0.000882 0.010377 -0.002021 -0.001988 -0.006207 0.002533
# 3 -0.005054 -0.002021 0.019204 0.002795 -0.005129 0.003397
# 4 -0.002323 -0.001988 0.002795 0.025042 0.007107 -0.000816
# 5 -0.006486 -0.006207 -0.005129 0.007107 0.047526 -0.001832
# 6 0.000746 0.002533 0.003397 -0.000816 -0.001832 0.025492
#
#
# Mechanical properties :
#
#
# Convention : Reuss Voigt Hill
#
# Bulk Modulus (GPa) = 39.40868 61.47788 50.44328
# Shear Modulus (GPa) = 30.54035 37.19372 33.86703
#
# Velocity S-wave (km/s) = 3.73965 4.12695 3.93806
# Velocity P-wave (km/s) = 6.05744 7.13168 6.61640
#
# Compressibility (1/GPa) = 0.02537512
#
# Stress axis : x y z
#
# Youngs Moduli (GPa) = 85.42612 96.36867 52.07118
#
# Poissons Ratio (x) = 0.08495 0.26314
# Poissons Ratio (y) = 0.07531 0.10524
# Poissons Ratio (z) = 0.43170 0.19476
#
# Static dielectric constant tensor:
#      x y z
#    x 1.716310 0.010190 0.011900 
#    y 0.010190 1.827490 -0.018140 
#    z 0.011900 -0.018140 1.796030 
# 
# From -- ./inp_files/97732.got.cif
#   From: 2010.05.17/outbox.cif.g08.bks.cpg/sg2_49_cif.got.tgz:97732.got - 2010.06.03 11:33:40.
