data_PCOD9065385
_publ_section_title
;
Structure prediction by ZEFSAII (Michael W. Deem and Ramdas Pophale) SiO2 
 PCOD9065385
Probable space group: P -1
;
_chemical_formula_sum "Si O2"
_cell_formula_units_Z 14
_cell_length_a 12.022495
_cell_length_b 10.914053
_cell_length_c 6.359268
_cell_angle_alpha 71.095117
_cell_angle_beta 79.694134
_cell_angle_gamma 51.629691
_cell_volume 618.635796
_symmetry_space_group_name_H-M "P -1"
_symmetry_group_IT_number 2
_symmetry_cell_setting 'triclinic'
loop_
_space_group_symop_operation_xyz
x,y,z
-x,-y,-z
loop_
_atom_site_type_symbol
_atom_site_label
_atom_site_fract_x
_atom_site_fract_y
_atom_site_fract_z
Si Si1 0.441551 0.638669 0.264132
Si Si2 0.947817 0.906712 0.452380
Si Si3 0.032501 0.320998 0.080879
Si Si4 0.655032 0.875300 0.913520
Si Si5 0.381434 0.359428 0.139323
Si Si6 0.631611 0.109681 0.493139
Si Si7 0.826634 0.320478 0.836256
O O1 0.500000 0.500000 0.500000
O O2 0.403070 0.790972 0.332026
O O3 0.300073 0.694811 0.153653
O O4 0.562775 0.573208 0.083819
O O5 0.957588 0.763843 0.655606
O O6 0.047963 0.816295 0.272820
O O7 0.783170 0.046193 0.389110
O O8 0.000000 0.000000 0.500000
O O9 0.192786 0.188313 0.003179
O O10 0.000000 0.500000 0.000000
O O11 0.910513 0.319468 0.009950
O O12 0.677707 0.710259 0.949090
O O13 0.641377 0.955929 0.649486
O O14 0.500000 0.000000 0.000000
O O15 0.515389 0.216625 0.300510
O O16 0.269474 0.485196 0.279872
#
# Coordination Sequence:
#
# PCOD9065385 Si02
#       7
#     2   2   2   2   2   2   2
#     4  12  26  44  72 109 143 185 240 296 357 433
#     4  11  27  46  71 105 149 185 235 302 357 423
#     4  11  27  49  70 105 147 191 242 292 361 431
#     4  11  24  48  72 104 142 188 239 303 348 424
#     4  12  26  45  76 102 141 191 240 292 361 429
#     4  11  25  46  70 106 142 184 243 291 362 426
#     4  12  27  44  74 105 142 192 236 292 363 430
#
# _framework density 22.630438000000002
#
# number of rings (size 3 to 8) (size 9 to 14) (size 15 to 20)
#    0.000    0.571    5.714    0.857    6.000    2.286 
#    0.000    0.000    0.000    0.000    0.000    0.000 
#    0.000    0.000    0.000    0.000    0.000    0.000 
#
# Total GULP energy -77982.815626 kJ/mol
# GULP energy per Si atom -5570.201116 kJ/mol
# Density = 2.257893 g / cm^3
# Si number density = 22.630438 Si / 1000 Ang^3
#
#
#
# Elastic Constant Matrix: (Units=GPa)
#
#
# Indices 1 2 3 4 5 6 
#
# 1 84.5141 -3.0927 9.8788 -3.3337 20.5988 -15.6317
# 2 -3.0927 75.1298 0.6971 13.0363 -2.0848 -12.0400
# 3 9.8788 0.6971 43.2483 -17.5703 9.7130 1.0741
# 4 -3.3337 13.0363 -17.5703 37.8782 -1.9917 6.8418
# 5 20.5988 -2.0848 9.7130 -1.9917 23.8122 -8.1830
# 6 -15.6317 -12.0400 1.0741 6.8418 -8.1830 49.7633
#
#
#
# Elastic Compliance Matrix: (Units=1/GPa)
#
#
# Indices 1 2 3 4 5 6 
#
# 1 0.015448 0.000999 -0.001342 -0.000819 -0.011657 0.003319
# 2 0.000999 0.015995 -0.005050 -0.008659 0.003981 0.006138
# 3 -0.001342 -0.005050 0.034207 0.018041 -0.014199 -0.007197
# 4 -0.000819 -0.008659 0.018041 0.038972 -0.007347 -0.009308
# 5 -0.011657 0.003981 -0.014199 -0.007347 0.060552 0.008575
# 6 0.003319 0.006138 -0.007197 -0.009308 0.008575 0.025468
#
#
# Mechanical properties :
#
#
# Convention : Reuss Voigt Hill
#
# Bulk Modulus (GPa) = 18.22709 24.20652 21.21680
# Shear Modulus (GPa) = 22.75657 35.31801 29.03729
#
# Velocity S-wave (km/s) = 3.17452 3.95478 3.58594
# Velocity P-wave (km/s) = 4.63772 5.61902 5.15179
#
# Compressibility (1/GPa) = 0.05486340
#
# Stress axis : x y z
#
# Youngs Moduli (GPa) = 64.73121 62.52018 29.23359
#
# Poissons Ratio (x) = -0.06246 0.03924
# Poissons Ratio (y) = -0.06466 0.14764
# Poissons Ratio (z) = 0.08688 0.31575
#
# Static dielectric constant tensor:
#      x y z
#    x 1.957610 0.023210 -0.007740 
#    y 0.023210 1.906150 -0.008830 
#    z -0.007740 -0.008830 1.824050 
# 
# From -- ./inp_files/69074.got.cif
#   From: 2010.05.17/outbox.cif.g08.bks.cpg/sg2_35_cif.got.tgz:69074.got - 2010.06.03 11:33:40.
