data_PCOD9065393
_publ_section_title
;
Structure prediction by ZEFSAII (Michael W. Deem and Ramdas Pophale) SiO2 
 PCOD9065393
Probable space group: P -1
;
_chemical_formula_sum "Si O2"
_cell_formula_units_Z 13
_cell_length_a 8.740574
_cell_length_b 11.409984
_cell_length_c 8.509907
_cell_angle_alpha 41.461209
_cell_angle_beta 103.660955
_cell_angle_gamma 84.571716
_cell_volume 494.997767
_symmetry_space_group_name_H-M "P -1"
_symmetry_group_IT_number 2
_symmetry_cell_setting 'triclinic'
loop_
_space_group_symop_operation_xyz
x,y,z
-x,-y,-z
loop_
_atom_site_type_symbol
_atom_site_label
_atom_site_fract_x
_atom_site_fract_y
_atom_site_fract_z
Si Si1 0.109698 0.799361 0.138834
Si Si2 0.100514 0.668391 0.732196
Si Si3 0.578412 0.918265 0.858159
Si Si4 0.127633 0.243179 0.124826
Si Si5 0.433400 0.491186 0.666915
Si Si6 0.238036 0.074079 0.774448
Si Si7 0.500000 0.500000 0.000000
O O1 0.236113 0.643793 0.443955
O O2 0.992016 0.720906 0.094206
O O3 0.218725 0.870473 0.972327
O O4 0.000000 0.000000 0.000000
O O5 0.145804 0.438287 0.980641
O O6 0.291095 0.661259 0.774013
O O7 0.950243 0.758874 0.472869
O O8 0.986766 0.787326 0.734649
O O9 0.687094 0.917737 0.730641
O O10 0.570246 0.708265 0.071271
O O11 0.681778 0.922256 0.038215
O O12 0.380814 0.071530 0.685513
O O13 0.500000 0.500000 0.500000
O O14 0.529001 0.544785 0.776680
#
# Coordination Sequence:
#
# PCOD9065393 Si02
#       7
#     2   2   2   2   2   2   1
#     4  12  24  43  71 109 141 192 245 309 368 436
#     4  11  26  49  72 108 149 196 250 310 365 447
#     4  11  24  48  72 107 146 197 249 296 382 448
#     4  11  25  46  74 106 150 196 248 299 381 442
#     4  12  25  47  74 103 148 194 247 305 367 448
#     4  11  25  46  74 109 147 189 249 310 372 445
#     4  12  26  46  74 108 142 194 258 296 364 446
#
# _framework density 26.262744000000001
#
# number of rings (size 3 to 8) (size 9 to 14) (size 15 to 20)
#    0.000    0.615    4.615    2.769    0.000    3.692 
#    2.769    0.000    0.000    0.000    0.000    0.000 
#    0.000    0.000    0.000    0.000    0.000    0.000 
#
# Total GULP energy -72449.880973 kJ/mol
# GULP energy per Si atom -5573.067767 kJ/mol
# Density = 2.620297 g / cm^3
# Si number density = 26.262744 Si / 1000 Ang^3
#
#
#
# Elastic Constant Matrix: (Units=GPa)
#
#
# Indices 1 2 3 4 5 6 
#
# 1 150.3338 61.5651 48.0458 -4.2518 30.2312 -49.0773
# 2 61.5651 80.1025 16.7583 11.3894 6.3730 -42.0089
# 3 48.0458 16.7583 58.2157 4.3663 32.1911 -8.8783
# 4 -4.2518 11.3894 4.3663 40.3319 1.1358 -8.3976
# 5 30.2312 6.3730 32.1911 1.1358 51.1844 -11.7327
# 6 -49.0773 -42.0089 -8.8783 -8.3976 -11.7327 59.1247
#
#
#
# Elastic Compliance Matrix: (Units=1/GPa)
#
#
# Indices 1 2 3 4 5 6 
#
# 1 0.014997 -0.006650 -0.009530 0.005970 -0.000557 0.007029
# 2 -0.006650 0.024642 -0.002230 -0.005075 0.005114 0.011948
# 3 -0.009530 -0.002230 0.034554 -0.005405 -0.017672 -0.008581
# 4 0.005970 -0.005075 -0.005405 0.028407 0.000967 0.004765
# 5 -0.000557 0.005114 -0.017672 0.000967 0.031925 0.006990
# 6 0.007029 0.011948 -0.008581 0.004765 0.006990 0.032012
#
#
# Mechanical properties :
#
#
# Convention : Reuss Voigt Hill
#
# Bulk Modulus (GPa) = 26.75845 60.15450 43.45648
# Shear Modulus (GPa) = 23.16797 40.94703 32.05750
#
# Velocity S-wave (km/s) = 2.97334 3.95287 3.49756
# Velocity P-wave (km/s) = 4.69026 6.61726 5.73527
#
# Compressibility (1/GPa) = 0.03737137
#
# Stress axis : x y z
#
# Youngs Moduli (GPa) = 66.68068 40.58041 28.94059
#
# Poissons Ratio (x) = 0.26988 0.27581
# Poissons Ratio (y) = 0.44345 0.06454
# Poissons Ratio (z) = 0.63549 0.09049
#
# Static dielectric constant tensor:
#      x y z
#    x 2.345230 0.032470 -0.013020 
#    y 0.032470 2.290250 0.036470 
#    z -0.013020 0.036470 2.037710 
# 
# From -- ./inp_files/153666.got.cif
#   From: 2010.05.17/outbox.cif.g08.bks.cpg/sg2_77_cif.got.tgz:153666.got - 2010.06.03 11:33:40.
