data_PCOD9065339
_publ_section_title
;
Structure prediction by ZEFSAII (Michael W. Deem and Ramdas Pophale) SiO2 
 PCOD9065339
Probable space group: P -1
;
_chemical_formula_sum "Si O2"
_cell_formula_units_Z 16
_cell_length_a 17.023721
_cell_length_b 7.265582
_cell_length_c 8.773929
_cell_angle_alpha 42.659173
_cell_angle_beta 116.031055
_cell_angle_gamma 122.533932
_cell_volume 618.195730
_symmetry_space_group_name_H-M "P -1"
_symmetry_group_IT_number 2
_symmetry_cell_setting 'triclinic'
loop_
_space_group_symop_operation_xyz
x,y,z
-x,-y,-z
loop_
_atom_site_type_symbol
_atom_site_label
_atom_site_fract_x
_atom_site_fract_y
_atom_site_fract_z
Si Si1 0.707050 0.150086 0.861107
Si Si2 0.899366 0.113943 0.381170
Si Si3 0.764641 0.452523 0.116140
Si Si4 0.919932 0.047486 0.797394
Si Si5 0.441852 0.445969 0.823608
Si Si6 0.612653 0.507015 0.738691
Si Si7 0.668050 0.149211 0.487426
Si Si8 0.100702 0.482566 0.293147
O O1 0.649850 0.364994 0.718421
O O2 0.699527 0.081099 0.718456
O O3 0.818682 0.317612 0.873239
O O4 0.649626 0.844988 0.074933
O O5 0.815690 0.231706 0.248542
O O6 0.069311 0.918094 0.396381
O O7 0.991631 0.333594 0.244418
O O8 0.870515 0.795665 0.479854
O O9 0.744969 0.404479 0.306499
O O10 0.666312 0.407040 0.981596
O O11 0.831362 0.763393 0.928366
O O12 0.904866 0.327435 0.683071
O O13 0.000000 0.000000 0.000000
O O14 0.505976 0.411958 0.759621
O O15 0.413603 0.728543 0.622242
O O16 0.500000 0.500000 0.000000
O O17 0.644229 0.855805 0.548028
#
# Coordination Sequence:
#
# PCOD9065339 Si02
#       8
#     2   2   2   2   2   2   2   2
#     4  12  27  46  73 109 144 186 245 294 361 429
#     4  11  26  47  70 104 148 190 239 296 356 417
#     4  12  24  47  75 103 148 193 238 299 357 426
#     4  12  25  44  71 106 142 191 242 292 352 422
#     4  12  25  50  74 107 145 190 236 297 366 430
#     4  12  27  49  74 108 144 185 243 298 361 429
#     4  12  25  46  77 103 147 188 236 302 360 425
#     4  11  24  48  69 103 144 187 238 293 352 423
#
# _framework density 25.881771000000001
#
# number of rings (size 3 to 8) (size 9 to 14) (size 15 to 20)
#    0.000    0.250    3.750    5.625    1.750    3.000 
#    4.500    2.500    0.000    0.000    0.000    0.000 
#    0.000    0.000    0.000    0.000    0.000    0.000 
#
# Total GULP energy -89617.198333 kJ/mol
# GULP energy per Si atom -5601.074896 kJ/mol
# Density = 2.582286 g / cm^3
# Si number density = 25.881771 Si / 1000 Ang^3
#
#
#
# Elastic Constant Matrix: (Units=GPa)
#
#
# Indices 1 2 3 4 5 6 
#
# 1 187.7098 45.2063 60.3170 -26.6915 1.7081 8.1147
# 2 45.2063 85.4026 42.8812 -27.0040 -1.9325 -15.1525
# 3 60.3170 42.8812 103.2251 -16.3339 10.5587 2.8075
# 4 -26.6915 -27.0040 -16.3339 47.0868 -4.8598 7.0002
# 5 1.7081 -1.9325 10.5587 -4.8598 71.0975 -13.5446
# 6 8.1147 -15.1525 2.8075 7.0002 -13.5446 51.2926
#
#
#
# Elastic Compliance Matrix: (Units=1/GPa)
#
#
# Indices 1 2 3 4 5 6 
#
# 1 0.007136 -0.001911 -0.002982 0.002188 0.000022 -0.001823
# 2 -0.001911 0.019324 -0.006260 0.007233 0.003177 0.006205
# 3 -0.002982 -0.006260 0.014370 -0.000156 -0.002792 -0.002880
# 4 0.002188 0.007233 -0.000156 0.026962 0.001739 -0.001421
# 5 0.000022 0.003177 -0.002792 0.001739 0.015633 0.004979
# 6 -0.001823 0.006205 -0.002880 -0.001421 0.004979 0.023284
#
#
# Mechanical properties :
#
#
# Convention : Reuss Voigt Hill
#
# Bulk Modulus (GPa) = 53.98701 74.79405 64.39053
# Shear Modulus (GPa) = 36.98526 49.09091 43.03808
#
# Velocity S-wave (km/s) = 3.78432 4.35988 4.08226
# Velocity P-wave (km/s) = 6.32449 7.36925 6.86677
#
# Compressibility (1/GPa) = 0.01852298
#
# Stress axis : x y z
#
# Youngs Moduli (GPa) = 140.14398 51.74953 69.58995
#
# Poissons Ratio (x) = 0.09889 0.20752
# Poissons Ratio (y) = 0.26780 0.43564
# Poissons Ratio (z) = 0.41792 0.32396
#
# Static dielectric constant tensor:
#      x y z
#    x 2.012640 0.036380 -0.001520 
#    y 0.036380 2.094630 0.054070 
#    z -0.001520 0.054070 2.004730 
# 
# From -- ./inp_files/460915.got.cif
#   From: 2010.05.17/outbox.cif.g08.bks.cpg/sg2_231_cif.got.tgz:460915.got - 2010.06.03 11:33:40.
