data_PCOD9065170
_publ_section_title
;
Structure prediction by ZEFSAII (Michael W. Deem and Ramdas Pophale) SiO2 
 PCOD9065170
Probable space group: P -1
;
_chemical_formula_sum "Si O2"
_cell_formula_units_Z 16
_cell_length_a 19.018541
_cell_length_b 9.185484
_cell_length_c 5.144659
_cell_angle_alpha 52.919825
_cell_angle_beta 83.816655
_cell_angle_gamma 83.917645
_cell_volume 711.885921
_symmetry_space_group_name_H-M "P -1"
_symmetry_group_IT_number 2
_symmetry_cell_setting 'triclinic'
loop_
_space_group_symop_operation_xyz
x,y,z
-x,-y,-z
loop_
_atom_site_type_symbol
_atom_site_label
_atom_site_fract_x
_atom_site_fract_y
_atom_site_fract_z
Si Si1 0.813013 0.813232 0.570597
Si Si2 0.963288 0.202360 0.785019
Si Si3 0.325768 0.406820 0.178589
Si Si4 0.518612 0.694379 0.681556
Si Si5 0.062764 0.477632 0.205502
Si Si6 0.685268 0.330115 0.600776
Si Si7 0.539856 0.165488 0.935589
Si Si8 0.173873 0.929310 0.216991
O O1 0.736642 0.730296 0.674498
O O2 0.866765 0.636336 0.783255
O O3 0.820320 0.948384 0.662551
O O4 0.827428 0.932316 0.178839
O O5 0.925334 0.321874 0.901813
O O6 0.898854 0.176999 0.640415
O O7 0.027731 0.332823 0.568482
O O8 0.000000 0.000000 0.000000
O O9 0.398747 0.288204 0.319675
O O10 0.314645 0.537915 0.291398
O O11 0.328351 0.540068 0.784296
O O12 0.500385 0.687794 0.393275
O O13 0.500000 0.500000 0.000000
O O14 0.473566 0.821689 0.766014
O O15 0.000000 0.500000 0.000000
O O16 0.621937 0.191647 0.813422
O O17 0.759175 0.213778 0.673804
O O18 0.500000 0.000000 0.000000
#
# Coordination Sequence:
#
# PCOD9065170 Si02
#       8
#     2   2   2   2   2   2   2   2
#     4  12  28  47  69 107 139 187 234 287 349 422
#     4  11  24  47  73 107 142 186 234 294 349 417
#     4  12  26  44  72  96 142 179 237 285 348 427
#     4  12  23  45  69  99 129 182 228 287 349 414
#     4  11  26  43  77 105 142 188 241 285 353 423
#     4  12  25  46  67 101 136 188 227 288 354 416
#     4  12  26  42  69 100 137 174 235 290 354 421
#     4  12  28  46  73 100 148 183 232 289 356 410
#
# _framework density 22.475511000000001
#
# number of rings (size 3 to 8) (size 9 to 14) (size 15 to 20)
#    0.000    0.250    3.750    4.500    8.750    1.000 
#    0.000    0.000    0.000    0.000    0.000    0.000 
#    0.000    0.000    0.000    0.000    0.000    0.000 
#
# Total GULP energy -89358.539653 kJ/mol
# GULP energy per Si atom -5584.908728 kJ/mol
# Density = 2.242436 g / cm^3
# Si number density = 22.475511 Si / 1000 Ang^3
#
#
#
# Elastic Constant Matrix: (Units=GPa)
#
#
# Indices 1 2 3 4 5 6 
#
# 1 136.9603 4.7285 -22.5641 0.0576 0.1047 2.1236
# 2 4.7285 117.9344 14.8952 9.1871 -11.4898 13.1447
# 3 -22.5641 14.8952 64.2799 9.5402 3.1964 -7.0705
# 4 0.0576 9.1871 9.5402 39.3965 5.7325 0.6194
# 5 0.1047 -11.4898 3.1964 5.7325 33.9340 -10.9743
# 6 2.1236 13.1447 -7.0705 0.6194 -10.9743 42.5880
#
#
#
# Elastic Compliance Matrix: (Units=1/GPa)
#
#
# Indices 1 2 3 4 5 6 
#
# 1 0.007823 -0.000721 0.003038 -0.000526 -0.000386 0.000245
# 2 -0.000721 0.009569 -0.002604 -0.001996 0.003001 -0.002547
# 3 0.003038 -0.002604 0.018210 -0.003740 -0.000838 0.003514
# 4 -0.000526 -0.001996 -0.003740 0.027594 -0.005571 -0.001815
# 5 -0.000386 0.003001 -0.000838 -0.005571 0.034030 0.007804
# 6 0.000245 -0.002547 0.003514 -0.001815 0.007804 0.026876
#
#
# Mechanical properties :
#
#
# Convention : Reuss Voigt Hill
#
# Bulk Modulus (GPa) = 28.54875 34.81041 31.67958
# Shear Modulus (GPa) = 36.66973 44.65805 40.66389
#
# Velocity S-wave (km/s) = 4.04362 4.46237 4.25815
# Velocity P-wave (km/s) = 5.87629 6.48631 6.18882
#
# Compressibility (1/GPa) = 0.03502781
#
# Stress axis : x y z
#
# Youngs Moduli (GPa) = 127.82062 104.50560 54.91517
#
# Poissons Ratio (x) = 0.07538 -0.16682
# Poissons Ratio (y) = 0.09219 0.14298
# Poissons Ratio (z) = -0.38828 0.27210
#
# Static dielectric constant tensor:
#      x y z
#    x 1.823660 -0.060110 -0.001920 
#    y -0.060110 1.797040 -0.067770 
#    z -0.001920 -0.067770 1.764500 
# 
# From -- ./inp_files/106101.got.cif
#   From: 2010.05.17/outbox.cif.g08.bks.cpg/sg2_54_cif.got.tgz:106101.got - 2010.06.03 11:33:40.
