data_PCOD9065709
_publ_section_title
;
Structure prediction by ZEFSAII (Michael W. Deem and Ramdas Pophale) SiO2 
 PCOD9065709
Probable space group: P -1
;
_chemical_formula_sum "Si O2"
_cell_formula_units_Z 13
_cell_length_a 7.444821
_cell_length_b 13.093101
_cell_length_c 5.768735
_cell_angle_alpha 97.751929
_cell_angle_beta 92.783885
_cell_angle_gamma 105.757185
_cell_volume 534.090976
_symmetry_space_group_name_H-M "P -1"
_symmetry_group_IT_number 2
_symmetry_cell_setting 'triclinic'
loop_
_space_group_symop_operation_xyz
x,y,z
-x,-y,-z
loop_
_atom_site_type_symbol
_atom_site_label
_atom_site_fract_x
_atom_site_fract_y
_atom_site_fract_z
Si Si1 0.419248 0.022864 0.755120
Si Si2 0.500000 0.500000 0.000000
Si Si3 0.943948 0.105899 0.486274
Si Si4 0.853575 0.550454 0.371114
Si Si5 0.764049 0.718922 0.701314
Si Si6 0.517093 0.265887 0.969390
Si Si7 0.921682 0.263070 0.892298
O O1 0.500000 0.000000 0.500000
O O2 0.426185 0.149589 0.807061
O O3 0.218150 0.932907 0.721785
O O4 0.500000 0.000000 0.000000
O O5 0.575374 0.738888 0.784001
O O6 0.686204 0.494676 0.167032
O O7 0.004506 0.357370 0.742920
O O8 0.126901 0.196947 0.451349
O O9 0.865590 0.151621 0.717867
O O10 0.000000 0.000000 0.500000
O O11 0.746984 0.598961 0.579415
O O12 0.469900 0.370454 0.887462
O O13 0.000000 0.500000 0.500000
O O14 0.910925 0.736424 0.925971
O O15 0.737344 0.279665 0.999569
#
# Coordination Sequence:
#
# PCOD9065709 Si02
#       7
#     2   1   2   2   2   2   2
#     4  12  28  51  81 124 164 220 285 353 438 525
#     4  12  28  52  78 122 164 220 278 356 422 522
#     4  11  26  47  80 113 163 211 269 352 432 510
#     4  11  27  51  80 115 165 221 282 348 432 507
#     4  11  26  49  77 118 155 217 276 346 425 516
#     4  12  27  47  83 114 168 215 283 348 426 515
#     4  11  24  52  75 115 161 209 274 347 421 513
#
# _framework density 24.340422
#
# number of rings (size 3 to 8) (size 9 to 14) (size 15 to 20)
#    0.000    0.615    3.077    2.769    6.462    4.308 
#    5.538    0.000    0.000    0.000    0.000    0.000 
#    0.000    0.000    0.000    0.000    0.000    0.000 
#
# Total GULP energy -72422.741058 kJ/mol
# GULP energy per Si atom -5570.980081 kJ/mol
# Density = 2.428502 g / cm^3
# Si number density = 24.340422 Si / 1000 Ang^3
#
#
#
# Elastic Constant Matrix: (Units=GPa)
#
#
# Indices 1 2 3 4 5 6 
#
# 1 158.6772 41.2862 76.8460 14.0075 -4.4439 -5.6473
# 2 41.2862 135.2343 48.7000 23.9624 -3.5656 -26.8360
# 3 76.8460 48.7000 111.8611 21.4401 6.0507 -14.5929
# 4 14.0075 23.9624 21.4401 44.7356 -1.0660 3.1886
# 5 -4.4439 -3.5656 6.0507 -1.0660 64.7911 2.3484
# 6 -5.6473 -26.8360 -14.5929 3.1886 2.3484 37.1608
#
#
#
# Elastic Compliance Matrix: (Units=1/GPa)
#
#
# Indices 1 2 3 4 5 6 
#
# 1 0.009728 -0.001100 -0.006736 0.000955 0.001329 -0.002128
# 2 -0.001100 0.010796 -0.002074 -0.004950 0.000369 0.007216
# 3 -0.006736 -0.002074 0.016096 -0.004860 -0.002317 0.004363
# 4 0.000955 -0.004950 -0.004860 0.027612 0.000983 -0.007769
# 5 0.001329 0.000369 -0.002317 0.000983 0.015834 -0.001526
# 6 -0.002128 0.007216 0.004363 -0.007769 -0.001526 0.034274
#
#
# Mechanical properties :
#
#
# Convention : Reuss Voigt Hill
#
# Bulk Modulus (GPa) = 59.52778 82.15965 70.84371
# Shear Modulus (GPa) = 35.77502 45.26688 40.52095
#
# Velocity S-wave (km/s) = 3.83793 4.31715 4.08457
# Velocity P-wave (km/s) = 6.64447 7.66016 7.17032
#
# Compressibility (1/GPa) = 0.01679888
#
# Stress axis : x y z
#
# Youngs Moduli (GPa) = 102.79716 92.62448 62.12573
#
# Poissons Ratio (x) = 0.10193 0.41849
# Poissons Ratio (y) = 0.11312 0.12886
# Poissons Ratio (z) = 0.69247 0.19212
#
# Static dielectric constant tensor:
#      x y z
#    x 1.865080 0.019680 -0.071100 
#    y 0.019680 1.995260 -0.009630 
#    z -0.071100 -0.009630 1.903650 
# 
# From -- ./inp_files/25128.got.cif
#   From: 2010.05.17/outbox.cif.g08.bks.cpg/sg2_13_cif.got.tgz:25128.got - 2010.06.03 11:33:40.
