data_PCOD9065246
_publ_section_title
;
Structure prediction by ZEFSAII (Michael W. Deem and Ramdas Pophale) SiO2 
 PCOD9065246
Probable space group: P -1
;
_chemical_formula_sum "Si O2"
_cell_formula_units_Z 15
_cell_length_a 9.433619
_cell_length_b 8.630436
_cell_length_c 18.089305
_cell_angle_alpha 87.187631
_cell_angle_beta 26.060235
_cell_angle_gamma 79.238304
_cell_volume 611.126547
_symmetry_space_group_name_H-M "P -1"
_symmetry_group_IT_number 2
_symmetry_cell_setting 'triclinic'
loop_
_space_group_symop_operation_xyz
x,y,z
-x,-y,-z
loop_
_atom_site_type_symbol
_atom_site_label
_atom_site_fract_x
_atom_site_fract_y
_atom_site_fract_z
Si Si1 0.501780 0.324194 0.537647
Si Si2 0.361690 0.858198 0.714001
Si Si3 0.406164 0.503055 0.724063
Si Si4 0.738766 0.323332 0.872369
Si Si5 0.598765 0.050394 0.031712
Si Si6 0.500000 0.000000 0.500000
Si Si7 0.397729 0.351946 0.875895
Si Si8 0.653870 0.003846 0.702283
O O1 0.500000 0.500000 0.500000
O O2 0.538384 0.356696 0.606533
O O3 0.706035 0.144042 0.414245
O O4 0.132516 0.305309 0.692351
O O5 0.492662 0.661821 0.651675
O O6 0.515420 0.953908 0.580448
O O7 0.461164 0.909705 0.745110
O O8 0.954459 0.921205 0.894372
O O9 0.516013 0.462745 0.758729
O O10 0.990376 0.555170 0.919464
O O11 0.629646 0.292372 0.841353
O O12 0.500000 0.500000 0.000000
O O13 0.678918 0.212826 0.968594
O O14 0.327915 0.071261 0.222671
O O15 0.500000 0.000000 0.000000
O O16 0.429809 0.193398 0.815050
O O17 0.000000 0.000000 0.500000
#
# Coordination Sequence:
#
# PCOD9065246 Si02
#       8
#     2   2   2   2   2   1   2   2
#     4  12  26  47  76 114 154 199 258 326 389 462
#     4  12  26  47  78 110 152 212 263 317 393 471
#     4  11  24  47  76 105 146 204 261 314 383 467
#     4  12  26  47  76 110 147 201 260 318 384 469
#     4  12  26  49  80 110 152 210 267 318 389 478
#     4  12  26  46  80 108 158 198 262 320 394 456
#     4  11  25  47  73 107 152 199 259 319 383 464
#     4  12  29  48  73 118 161 200 262 332 398 461
#
# _framework density 24.544834999999999
#
# number of rings (size 3 to 8) (size 9 to 14) (size 15 to 20)
#    0.000    0.267    6.667    1.200    5.600    0.000 
#    2.400    1.333    0.000    0.000    0.000    0.000 
#    0.000    0.000    0.000    0.000    0.000    0.000 
#
# Total GULP energy -83659.619355 kJ/mol
# GULP energy per Si atom -5577.307957 kJ/mol
# Density = 2.448897 g / cm^3
# Si number density = 24.544835 Si / 1000 Ang^3
#
#
#
# Elastic Constant Matrix: (Units=GPa)
#
#
# Indices 1 2 3 4 5 6 
#
# 1 143.4880 21.9147 41.0374 -6.2747 23.2977 10.0343
# 2 21.9147 93.0474 9.2106 -16.8522 22.7114 3.1985
# 3 41.0374 9.2106 102.2598 -14.4909 22.9240 -9.2889
# 4 -6.2747 -16.8522 -14.4909 45.6181 -12.9743 21.8768
# 5 23.2977 22.7114 22.9240 -12.9743 45.6058 -8.5504
# 6 10.0343 3.1985 -9.2889 21.8768 -8.5504 51.0418
#
#
#
# Elastic Compliance Matrix: (Units=1/GPa)
#
#
# Indices 1 2 3 4 5 6 
#
# 1 0.008631 -0.000842 -0.002925 0.000498 -0.002918 -0.002878
# 2 -0.000842 0.013367 0.000849 0.005214 -0.005871 -0.003736
# 3 -0.002925 0.000849 0.012228 0.002020 -0.004283 0.001164
# 4 0.000498 0.005214 0.002020 0.031629 0.002664 -0.013167
# 5 -0.002918 -0.005871 -0.004283 0.002664 0.030011 0.004048
# 6 -0.002878 -0.003736 0.001164 -0.013167 0.004048 0.026925
#
#
# Mechanical properties :
#
#
# Convention : Reuss Voigt Hill
#
# Bulk Modulus (GPa) = 35.22134 53.68007 44.45070
# Shear Modulus (GPa) = 36.20828 46.22865 41.21846
#
# Velocity S-wave (km/s) = 3.84499 4.34457 4.10239
# Velocity P-wave (km/s) = 5.83891 6.86183 6.37093
#
# Compressibility (1/GPa) = 0.02839188
#
# Stress axis : x y z
#
# Youngs Moduli (GPa) = 115.86027 74.81048 81.77814
#
# Poissons Ratio (x) = 0.06299 0.23918
# Poissons Ratio (y) = 0.09756 -0.06947
# Poissons Ratio (z) = 0.33886 -0.06355
#
# Static dielectric constant tensor:
#      x y z
#    x 1.971640 -0.186850 -0.005070 
#    y -0.186850 2.793940 0.051990 
#    z -0.005070 0.051990 1.977220 
# 
# From -- ./inp_files/556198.got.cif
#   From: 2010.05.17/outbox.cif.g08.bks.cpg/sg2_279_cif.got.tgz:556198.got - 2010.06.03 11:33:40.
