data_PCOD9065402
_publ_section_title
;
Structure prediction by ZEFSAII (Michael W. Deem and Ramdas Pophale) SiO2 
 PCOD9065402
Probable space group: P -1
;
_chemical_formula_sum "Si O2"
_cell_formula_units_Z 15
_cell_length_a 5.374826
_cell_length_b 11.974666
_cell_length_c 12.757853
_cell_angle_alpha 107.332405
_cell_angle_beta 116.237826
_cell_angle_gamma 105.647858
_cell_volume 621.014415
_symmetry_space_group_name_H-M "P -1"
_symmetry_group_IT_number 2
_symmetry_cell_setting 'triclinic'
loop_
_space_group_symop_operation_xyz
x,y,z
-x,-y,-z
loop_
_atom_site_type_symbol
_atom_site_label
_atom_site_fract_x
_atom_site_fract_y
_atom_site_fract_z
Si Si1 0.277822 0.496106 0.279637
Si Si2 0.915859 0.729534 0.521491
Si Si3 0.740613 0.883857 0.988010
Si Si4 0.000000 0.500000 0.000000
Si Si5 0.159960 0.786848 0.147830
Si Si6 0.235743 0.998962 0.756278
Si Si7 0.161121 0.873697 0.387852
Si Si8 0.709092 0.355026 0.292763
O O1 0.550917 0.632092 0.414848
O O2 0.451015 0.403119 0.282628
O O3 0.972835 0.443344 0.281796
O O4 0.180149 0.508408 0.146923
O O5 0.003272 0.845961 0.654421
O O6 0.041917 0.801770 0.454962
O O7 0.107434 0.654092 0.573552
O O8 0.860847 0.787344 0.038045
O O9 0.680532 0.953820 0.096137
O O10 0.465963 0.789772 0.834194
O O11 0.000000 0.000000 0.000000
O O12 0.806634 0.334505 0.927685
O O13 0.144046 0.772574 0.266020
O O14 0.429679 0.936814 0.220867
O O15 0.065842 0.072295 0.686196
O O16 0.500000 0.000000 0.500000
#
# Coordination Sequence:
#
# PCOD9065402 Si02
#       8
#     2   2   2   1   2   2   2   2
#     4  12  30  53  80 115 159 210 271 325 401 480
#     4  12  27  48  79 111 157 213 258 329 408 472
#     4  11  26  47  79 110 154 203 264 325 401 471
#     4  12  26  48  84 104 160 202 268 324 396 462
#     4  11  24  48  72 112 150 199 261 329 394 471
#     4  11  25  46  73 111 153 200 263 332 394 474
#     4  11  25  43  73 113 152 192 263 328 399 470
#     4  12  29  54  77 116 164 207 270 328 394 493
#
# _framework density 24.154026999999999
#
# number of rings (size 3 to 8) (size 9 to 14) (size 15 to 20)
#    0.000    0.533    2.667    3.600    7.467    2.667 
#    0.000    0.000    0.000    0.000    0.000    0.000 
#    0.000    0.000    0.000    0.000    0.000    0.000 
#
# Total GULP energy -83749.356571 kJ/mol
# GULP energy per Si atom -5583.290438 kJ/mol
# Density = 2.409905 g / cm^3
# Si number density = 24.154027 Si / 1000 Ang^3
#
#
#
# Elastic Constant Matrix: (Units=GPa)
#
#
# Indices 1 2 3 4 5 6 
#
# 1 38.0869 3.3294 7.0466 -2.9625 -1.6116 6.7484
# 2 3.3294 89.2289 35.8914 6.9988 0.3434 2.8823
# 3 7.0466 35.8914 124.9031 5.6297 21.8443 0.1888
# 4 -2.9625 6.9988 5.6297 66.2532 -1.6500 9.9811
# 5 -1.6116 0.3434 21.8443 -1.6500 26.9895 3.5272
# 6 6.7484 2.8823 0.1888 9.9811 3.5272 34.6057
#
#
#
# Elastic Compliance Matrix: (Units=1/GPa)
#
#
# Indices 1 2 3 4 5 6 
#
# 1 0.028330 -0.000046 -0.002530 0.002623 0.004782 -0.006751
# 2 -0.000046 0.013023 -0.004303 -0.000748 0.003423 -0.001185
# 3 -0.002530 -0.004303 0.011079 -0.001148 -0.009405 0.002081
# 4 0.002623 -0.000748 -0.001148 0.016274 0.002799 -0.005422
# 5 0.004782 0.003423 -0.009405 0.002799 0.045947 -0.006657
# 6 -0.006751 -0.001185 0.002081 -0.005422 -0.006657 0.032543
#
#
# Mechanical properties :
#
#
# Convention : Reuss Voigt Hill
#
# Bulk Modulus (GPa) = 25.85568 38.30597 32.08083
# Shear Modulus (GPa) = 28.76129 39.29977 34.03053
#
# Velocity S-wave (km/s) = 3.45446 4.03804 3.75760
# Velocity P-wave (km/s) = 5.16128 6.13470 5.66892
#
# Compressibility (1/GPa) = 0.03867622
#
# Stress axis : x y z
#
# Youngs Moduli (GPa) = 35.29798 76.78450 90.26210
#
# Poissons Ratio (x) = 0.00351 0.22832
# Poissons Ratio (y) = 0.00161 0.38839
# Poissons Ratio (z) = 0.08929 0.33040
#
# Static dielectric constant tensor:
#      x y z
#    x 2.012710 -0.045260 -0.011970 
#    y -0.045260 1.910670 0.015440 
#    z -0.011970 0.015440 1.910450 
# 
# From -- ./inp_files/71614.got.cif
#   From: 2010.05.17/outbox.cif.g08.bks.cpg/sg2_36_cif.got.tgz:71614.got - 2010.06.03 11:33:40.
