data_PCOD9065534
_publ_section_title
;
Structure prediction by ZEFSAII (Michael W. Deem and Ramdas Pophale) SiO2 
 PCOD9065534
Probable space group: P -1
;
_chemical_formula_sum "Si O2"
_cell_formula_units_Z 15
_cell_length_a 8.903263
_cell_length_b 23.685838
_cell_length_c 6.899776
_cell_angle_alpha 118.404734
_cell_angle_beta 77.299132
_cell_angle_gamma 146.670375
_cell_volume 654.028000
_symmetry_space_group_name_H-M "P -1"
_symmetry_group_IT_number 2
_symmetry_cell_setting 'triclinic'
loop_
_space_group_symop_operation_xyz
x,y,z
-x,-y,-z
loop_
_atom_site_type_symbol
_atom_site_label
_atom_site_fract_x
_atom_site_fract_y
_atom_site_fract_z
Si Si1 0.786805 0.731780 0.191248
Si Si2 0.674058 0.996091 0.436621
Si Si3 0.443961 0.153071 0.088782
Si Si4 0.527814 0.591685 0.431732
Si Si5 0.000000 0.500000 0.500000
Si Si6 0.069832 0.320011 0.217297
Si Si7 0.596241 0.311253 0.000921
Si Si8 0.317101 0.111488 0.486158
O O1 0.637719 0.645741 0.274904
O O2 0.552480 0.677575 0.019779
O O3 0.987354 0.862126 0.414012
O O4 0.983705 0.751045 0.050172
O O5 0.500000 0.000000 0.500000
O O6 0.573363 0.919306 0.526331
O O7 0.633743 0.935913 0.164650
O O8 0.276199 0.100643 0.251247
O O9 0.784738 0.262770 0.235188
O O10 0.431924 0.212012 0.055214
O O11 0.320579 0.576795 0.535348
O O12 0.325520 0.457011 0.289850
O O13 0.808584 0.674715 0.622540
O O14 0.085242 0.562515 0.792483
O O15 0.548946 0.245143 0.724897
O O16 0.000000 0.000000 0.500000
#
# Coordination Sequence:
#
# PCOD9065534 Si02
#       8
#     2   2   2   2   1   2   2   2
#     4  12  25  46  73 104 143 187 240 295 352 431
#     4  11  25  45  71 112 142 182 243 287 362 438
#     4  11  26  46  77 102 151 189 229 308 356 422
#     4  11  27  44  73 101 142 188 236 301 350 424
#     4  12  24  48  66 106 138 188 244 288 362 426
#     4  11  24  49  66 107 144 182 241 289 371 417
#     4  11  26  46  69 106 141 185 248 289 359 431
#     4  11  26  48  70 107 143 190 239 293 360 424
#
# _framework density 22.934799999999999
#
# number of rings (size 3 to 8) (size 9 to 14) (size 15 to 20)
#    0.000    0.800    5.333    0.400    3.733    5.333 
#    4.800    0.000    0.000    0.000    0.000    0.000 
#    0.000    0.000    0.000    0.000    0.000    0.000 
#
# Total GULP energy -83612.682570 kJ/mol
# GULP energy per Si atom -5574.178838 kJ/mol
# Density = 2.288260 g / cm^3
# Si number density = 22.934800 Si / 1000 Ang^3
#
#
#
# Elastic Constant Matrix: (Units=GPa)
#
#
# Indices 1 2 3 4 5 6 
#
# 1 86.0102 28.6692 19.1816 -25.3303 14.2473 -11.2181
# 2 28.6692 65.0698 51.2209 -22.3667 10.0502 -0.9925
# 3 19.1816 51.2209 144.8342 -9.2368 17.9090 -4.9024
# 4 -25.3303 -22.3667 -9.2368 48.8747 -2.2161 8.8146
# 5 14.2473 10.0502 17.9090 -2.2161 36.7906 7.4372
# 6 -11.2181 -0.9925 -4.9024 8.8146 7.4372 23.5291
#
#
#
# Elastic Compliance Matrix: (Units=1/GPa)
#
#
# Indices 1 2 3 4 5 6 
#
# 1 0.016839 -0.005583 0.001193 0.004534 -0.007036 0.008567
# 2 -0.005583 0.027803 -0.008841 0.009493 0.000891 -0.007169
# 3 0.001193 -0.008841 0.010388 -0.002486 -0.004187 0.004615
# 4 0.004534 0.009493 -0.002486 0.028257 0.000310 -0.008640
# 5 -0.007036 0.000891 -0.004187 0.000310 0.034813 -0.015309
# 6 0.008567 -0.007169 0.004615 -0.008640 -0.015309 0.055320
#
#
# Mechanical properties :
#
#
# Convention : Reuss Voigt Hill
#
# Bulk Modulus (GPa) = 35.00158 54.89529 44.94843
# Shear Modulus (GPa) = 23.87728 34.96171 29.41950
#
# Velocity S-wave (km/s) = 3.23010 3.90859 3.58543
# Velocity P-wave (km/s) = 5.40424 6.66009 6.06476
#
# Compressibility (1/GPa) = 0.02857014
#
# Stress axis : x y z
#
# Youngs Moduli (GPa) = 59.38479 35.96758 96.26256
#
# Poissons Ratio (x) = 0.20080 -0.11487
# Poissons Ratio (y) = 0.33153 0.85102
# Poissons Ratio (z) = -0.07086 0.31798
#
# Static dielectric constant tensor:
#      x y z
#    x 1.912450 0.019150 -0.014110 
#    y 0.019150 1.832740 0.046170 
#    z -0.014110 0.046170 1.892810 
# 
# From -- ./inp_files/53502.got.cif
#   From: 2010.05.17/outbox.cif.g08.bks.cpg/sg2_27_cif.got.tgz:53502.got - 2010.06.03 11:33:40.
