data_PCOD9065738
_publ_section_title
;
Structure prediction by ZEFSAII (Michael W. Deem and Ramdas Pophale) SiO2 
 PCOD9065738
Probable space group: P -1
;
_chemical_formula_sum "Si O2"
_cell_formula_units_Z 16
_cell_length_a 12.341308
_cell_length_b 9.590083
_cell_length_c 13.856092
_cell_angle_alpha 75.579641
_cell_angle_beta 129.129864
_cell_angle_gamma 63.801655
_cell_volume 744.405313
_symmetry_space_group_name_H-M "P -1"
_symmetry_group_IT_number 2
_symmetry_cell_setting 'triclinic'
loop_
_space_group_symop_operation_xyz
x,y,z
-x,-y,-z
loop_
_atom_site_type_symbol
_atom_site_label
_atom_site_fract_x
_atom_site_fract_y
_atom_site_fract_z
Si Si1 0.920460 0.268334 0.638889
Si Si2 0.734356 0.767936 0.225770
Si Si3 0.980921 0.355665 0.286817
Si Si4 0.534373 0.782927 0.301059
Si Si5 0.480293 0.044343 0.369423
Si Si6 0.310115 0.448117 0.098142
Si Si7 0.167712 0.904937 0.526972
Si Si8 0.138329 0.898810 0.994475
O O1 0.722211 0.541918 0.510284
O O2 0.811344 0.245390 0.507041
O O3 0.108473 0.217104 0.699522
O O4 0.009885 0.100376 0.806802
O O5 0.856058 0.538442 0.273867
O O6 0.662009 0.771054 0.290765
O O7 0.500000 0.000000 0.000000
O O8 0.249053 0.179779 0.468968
O O9 0.830309 0.502011 0.080029
O O10 0.023005 0.150787 0.352812
O O11 0.382043 0.004443 0.249396
O O12 0.371777 0.797549 0.159402
O O13 0.500000 0.000000 0.500000
O O14 0.340742 0.304048 0.223848
O O15 0.582123 0.255921 0.263302
O O16 0.194222 0.692201 0.023932
O O17 0.000000 0.000000 0.500000
O O18 0.000000 0.000000 0.000000
#
# Coordination Sequence:
#
# PCOD9065738 Si02
#       8
#     2   2   2   2   2   2   2   2
#     4  12  25  46  71 105 143 185 237 289 360 419
#     4  12  25  44  76 106 145 185 237 296 358 426
#     4  11  25  45  68 104 142 182 231 289 355 415
#     4  12  26  48  72 106 143 188 241 292 356 420
#     4  11  28  47  73 102 140 189 236 293 351 417
#     4  11  26  47  67 103 140 180 239 283 350 419
#     4  11  25  41  70 100 139 184 220 284 355 421
#     4  12  29  47  72 103 142 193 240 292 348 423
#
# _framework density 21.493666000000001
#
# number of rings (size 3 to 8) (size 9 to 14) (size 15 to 20)
#    0.000    0.500    5.000    1.875    8.750    1.500 
#    0.000    0.000    0.000    0.000    0.000    0.000 
#    0.000    0.000    0.000    0.000    0.000    0.000 
#
# Total GULP energy -89340.180717 kJ/mol
# GULP energy per Si atom -5583.761295 kJ/mol
# Density = 2.144475 g / cm^3
# Si number density = 21.493666 Si / 1000 Ang^3
#
#
#
# Elastic Constant Matrix: (Units=GPa)
#
#
# Indices 1 2 3 4 5 6 
#
# 1 67.3510 38.9419 25.7653 -10.8747 -29.9860 -5.6130
# 2 38.9419 109.7186 17.4328 -10.3783 -31.9715 5.7183
# 3 25.7653 17.4328 119.0970 -9.1593 -30.9118 7.0186
# 4 -10.8747 -10.3783 -9.1593 38.9692 4.4743 -2.0479
# 5 -29.9860 -31.9715 -30.9118 4.4743 31.9199 -1.2260
# 6 -5.6130 5.7183 7.0186 -2.0479 -1.2260 33.0610
#
#
#
# Elastic Compliance Matrix: (Units=1/GPa)
#
#
# Indices 1 2 3 4 5 6 
#
# 1 0.028197 -0.003172 0.000394 0.004782 0.023269 0.006411
# 2 -0.003172 0.013927 0.002277 0.001737 0.012823 -0.002848
# 3 0.000394 0.002277 0.011818 0.001798 0.013758 -0.002214
# 4 0.004782 0.001737 0.001798 0.027504 0.004194 0.001989
# 5 0.023269 0.012823 0.013758 0.004194 0.078843 0.001996
# 6 0.006411 -0.002848 -0.002214 0.001989 0.001996 0.032495
#
#
# Mechanical properties :
#
#
# Convention : Reuss Voigt Hill
#
# Bulk Modulus (GPa) = 18.88930 51.16073 35.02501
# Shear Modulus (GPa) = 23.64810 35.05847 29.35328
#
# Velocity S-wave (km/s) = 3.32058 4.04308 3.69951
# Velocity P-wave (km/s) = 4.84861 6.75645 5.88042
#
# Compressibility (1/GPa) = 0.05294004
#
# Stress axis : x y z
#
# Youngs Moduli (GPa) = 35.46466 71.80109 84.61854
#
# Poissons Ratio (x) = 0.22774 -0.03330
# Poissons Ratio (y) = 0.11249 -0.19269
# Poissons Ratio (z) = -0.01396 -0.16350
#
# Static dielectric constant tensor:
#      x y z
#    x 1.730870 -0.017890 0.008230 
#    y -0.017890 1.781900 0.021520 
#    z 0.008230 0.021520 1.764910 
# 
# From -- ./inp_files/260983.got.cif
#   From: 2010.05.17/outbox.cif.g08.bks.cpg/sg2_131_cif.got.tgz:260983.got - 2010.06.03 11:33:40.
