data_PCOD9065602
_publ_section_title
;
Structure prediction by ZEFSAII (Michael W. Deem and Ramdas Pophale) SiO2 
 PCOD9065602
Probable space group: P -1
;
_chemical_formula_sum "Si O2"
_cell_formula_units_Z 12
_cell_length_a 7.605969
_cell_length_b 5.305203
_cell_length_c 25.551283
_cell_angle_alpha 110.863569
_cell_angle_beta 148.318010
_cell_angle_gamma 71.553606
_cell_volume 505.806103
_symmetry_space_group_name_H-M "P -1"
_symmetry_group_IT_number 2
_symmetry_cell_setting 'triclinic'
loop_
_space_group_symop_operation_xyz
x,y,z
-x,-y,-z
loop_
_atom_site_type_symbol
_atom_site_label
_atom_site_fract_x
_atom_site_fract_y
_atom_site_fract_z
Si Si1 0.276624 0.731350 0.928421
Si Si2 0.024595 0.690546 0.469368
Si Si3 0.086346 0.301819 0.761335
Si Si4 0.734672 0.909054 0.884629
Si Si5 0.641957 0.892126 0.582989
Si Si6 0.239836 0.513616 0.708948
O O1 0.151295 0.559592 0.833672
O O2 0.942540 0.861336 0.880593
O O3 0.500000 0.500000 0.000000
O O4 0.500000 0.000000 0.000000
O O5 0.736101 0.647869 0.349904
O O6 0.000000 0.500000 0.500000
O O7 0.000129 0.240152 0.351623
O O8 0.000000 0.000000 0.500000
O O9 0.043225 0.386760 0.696756
O O10 0.426876 0.117859 0.832381
O O11 0.762050 0.116719 0.672508
O O12 0.574796 0.616132 0.827788
O O13 0.000000 0.000000 0.000000
O O14 0.382350 0.689308 0.529033
O O15 0.500000 0.000000 0.500000
#
# Coordination Sequence:
#
# PCOD9065602 Si02
#       6
#     2   2   2   2   2   2
#     4  12  28  49  77 112 153 206 257 318 395 465
#     4  12  28  46  73 112 154 196 254 323 386 461
#     4  11  26  47  79 112 149 208 262 316 394 465
#     4  11  25  48  75 108 156 196 256 325 386 468
#     4  11  24  49  76 106 153 205 258 322 391 469
#     4  11  26  46  75 107 145 207 257 314 394 461
#
# _framework density 23.724506000000002
#
# number of rings (size 3 to 8) (size 9 to 14) (size 15 to 20)
#    0.000    0.667    3.333    2.500   11.667    1.333 
#    0.000    0.000    0.000    0.000    0.000    0.000 
#    0.000    0.000    0.000    0.000    0.000    0.000 
#
# Total GULP energy -66882.870325 kJ/mol
# GULP energy per Si atom -5573.572527 kJ/mol
# Density = 2.367051 g / cm^3
# Si number density = 23.724506 Si / 1000 Ang^3
#
#
#
# Elastic Constant Matrix: (Units=GPa)
#
#
# Indices 1 2 3 4 5 6 
#
# 1 119.3326 39.8439 36.8535 27.9743 -3.5144 -1.4812
# 2 39.8439 107.1978 62.0561 40.8920 -14.8191 -0.2209
# 3 36.8535 62.0561 171.6350 39.9947 -15.1483 5.2521
# 4 27.9743 40.8920 39.9947 55.6022 -0.7877 -4.8047
# 5 -3.5144 -14.8191 -15.1483 -0.7877 48.5427 8.1689
# 6 -1.4812 -0.2209 5.2521 -4.8047 8.1689 49.8189
#
#
#
# Elastic Compliance Matrix: (Units=1/GPa)
#
#
# Indices 1 2 3 4 5 6 
#
# 1 0.010016 -0.002262 -0.000689 -0.002873 -0.000248 0.000124
# 2 -0.002262 0.015461 -0.002819 -0.008247 0.003729 -0.001108
# 3 -0.000689 -0.002819 0.007998 -0.003437 0.001782 -0.001500
# 4 -0.002873 -0.008247 -0.003437 0.028224 -0.003948 0.003610
# 5 -0.000248 0.003729 0.001782 -0.003948 0.022940 -0.004321
# 6 0.000124 -0.001108 -0.001500 0.003610 -0.004321 0.021286
#
#
# Mechanical properties :
#
#
# Convention : Reuss Voigt Hill
#
# Bulk Modulus (GPa) = 45.59321 75.07473 60.33397
# Shear Modulus (GPa) = 40.07190 48.08690 44.07940
#
# Velocity S-wave (km/s) = 4.11426 4.50698 4.31509
# Velocity P-wave (km/s) = 6.46754 7.66791 7.09316
#
# Compressibility (1/GPa) = 0.02193309
#
# Stress axis : x y z
#
# Youngs Moduli (GPa) = 99.84383 64.68024 125.03631
#
# Poissons Ratio (x) = 0.14631 0.08615
# Poissons Ratio (y) = 0.22585 0.35253
# Poissons Ratio (z) = 0.06879 0.18236
#
# Static dielectric constant tensor:
#      x y z
#    x 1.945190 0.057320 0.000180 
#    y 0.057320 1.954140 0.064420 
#    z 0.000180 0.064420 2.037340 
# 
# From -- ./inp_files/478688.got.cif
#   From: 2010.05.17/outbox.cif.g08.bks.cpg/sg2_240_cif.got.tgz:478688.got - 2010.06.03 11:33:40.
