data_PCOD9065249
_publ_section_title
;
Structure prediction by ZEFSAII (Michael W. Deem and Ramdas Pophale) SiO2 
 PCOD9065249
Probable space group: P -1
;
_chemical_formula_sum "Si O2"
_cell_formula_units_Z 15
_cell_length_a 9.755834
_cell_length_b 12.634046
_cell_length_c 9.701650
_cell_angle_alpha 140.896965
_cell_angle_beta 59.779942
_cell_angle_gamma 125.970337
_cell_volume 607.740056
_symmetry_space_group_name_H-M "P -1"
_symmetry_group_IT_number 2
_symmetry_cell_setting 'triclinic'
loop_
_space_group_symop_operation_xyz
x,y,z
-x,-y,-z
loop_
_atom_site_type_symbol
_atom_site_label
_atom_site_fract_x
_atom_site_fract_y
_atom_site_fract_z
Si Si1 0.499691 0.953271 0.293595
Si Si2 0.388845 0.288013 0.348507
Si Si3 0.287279 0.786840 0.995414
Si Si4 0.353742 0.319161 0.941454
Si Si5 0.157680 0.185698 0.631892
Si Si6 0.000000 0.500000 0.000000
Si Si7 0.146886 0.355588 0.328290
Si Si8 0.798383 0.230510 0.262221
O O1 0.564238 0.786369 0.104689
O O2 0.500000 0.000000 0.500000
O O3 0.628667 0.121530 0.318332
O O4 0.329088 0.887423 0.222968
O O5 0.500000 0.500000 0.500000
O O6 0.528882 0.203682 0.147360
O O7 0.297037 0.230651 0.483629
O O8 0.240329 0.265128 0.290780
O O9 0.205970 0.850564 0.970246
O O10 0.161109 0.591094 0.904734
O O11 0.258488 0.201352 0.740736
O O12 0.500000 0.500000 0.000000
O O13 0.221684 0.371148 0.152701
O O14 0.000000 0.000000 0.500000
O O15 0.073599 0.338786 0.835658
O O16 0.176680 0.560385 0.561933
O O17 0.950572 0.235712 0.289870
#
# Coordination Sequence:
#
# PCOD9065249 Si02
#       8
#     2   2   2   2   2   1   2   2
#     4  12  29  46  74 111 155 197 261 328 392 479
#     4  12  23  49  79 111 154 210 263 325 408 486
#     4  12  26  49  81 110 150 217 260 328 403 490
#     4  12  26  49  73 108 153 205 255 321 403 477
#     4  12  30  48  82 119 161 213 276 336 404 492
#     4  12  26  52  78 114 162 204 270 332 410 468
#     4  11  24  47  76 107 150 200 249 319 398 469
#     4  11  26  46  75 114 149 196 260 321 391 475
#
# _framework density 24.681604
#
# number of rings (size 3 to 8) (size 9 to 14) (size 15 to 20)
#    0.000    0.267    4.000    3.600    5.600    5.867 
#    0.000    0.000    0.000    0.000    0.000    0.000 
#    0.000    0.000    0.000    0.000    0.000    0.000 
#
# Total GULP energy -83781.761454 kJ/mol
# GULP energy per Si atom -5585.450764 kJ/mol
# Density = 2.462543 g / cm^3
# Si number density = 24.681604 Si / 1000 Ang^3
#
#
#
# Elastic Constant Matrix: (Units=GPa)
#
#
# Indices 1 2 3 4 5 6 
#
# 1 133.6685 44.9703 22.4748 -1.3309 17.9413 -19.8578
# 2 44.9703 104.8096 22.3761 -18.3815 25.8977 2.2166
# 3 22.4748 22.3761 96.4176 -27.2295 20.4277 -12.5843
# 4 -1.3309 -18.3815 -27.2295 39.1521 -10.7917 -9.5146
# 5 17.9413 25.8977 20.4277 -10.7917 53.1648 -5.3222
# 6 -19.8578 2.2166 -12.5843 -9.5146 -5.3222 32.1303
#
#
#
# Elastic Compliance Matrix: (Units=1/GPa)
#
#
# Indices 1 2 3 4 5 6 
#
# 1 0.009968 -0.004255 -0.000702 -0.000908 -0.000624 0.005807
# 2 -0.004255 0.013294 -0.000573 0.003647 -0.004422 -0.003424
# 3 -0.000702 -0.000573 0.015778 0.012294 -0.002143 0.009071
# 4 -0.000908 0.003647 0.012294 0.040882 0.003780 0.016734
# 5 -0.000624 -0.004422 -0.002143 0.003780 0.023169 0.004037
# 6 0.005807 -0.003424 0.009071 0.016734 0.004037 0.044125
#
#
# Mechanical properties :
#
#
# Convention : Reuss Voigt Hill
#
# Bulk Modulus (GPa) = 35.74145 57.17091 46.45618
# Shear Modulus (GPa) = 29.83232 41.22775 35.53004
#
# Velocity S-wave (km/s) = 3.48039 4.09147 3.79824
# Velocity P-wave (km/s) = 5.53744 6.74787 6.17240
#
# Compressibility (1/GPa) = 0.02797872
#
# Stress axis : x y z
#
# Youngs Moduli (GPa) = 100.31912 75.22311 63.37852
#
# Poissons Ratio (x) = 0.32006 0.04452
# Poissons Ratio (y) = 0.42684 0.03634
# Poissons Ratio (z) = 0.07047 0.04314
#
# Static dielectric constant tensor:
#      x y z
#    x 2.010540 0.022390 -0.010370 
#    y 0.022390 1.886070 0.032740 
#    z -0.010370 0.032740 2.110710 
# 
# From -- ./inp_files/190656.got.cif
#   From: 2010.05.17/outbox.cif.g08.bks.cpg/sg2_96_cif.got.tgz:190656.got - 2010.06.03 11:33:40.
