data_PCOD9065505
_publ_section_title
;
Structure prediction by ZEFSAII (Michael W. Deem and Ramdas Pophale) SiO2 
 PCOD9065505
Probable space group: P -1
;
_chemical_formula_sum "Si O2"
_cell_formula_units_Z 13
_cell_length_a 12.452690
_cell_length_b 10.064899
_cell_length_c 9.184007
_cell_angle_alpha 131.039594
_cell_angle_beta 79.379012
_cell_angle_gamma 133.640069
_cell_volume 546.840057
_symmetry_space_group_name_H-M "P -1"
_symmetry_group_IT_number 2
_symmetry_cell_setting 'triclinic'
loop_
_space_group_symop_operation_xyz
x,y,z
-x,-y,-z
loop_
_atom_site_type_symbol
_atom_site_label
_atom_site_fract_x
_atom_site_fract_y
_atom_site_fract_z
Si Si1 0.000000 0.000000 0.000000
Si Si2 0.972998 0.342816 0.107206
Si Si3 0.801062 0.713170 0.326326
Si Si4 0.206898 0.907168 0.327410
Si Si5 0.673605 0.611326 0.983079
Si Si6 0.684375 0.242149 0.202471
Si Si7 0.452420 0.821473 0.519061
O O1 0.143494 0.089362 0.905163
O O2 0.022523 0.222054 0.081460
O O3 0.804385 0.225905 0.127886
O O4 0.115150 0.672707 0.302640
O O5 0.923989 0.237506 0.876404
O O6 0.759235 0.514203 0.311338
O O7 0.730959 0.823188 0.448913
O O8 0.727043 0.567245 0.082643
O O9 0.000000 0.000000 0.500000
O O10 0.375681 0.011944 0.317760
O O11 0.619748 0.440857 0.728208
O O12 0.500000 0.500000 0.000000
O O13 0.670780 0.246859 0.382345
O O14 0.500000 0.000000 0.000000
O O15 0.500000 0.000000 0.500000
#
# Coordination Sequence:
#
# PCOD9065505 Si02
#       7
#     1   2   2   2   2   2   2
#     4  12  30  48  80 116 166 212 276 342 420 488
#     4  11  26  49  79 116 161 211 276 345 409 498
#     4  12  26  50  82 114 162 219 279 337 413 506
#     4  11  24  48  78 111 159 214 265 334 418 490
#     4  12  29  50  77 117 165 213 270 347 415 487
#     4  12  27  47  82 120 159 216 277 339 416 502
#     4  12  27  47  75 117 162 206 271 344 415 491
#
# _framework density 23.772945
#
# number of rings (size 3 to 8) (size 9 to 14) (size 15 to 20)
#    0.000    0.308    4.615    2.769   10.769    0.615 
#    0.000    2.308    0.000    0.000    0.000    0.000 
#    0.000    0.000    0.000    0.000    0.000    0.000 
#
# Total GULP energy -72373.315866 kJ/mol
# GULP energy per Si atom -5567.178144 kJ/mol
# Density = 2.371884 g / cm^3
# Si number density = 23.772945 Si / 1000 Ang^3
#
#
#
# Elastic Constant Matrix: (Units=GPa)
#
#
# Indices 1 2 3 4 5 6 
#
# 1 155.1677 58.8676 31.6716 2.8190 -13.3665 4.5416
# 2 58.8676 140.9235 27.2900 -10.2202 -14.0463 -12.9757
# 3 31.6716 27.2900 73.3679 -9.2658 -8.4274 -1.4299
# 4 2.8190 -10.2202 -9.2658 39.3195 0.8698 -12.0050
# 5 -13.3665 -14.0463 -8.4274 0.8698 38.7235 4.4206
# 6 4.5416 -12.9757 -1.4299 -12.0050 4.4206 45.2954
#
#
#
# Elastic Compliance Matrix: (Units=1/GPa)
#
#
# Indices 1 2 3 4 5 6 
#
# 1 0.008548 -0.003380 -0.002696 -0.003035 0.001533 -0.002864
# 2 -0.003380 0.009532 -0.001398 0.003523 0.001472 0.003815
# 3 -0.002696 -0.001398 0.016047 0.003951 0.001823 0.001246
# 4 -0.003035 0.003523 0.003951 0.030435 -0.000686 0.009572
# 5 0.001533 0.001472 0.001823 -0.000686 0.027591 -0.002549
# 6 -0.002864 0.003815 0.001246 0.009572 -0.002549 0.026282
#
#
# Mechanical properties :
#
#
# Convention : Reuss Voigt Hill
#
# Bulk Modulus (GPa) = 52.14070 67.23527 59.68799
# Shear Modulus (GPa) = 35.77163 41.44301 38.60732
#
# Velocity S-wave (km/s) = 3.88328 4.17980 4.03426
# Velocity P-wave (km/s) = 6.48744 7.18595 6.84561
#
# Compressibility (1/GPa) = 0.01917887
#
# Stress axis : x y z
#
# Youngs Moduli (GPa) = 116.98362 104.90789 62.31861
#
# Poissons Ratio (x) = 0.35457 0.16801
# Poissons Ratio (y) = 0.39538 0.08714
# Poissons Ratio (z) = 0.31539 0.14669
#
# Static dielectric constant tensor:
#      x y z
#    x 1.928330 0.066460 0.008620 
#    y 0.066460 1.924220 0.036980 
#    z 0.008620 0.036980 1.906740 
# 
# From -- ./inp_files/155067.got.cif
#   From: 2010.05.17/outbox.cif.g08.bks.cpg/sg2_78_cif.got.tgz:155067.got - 2010.06.03 11:33:40.
