data_PCOD9065054
_publ_section_title
;
Structure prediction by ZEFSAII (Michael W. Deem and Ramdas Pophale) SiO2 
 PCOD9065054
Probable space group: P -1
;
_chemical_formula_sum "Si O2"
_cell_formula_units_Z 12
_cell_length_a 5.603429
_cell_length_b 18.984550
_cell_length_c 5.755601
_cell_angle_alpha 108.138027
_cell_angle_beta 72.427193
_cell_angle_gamma 83.573121
_cell_volume 540.176771
_symmetry_space_group_name_H-M "P -1"
_symmetry_group_IT_number 2
_symmetry_cell_setting 'triclinic'
loop_
_space_group_symop_operation_xyz
x,y,z
-x,-y,-z
loop_
_atom_site_type_symbol
_atom_site_label
_atom_site_fract_x
_atom_site_fract_y
_atom_site_fract_z
Si Si1 0.008897 0.067457 0.242603
Si Si2 0.706410 0.500303 0.638940
Si Si3 0.793211 0.810500 0.878776
Si Si4 0.174722 0.274660 0.716328
Si Si5 0.395078 0.635993 0.170334
Si Si6 0.380940 0.956358 0.296625
O O1 0.978791 0.145826 0.195900
O O2 0.830161 0.074924 0.527315
O O3 0.277794 0.027717 0.235809
O O4 0.000000 0.000000 0.000000
O O5 0.500000 0.500000 0.500000
O O6 0.705479 0.422712 0.694521
O O7 0.000000 0.500000 0.500000
O O8 0.586643 0.578364 0.886879
O O9 0.772707 0.767982 0.595709
O O10 0.818977 0.767613 0.075786
O O11 0.556408 0.882365 0.057309
O O12 0.411290 0.317857 0.718968
O O13 0.870854 0.317953 0.822415
O O14 0.500000 0.000000 0.500000
#
# Coordination Sequence:
#
# PCOD9065054 Si02
#       6
#     2   2   2   2   2   2
#     4  11  25  43  75 100 140 187 260 329 389 447
#     4  11  24  47  88 115 152 196 267 312 370 437
#     4  12  29  49  71 112 148 209 256 317 394 476
#     4  12  31  50  78 109 170 208 251 310 397 472
#     4  11  28  52  74 121 153 208 254 317 371 459
#     4  11  24  47  70 103 138 188 255 330 387 443
#
# _framework density 22.214950999999999
#
# number of rings (size 3 to 8) (size 9 to 14) (size 15 to 20)
#    0.000    0.667    1.667    3.500   14.000    2.667 
#    0.000    0.000    0.000    0.000    0.000    0.000 
#    0.000    0.000    0.000    0.000    0.000    0.000 
#
# Total GULP energy -66815.361080 kJ/mol
# GULP energy per Si atom -5567.946757 kJ/mol
# Density = 2.216439 g / cm^3
# Si number density = 22.214951 Si / 1000 Ang^3
#
#
#
# Elastic Constant Matrix: (Units=GPa)
#
#
# Indices 1 2 3 4 5 6 
#
# 1 168.5449 84.9956 80.9144 -0.7674 1.7194 -2.5442
# 2 84.9956 186.6317 65.4279 -58.9352 11.3506 17.3603
# 3 80.9144 65.4279 192.3204 34.8867 -5.4893 -21.4824
# 4 -0.7674 -58.9352 34.8867 93.8087 -3.3823 -17.0964
# 5 1.7194 11.3506 -5.4893 -3.3823 65.1087 5.0493
# 6 -2.5442 17.3603 -21.4824 -17.0964 5.0493 44.2543
#
#
#
# Elastic Compliance Matrix: (Units=1/GPa)
#
#
# Indices 1 2 3 4 5 6 
#
# 1 0.008866 -0.003789 -0.002132 -0.001439 0.000142 0.000389
# 2 -0.003789 0.011555 -0.004244 0.008112 -0.001579 -0.003497
# 3 -0.002132 -0.004244 0.008946 -0.005296 0.000986 0.003726
# 4 -0.001439 0.008112 -0.005296 0.017896 -0.000985 0.001190
# 5 0.000142 -0.001579 0.000986 -0.000985 0.015746 -0.001071
# 6 0.000389 -0.003497 0.003726 0.001190 -0.001071 0.026381
#
#
# Mechanical properties :
#
#
# Convention : Reuss Voigt Hill
#
# Bulk Modulus (GPa) = 110.68213 112.24143 111.46178
# Shear Modulus (GPa) = 44.35340 61.71163 53.03252
#
# Velocity S-wave (km/s) = 4.47313 5.27633 4.89124
# Velocity P-wave (km/s) = 8.75271 9.36773 9.06544
#
# Compressibility (1/GPa) = 0.00903488
#
# Stress axis : x y z
#
# Youngs Moduli (GPa) = 112.79589 86.54526 111.78674
#
# Poissons Ratio (x) = 0.32794 0.23837
# Poissons Ratio (y) = 0.42741 0.47441
# Poissons Ratio (z) = 0.24052 0.36729
#
# Static dielectric constant tensor:
#      x y z
#    x 1.837890 0.026600 -0.018240 
#    y 0.026600 1.819200 0.010260 
#    z -0.018240 0.010260 1.776020 
# 
# From -- ./inp_files/6796.got.cif
#   From: 2010.05.17/outbox.cif.g08.bks.cpg/sg2_4_cif.got.tgz:6796.got - 2010.06.03 11:33:40.
