data_PCOD9065152
_publ_section_title
;
Structure prediction by ZEFSAII (Michael W. Deem and Ramdas Pophale) SiO2 
 PCOD9065152
Probable space group: P -1
;
_chemical_formula_sum "Si O2"
_cell_formula_units_Z 14
_cell_length_a 13.141067
_cell_length_b 8.356981
_cell_length_c 12.867091
_cell_angle_alpha 54.610559
_cell_angle_beta 53.955295
_cell_angle_gamma 33.767196
_cell_volume 622.188334
_symmetry_space_group_name_H-M "P -1"
_symmetry_group_IT_number 2
_symmetry_cell_setting 'triclinic'
loop_
_space_group_symop_operation_xyz
x,y,z
-x,-y,-z
loop_
_atom_site_type_symbol
_atom_site_label
_atom_site_fract_x
_atom_site_fract_y
_atom_site_fract_z
Si Si1 0.977375 0.346689 0.404255
Si Si2 0.119861 0.591409 0.151026
Si Si3 0.523363 0.101209 0.138392
Si Si4 0.652289 0.806330 0.572075
Si Si5 0.160071 0.580854 0.769466
Si Si6 0.707229 0.184233 0.467885
Si Si7 0.136717 0.019276 0.039429
O O1 0.834694 0.491614 0.531613
O O2 0.873367 0.423502 0.330121
O O3 0.048333 0.489846 0.299135
O O4 0.155118 0.999199 0.446904
O O5 0.339727 0.299459 0.101789
O O6 0.981777 0.768806 0.069006
O O7 0.124632 0.797972 0.125519
O O8 0.437644 0.187529 0.274351
O O9 0.668150 0.752694 0.170893
O O10 0.652700 0.141910 0.031512
O O11 0.500000 0.000000 0.500000
O O12 0.701218 0.973506 0.506751
O O13 0.211721 0.749143 0.683866
O O14 0.970019 0.770666 0.875818
O O15 0.500000 0.500000 0.500000
#
# Coordination Sequence:
#
# PCOD9065152 Si02
#       7
#     2   2   2   2   2   2   2
#     4  12  24  45  71 101 139 185 223 287 354 406
#     4  11  24  47  72  99 132 185 235 281 347 402
#     4  12  24  45  69 101 138 179 232 281 340 415
#     4  12  23  42  71  98 140 181 226 284 345 412
#     4  12  25  45  69 102 143 178 226 287 345 408
#     4  12  24  45  66 105 140 176 236 282 346 418
#     4  11  26  47  70  99 139 180 236 287 336 409
#
# _framework density 22.501225999999999
#
# number of rings (size 3 to 8) (size 9 to 14) (size 15 to 20)
#    0.000    0.286    5.714    2.571    2.000    1.714 
#    2.571    0.000    0.000    0.000    0.000    0.000 
#    0.000    0.000    0.000    0.000    0.000    0.000 
#
# Total GULP energy -78367.324069 kJ/mol
# GULP energy per Si atom -5597.666005 kJ/mol
# Density = 2.245001 g / cm^3
# Si number density = 22.501226 Si / 1000 Ang^3
#
#
#
# Elastic Constant Matrix: (Units=GPa)
#
#
# Indices 1 2 3 4 5 6 
#
# 1 35.8853 1.7794 -0.4685 9.1289 -11.5285 -7.7069
# 2 1.7794 125.5972 36.7653 5.0260 -0.9806 -15.5492
# 3 -0.4685 36.7653 85.8133 17.2922 -28.6902 8.0032
# 4 9.1289 5.0260 17.2922 48.3715 -9.8907 2.4765
# 5 -11.5285 -0.9806 -28.6902 -9.8907 27.7452 0.9090
# 6 -7.7069 -15.5492 8.0032 2.4765 0.9090 40.8533
#
#
#
# Elastic Compliance Matrix: (Units=1/GPa)
#
#
# Indices 1 2 3 4 5 6 
#
# 1 0.038233 -0.002599 0.010185 -0.005865 0.024103 0.004047
# 2 -0.002599 0.011123 -0.008570 0.000129 -0.009687 0.005630
# 3 0.010185 -0.008570 0.027159 -0.004082 0.030791 -0.007098
# 4 -0.005865 0.000129 -0.004082 0.023693 0.001850 -0.001735
# 5 0.024103 -0.009687 0.030791 0.001850 0.078445 -0.007029
# 6 0.004047 0.005630 -0.007098 -0.001735 -0.007029 0.029036
#
#
# Mechanical properties :
#
#
# Convention : Reuss Voigt Hill
#
# Bulk Modulus (GPa) = 13.41401 35.93868 24.67634
# Shear Modulus (GPa) = 21.32134 37.34196 29.33165
#
# Velocity S-wave (km/s) = 3.08159 4.07818 3.61440
# Velocity P-wave (km/s) = 4.31694 6.17915 5.33001
#
# Compressibility (1/GPa) = 0.07454891
#
# Stress axis : x y z
#
# Youngs Moduli (GPa) = 26.15537 89.89989 36.81975
#
# Poissons Ratio (x) = 0.23366 -0.37502
# Poissons Ratio (y) = 0.06798 0.31553
# Poissons Ratio (z) = -0.26640 0.77040
#
# Static dielectric constant tensor:
#      x y z
#    x 1.874130 -0.014000 0.002170 
#    y -0.014000 1.821980 -0.017330 
#    z 0.002170 -0.017330 1.825770 
# 
# From -- ./inp_files/529393.got.cif
#   From: 2010.05.17/outbox.cif.g08.bks.cpg/sg2_265_cif.got.tgz:529393.got - 2010.06.03 11:33:40.
