data_PCOD9065244
_publ_section_title
;
Structure prediction by ZEFSAII (Michael W. Deem and Ramdas Pophale) SiO2 
 PCOD9065244
Probable space group: P -1
;
_chemical_formula_sum "Si O2"
_cell_formula_units_Z 14
_cell_length_a 5.234029
_cell_length_b 6.533245
_cell_length_c 23.997580
_cell_angle_alpha 102.490023
_cell_angle_beta 67.343200
_cell_angle_gamma 129.402450
_cell_volume 584.691996
_symmetry_space_group_name_H-M "P -1"
_symmetry_group_IT_number 2
_symmetry_cell_setting 'triclinic'
loop_
_space_group_symop_operation_xyz
x,y,z
-x,-y,-z
loop_
_atom_site_type_symbol
_atom_site_label
_atom_site_fract_x
_atom_site_fract_y
_atom_site_fract_z
Si Si1 0.857616 0.212251 0.012758
Si Si2 0.176640 0.933293 0.359311
Si Si3 0.727579 0.583345 0.819966
Si Si4 0.263381 0.274614 0.461362
Si Si5 0.445205 0.682124 0.741288
Si Si6 0.823324 0.966082 0.105160
Si Si7 0.604567 0.389632 0.622759
O O1 0.783219 0.153540 0.081002
O O2 0.000000 0.500000 0.000000
O O3 0.119706 0.172603 0.958047
O O4 0.500000 0.000000 0.000000
O O5 0.221895 0.723551 0.367257
O O6 0.775648 0.828479 0.386520
O O7 0.411631 0.180872 0.396963
O O8 0.312170 0.027818 0.290805
O O9 0.557332 0.641901 0.788773
O O10 0.468814 0.285275 0.848593
O O11 0.066447 0.612153 0.771876
O O12 0.865359 0.814114 0.867915
O O13 0.500000 0.500000 0.500000
O O14 0.150689 0.405486 0.435023
O O15 0.000000 0.000000 0.500000
O O16 0.505982 0.516018 0.684760
#
# Coordination Sequence:
#
# PCOD9065244 Si02
#       7
#     2   2   2   2   2   2   2
#     4  11  24  47  76 101 149 190 240 295 372 433
#     4  11  25  48  76 105 148 196 245 298 376 436
#     4  12  28  47  78 106 152 187 250 303 366 427
#     4  11  24  48  74 112 148 191 246 309 364 439
#     4  11  28  46  72 109 146 197 242 308 364 440
#     4  11  28  46  70 114 140 193 242 305 360 439
#     4  11  25  48  76 105 148 196 245 298 376 436
#
# _framework density 23.944232
#
# number of rings (size 3 to 8) (size 9 to 14) (size 15 to 20)
#    0.000    0.857    1.429    3.429   12.000    6.857 
#    0.000    0.000    0.000    0.000    0.000    0.000 
#    0.000    0.000    0.000    0.000    0.000    0.000 
#
# Total GULP energy -78171.832450 kJ/mol
# GULP energy per Si atom -5583.702318 kJ/mol
# Density = 2.388973 g / cm^3
# Si number density = 23.944232 Si / 1000 Ang^3
#
#
#
# Elastic Constant Matrix: (Units=GPa)
#
#
# Indices 1 2 3 4 5 6 
#
# 1 82.9360 39.0518 27.3865 -29.7552 9.4321 -9.9297
# 2 39.0518 176.7707 60.3087 -38.2217 25.2401 -1.8158
# 3 27.3865 60.3087 117.0696 -30.6156 27.7607 -9.8696
# 4 -29.7552 -38.2217 -30.6156 71.1021 -10.2518 5.9893
# 5 9.4321 25.2401 27.7607 -10.2518 36.3469 3.1456
# 6 -9.9297 -1.8158 -9.8696 5.9893 3.1456 34.2097
#
#
#
# Elastic Compliance Matrix: (Units=1/GPa)
#
#
# Indices 1 2 3 4 5 6 
#
# 1 0.015434 -0.001935 -0.000890 0.004608 -0.000976 0.003403
# 2 -0.001935 0.007694 -0.002543 0.001994 -0.002246 -0.001030
# 3 -0.000890 -0.002543 0.012726 0.002381 -0.007357 0.003538
# 4 0.004608 0.001994 0.002381 0.018312 0.000866 -0.001155
# 5 -0.000976 -0.002246 -0.007357 0.000866 0.035705 -0.005960
# 6 0.003403 -0.001030 0.003538 -0.001155 -0.005960 0.031936
#
#
# Mechanical properties :
#
#
# Convention : Reuss Voigt Hill
#
# Bulk Modulus (GPa) = 39.81493 70.03002 54.92248
# Shear Modulus (GPa) = 35.48205 45.00036 40.24120
#
# Velocity S-wave (km/s) = 3.85367 4.33989 4.10399
# Velocity P-wave (km/s) = 6.03865 7.37723 6.74125
#
# Compressibility (1/GPa) = 0.02511621
#
# Stress axis : x y z
#
# Youngs Moduli (GPa) = 64.79007 129.97912 78.57974
#
# Poissons Ratio (x) = 0.25156 0.06995
# Poissons Ratio (y) = 0.12539 0.19986
# Poissons Ratio (z) = 0.05767 0.33059
#
# Static dielectric constant tensor:
#      x y z
#    x 2.016950 -0.068140 -0.056860 
#    y -0.068140 2.021950 0.035720 
#    z -0.056860 0.035720 2.091040 
# 
# From -- ./inp_files/603318.got.cif
#   From: 2010.05.17/outbox.cif.g08.bks.cpg/sg2_302_cif.got.tgz:603318.got - 2010.06.03 11:33:40.
