data_PCOD9065541
_publ_section_title
;
Structure prediction by ZEFSAII (Michael W. Deem and Ramdas Pophale) SiO2 
 PCOD9065541
Probable space group: P -1
;
_chemical_formula_sum "Si O2"
_cell_formula_units_Z 14
_cell_length_a 8.619846
_cell_length_b 11.220718
_cell_length_c 17.165638
_cell_angle_alpha 35.512785
_cell_angle_beta 116.952475
_cell_angle_gamma 137.899310
_cell_volume 596.215574
_symmetry_space_group_name_H-M "P -1"
_symmetry_group_IT_number 2
_symmetry_cell_setting 'triclinic'
loop_
_space_group_symop_operation_xyz
x,y,z
-x,-y,-z
loop_
_atom_site_type_symbol
_atom_site_label
_atom_site_fract_x
_atom_site_fract_y
_atom_site_fract_z
Si Si1 0.011446 0.675783 0.838194
Si Si2 0.498150 0.532555 0.854638
Si Si3 0.980656 0.891560 0.327196
Si Si4 0.226375 0.354021 0.348667
Si Si5 0.746160 0.602256 0.280365
Si Si6 0.878783 0.428082 0.646512
Si Si7 0.577594 0.254811 0.130470
O O1 0.804303 0.557261 0.789152
O O2 0.227399 0.751021 0.797853
O O3 0.124068 0.986194 0.729019
O O4 0.000000 0.500000 0.000000
O O5 0.297771 0.336738 0.846431
O O6 0.405074 0.571419 0.887974
O O7 0.735322 0.870891 0.702339
O O8 0.619773 0.427442 0.970492
O O9 0.957560 0.881479 0.234697
O O10 0.858783 0.579618 0.493265
O O11 0.487038 0.443750 0.352258
O O12 0.191585 0.498930 0.330912
O O13 0.000000 0.000000 0.500000
O O14 0.852090 0.462825 0.358797
O O15 0.675737 0.080199 0.769087
#
# Coordination Sequence:
#
# PCOD9065541 Si02
#       7
#     2   2   2   2   2   2   2
#     4  12  24  46  73 100 148 193 236 303 367 426
#     4  11  24  49  69 107 144 190 246 293 362 446
#     4  12  25  48  70 105 148 186 245 299 367 432
#     4  12  26  46  73 112 146 194 249 297 367 443
#     4  12  26  46  76 104 149 188 240 309 361 429
#     4  12  27  46  72 113 143 192 246 302 368 431
#     4  11  25  45  75 103 147 191 244 301 363 436
#
# _framework density 23.481439999999999
#
# number of rings (size 3 to 8) (size 9 to 14) (size 15 to 20)
#    0.000    0.286    5.714    2.143    2.000    5.143 
#    0.000    2.857    0.000    0.000    0.000    0.000 
#    0.000    0.000    0.000    0.000    0.000    0.000 
#
# Total GULP energy -78012.610176 kJ/mol
# GULP energy per Si atom -5572.329298 kJ/mol
# Density = 2.342800 g / cm^3
# Si number density = 23.481440 Si / 1000 Ang^3
#
#
#
# Elastic Constant Matrix: (Units=GPa)
#
#
# Indices 1 2 3 4 5 6 
#
# 1 133.1297 33.1949 23.9922 24.8500 33.1523 -3.4588
# 2 33.1949 88.9462 17.6171 25.3088 6.4059 -18.1272
# 3 23.9922 17.6171 73.2317 13.6610 16.3518 3.5889
# 4 24.8500 25.3088 13.6610 32.6146 7.9991 -8.2287
# 5 33.1523 6.4059 16.3518 7.9991 37.1607 5.5860
# 6 -3.4588 -18.1272 3.5889 -8.2287 5.5860 33.9735
#
#
#
# Elastic Compliance Matrix: (Units=1/GPa)
#
#
# Indices 1 2 3 4 5 6 
#
# 1 0.011043 -0.002090 -0.000424 -0.004466 -0.008396 0.000353
# 2 -0.002090 0.016137 -0.002096 -0.008669 0.000914 0.006369
# 3 -0.000424 -0.002096 0.016416 -0.004484 -0.005044 -0.003153
# 4 -0.004466 -0.008669 -0.004484 0.045222 -0.003319 0.006892
# 5 -0.008396 0.000914 -0.005044 -0.003319 0.038218 -0.006922
# 6 0.000353 0.006369 -0.003153 0.006892 -0.006922 0.036009
#
#
# Mechanical properties :
#
#
# Convention : Reuss Voigt Hill
#
# Bulk Modulus (GPa) = 29.09145 49.43510 39.26327
# Shear Modulus (GPa) = 27.21478 35.44998 31.33238
#
# Velocity S-wave (km/s) = 3.40809 3.88970 3.65683
# Velocity P-wave (km/s) = 5.28231 6.42430 5.88109
#
# Compressibility (1/GPa) = 0.03437436
#
# Stress axis : x y z
#
# Youngs Moduli (GPa) = 90.55782 61.97070 60.91621
#
# Poissons Ratio (x) = 0.12950 0.02586
# Poissons Ratio (y) = 0.18924 0.12770
# Poissons Ratio (z) = 0.03844 0.12991
#
# Static dielectric constant tensor:
#      x y z
#    x 2.054070 0.011500 -0.086050 
#    y 0.011500 1.841170 0.021910 
#    z -0.086050 0.021910 1.842950 
# 
# From -- ./inp_files/559606.got.cif
#   From: 2010.05.17/outbox.cif.g08.bks.cpg/sg2_280_cif.got.tgz:559606.got - 2010.06.03 11:33:40.
