data_PCOD9065493
_publ_section_title
;
Structure prediction by ZEFSAII (Michael W. Deem and Ramdas Pophale) SiO2 
 PCOD9065493
Probable space group: P -1
;
_chemical_formula_sum "Si O2"
_cell_formula_units_Z 16
_cell_length_a 8.445809
_cell_length_b 14.944983
_cell_length_c 14.219191
_cell_angle_alpha 149.808603
_cell_angle_beta 74.336279
_cell_angle_gamma 87.583052
_cell_volume 714.634927
_symmetry_space_group_name_H-M "P -1"
_symmetry_group_IT_number 2
_symmetry_cell_setting 'triclinic'
loop_
_space_group_symop_operation_xyz
x,y,z
-x,-y,-z
loop_
_atom_site_type_symbol
_atom_site_label
_atom_site_fract_x
_atom_site_fract_y
_atom_site_fract_z
Si Si1 0.586036 0.005566 0.592205
Si Si2 0.441944 0.830241 0.916417
Si Si3 0.034943 0.655786 0.194639
Si Si4 0.164357 0.301009 0.357124
Si Si5 0.412964 0.605047 0.009516
Si Si6 0.576922 0.543979 0.328609
Si Si7 0.388969 0.004827 0.799637
Si Si8 0.005546 0.462903 0.211425
O O1 0.528148 0.226699 0.849093
O O2 0.500000 0.000000 0.500000
O O3 0.821596 0.877972 0.432732
O O4 0.516231 0.915573 0.601361
O O5 0.630433 0.718551 0.714218
O O6 0.411094 0.652049 0.797344
O O7 0.246088 0.048260 0.102088
O O8 0.512565 0.920014 0.072499
O O9 0.080100 0.548420 0.193823
O O10 0.185208 0.687087 0.141262
O O11 0.000000 0.500000 0.000000
O O12 0.071136 0.372344 0.539804
O O13 0.000000 0.500000 0.500000
O O14 0.500000 0.500000 0.000000
O O15 0.485298 0.467071 0.778334
O O16 0.420285 0.777976 0.614888
O O17 0.803781 0.481663 0.232184
O O18 0.175183 0.220026 0.999788
#
# Coordination Sequence:
#
# PCOD9065493 Si02
#       8
#     2   2   2   2   2   2   2   2
#     4  12  24  43  67  99 144 193 240 296 357 421
#     4  11  25  47  77 103 143 186 239 295 363 429
#     4  12  23  43  68 102 144 189 241 294 357 436
#     4  11  24  48  77 106 142 188 235 301 364 428
#     4  12  25  42  66 105 145 191 247 291 355 430
#     4  12  26  47  71 109 144 186 245 293 358 431
#     4  12  23  47  71 100 146 192 228 299 358 420
#     4  12  25  45  73 103 147 188 240 298 362 425
#
# _framework density 22.389053000000001
#
# number of rings (size 3 to 8) (size 9 to 14) (size 15 to 20)
#    0.000    0.250    6.250    3.375    0.000    1.500 
#    2.250    1.250    0.000    0.000    0.000    0.000 
#    0.000    0.000    0.000    0.000    0.000    0.000 
#
# Total GULP energy -89256.075828 kJ/mol
# GULP energy per Si atom -5578.504739 kJ/mol
# Density = 2.233809 g / cm^3
# Si number density = 22.389053 Si / 1000 Ang^3
#
#
#
# Elastic Constant Matrix: (Units=GPa)
#
#
# Indices 1 2 3 4 5 6 
#
# 1 57.5325 9.6853 41.6270 16.1766 0.2241 -5.9725
# 2 9.6853 92.4156 24.5812 5.2349 2.9762 1.3963
# 3 41.6270 24.5812 109.5978 16.9477 -4.5138 -5.7170
# 4 16.1766 5.2349 16.9477 49.1922 1.4085 -2.0708
# 5 0.2241 2.9762 -4.5138 1.4085 42.0384 7.3417
# 6 -5.9725 1.3963 -5.7170 -2.0708 7.3417 37.0896
#
#
#
# Elastic Compliance Matrix: (Units=1/GPa)
#
#
# Indices 1 2 3 4 5 6 
#
# 1 0.025496 -0.000038 -0.008785 -0.005199 -0.001380 0.002736
# 2 -0.000038 0.011578 -0.002608 -0.000322 -0.000972 -0.000669
# 3 -0.008785 -0.002608 0.013359 -0.001469 0.001657 0.000333
# 4 -0.005199 -0.000322 -0.001469 0.022622 -0.000934 0.000396
# 5 -0.001380 -0.000972 0.001657 -0.000934 0.024932 -0.004918
# 6 0.002736 -0.000669 0.000333 0.000396 -0.004918 0.028474
#
#
# Mechanical properties :
#
#
# Convention : Reuss Voigt Hill
#
# Bulk Modulus (GPa) = 36.27029 45.70366 40.98698
# Shear Modulus (GPa) = 31.54338 37.90754 34.72546
#
# Velocity S-wave (km/s) = 3.75757 4.11923 3.94255
# Velocity P-wave (km/s) = 5.92123 6.56367 6.25071
#
# Compressibility (1/GPa) = 0.02757077
#
# Stress axis : x y z
#
# Youngs Moduli (GPa) = 39.22259 86.37175 74.85721
#
# Poissons Ratio (x) = 0.00325 0.65765
# Poissons Ratio (y) = 0.00147 0.19520
# Poissons Ratio (z) = 0.34459 0.22523
#
# Static dielectric constant tensor:
#      x y z
#    x 2.174550 0.030340 -0.097370 
#    y 0.030340 1.834400 -0.027030 
#    z -0.097370 -0.027030 1.757670 
# 
# From -- ./inp_files/504971.got.cif
#   From: 2010.05.17/outbox.cif.g08.bks.cpg/sg2_253_cif.got.tgz:504971.got - 2010.06.03 11:33:40.
