data_PCOD9065462
_publ_section_title
;
Structure prediction by ZEFSAII (Michael W. Deem and Ramdas Pophale) SiO2 
 PCOD9065462
Probable space group: P -1
;
_chemical_formula_sum "Si O2"
_cell_formula_units_Z 16
_cell_length_a 14.630315
_cell_length_b 11.292812
_cell_length_c 8.694270
_cell_angle_alpha 125.871750
_cell_angle_beta 136.028891
_cell_angle_gamma 79.066277
_cell_volume 736.216451
_symmetry_space_group_name_H-M "P -1"
_symmetry_group_IT_number 2
_symmetry_cell_setting 'triclinic'
loop_
_space_group_symop_operation_xyz
x,y,z
-x,-y,-z
loop_
_atom_site_type_symbol
_atom_site_label
_atom_site_fract_x
_atom_site_fract_y
_atom_site_fract_z
Si Si1 0.654100 0.097601 0.350350
Si Si2 0.143544 0.082907 0.633138
Si Si3 0.835743 0.440422 0.690433
Si Si4 0.117108 0.165200 0.334736
Si Si5 0.355822 0.367539 0.308238
Si Si6 0.140748 0.513578 0.597126
Si Si7 0.660082 0.174329 0.780512
Si Si8 0.646929 0.866108 0.594764
O O1 0.729299 0.275928 0.512258
O O2 0.643054 0.122669 0.540482
O O3 0.772643 0.025104 0.402955
O O4 0.500000 0.000000 0.000000
O O5 0.096088 0.149724 0.477492
O O6 0.266520 0.232638 0.976760
O O7 0.000000 0.000000 0.500000
O O8 0.755137 0.557775 0.712416
O O9 0.839660 0.413548 0.492894
O O10 0.000000 0.500000 0.000000
O O11 0.120426 0.331967 0.410514
O O12 0.270655 0.173492 0.472706
O O13 0.000000 0.000000 0.000000
O O14 0.500000 0.500000 0.500000
O O15 0.376252 0.259631 0.390791
O O16 0.000000 0.500000 0.500000
O O17 0.257275 0.636353 0.946951
O O18 0.508232 0.147143 0.650311
O O19 0.725073 0.060971 0.861226
#
# Coordination Sequence:
#
# PCOD9065462 Si02
#       8
#     2   2   2   2   2   2   2   2
#     4  12  27  49  74 109 151 197 246 304 374 449
#     4  12  28  46  77 106 144 198 246 304 377 439
#     4  12  28  48  74 106 152 195 249 310 375 443
#     4  12  27  49  75 106 146 193 251 305 369 444
#     4  12  27  49  74 111 149 195 249 311 370 447
#     4  12  29  46  76 109 146 195 247 309 370 439
#     4  11  26  47  76 109 148 192 249 305 375 444
#     4  11  24  48  75 102 151 191 243 305 370 440
#
# _framework density 21.732738000000001
#
# number of rings (size 3 to 8) (size 9 to 14) (size 15 to 20)
#    0.000    0.250    2.500    5.250   14.000    1.500 
#    0.000    0.000    0.000    0.000    0.000    0.000 
#    0.000    0.000    0.000    0.000    0.000    0.000 
#
# Total GULP energy -89294.702612 kJ/mol
# GULP energy per Si atom -5580.918913 kJ/mol
# Density = 2.168327 g / cm^3
# Si number density = 21.732738 Si / 1000 Ang^3
#
#
#
# Elastic Constant Matrix: (Units=GPa)
#
#
# Indices 1 2 3 4 5 6 
#
# 1 165.4131 43.1360 42.7435 -0.1118 5.8527 11.5998
# 2 43.1360 122.8192 27.1398 15.3686 6.3112 14.8941
# 3 42.7435 27.1398 101.6077 16.7987 5.0820 14.7587
# 4 -0.1118 15.3686 16.7987 33.7202 0.1639 -2.2497
# 5 5.8527 6.3112 5.0820 0.1639 34.1689 -3.7647
# 6 11.5998 14.8941 14.7587 -2.2497 -3.7647 59.9989
#
#
#
# Elastic Compliance Matrix: (Units=1/GPa)
#
#
# Indices 1 2 3 4 5 6 
#
# 1 0.007399 -0.002235 -0.002888 0.002478 -0.000448 -0.000100
# 2 -0.002235 0.009950 -0.000602 -0.004379 -0.001582 -0.002153
# 3 -0.002888 -0.000602 0.012730 -0.006253 -0.001561 -0.002756
# 4 0.002478 -0.004379 -0.006253 0.035005 0.001538 0.003555
# 5 -0.000448 -0.001582 -0.001561 0.001538 0.030170 0.002814
# 6 -0.000100 -0.002153 -0.002756 0.003555 0.002814 0.018209
#
#
# Mechanical properties :
#
#
# Convention : Reuss Voigt Hill
#
# Bulk Modulus (GPa) = 53.67980 68.43097 61.05538
# Shear Modulus (GPa) = 38.13209 44.03232 41.08220
#
# Velocity S-wave (km/s) = 4.19333 4.50609 4.35252
# Velocity P-wave (km/s) = 6.94255 7.65695 7.30848
#
# Compressibility (1/GPa) = 0.01862898
#
# Stress axis : x y z
#
# Youngs Moduli (GPa) = 135.14791 100.49824 78.55627
#
# Poissons Ratio (x) = 0.22465 0.22689
# Poissons Ratio (y) = 0.30211 0.04726
# Poissons Ratio (z) = 0.39034 0.06046
#
# Static dielectric constant tensor:
#      x y z
#    x 1.922890 0.371060 0.567650 
#    y 0.371060 3.258270 1.838270 
#    z 0.567650 1.838270 4.261950 
# 
# From -- ./inp_files/308659.got.cif
#   From: 2010.05.17/outbox.cif.g08.bks.cpg/sg2_155_cif.got.tgz:308659.got - 2010.06.03 11:33:40.
