data_PCOD9065842
_publ_section_title
;
Structure prediction by ZEFSAII (Michael W. Deem and Ramdas Pophale) SiO2 
 PCOD9065842
Probable space group: P -1
;
_chemical_formula_sum "Si O2"
_cell_formula_units_Z 16
_cell_length_a 14.899694
_cell_length_b 11.241120
_cell_length_c 9.083334
_cell_angle_alpha 66.580231
_cell_angle_beta 118.792493
_cell_angle_gamma 65.348463
_cell_volume 799.808858
_symmetry_space_group_name_H-M "P -1"
_symmetry_group_IT_number 2
_symmetry_cell_setting 'triclinic'
loop_
_space_group_symop_operation_xyz
x,y,z
-x,-y,-z
loop_
_atom_site_type_symbol
_atom_site_label
_atom_site_fract_x
_atom_site_fract_y
_atom_site_fract_z
Si Si1 0.319843 0.933914 0.471881
Si Si2 0.037433 0.559903 0.366476
Si Si3 0.451274 0.672646 0.977622
Si Si4 0.379505 0.351271 0.363621
Si Si5 0.842688 0.655904 0.893678
Si Si6 0.913550 0.951291 0.001489
Si Si7 0.404591 0.224233 0.774648
Si Si8 0.659427 0.331769 0.801368
O O1 0.472347 0.770257 0.568233
O O2 0.281117 0.120614 0.370736
O O3 0.172336 0.017027 0.228346
O O4 0.342438 0.850499 0.688990
O O5 0.219595 0.369034 0.563039
O O6 0.000000 0.500000 0.500000
O O7 0.907678 0.636917 0.110237
O O8 0.011339 0.741258 0.257031
O O9 0.558112 0.688400 0.127692
O O10 0.375295 0.682171 0.056149
O O11 0.500000 0.500000 0.000000
O O12 0.255585 0.379407 0.171264
O O13 0.434280 0.243285 0.619363
O O14 0.284114 0.575001 0.203197
O O15 0.000000 0.500000 0.000000
O O16 0.776947 0.122367 0.920753
O O17 0.000000 0.000000 0.000000
O O18 0.500000 0.000000 0.000000
O O19 0.500000 0.500000 0.500000
#
# Coordination Sequence:
#
# PCOD9065842 Si02
#       8
#     2   2   2   2   2   2   2   2
#     4  11  25  43  70  99 136 182 229 294 342 416
#     4  11  28  44  69 102 145 180 235 295 359 419
#     4  12  25  43  70 107 142 171 241 295 346 411
#     4  12  23  45  71  99 136 184 239 281 350 419
#     4  11  25  45  66  98 138 181 230 285 355 416
#     4  11  25  47  73  98 140 188 233 287 357 422
#     4  12  27  44  75 101 137 190 240 286 350 433
#     4  12  23  43  73 101 137 183 232 282 347 432
#
# _framework density 20.00478
#
# number of rings (size 3 to 8) (size 9 to 14) (size 15 to 20)
#    0.000    0.500    5.000    1.875   10.500    0.000 
#    0.000    0.625    0.000    0.000    0.000    0.000 
#    0.000    0.000    0.000    0.000    0.000    0.000 
#
# Total GULP energy -89226.745884 kJ/mol
# GULP energy per Si atom -5576.671618 kJ/mol
# Density = 1.995925 g / cm^3
# Si number density = 20.004780 Si / 1000 Ang^3
#
#
#
# Elastic Constant Matrix: (Units=GPa)
#
#
# Indices 1 2 3 4 5 6 
#
# 1 90.5544 20.8597 47.1049 5.6941 -22.5505 9.2745
# 2 20.8597 83.3975 37.4162 -4.8055 -10.9600 16.4697
# 3 47.1049 37.4162 114.5997 -11.9013 -29.5850 0.3226
# 4 5.6941 -4.8055 -11.9013 33.9581 -1.4360 0.2978
# 5 -22.5505 -10.9600 -29.5850 -1.4360 45.6880 10.7848
# 6 9.2745 16.4697 0.3226 0.2978 10.7848 49.2640
#
#
#
# Elastic Compliance Matrix: (Units=1/GPa)
#
#
# Indices 1 2 3 4 5 6 
#
# 1 0.015955 -0.000294 -0.005638 -0.004450 0.004940 -0.003923
# 2 -0.000294 0.015394 -0.004249 0.000877 0.002131 -0.005535
# 3 -0.005638 -0.004249 0.014413 0.005615 0.005433 0.001164
# 4 -0.004450 0.000877 0.005615 0.032404 0.002736 -0.000287
# 5 0.004940 0.002131 0.005433 0.002736 0.030413 -0.008352
# 6 -0.003923 -0.005535 0.001164 -0.000287 -0.008352 0.024711
#
#
# Mechanical properties :
#
#
# Convention : Reuss Voigt Hill
#
# Bulk Modulus (GPa) = 39.36737 55.47925 47.42331
# Shear Modulus (GPa) = 30.84171 37.99340 34.41755
#
# Velocity S-wave (km/s) = 3.93073 4.36273 4.15235
# Velocity P-wave (km/s) = 6.35000 7.29185 6.83716
#
# Compressibility (1/GPa) = 0.02540175
#
# Stress axis : x y z
#
# Youngs Moduli (GPa) = 62.67455 64.96024 69.38173
#
# Poissons Ratio (x) = 0.01908 0.39118
# Poissons Ratio (y) = 0.01841 0.29477
# Poissons Ratio (z) = 0.35337 0.27599
#
# Static dielectric constant tensor:
#      x y z
#    x 1.796040 0.060710 -0.025900 
#    y 0.060710 1.839650 -0.014400 
#    z -0.025900 -0.014400 1.668020 
# 
# From -- ./inp_files/306789.got.cif
#   From: 2010.05.17/outbox.cif.g08.bks.cpg/sg2_154_cif.got.tgz:306789.got - 2010.06.03 11:33:40.
