data_PCOD9065895
_publ_section_title
;
Structure prediction by ZEFSAII (Michael W. Deem and Ramdas Pophale) SiO2 
 PCOD9065895
Probable space group: P -1
;
_chemical_formula_sum "Si O2"
_cell_formula_units_Z 16
_cell_length_a 12.895737
_cell_length_b 13.911202
_cell_length_c 9.117006
_cell_angle_alpha 76.901539
_cell_angle_beta 134.882879
_cell_angle_gamma 67.730608
_cell_volume 705.119516
_symmetry_space_group_name_H-M "P -1"
_symmetry_group_IT_number 2
_symmetry_cell_setting 'triclinic'
loop_
_space_group_symop_operation_xyz
x,y,z
-x,-y,-z
loop_
_atom_site_type_symbol
_atom_site_label
_atom_site_fract_x
_atom_site_fract_y
_atom_site_fract_z
Si Si1 0.905565 0.995991 0.556393
Si Si2 0.041037 0.593959 0.532940
Si Si3 0.952738 0.811077 0.153477
Si Si4 0.357669 0.850608 0.141625
Si Si5 0.104747 0.204336 0.241819
Si Si6 0.397630 0.446474 0.366020
Si Si7 0.629481 0.842314 0.257817
Si Si8 0.571110 0.323934 0.260158
O O1 0.870958 0.898581 0.582432
O O2 0.691758 0.167377 0.356424
O O3 0.000000 0.000000 0.500000
O O4 0.141222 0.889248 0.923398
O O5 0.000000 0.500000 0.500000
O O6 0.938759 0.713822 0.256379
O O7 0.872159 0.702903 0.464386
O O8 0.316305 0.474931 0.877761
O O9 0.209970 0.714575 0.497541
O O10 0.914999 0.819141 0.938477
O O11 0.764465 0.990908 0.957223
O O12 0.566256 0.666947 0.456015
O O13 0.449253 0.846065 0.079582
O O14 0.314691 0.165335 0.512842
O O15 0.871354 0.387170 0.976031
O O16 0.500000 0.500000 0.500000
O O17 0.507486 0.350428 0.357780
O O18 0.500000 0.000000 0.000000
#
# Coordination Sequence:
#
# PCOD9065895 Si02
#       8
#     2   2   2   2   2   2   2   2
#     4  11  25  43  74 107 139 190 244 295 363 424
#     4  12  29  46  71 106 149 192 241 294 361 424
#     4  11  25  49  72 108 142 190 242 298 360 428
#     4  11  25  44  71 100 147 192 236 295 363 425
#     4  12  26  44  76 107 143 186 242 299 365 424
#     4  12  23  44  73 110 146 177 242 310 357 423
#     4  12  27  50  71 101 148 193 241 293 359 442
#     4  11  25  45  74 105 146 186 242 300 360 425
#
# _framework density 22.691188
#
# number of rings (size 3 to 8) (size 9 to 14) (size 15 to 20)
#    0.000    0.500    5.000    1.875    7.000    5.000 
#    0.000    0.000    0.000    0.000    0.000    0.000 
#    0.000    0.000    0.000    0.000    0.000    0.000 
#
# Total GULP energy -89167.825295 kJ/mol
# GULP energy per Si atom -5572.989081 kJ/mol
# Density = 2.263954 g / cm^3
# Si number density = 22.691188 Si / 1000 Ang^3
#
#
#
# Elastic Constant Matrix: (Units=GPa)
#
#
# Indices 1 2 3 4 5 6 
#
# 1 90.5132 36.5193 29.6259 -9.0649 -9.8804 5.5484
# 2 36.5193 96.5569 38.0269 -2.9704 -9.8480 -4.9949
# 3 29.6259 38.0269 93.6293 8.8252 13.9922 -5.2853
# 4 -9.0649 -2.9704 8.8252 27.5770 3.1430 4.7360
# 5 -9.8804 -9.8480 13.9922 3.1430 49.0839 -10.5610
# 6 5.5484 -4.9949 -5.2853 4.7360 -10.5610 35.0565
#
#
#
# Elastic Compliance Matrix: (Units=1/GPa)
#
#
# Indices 1 2 3 4 5 6 
#
# 1 0.015129 -0.003735 -0.004432 0.006366 0.002345 -0.003748
# 2 -0.003735 0.014452 -0.005245 0.001012 0.004222 0.002995
# 3 -0.004432 -0.005245 0.015779 -0.006685 -0.005687 0.001523
# 4 0.006366 0.001012 -0.006685 0.042065 -0.000993 -0.007853
# 5 0.002345 0.004222 -0.005687 -0.000993 0.024884 0.007004
# 6 -0.003748 0.002995 0.001523 -0.007853 0.007004 0.032946
#
#
# Mechanical properties :
#
#
# Convention : Reuss Voigt Hill
#
# Bulk Modulus (GPa) = 53.95184 54.33817 54.14501
# Shear Modulus (GPa) = 28.04934 34.11197 31.08066
#
# Velocity S-wave (km/s) = 3.51968 3.88147 3.70499
# Velocity P-wave (km/s) = 6.35183 6.63977 6.49739
#
# Compressibility (1/GPa) = 0.01853505
#
# Stress axis : x y z
#
# Youngs Moduli (GPa) = 66.09715 69.19642 63.37611
#
# Poissons Ratio (x) = 0.25848 0.28089
# Poissons Ratio (y) = 0.24691 0.33239
# Poissons Ratio (z) = 0.29295 0.36292
#
# Static dielectric constant tensor:
#      x y z
#    x 2.067280 0.015070 0.054030 
#    y 0.015070 1.794120 0.040990 
#    z 0.054030 0.040990 1.886650 
# 
# From -- ./inp_files/272698.got.cif
#   From: 2010.05.17/outbox.cif.g08.bks.cpg/sg2_137_cif.got.tgz:272698.got - 2010.06.03 11:33:40.
