data_PCOD9065516
_publ_section_title
;
Structure prediction by ZEFSAII (Michael W. Deem and Ramdas Pophale) SiO2 
 PCOD9065516
Probable space group: P -1
;
_chemical_formula_sum "Si O2"
_cell_formula_units_Z 14
_cell_length_a 21.593988
_cell_length_b 11.014491
_cell_length_c 10.117807
_cell_angle_alpha 137.270540
_cell_angle_beta 136.842136
_cell_angle_gamma 19.693966
_cell_volume 542.677833
_symmetry_space_group_name_H-M "P -1"
_symmetry_group_IT_number 2
_symmetry_cell_setting 'triclinic'
loop_
_space_group_symop_operation_xyz
x,y,z
-x,-y,-z
loop_
_atom_site_type_symbol
_atom_site_label
_atom_site_fract_x
_atom_site_fract_y
_atom_site_fract_z
Si Si1 0.767170 0.025087 0.213735
Si Si2 0.327032 0.598974 0.884219
Si Si3 0.199749 0.248902 0.582209
Si Si4 0.269832 0.284086 0.176751
Si Si5 0.869569 0.399025 0.495854
Si Si6 0.583937 0.442886 0.738755
Si Si7 0.799086 0.414662 0.961644
O O1 0.664017 0.296825 0.148406
O O2 0.623219 0.228934 0.267744
O O3 0.842950 0.703590 0.023276
O O4 0.078442 0.105109 0.603001
O O5 0.160431 0.747726 0.722000
O O6 0.301170 0.758760 0.103268
O O7 0.514097 0.156073 0.840138
O O8 0.208999 0.333540 0.523715
O O9 0.233448 0.344277 0.818271
O O10 0.000000 0.500000 0.500000
O O11 0.347353 0.836538 0.467742
O O12 0.225326 0.497948 0.161142
O O13 0.774387 0.576408 0.633001
O O14 0.648790 0.521654 0.846989
O O15 0.000000 0.000000 0.000000
#
# Coordination Sequence:
#
# PCOD9065516 Si02
#       7
#     2   2   2   2   2   2   2
#     4  11  25  45  77 120 158 209 262 326 405 463
#     4  11  24  48  79 119 162 204 264 333 394 469
#     4  12  25  49  82 116 157 208 262 326 400 468
#     4  11  26  49  79 115 159 209 270 324 396 469
#     4  12  25  46  81 118 161 205 269 325 388 477
#     4  11  25  50  80 108 172 199 260 327 396 472
#     4  12  27  50  83 119 157 210 268 329 397 466
#
# _framework density 25.797995
#
# number of rings (size 3 to 8) (size 9 to 14) (size 15 to 20)
#    0.000    0.571    2.857    5.571    2.000    3.429 
#    5.143    6.429    0.000    0.000    0.000    0.000 
#    0.000    0.000    0.000    0.000    0.000    0.000 
#
# Total GULP energy -78577.331222 kJ/mol
# GULP energy per Si atom -5612.666516 kJ/mol
# Density = 2.573928 g / cm^3
# Si number density = 25.797995 Si / 1000 Ang^3
#
#
#
# Elastic Constant Matrix: (Units=GPa)
#
#
# Indices 1 2 3 4 5 6 
#
# 1 183.5323 39.0999 21.7806 4.9383 -16.1717 44.2666
# 2 39.0999 83.2663 -9.2402 2.0053 -6.1423 24.6788
# 3 21.7806 -9.2402 93.5468 13.3230 0.0314 3.4618
# 4 4.9383 2.0053 13.3230 42.3232 -3.6212 -6.3574
# 5 -16.1717 -6.1423 0.0314 -3.6212 59.3309 -4.0637
# 6 44.2666 24.6788 3.4618 -6.3574 -4.0637 48.1025
#
#
#
# Elastic Compliance Matrix: (Units=1/GPa)
#
#
# Indices 1 2 3 4 5 6 
#
# 1 0.007627 -0.001856 -0.001585 -0.001080 0.001412 -0.005976
# 2 -0.001856 0.015176 0.002488 -0.002222 0.000482 -0.006510
# 3 -0.001585 0.002488 0.011907 -0.003910 -0.000504 -0.001235
# 4 -0.001080 -0.002222 -0.003910 0.026117 0.001482 0.005992
# 5 0.001412 0.000482 -0.000504 0.001482 0.017391 0.000154
# 6 -0.005976 -0.006510 -0.001235 0.005992 0.000154 0.030522
#
#
# Mechanical properties :
#
#
# Convention : Reuss Voigt Hill
#
# Bulk Modulus (GPa) = 30.48239 51.51402 40.99821
# Shear Modulus (GPa) = 41.12543 50.53166 45.82854
#
# Velocity S-wave (km/s) = 3.99699 4.43057 4.21935
# Velocity P-wave (km/s) = 5.75697 6.79594 6.29792
#
# Compressibility (1/GPa) = 0.03280583
#
# Stress axis : x y z
#
# Youngs Moduli (GPa) = 131.11446 65.89403 83.98216
#
# Poissons Ratio (x) = 0.12229 0.13308
# Poissons Ratio (y) = 0.24334 -0.20898
# Poissons Ratio (z) = 0.20777 -0.16397
#
# Static dielectric constant tensor:
#      x y z
#    x 1.984710 0.021700 -0.027480 
#    y 0.021700 2.089840 -0.086860 
#    z -0.027480 -0.086860 2.031940 
# 
# From -- ./inp_files/543977.got.cif
#   From: 2010.05.17/outbox.cif.g08.bks.cpg/sg2_272_cif.got.tgz:543977.got - 2010.06.03 11:33:40.
