data_PCOD9065503
_publ_section_title
;
Structure prediction by ZEFSAII (Michael W. Deem and Ramdas Pophale) SiO2 
 PCOD9065503
Probable space group: P -1
;
_chemical_formula_sum "Si O2"
_cell_formula_units_Z 11
_cell_length_a 8.910911
_cell_length_b 15.205584
_cell_length_c 20.613143
_cell_angle_alpha 159.935626
_cell_angle_beta 31.183824
_cell_angle_gamma 151.125149
_cell_volume 453.454863
_symmetry_space_group_name_H-M "P -1"
_symmetry_group_IT_number 2
_symmetry_cell_setting 'triclinic'
loop_
_space_group_symop_operation_xyz
x,y,z
-x,-y,-z
loop_
_atom_site_type_symbol
_atom_site_label
_atom_site_fract_x
_atom_site_fract_y
_atom_site_fract_z
Si Si1 0.000000 0.500000 0.000000
Si Si2 0.144862 0.025969 0.393753
Si Si3 0.320359 0.647856 0.759483
Si Si4 0.798690 0.178730 0.208072
Si Si5 0.779211 0.685156 0.073978
Si Si6 0.999936 0.683642 0.565148
O O1 0.180855 0.437786 0.956281
O O2 0.036083 0.240031 0.767890
O O3 0.164978 0.325624 0.569554
O O4 0.512072 0.063317 0.285013
O O5 0.000000 0.000000 0.500000
O O6 0.375299 0.836852 0.806635
O O7 0.651710 0.686052 0.693349
O O8 0.095775 0.711622 0.936292
O O9 0.017111 0.492988 0.366679
O O10 0.000000 0.000000 0.000000
O O11 0.500000 0.500000 0.000000
O O12 0.770166 0.990978 0.295463
O O13 0.000000 0.500000 0.500000
#
# Coordination Sequence:
#
# PCOD9065503 Si02
#       6
#     1   2   2   2   2   2
#     4  12  26  48  80 108 176 208 264 338 434 462
#     4  11  24  48  77 115 154 219 267 335 408 494
#     4  11  24  48  78 109 163 205 279 335 407 490
#     4  11  25  47  77 112 157 211 274 332 407 492
#     4  12  28  49  78 125 162 217 277 344 415 502
#     4  11  25  47  77 110 156 214 273 331 415 490
#
# _framework density 24.258202000000001
#
# number of rings (size 3 to 8) (size 9 to 14) (size 15 to 20)
#    0.000    0.727    1.818    6.000    7.636    1.455 
#    3.273    1.818    0.000    0.000    0.000    0.000 
#    0.000    0.000    0.000    0.000    0.000    0.000 
#
# Total GULP energy -61308.633082 kJ/mol
# GULP energy per Si atom -5573.512098 kJ/mol
# Density = 2.420299 g / cm^3
# Si number density = 24.258202 Si / 1000 Ang^3
#
#
#
# Elastic Constant Matrix: (Units=GPa)
#
#
# Indices 1 2 3 4 5 6 
#
# 1 204.9303 49.4096 62.2577 15.0507 -6.6308 -7.8023
# 2 49.4096 65.3034 53.1940 -4.3077 3.9687 -2.3138
# 3 62.2577 53.1940 198.5161 8.2929 22.9750 11.3813
# 4 15.0507 -4.3077 8.2929 44.5271 3.4453 2.7443
# 5 -6.6308 3.9687 22.9750 3.4453 59.8971 11.9855
# 6 -7.8023 -2.3138 11.3813 2.7443 11.9855 19.3002
#
#
#
# Elastic Compliance Matrix: (Units=1/GPa)
#
#
# Indices 1 2 3 4 5 6 
#
# 1 0.006552 -0.004233 -0.001076 -0.002660 0.001074 0.002487
# 2 -0.004233 0.023270 -0.005207 0.004479 -0.001112 0.004202
# 3 -0.001076 -0.005207 0.007246 -0.001106 -0.001661 -0.004144
# 4 -0.002660 0.004479 -0.001106 0.024242 -0.001021 -0.002699
# 5 0.001074 -0.001112 -0.001661 -0.001021 0.019753 -0.010841
# 6 0.002487 0.004202 -0.004144 -0.002699 -0.010841 0.062882
#
#
# Mechanical properties :
#
#
# Convention : Reuss Voigt Hill
#
# Bulk Modulus (GPa) = 62.36525 88.71915 75.54220
# Shear Modulus (GPa) = 29.35598 45.00411 37.18004
#
# Velocity S-wave (km/s) = 3.48249 4.31189 3.91919
# Velocity P-wave (km/s) = 6.47573 7.83850 7.18948
#
# Compressibility (1/GPa) = 0.01603457
#
# Stress axis : x y z
#
# Youngs Moduli (GPa) = 152.62065 42.97457 138.00487
#
# Poissons Ratio (x) = 0.18193 0.14853
# Poissons Ratio (y) = 0.64611 0.71859
# Poissons Ratio (z) = 0.16426 0.22377
#
# Static dielectric constant tensor:
#      x y z
#    x 1.562110 0.129740 -0.094440 
#    y 0.129740 2.006920 0.099380 
#    z -0.094440 0.099380 1.871370 
# 
# From -- ./inp_files/590332.got.cif
#   From: 2010.05.17/outbox.cif.g08.bks.cpg/sg2_296_cif.got.tgz:590332.got - 2010.06.03 11:33:40.
