data_PCOD9065992
_publ_section_title
;
Structure prediction by ZEFSAII (Michael W. Deem and Ramdas Pophale) SiO2 
 PCOD9065992
Probable space group: P -1
;
_chemical_formula_sum "Si O2"
_cell_formula_units_Z 16
_cell_length_a 5.378104
_cell_length_b 9.035590
_cell_length_c 20.205238
_cell_angle_alpha 129.719894
_cell_angle_beta 101.019261
_cell_angle_gamma 57.485280
_cell_volume 619.028288
_symmetry_space_group_name_H-M "P -1"
_symmetry_group_IT_number 2
_symmetry_cell_setting 'triclinic'
loop_
_space_group_symop_operation_xyz
x,y,z
-x,-y,-z
loop_
_atom_site_type_symbol
_atom_site_label
_atom_site_fract_x
_atom_site_fract_y
_atom_site_fract_z
Si Si1 0.597998 0.533481 0.232898
Si Si2 0.538110 0.759488 0.433595
Si Si3 0.162692 0.304259 0.340599
Si Si4 0.318941 0.259296 0.189460
Si Si5 0.141062 0.625439 0.077145
Si Si6 0.734129 0.144599 0.972591
Si Si7 0.638303 0.232046 0.438643
Si Si8 0.941758 0.056563 0.738925
O O1 0.509083 0.667140 0.336633
O O2 0.491916 0.356323 0.187334
O O3 0.405690 0.739364 0.230782
O O4 0.953454 0.415548 0.205051
O O5 0.307640 0.795637 0.489281
O O6 0.881318 0.558849 0.414233
O O7 0.500000 0.000000 0.500000
O O8 0.343785 0.283996 0.277466
O O9 0.373778 0.207465 0.387988
O O10 0.032810 0.146674 0.275394
O O11 0.397298 0.011314 0.097907
O O12 0.163686 0.786378 0.069599
O O13 0.946266 0.800302 0.176473
O O14 0.464582 0.402239 0.054132
O O15 0.000000 0.500000 0.000000
O O16 0.000000 0.000000 0.000000
O O17 0.500000 0.500000 0.500000
O O18 0.910778 0.059198 0.356134
#
# Coordination Sequence:
#
# PCOD9065992 Si02
#       8
#     2   2   2   2   2   2   2   2
#     4  11  28  47  75 112 150 205 255 321 387 464
#     4  11  25  46  69 106 148 194 259 319 377 460
#     4  11  25  44  70  99 149 197 246 312 388 454
#     4  11  26  49  76 109 153 199 258 313 392 468
#     4  11  28  48  76 117 152 203 265 327 398 476
#     4  11  26  48  80 110 155 205 258 328 399 478
#     4  12  26  42  71 102 138 200 250 308 384 454
#     4  12  27  47  71 106 152 195 254 319 387 465
#
# _framework density 25.846964
#
# number of rings (size 3 to 8) (size 9 to 14) (size 15 to 20)
#    0.000    0.750    2.500    2.625   14.000    1.000 
#    0.000    0.000    0.000    0.000    0.000    0.000 
#    0.000    0.000    0.000    0.000    0.000    0.000 
#
# Total GULP energy -89556.708860 kJ/mol
# GULP energy per Si atom -5597.294304 kJ/mol
# Density = 2.578814 g / cm^3
# Si number density = 25.846964 Si / 1000 Ang^3
#
#
#
# Elastic Constant Matrix: (Units=GPa)
#
#
# Indices 1 2 3 4 5 6 
#
# 1 81.4939 31.8488 23.4385 19.4653 9.4495 -5.3385
# 2 31.8488 124.6930 22.1412 30.9553 -3.9333 -11.9971
# 3 23.4385 22.1412 133.3123 42.9437 -9.8867 -3.4222
# 4 19.4653 30.9553 42.9437 43.3183 7.9891 4.1058
# 5 9.4495 -3.9333 -9.8867 7.9891 42.0301 8.5362
# 6 -5.3385 -11.9971 -3.4222 4.1058 8.5362 42.8600
#
#
#
# Elastic Compliance Matrix: (Units=1/GPa)
#
#
# Indices 1 2 3 4 5 6 
#
# 1 0.015047 -0.002840 -0.001558 -0.002654 -0.003915 0.001989
# 2 -0.002840 0.011208 0.002115 -0.009760 0.003388 0.003213
# 3 -0.001558 0.002115 0.012591 -0.014543 0.005947 0.001612
# 4 -0.002654 -0.009760 -0.014543 0.048432 -0.011613 -0.006550
# 5 -0.003915 0.003388 0.005947 -0.011613 0.029368 -0.003801
# 6 0.001989 0.003213 0.001612 -0.006550 -0.003801 0.025992
#
#
# Mechanical properties :
#
#
# Convention : Reuss Voigt Hill
#
# Bulk Modulus (GPa) = 29.17102 54.92847 42.04975
# Shear Modulus (GPa) = 31.51979 43.11305 37.31642
#
# Velocity S-wave (km/s) = 3.49589 4.08856 3.80379
# Velocity P-wave (km/s) = 5.25410 6.60197 5.96622
#
# Compressibility (1/GPa) = 0.03428059
#
# Stress axis : x y z
#
# Youngs Moduli (GPa) = 66.45845 89.21978 79.42174
#
# Poissons Ratio (x) = 0.25338 0.12376
# Poissons Ratio (y) = 0.18874 -0.16800
# Poissons Ratio (z) = 0.10356 -0.18873
#
# Static dielectric constant tensor:
#      x y z
#    x 0.704940 -0.409670 0.639200 
#    y -0.409670 1.978790 0.039160 
#    z 0.639200 0.039160 1.780310 
# 
# From -- ./inp_files/582610.got.cif
#   From: 2010.05.17/outbox.cif.g08.bks.cpg/sg2_292_cif.got.tgz:582610.got - 2010.06.03 11:33:40.
