data_PCOD9065683
_publ_section_title
;
Structure prediction by ZEFSAII (Michael W. Deem and Ramdas Pophale) SiO2 
 PCOD9065683
Probable space group: P -1
;
_chemical_formula_sum "Si O2"
_cell_formula_units_Z 14
_cell_length_a 8.738593
_cell_length_b 7.647859
_cell_length_c 9.546852
_cell_angle_alpha 83.120891
_cell_angle_beta 110.230187
_cell_angle_gamma 108.354145
_cell_volume 568.173327
_symmetry_space_group_name_H-M "P -1"
_symmetry_group_IT_number 2
_symmetry_cell_setting 'triclinic'
loop_
_space_group_symop_operation_xyz
x,y,z
-x,-y,-z
loop_
_atom_site_type_symbol
_atom_site_label
_atom_site_fract_x
_atom_site_fract_y
_atom_site_fract_z
Si Si1 0.374211 0.839119 0.568895
Si Si2 0.604262 0.431040 0.917832
Si Si3 0.669562 0.104305 0.125541
Si Si4 0.981186 0.383646 0.672109
Si Si5 0.978883 0.961069 0.157312
Si Si6 0.659998 0.560467 0.375622
Si Si7 0.805746 0.666713 0.706991
O O1 0.351596 0.898756 0.713998
O O2 0.435043 0.657977 0.633273
O O3 0.191611 0.745320 0.444654
O O4 0.500000 0.000000 0.500000
O O5 0.452191 0.344504 0.764159
O O6 0.733814 0.574573 0.841742
O O7 0.500000 0.500000 0.000000
O O8 0.700171 0.304986 0.042566
O O9 0.808504 0.002652 0.146726
O O10 0.500000 0.000000 0.000000
O O11 0.150101 0.421187 0.626252
O O12 0.944141 0.562205 0.709685
O O13 0.018162 0.245607 0.808374
O O14 0.122357 0.115206 0.271611
O O15 0.000000 0.000000 0.000000
O O16 0.686714 0.629381 0.535466
#
# Coordination Sequence:
#
# PCOD9065683 Si02
#       7
#     2   2   2   2   2   2   2
#     4  11  26  46  79 111 154 196 257 316 372 454
#     4  12  27  46  74 108 153 200 243 313 380 443
#     4  12  28  47  72 110 153 196 250 311 382 447
#     4  11  26  51  80 109 151 202 253 315 377 448
#     4  12  29  47  77 114 152 198 256 316 378 450
#     4  11  24  50  79 110 150 204 254 309 381 454
#     4  11  27  48  78 110 150 199 261 306 381 453
#
# _framework density 24.640367000000001
#
# number of rings (size 3 to 8) (size 9 to 14) (size 15 to 20)
#    0.000    0.571    1.429    5.571   12.000    4.571 
#    0.000    0.000    0.000    0.000    0.000    0.000 
#    0.000    0.000    0.000    0.000    0.000    0.000 
#
# Total GULP energy -78315.088394 kJ/mol
# GULP energy per Si atom -5593.934885 kJ/mol
# Density = 2.458428 g / cm^3
# Si number density = 24.640367 Si / 1000 Ang^3
#
#
#
# Elastic Constant Matrix: (Units=GPa)
#
#
# Indices 1 2 3 4 5 6 
#
# 1 75.6471 -10.3489 25.5551 -2.3940 -11.5861 7.3524
# 2 -10.3489 71.3064 12.3784 -10.7564 -4.4460 6.0401
# 3 25.5551 12.3784 132.9284 -11.9691 -16.5355 -2.7815
# 4 -2.3940 -10.7564 -11.9691 53.6656 -0.0378 -5.4486
# 5 -11.5861 -4.4460 -16.5355 -0.0378 46.6871 -2.4972
# 6 7.3524 6.0401 -2.7815 -5.4486 -2.4972 41.6806
#
#
#
# Elastic Compliance Matrix: (Units=1/GPa)
#
#
# Indices 1 2 3 4 5 6 
#
# 1 0.015425 0.003254 -0.002937 0.000366 0.002928 -0.003165
# 2 0.003254 0.015494 -0.001692 0.002621 0.001553 -0.002497
# 3 -0.002937 -0.001692 0.008714 0.001647 0.002288 0.001697
# 4 0.000366 0.002621 0.001647 0.019779 0.001064 0.002315
# 5 0.002928 0.001553 0.002288 0.001064 0.023155 0.000938
# 6 -0.003165 -0.002497 0.001697 0.002315 0.000938 0.025384
#
#
# Mechanical properties :
#
#
# Convention : Reuss Voigt Hill
#
# Bulk Modulus (GPa) = 27.11301 37.22792 32.17046
# Shear Modulus (GPa) = 40.65273 45.22647 42.93960
#
# Velocity S-wave (km/s) = 4.06623 4.28888 4.17904
# Velocity P-wave (km/s) = 5.75092 6.29820 6.03077
#
# Compressibility (1/GPa) = 0.03688266
#
# Stress axis : x y z
#
# Youngs Moduli (GPa) = 64.83180 64.54275 114.76391
#
# Poissons Ratio (x) = -0.21005 0.33711
# Poissons Ratio (y) = -0.21099 0.19413
# Poissons Ratio (z) = 0.19044 0.10918
#
# Static dielectric constant tensor:
#      x y z
#    x 2.810720 0.264440 1.408000 
#    y 0.264440 2.100970 0.293450 
#    z 1.408000 0.293450 4.231500 
# 
# From -- ./inp_files/158198.got.cif
#   From: 2010.05.17/outbox.cif.g08.bks.cpg/sg2_80_cif.got.tgz:158198.got - 2010.06.03 11:33:40.
