data_PCOD9065687
_publ_section_title
;
Structure prediction by ZEFSAII (Michael W. Deem and Ramdas Pophale) SiO2 
 PCOD9065687
Probable space group: P -1
;
_chemical_formula_sum "Si O2"
_cell_formula_units_Z 10
_cell_length_a 5.739736
_cell_length_b 9.486282
_cell_length_c 8.668654
_cell_angle_alpha 105.795052
_cell_angle_beta 83.697204
_cell_angle_gamma 61.348389
_cell_volume 382.083757
_symmetry_space_group_name_H-M "P -1"
_symmetry_group_IT_number 2
_symmetry_cell_setting 'triclinic'
loop_
_space_group_symop_operation_xyz
x,y,z
-x,-y,-z
loop_
_atom_site_type_symbol
_atom_site_label
_atom_site_fract_x
_atom_site_fract_y
_atom_site_fract_z
Si Si1 0.672592 0.063331 0.411993
Si Si2 0.305813 0.615449 0.402881
Si Si3 0.848450 0.081789 0.871938
Si Si4 0.183415 0.241346 0.313845
Si Si5 0.754502 0.588101 0.918360
O O1 0.700338 0.205063 0.547630
O O2 0.492281 0.179672 0.315540
O O3 0.500000 0.000000 0.500000
O O4 0.939101 0.909706 0.258867
O O5 0.500000 0.500000 0.500000
O O6 0.339502 0.522074 0.210171
O O7 0.007876 0.661333 0.499232
O O8 0.823858 0.928667 0.757451
O O9 0.540521 0.248647 0.956120
O O10 0.000000 0.000000 0.000000
O O11 0.109541 0.345536 0.194963
O O12 0.000000 0.500000 0.000000
#
# Coordination Sequence:
#
# PCOD9065687 Si02
#       5
#     2   2   2   2   2
#     4  11  26  50  85 115 154 221 290 325 388 505
#     4  11  24  51  83 113 163 220 274 329 413 493
#     4  11  24  51  83 113 163 220 274 329 413 493
#     4  11  24  50  83 111 161 224 272 332 406 496
#     4  12  26  49  84 130 167 204 269 357 417 468
#
# _framework density 26.172273000000001
#
# number of rings (size 3 to 8) (size 9 to 14) (size 15 to 20)
#    0.000    0.800    4.000    2.400    0.000    4.800 
#    7.200    6.000    0.000    0.000    0.000    0.000 
#    0.000    0.000    0.000    0.000    0.000    0.000 
#
# Total GULP energy -55970.822238 kJ/mol
# GULP energy per Si atom -5597.082224 kJ/mol
# Density = 2.611270 g / cm^3
# Si number density = 26.172273 Si / 1000 Ang^3
#
#
#
# Elastic Constant Matrix: (Units=GPa)
#
#
# Indices 1 2 3 4 5 6 
#
# 1 98.6684 46.2027 60.2157 -6.3869 -4.4043 -13.8395
# 2 46.2027 132.4854 62.1499 -22.6673 -3.0824 -11.2960
# 3 60.2157 62.1499 147.6099 4.4031 -2.2656 -1.9554
# 4 -6.3869 -22.6673 4.4031 51.9546 -4.0387 8.9987
# 5 -4.4043 -3.0824 -2.2656 -4.0387 45.2404 -17.3618
# 6 -13.8395 -11.2960 -1.9554 8.9987 -17.3618 78.6706
#
#
#
# Elastic Compliance Matrix: (Units=1/GPa)
#
#
# Indices 1 2 3 4 5 6 
#
# 1 0.014807 -0.002404 -0.004991 0.000924 0.002064 0.002485
# 2 -0.002404 0.011083 -0.003803 0.004813 0.001050 0.000755
# 3 -0.004991 -0.003803 0.010476 -0.003054 -0.000880 -0.001009
# 4 0.000924 0.004813 -0.003054 0.022090 0.001711 -0.001372
# 5 0.002064 0.001050 -0.000880 0.001711 0.024690 0.005745
# 6 0.002485 0.000755 -0.001009 -0.001372 0.005745 0.014657
#
#
# Mechanical properties :
#
#
# Convention : Reuss Voigt Hill
#
# Bulk Modulus (GPa) = 71.58525 79.54450 75.56487
# Shear Modulus (GPa) = 40.04595 49.18615 44.61605
#
# Velocity S-wave (km/s) = 3.91588 4.33982 4.13329
# Velocity P-wave (km/s) = 6.91783 7.45457 7.19121
#
# Compressibility (1/GPa) = 0.01396936
#
# Stress axis : x y z
#
# Youngs Moduli (GPa) = 67.53364 90.23047 95.45569
#
# Poissons Ratio (x) = 0.21696 0.47643
# Poissons Ratio (y) = 0.16238 0.36300
# Poissons Ratio (z) = 0.33707 0.34313
#
# Static dielectric constant tensor:
#      x y z
#    x 2.129060 -0.060210 0.022910 
#    y -0.060210 2.168550 -0.010730 
#    z 0.022910 -0.010730 2.060470 
# 
# From -- ./inp_files/90477.got.cif
#   From: 2010.05.17/outbox.cif.g08.bks.cpg/sg2_46_cif.got.tgz:90477.got - 2010.06.03 11:33:40.
