data_PCOD9065467
_publ_section_title
;
Structure prediction by ZEFSAII (Michael W. Deem and Ramdas Pophale) SiO2 
 PCOD9065467
Probable space group: P -1
;
_chemical_formula_sum "Si O2"
_cell_formula_units_Z 14
_cell_length_a 5.095147
_cell_length_b 20.722358
_cell_length_c 13.303611
_cell_angle_alpha 23.598122
_cell_angle_beta 67.143013
_cell_angle_gamma 66.399281
_cell_volume 514.382128
_symmetry_space_group_name_H-M "P -1"
_symmetry_group_IT_number 2
_symmetry_cell_setting 'triclinic'
loop_
_space_group_symop_operation_xyz
x,y,z
-x,-y,-z
loop_
_atom_site_type_symbol
_atom_site_label
_atom_site_fract_x
_atom_site_fract_y
_atom_site_fract_z
Si Si1 0.543350 0.857860 0.073707
Si Si2 0.359482 0.201068 0.629167
Si Si3 0.886503 0.269088 0.950984
Si Si4 0.538386 0.981851 0.399887
Si Si5 0.940222 0.441704 0.890421
Si Si6 0.139147 0.786281 0.602833
Si Si7 0.530643 0.470046 0.421195
O O1 0.682791 0.848952 0.177632
O O2 0.348599 0.717436 0.324246
O O3 0.807621 0.796390 0.048679
O O4 0.353435 0.022969 0.834961
O O5 0.203272 0.375385 0.371531
O O6 0.684763 0.223314 0.513142
O O7 0.880222 0.292315 0.038624
O O8 0.786264 0.457581 0.670182
O O9 0.658109 0.153532 0.110024
O O10 0.279553 0.915529 0.471077
O O11 0.812813 0.847981 0.539262
O O12 0.500000 0.000000 0.500000
O O13 0.270955 0.449279 0.801403
O O14 0.857631 0.381188 0.097940
O O15 0.500000 0.500000 0.500000
#
# Coordination Sequence:
#
# PCOD9065467 Si02
#       7
#     2   2   2   2   2   2   2
#     4  11  24  48  75 104 156 191 259 309 383 451
#     4  11  26  49  70 109 154 204 245 307 388 459
#     4  12  24  46  74 108 147 191 256 322 371 444
#     4  12  26  46  79 114 150 195 258 314 381 439
#     4  12  26  47  75 108 149 196 255 313 380 451
#     4  12  28  50  76 114 154 204 251 314 380 465
#     4  12  25  41  77 111 143 193 255 322 376 439
#
# _framework density 27.217119
#
# number of rings (size 3 to 8) (size 9 to 14) (size 15 to 20)
#    0.000    0.286    5.714    3.000    4.000    1.714 
#    0.000    2.143    0.000    0.000    0.000    0.000 
#    0.000    0.000    0.000    0.000    0.000    0.000 
#
# Total GULP energy -78138.290711 kJ/mol
# GULP energy per Si atom -5581.306479 kJ/mol
# Density = 2.715517 g / cm^3
# Si number density = 27.217119 Si / 1000 Ang^3
#
#
#
# Elastic Constant Matrix: (Units=GPa)
#
#
# Indices 1 2 3 4 5 6 
#
# 1 53.1213 20.7156 26.5489 -3.3405 4.3287 -0.4794
# 2 20.7156 100.6428 36.3190 -2.5157 14.9198 -9.8314
# 3 26.5489 36.3190 188.0695 -13.1895 7.6389 -4.2374
# 4 -3.3405 -2.5157 -13.1895 56.8409 -4.7556 -0.2474
# 5 4.3287 14.9198 7.6389 -4.7556 38.7715 -6.9187
# 6 -0.4794 -9.8314 -4.2374 -0.2474 -6.9187 37.3590
#
#
#
# Elastic Compliance Matrix: (Units=1/GPa)
#
#
# Indices 1 2 3 4 5 6 
#
# 1 0.021445 -0.003572 -0.002297 0.000507 -0.000692 -0.001050
# 2 -0.003572 0.012001 -0.001643 -0.000346 -0.003533 0.002269
# 3 -0.002297 -0.001643 0.006052 0.001187 -0.000120 0.000210
# 4 0.000507 -0.000346 0.001187 0.018066 0.002160 0.000570
# 5 -0.000692 -0.003533 -0.000120 0.002160 0.028285 0.004300
# 6 -0.001050 0.002269 0.000210 0.000570 0.004300 0.028175
#
#
# Mechanical properties :
#
#
# Convention : Reuss Voigt Hill
#
# Bulk Modulus (GPa) = 40.86236 56.55562 48.70899
# Shear Modulus (GPa) = 36.44133 43.81094 40.12613
#
# Velocity S-wave (km/s) = 3.66308 4.01644 3.84382
# Velocity P-wave (km/s) = 5.73908 6.50643 6.13476
#
# Compressibility (1/GPa) = 0.02447240
#
# Stress axis : x y z
#
# Youngs Moduli (GPa) = 46.63105 83.32562 165.24367
#
# Poissons Ratio (x) = 0.29766 0.37964
# Poissons Ratio (y) = 0.16658 0.27148
# Poissons Ratio (z) = 0.10713 0.13690
#
# Static dielectric constant tensor:
#      x y z
#    x 2.232190 0.189950 -0.148480 
#    y 0.189950 2.309760 -0.149330 
#    z -0.148480 -0.149330 2.551000 
# 
# From -- ./inp_files/71585.got.cif
#   From: 2010.05.17/outbox.cif.g08.bks.cpg/sg2_36_cif.got.tgz:71585.got - 2010.06.03 11:33:40.
