data_PCOD9065131
_publ_section_title
;
Structure prediction by ZEFSAII (Michael W. Deem and Ramdas Pophale) SiO2 
 PCOD9065131
Probable space group: P -1
;
_chemical_formula_sum "Si O2"
_cell_formula_units_Z 15
_cell_length_a 11.410026
_cell_length_b 17.535053
_cell_length_c 9.814227
_cell_angle_alpha 44.338165
_cell_angle_beta 145.674971
_cell_angle_gamma 147.269539
_cell_volume 597.316027
_symmetry_space_group_name_H-M "P -1"
_symmetry_group_IT_number 2
_symmetry_cell_setting 'triclinic'
loop_
_space_group_symop_operation_xyz
x,y,z
-x,-y,-z
loop_
_atom_site_type_symbol
_atom_site_label
_atom_site_fract_x
_atom_site_fract_y
_atom_site_fract_z
Si Si1 0.647795 0.195519 0.223338
Si Si2 0.607276 0.431297 0.828887
Si Si3 0.902101 0.730816 0.640476
Si Si4 0.964034 0.045308 0.054075
Si Si5 0.151576 0.756471 0.355319
Si Si6 0.559940 0.809591 0.467189
Si Si7 0.369143 0.503813 0.733935
Si Si8 0.000000 0.000000 0.500000
O O1 0.661180 0.166909 0.431552
O O2 0.874360 0.207620 0.341527
O O3 0.342167 0.071739 0.045782
O O4 0.696161 0.341075 0.072076
O O5 0.858841 0.596310 0.836063
O O6 0.397167 0.349397 0.607330
O O7 0.428565 0.433619 0.766819
O O8 0.982222 0.858482 0.648040
O O9 0.015392 0.189520 0.895614
O O10 0.156184 0.072379 0.327746
O O11 0.000000 0.000000 0.000000
O O12 0.324425 0.790403 0.345505
O O13 0.945163 0.594009 0.408257
O O14 0.486563 0.658231 0.602280
O O15 0.661160 0.888357 0.321862
O O16 0.500000 0.500000 0.000000
#
# Coordination Sequence:
#
# PCOD9065131 Si02
#       8
#     2   2   2   2   2   2   2   1
#     4  12  24  42  76 109 139 187 249 299 363 436
#     4  11  24  47  72 106 144 197 242 300 361 432
#     4  11  25  47  73 102 149 192 249 294 361 438
#     4  12  25  43  68 104 144 184 233 305 367 425
#     4  12  25  44  73 108 139 187 243 307 364 428
#     4  12  26  46  69 105 149 189 240 295 367 432
#     4  12  23  47  72 105 146 186 238 303 367 427
#     4  12  26  48  72 102 150 198 234 298 358 436
#
# _framework density 25.112335000000002
#
# number of rings (size 3 to 8) (size 9 to 14) (size 15 to 20)
#    0.000    0.267    5.333    4.400    1.867    0.000 
#    0.000    8.667    0.000    0.000    0.000    0.000 
#    0.000    0.000    0.000    0.000    0.000    0.000 
#
# Total GULP energy -83800.397642 kJ/mol
# GULP energy per Si atom -5586.693176 kJ/mol
# Density = 2.505518 g / cm^3
# Si number density = 25.112335 Si / 1000 Ang^3
#
#
#
# Elastic Constant Matrix: (Units=GPa)
#
#
# Indices 1 2 3 4 5 6 
#
# 1 98.3938 38.3840 -6.9869 1.7134 25.1749 3.4792
# 2 38.3840 188.6138 16.5990 -13.1948 13.4155 10.9438
# 3 -6.9869 16.5990 42.6860 -5.8423 -1.1341 -12.9496
# 4 1.7134 -13.1948 -5.8423 44.9818 -1.8303 8.8389
# 5 25.1749 13.4155 -1.1341 -1.8303 39.2133 1.1252
# 6 3.4792 10.9438 -12.9496 8.8389 1.1252 47.3746
#
#
#
# Elastic Compliance Matrix: (Units=1/GPa)
#
#
# Indices 1 2 3 4 5 6 
#
# 1 0.013349 -0.002587 0.003072 -0.001356 -0.007685 0.000893
# 2 -0.002587 0.006462 -0.003464 0.002039 -0.000480 -0.002619
# 3 0.003072 -0.003464 0.027828 0.000899 -0.000170 0.008018
# 4 -0.001356 0.002039 0.000899 0.023967 0.001451 -0.004632
# 5 -0.007685 -0.000480 -0.000170 0.001451 0.030673 -0.000371
# 6 0.000893 -0.002619 0.008018 -0.004632 -0.000371 0.024712
#
#
# Mechanical properties :
#
#
# Convention : Reuss Voigt Hill
#
# Bulk Modulus (GPa) = 23.99259 47.29843 35.64551
# Shear Modulus (GPa) = 34.05006 45.09378 39.57192
#
# Velocity S-wave (km/s) = 3.68626 4.24215 3.97394
# Velocity P-wave (km/s) = 5.26240 6.54752 5.93982
#
# Compressibility (1/GPa) = 0.04167953
#
# Stress axis : x y z
#
# Youngs Moduli (GPa) = 74.91254 154.75292 35.93553
#
# Poissons Ratio (x) = 0.40034 -0.11039
# Poissons Ratio (y) = 0.19380 0.12449
# Poissons Ratio (z) = -0.23012 0.53612
#
# Static dielectric constant tensor:
#      x y z
#    x 1.937490 0.118650 0.045180 
#    y 0.118650 2.248740 -0.007660 
#    z 0.045180 -0.007660 1.988760 
# 
# From -- ./inp_files/68360.got.cif
#   From: 2010.05.17/outbox.cif.g08.bks.cpg/sg2_35_cif.got.tgz:68360.got - 2010.06.03 11:33:40.
