data_PCOD9065933
_publ_section_title
;
Structure prediction by ZEFSAII (Michael W. Deem and Ramdas Pophale) SiO2 
 PCOD9065933
Probable space group: P -1
;
_chemical_formula_sum "Si O2"
_cell_formula_units_Z 16
_cell_length_a 11.273194
_cell_length_b 6.170987
_cell_length_c 14.748548
_cell_angle_alpha 134.346899
_cell_angle_beta 78.329260
_cell_angle_gamma 86.532078
_cell_volume 688.047248
_symmetry_space_group_name_H-M "P -1"
_symmetry_group_IT_number 2
_symmetry_cell_setting 'triclinic'
loop_
_space_group_symop_operation_xyz
x,y,z
-x,-y,-z
loop_
_atom_site_type_symbol
_atom_site_label
_atom_site_fract_x
_atom_site_fract_y
_atom_site_fract_z
Si Si1 0.782914 0.809041 0.941672
Si Si2 0.416794 0.581484 0.126932
Si Si3 0.323179 0.260482 0.542086
Si Si4 0.567158 0.868751 0.310035
Si Si5 0.009775 0.193180 0.771608
Si Si6 0.802788 0.861671 0.748570
Si Si7 0.138296 0.885590 0.489232
Si Si8 0.223657 0.968164 0.795855
O O1 0.666562 0.656758 0.914730
O O2 0.789167 0.950968 0.883527
O O3 0.912090 0.523019 0.853344
O O4 0.768401 0.028559 0.095944
O O5 0.505835 0.604962 0.203812
O O6 0.317469 0.921318 0.221182
O O7 0.500000 0.500000 0.000000
O O8 0.370542 0.211769 0.624800
O O9 0.238270 0.618468 0.653857
O O10 0.447602 0.176270 0.436228
O O11 0.240663 0.022529 0.464691
O O12 0.664094 0.921989 0.235828
O O13 0.115463 0.054799 0.639294
O O14 0.089302 0.193472 0.849832
O O15 0.926171 0.950324 0.721763
O O16 0.817496 0.492179 0.626892
O O17 0.000000 0.000000 0.500000
#
# Coordination Sequence:
#
# PCOD9065933 Si02
#       8
#     2   2   2   2   2   2   2   2
#     4  11  25  46  67 105 136 179 225 279 337 407
#     4  11  25  45  72  98 135 178 229 283 334 403
#     4  11  27  44  70 100 136 180 226 281 336 402
#     4  11  25  47  65  98 140 172 230 282 334 397
#     4  11  25  44  68 104 137 175 226 279 342 401
#     4  11  26  43  71 101 135 178 229 282 344 395
#     4  12  23  46  73 102 139 175 227 285 339 403
#     4  12  25  43  72  96 139 184 222 273 342 405
#
# _framework density 23.254216
#
# number of rings (size 3 to 8) (size 9 to 14) (size 15 to 20)
#    0.000    0.750    3.750    2.625    5.250    4.000 
#    0.000    0.000    0.000    0.000    0.000    0.000 
#    0.000    0.000    0.000    0.000    0.000    0.000 
#
# Total GULP energy -89631.600144 kJ/mol
# GULP energy per Si atom -5601.975009 kJ/mol
# Density = 2.320129 g / cm^3
# Si number density = 23.254216 Si / 1000 Ang^3
#
#
#
# Elastic Constant Matrix: (Units=GPa)
#
#
# Indices 1 2 3 4 5 6 
#
# 1 117.8973 22.8513 22.3664 2.7144 -5.7855 -5.3152
# 2 22.8513 31.7143 -3.1661 1.4544 -5.1934 -0.1762
# 3 22.3664 -3.1661 78.3139 -5.8395 -5.6564 2.6875
# 4 2.7144 1.4544 -5.8395 34.2504 -3.8950 7.7456
# 5 -5.7855 -5.1934 -5.6564 -3.8950 32.2367 -12.8285
# 6 -5.3152 -0.1762 2.6875 7.7456 -12.8285 23.1178
#
#
#
# Elastic Compliance Matrix: (Units=1/GPa)
#
#
# Indices 1 2 3 4 5 6 
#
# 1 0.011041 -0.007944 -0.003661 -0.001988 0.001591 0.004452
# 2 -0.007944 0.038678 0.004235 0.000103 0.006085 0.001318
# 3 -0.003661 0.004235 0.014466 0.003372 0.001964 -0.002531
# 4 -0.001988 0.000103 0.003372 0.032594 -0.000634 -0.012120
# 5 0.001591 0.006085 0.001964 -0.000634 0.041983 0.023693
# 6 0.004452 0.001318 -0.002531 -0.012120 0.023693 0.061794
#
#
# Mechanical properties :
#
#
# Convention : Reuss Voigt Hill
#
# Bulk Modulus (GPa) = 20.22502 34.66985 27.44744
# Shear Modulus (GPa) = 21.57250 30.31255 25.94253
#
# Velocity S-wave (km/s) = 3.04909 3.61436 3.34369
# Velocity P-wave (km/s) = 4.59480 5.68855 5.17067
#
# Compressibility (1/GPa) = 0.04944370
#
# Stress axis : x y z
#
# Youngs Moduli (GPa) = 90.57352 25.85479 69.12796
#
# Poissons Ratio (x) = 0.20540 0.25304
# Poissons Ratio (y) = 0.71954 -0.29272
# Poissons Ratio (z) = 0.33154 -0.10948
#
# Static dielectric constant tensor:
#      x y z
#    x 1.846890 -0.021730 0.014560 
#    y -0.021730 1.837340 -0.017580 
#    z 0.014560 -0.017580 1.890980 
# 
# From -- ./inp_files/69260.got.cif
#   From: 2010.05.17/outbox.cif.g08.bks.cpg/sg2_35_cif.got.tgz:69260.got - 2010.06.03 11:33:40.
