data_PCOD9065286
_publ_section_title
;
Structure prediction by ZEFSAII (Michael W. Deem and Ramdas Pophale) SiO2 
 PCOD9065286
Probable space group: P -1
;
_chemical_formula_sum "Si O2"
_cell_formula_units_Z 15
_cell_length_a 5.343941
_cell_length_b 8.695500
_cell_length_c 14.632742
_cell_angle_alpha 62.081657
_cell_angle_beta 97.529689
_cell_angle_gamma 111.458096
_cell_volume 558.505791
_symmetry_space_group_name_H-M "P -1"
_symmetry_group_IT_number 2
_symmetry_cell_setting 'triclinic'
loop_
_space_group_symop_operation_xyz
x,y,z
-x,-y,-z
loop_
_atom_site_type_symbol
_atom_site_label
_atom_site_fract_x
_atom_site_fract_y
_atom_site_fract_z
Si Si1 0.015172 0.748757 0.810084
Si Si2 0.778568 0.890644 0.375017
Si Si3 0.421132 0.608140 0.306626
Si Si4 0.294414 0.918748 0.096122
Si Si5 0.067849 0.657126 0.538078
Si Si6 0.500000 0.000000 0.500000
Si Si7 0.193152 0.266935 0.007718
Si Si8 0.587764 0.437944 0.201803
O O1 0.717371 0.701592 0.767659
O O2 0.189504 0.646563 0.794486
O O3 0.975031 0.692267 0.929434
O O4 0.151295 0.968691 0.744884
O O5 0.569155 0.700091 0.380739
O O6 0.028190 0.841806 0.440495
O O7 0.669390 0.989181 0.420332
O O8 0.345273 0.766084 0.204716
O O9 0.157784 0.437292 0.370975
O O10 0.624481 0.557985 0.262214
O O11 0.010810 0.817887 0.061603
O O12 0.500000 0.000000 0.000000
O O13 0.294017 0.104651 0.094746
O O14 0.000000 0.500000 0.500000
O O15 0.366509 0.763414 0.559483
O O16 0.418518 0.431797 0.921933
#
# Coordination Sequence:
#
# PCOD9065286 Si02
#       8
#     2   2   2   2   2   1   2   2
#     4  12  30  49  82 119 172 220 281 352 433 499
#     4  12  30  51  82 120 161 220 278 358 424 513
#     4  12  27  52  83 119 164 224 284 346 434 512
#     4  11  24  47  77 121 160 215 279 349 416 511
#     4  12  29  54  86 121 164 221 284 352 433 508
#     4  12  28  54  82 118 166 208 282 358 418 506
#     4  11  26  46  78 116 165 221 278 348 421 507
#     4  12  28  50  77 122 165 222 282 347 422 520
#
# _framework density 26.857379000000002
#
# number of rings (size 3 to 8) (size 9 to 14) (size 15 to 20)
#    0.000    0.267    2.667    4.000   11.200    1.067 
#    0.000    0.000    0.000    0.000    0.000    0.000 
#    0.000    0.000    0.000    0.000    0.000    0.000 
#
# Total GULP energy -83880.111104 kJ/mol
# GULP energy per Si atom -5592.007407 kJ/mol
# Density = 2.679625 g / cm^3
# Si number density = 26.857379 Si / 1000 Ang^3
#
#
#
# Elastic Constant Matrix: (Units=GPa)
#
#
# Indices 1 2 3 4 5 6 
#
# 1 97.3027 31.6315 29.9792 -7.8618 -13.0416 -24.5565
# 2 31.6315 119.6347 41.2835 5.5956 -19.5659 -18.8961
# 3 29.9792 41.2835 109.6441 -22.5640 -10.5907 -31.4521
# 4 -7.8618 5.5956 -22.5640 59.6289 -2.5280 -9.5818
# 5 -13.0416 -19.5659 -10.5907 -2.5280 54.4115 -1.3224
# 6 -24.5565 -18.8961 -31.4521 -9.5818 -1.3224 51.9665
#
#
#
# Elastic Compliance Matrix: (Units=1/GPa)
#
#
# Indices 1 2 3 4 5 6 
#
# 1 0.013118 -0.002170 -0.000242 0.002894 0.002594 0.005863
# 2 -0.002170 0.010771 -0.003660 -0.002531 0.002530 0.000274
# 3 -0.000242 -0.003660 0.014886 0.007479 0.002090 0.008997
# 4 0.002894 -0.002531 0.007479 0.021779 0.002471 0.009052
# 5 0.002594 0.002530 0.002090 0.002471 0.020538 0.004388
# 6 0.005863 0.000274 0.008997 0.009052 0.004388 0.029339
#
#
# Mechanical properties :
#
#
# Convention : Reuss Voigt Hill
#
# Bulk Modulus (GPa) = 37.54941 59.15221 48.35081
# Shear Modulus (GPa) = 38.03640 48.11387 43.07513
#
# Velocity S-wave (km/s) = 3.76737 4.23715 4.00915
# Velocity P-wave (km/s) = 5.73895 6.78309 6.28275
#
# Compressibility (1/GPa) = 0.02663157
#
# Stress axis : x y z
#
# Youngs Moduli (GPa) = 76.22911 92.84299 67.17541
#
# Poissons Ratio (x) = 0.20148 0.01624
# Poissons Ratio (y) = 0.16543 0.24587
# Poissons Ratio (z) = 0.01843 0.33981
#
# Static dielectric constant tensor:
#      x y z
#    x 3.319530 0.658710 0.259610 
#    y 0.658710 2.479110 0.077020 
#    z 0.259610 0.077020 2.129180 
# 
# From -- ./inp_files/480226.got.cif
#   From: 2010.05.17/outbox.cif.g08.bks.cpg/sg2_241_cif.got.tgz:480226.got - 2010.06.03 11:33:40.
