data_PCOD9065014
_publ_section_title
;
Structure prediction by ZEFSAII (Michael W. Deem and Ramdas Pophale) SiO2 
 PCOD9065014
Probable space group: P -1
;
_chemical_formula_sum "Si O2"
_cell_formula_units_Z 15
_cell_length_a 10.036702
_cell_length_b 14.262513
_cell_length_c 10.505774
_cell_angle_alpha 40.863012
_cell_angle_beta 53.549486
_cell_angle_gamma 32.587554
_cell_volume 525.951850
_symmetry_space_group_name_H-M "P -1"
_symmetry_group_IT_number 2
_symmetry_cell_setting 'triclinic'
loop_
_space_group_symop_operation_xyz
x,y,z
-x,-y,-z
loop_
_atom_site_type_symbol
_atom_site_label
_atom_site_fract_x
_atom_site_fract_y
_atom_site_fract_z
Si Si1 0.737332 0.614090 0.365999
Si Si2 0.008244 0.907069 0.721633
Si Si3 0.500000 0.500000 0.000000
Si Si4 0.386697 0.310710 0.912644
Si Si5 0.160320 0.197198 0.254745
Si Si6 0.828870 0.222192 0.728976
Si Si7 0.659987 0.040385 0.347729
Si Si8 0.254464 0.439238 0.299759
O O1 0.600766 0.752814 0.174784
O O2 0.736070 0.442631 0.524345
O O3 0.662475 0.680066 0.489631
O O4 0.014053 0.507723 0.320936
O O5 0.852167 0.869086 0.806403
O O6 0.885979 0.075572 0.730814
O O7 0.000000 0.000000 0.500000
O O8 0.287021 0.676879 0.830625
O O9 0.253773 0.609641 0.128385
O O10 0.598093 0.285792 0.853835
O O11 0.111909 0.558097 0.822722
O O12 0.369933 0.185440 0.143767
O O13 0.202709 0.065928 0.483833
O O14 0.116306 0.076220 0.756800
O O15 0.467125 0.297382 0.211563
O O16 0.500000 0.000000 0.500000
#
# Coordination Sequence:
#
# PCOD9065014 Si02
#       8
#     2   2   1   2   2   2   2   2
#     4  11  24  47  68 103 143 194 242 304 372 441
#     4  12  25  47  76 111 147 200 247 303 375 442
#     4  12  26  44  76 114 142 192 256 302 360 454
#     4  11  25  44  70 106 141 190 246 310 363 441
#     4  11  25  47  73 101 148 198 246 304 379 439
#     4  12  25  43  73 105 142 190 251 303 364 449
#     4  12  23  47  72 103 144 198 244 303 375 450
#     4  11  25  45  74  99 145 191 241 303 373 438
#
# _framework density 28.51972
#
# number of rings (size 3 to 8) (size 9 to 14) (size 15 to 20)
#    0.000    0.533    5.333    1.200    5.600    1.600 
#    4.800    1.333    0.000    0.000    0.000    0.000 
#    0.000    0.000    0.000    0.000    0.000    0.000 
#
# Total GULP energy -83670.971842 kJ/mol
# GULP energy per Si atom -5578.064789 kJ/mol
# Density = 2.845481 g / cm^3
# Si number density = 28.519720 Si / 1000 Ang^3
#
#
#
# Elastic Constant Matrix: (Units=GPa)
#
#
# Indices 1 2 3 4 5 6 
#
# 1 155.7120 29.5380 20.7984 22.0931 -29.5635 -27.2775
# 2 29.5380 137.6484 41.3907 23.4684 -21.4173 -20.5958
# 3 20.7984 41.3907 160.3534 6.9859 4.8533 -27.8639
# 4 22.0931 23.4684 6.9859 40.9232 -22.3404 -18.2628
# 5 -29.5635 -21.4173 4.8533 -22.3404 50.7266 19.6220
# 6 -27.2775 -20.5958 -27.8639 -18.2628 19.6220 51.4905
#
#
#
# Elastic Compliance Matrix: (Units=1/GPa)
#
#
# Indices 1 2 3 4 5 6 
#
# 1 0.007687 -0.000506 -0.000559 -0.001238 0.003008 0.001982
# 2 -0.000506 0.008931 -0.002137 -0.003205 0.002202 0.000172
# 3 -0.000559 -0.002137 0.007740 0.000248 -0.003599 0.004497
# 4 -0.001238 -0.003205 0.000248 0.035982 0.011154 0.006709
# 5 0.003008 0.002202 -0.003599 0.011154 0.030400 -0.007102
# 6 0.001982 0.000172 0.004497 0.006709 -0.007102 0.028059
#
#
# Mechanical properties :
#
#
# Convention : Reuss Voigt Hill
#
# Bulk Modulus (GPa) = 55.69843 70.79642 63.24743
# Shear Modulus (GPa) = 38.11360 52.76052 45.43706
#
# Velocity S-wave (km/s) = 3.65964 4.30579 3.99580
# Velocity P-wave (km/s) = 6.11796 7.04254 6.59647
#
# Compressibility (1/GPa) = 0.01795383
#
# Stress axis : x y z
#
# Youngs Moduli (GPa) = 130.09587 111.97267 129.20214
#
# Poissons Ratio (x) = 0.05663 0.07225
# Poissons Ratio (y) = 0.06579 0.27608
# Poissons Ratio (z) = 0.07275 0.23926
#
# Static dielectric constant tensor:
#      x y z
#    x 1.859210 -0.199330 0.362050 
#    y -0.199330 2.203910 0.267690 
#    z 0.362050 0.267690 2.071800 
# 
# From -- ./inp_files/436490.got.cif
#   From: 2010.05.17/outbox.cif.g08.bks.cpg/sg2_219_cif.got.tgz:436490.got - 2010.06.03 11:33:40.
