data_PCOD9065927
_publ_section_title
;
Structure prediction by ZEFSAII (Michael W. Deem and Ramdas Pophale) SiO2 
 PCOD9065927
Probable space group: P -1
;
_chemical_formula_sum "Si O2"
_cell_formula_units_Z 16
_cell_length_a 5.642486
_cell_length_b 8.954955
_cell_length_c 16.049247
_cell_angle_alpha 99.548862
_cell_angle_beta 96.618911
_cell_angle_gamma 54.523646
_cell_volume 651.060722
_symmetry_space_group_name_H-M "P -1"
_symmetry_group_IT_number 2
_symmetry_cell_setting 'triclinic'
loop_
_space_group_symop_operation_xyz
x,y,z
-x,-y,-z
loop_
_atom_site_type_symbol
_atom_site_label
_atom_site_fract_x
_atom_site_fract_y
_atom_site_fract_z
Si Si1 0.531750 0.536404 0.142125
Si Si2 0.520024 0.031481 0.126649
Si Si3 0.891110 0.634279 0.586815
Si Si4 0.364248 0.294730 0.681533
Si Si5 0.862037 0.115334 0.921778
Si Si6 0.366408 0.936621 0.692123
Si Si7 0.878318 0.992681 0.582629
Si Si8 0.857670 0.606429 0.918642
O O1 0.500600 0.651695 0.234230
O O2 0.342142 0.453175 0.134843
O O3 0.877413 0.417018 0.126457
O O4 0.382119 0.668518 0.067547
O O5 0.326464 0.954977 0.128155
O O6 0.492647 0.137634 0.219895
O O7 0.371961 0.175046 0.058139
O O8 0.867294 0.905383 0.117190
O O9 0.086236 0.490292 0.655499
O O10 0.919376 0.799116 0.575615
O O11 0.000000 0.500000 0.500000
O O12 0.560469 0.768851 0.619618
O O13 0.333384 0.131031 0.696317
O O14 0.565594 0.184514 0.599290
O O15 0.000000 0.000000 0.000000
O O16 0.046858 0.992064 0.670316
O O17 0.000000 0.000000 0.500000
O O18 0.000000 0.500000 0.000000
#
# Coordination Sequence:
#
# PCOD9065927 Si02
#       8
#     2   2   2   2   2   2   2   2
#     4  12  25  44  70 103 139 187 237 289 359 423
#     4  12  25  44  70 100 145 183 235 295 358 420
#     4  11  25  45  70 103 138 183 234 285 357 429
#     4  11  25  44  69 100 142 181 236 292 352 427
#     4  12  24  44  71 102 138 188 237 289 353 428
#     4  11  25  44  68 100 141 183 230 298 351 421
#     4  11  25  44  71 102 141 181 229 295 352 422
#     4  12  26  45  69 103 142 184 237 298 356 422
#
# _framework density 24.575281
#
# number of rings (size 3 to 8) (size 9 to 14) (size 15 to 20)
#    0.000    0.500    1.250    6.750    5.250    5.000 
#    0.000    0.000    0.000    0.000    0.000    0.000 
#    0.000    0.000    0.000    0.000    0.000    0.000 
#
# Total GULP energy -89313.836602 kJ/mol
# GULP energy per Si atom -5582.114788 kJ/mol
# Density = 2.451935 g / cm^3
# Si number density = 24.575281 Si / 1000 Ang^3
#
#
#
# Elastic Constant Matrix: (Units=GPa)
#
#
# Indices 1 2 3 4 5 6 
#
# 1 119.0416 35.3568 23.7210 19.0889 17.6436 -23.4801
# 2 35.3568 157.9594 17.5921 1.4362 4.3122 -20.8699
# 3 23.7210 17.5921 73.1693 10.9771 11.4055 -7.3264
# 4 19.0889 1.4362 10.9771 48.8708 6.6379 5.9988
# 5 17.6436 4.3122 11.4055 6.6379 32.6778 1.9011
# 6 -23.4801 -20.8699 -7.3264 5.9988 1.9011 21.9872
#
#
#
# Elastic Compliance Matrix: (Units=1/GPa)
#
#
# Indices 1 2 3 4 5 6 
#
# 1 0.014029 -0.000637 -0.000711 -0.006386 -0.006904 0.016479
# 2 -0.000637 0.007411 -0.000776 -0.000480 -0.000631 0.006281
# 3 -0.000711 -0.000776 0.015803 -0.003236 -0.004667 0.005057
# 4 -0.006386 -0.000480 -0.003236 0.025535 0.000347 -0.015351
# 5 -0.006904 -0.000631 -0.004667 0.000347 0.036715 -0.012796
# 6 0.016479 0.006281 0.005057 -0.015351 -0.012796 0.076021
#
#
# Mechanical properties :
#
#
# Convention : Reuss Voigt Hill
#
# Bulk Modulus (GPa) = 30.30682 55.94556 43.12619
# Shear Modulus (GPa) = 26.21087 38.94054 32.57571
#
# Velocity S-wave (km/s) = 3.26936 3.98495 3.64476
# Velocity P-wave (km/s) = 5.15855 6.63231 5.94130
#
# Compressibility (1/GPa) = 0.03299588
#
# Stress axis : x y z
#
# Youngs Moduli (GPa) = 71.28047 134.92985 63.27871
#
# Poissons Ratio (x) = 0.08598 0.04496
# Poissons Ratio (y) = 0.04542 0.04911
# Poissons Ratio (z) = 0.05065 0.10471
#
# Static dielectric constant tensor:
#      x y z
#    x 2.092280 -0.110540 -0.051950 
#    y -0.110540 2.149350 0.033300 
#    z -0.051950 0.033300 2.017830 
# 
# From -- ./inp_files/117535.got.cif
#   From: 2010.05.17/outbox.cif.g08.bks.cpg/sg2_59_cif.got.tgz:117535.got - 2010.06.03 11:33:40.
