data_PCOD9065083
_publ_section_title
;
Structure prediction by ZEFSAII (Michael W. Deem and Ramdas Pophale) SiO2 
 PCOD9065083
Probable space group: P -1
;
_chemical_formula_sum "Si O2"
_cell_formula_units_Z 14
_cell_length_a 9.301109
_cell_length_b 8.033618
_cell_length_c 12.972196
_cell_angle_alpha 117.844102
_cell_angle_beta 113.019186
_cell_angle_gamma 47.343517
_cell_volume 626.164511
_symmetry_space_group_name_H-M "P -1"
_symmetry_group_IT_number 2
_symmetry_cell_setting 'triclinic'
loop_
_space_group_symop_operation_xyz
x,y,z
-x,-y,-z
loop_
_atom_site_type_symbol
_atom_site_label
_atom_site_fract_x
_atom_site_fract_y
_atom_site_fract_z
Si Si1 0.237976 0.136045 0.696711
Si Si2 0.260389 0.662385 0.737651
Si Si3 0.421507 0.860151 0.304582
Si Si4 0.060422 0.001906 0.131837
Si Si5 0.064073 0.234130 0.460801
Si Si6 0.491672 0.828651 0.870211
Si Si7 0.062493 0.601699 0.133919
O O1 0.402223 0.142903 0.689097
O O2 0.118323 0.148477 0.568703
O O3 0.071746 0.333034 0.785508
O O4 0.375404 0.929891 0.758852
O O5 0.450882 0.401934 0.687796
O O6 0.361025 0.757009 0.858968
O O7 0.116951 0.764827 0.627568
O O8 0.088905 0.728485 0.789613
O O9 0.284471 0.900467 0.181711
O O10 0.262557 0.054536 0.397265
O O11 0.039532 0.830620 0.148937
O O12 0.000000 0.000000 0.000000
O O13 0.000000 0.500000 0.500000
O O14 0.710194 0.603910 0.842368
O O15 0.500000 0.000000 0.000000
O O16 0.000000 0.500000 0.000000
#
# Coordination Sequence:
#
# PCOD9065083 Si02
#       7
#     2   2   2   2   2   2   2
#     4  12  27  44  76 105 142 196 235 300 372 420
#     4  11  24  47  71 104 145 187 243 300 357 437
#     4  11  26  45  73 105 143 190 245 295 364 431
#     4  11  26  43  70 103 144 189 239 295 359 434
#     4  11  26  48  74 107 145 184 253 304 354 435
#     4  12  26  47  71 104 151 189 237 297 369 435
#     4  12  26  45  68 105 146 183 241 298 356 435
#
# _framework density 22.358340999999999
#
# number of rings (size 3 to 8) (size 9 to 14) (size 15 to 20)
#    0.000    0.571    5.714    0.429    8.000    1.143 
#    0.000    1.429    0.000    0.000    0.000    0.000 
#    0.000    0.000    0.000    0.000    0.000    0.000 
#
# Total GULP energy -77997.692613 kJ/mol
# GULP energy per Si atom -5571.263758 kJ/mol
# Density = 2.230745 g / cm^3
# Si number density = 22.358341 Si / 1000 Ang^3
#
#
#
# Elastic Constant Matrix: (Units=GPa)
#
#
# Indices 1 2 3 4 5 6 
#
# 1 91.2451 46.2975 46.5492 2.5019 18.6825 -37.4198
# 2 46.2975 145.5889 58.7460 1.5195 -3.1164 -55.5176
# 3 46.5492 58.7460 174.7922 -22.2273 4.6749 -30.7079
# 4 2.5019 1.5195 -22.2273 35.9537 -8.6850 5.5056
# 5 18.6825 -3.1164 4.6749 -8.6850 40.2982 -2.5162
# 6 -37.4198 -55.5176 -30.7079 5.5056 -2.5162 52.2415
#
#
#
# Elastic Compliance Matrix: (Units=1/GPa)
#
#
# Indices 1 2 3 4 5 6 
#
# 1 0.020509 -0.000335 -0.003943 -0.008180 -0.010065 0.012394
# 2 -0.000335 0.012742 -0.002538 -0.003618 0.001421 0.012260
# 3 -0.003943 -0.002538 0.008116 0.006060 0.001915 -0.001297
# 4 -0.008180 -0.003618 0.006060 0.036150 0.010009 -0.009470
# 5 -0.010065 0.001421 0.001915 0.010009 0.031269 -0.004123
# 6 0.012394 0.012260 -0.001297 -0.009470 -0.004123 0.041085
#
#
# Mechanical properties :
#
#
# Convention : Reuss Voigt Hill
#
# Bulk Modulus (GPa) = 36.05414 79.42350 57.73882
# Shear Modulus (GPa) = 28.94425 43.03427 35.98926
#
# Velocity S-wave (km/s) = 3.60191 4.39196 4.01641
# Velocity P-wave (km/s) = 5.78437 7.83066 6.88397
#
# Compressibility (1/GPa) = 0.02773607
#
# Stress axis : x y z
#
# Youngs Moduli (GPa) = 48.75965 78.47939 123.22090
#
# Poissons Ratio (x) = 0.02627 0.48583
# Poissons Ratio (y) = 0.01632 0.31270
# Poissons Ratio (z) = 0.19225 0.19916
#
# Static dielectric constant tensor:
#      x y z
#    x 4.589070 3.708400 -1.032840 
#    y 3.708400 6.718010 -1.402910 
#    z -1.032840 -1.402910 2.254170 
# 
# From -- ./inp_files/380047.got.cif
#   From: 2010.05.17/outbox.cif.g08.bks.cpg/sg2_191_cif.got.tgz:380047.got - 2010.06.03 11:33:40.
