data_PCOD9065725
_publ_section_title
;
Structure prediction by ZEFSAII (Michael W. Deem and Ramdas Pophale) SiO2 
 PCOD9065725
Probable space group: P -1
;
_chemical_formula_sum "Si O2"
_cell_formula_units_Z 12
_cell_length_a 9.464772
_cell_length_b 7.144889
_cell_length_c 23.908511
_cell_angle_alpha 139.705257
_cell_angle_beta 149.210904
_cell_angle_gamma 50.054713
_cell_volume 534.808084
_symmetry_space_group_name_H-M "P -1"
_symmetry_group_IT_number 2
_symmetry_cell_setting 'triclinic'
loop_
_space_group_symop_operation_xyz
x,y,z
-x,-y,-z
loop_
_atom_site_type_symbol
_atom_site_label
_atom_site_fract_x
_atom_site_fract_y
_atom_site_fract_z
Si Si1 0.364879 0.593279 0.417435
Si Si2 0.588275 0.441775 0.349788
Si Si3 0.100708 0.588182 0.145626
Si Si4 0.379407 0.418055 0.089777
Si Si5 0.024668 0.094934 0.465643
Si Si6 0.913741 0.147157 0.176585
O O1 0.500000 0.500000 0.500000
O O2 0.571163 0.624340 0.443144
O O3 0.156109 0.325674 0.270098
O O4 0.188843 0.864444 0.434062
O O5 0.285626 0.435556 0.218457
O O6 0.793267 0.606999 0.413316
O O7 0.726994 0.149519 0.349787
O O8 0.281672 0.579202 0.148028
O O9 0.046024 0.926918 0.216182
O O10 0.796576 0.463686 0.995642
O O11 0.700702 0.373136 0.180161
O O12 0.253889 0.082672 0.972321
O O13 0.000000 0.000000 0.500000
#
# Coordination Sequence:
#
# PCOD9065725 Si02
#       6
#     2   2   2   2   2   2
#     4  12  24  40  64  92 130 169 207 265 318 372
#     4  11  25  41  64  96 127 165 218 257 314 387
#     4   9  18  37  64  90 121 164 211 259 313 365
#     4   8  18  36  63  93 122 170 203 263 315 362
#     4  11  25  44  63  93 129 168 212 262 320 375
#     4   9  19  36  63  90 123 166 209 249 322 365
#
# _framework density 22.437954999999999
#
# number of rings (size 3 to 8) (size 9 to 14) (size 15 to 20)
#    1.000    1.000    1.667    1.500    2.333    1.333 
#    0.000    1.667    0.000    0.000    0.000    0.000 
#    0.000    0.000    0.000    0.000    0.000    0.000 
#
# Total GULP energy -66881.746368 kJ/mol
# GULP energy per Si atom -5573.478864 kJ/mol
# Density = 2.238688 g / cm^3
# Si number density = 22.437955 Si / 1000 Ang^3
#
#
#
# Elastic Constant Matrix: (Units=GPa)
#
#
# Indices 1 2 3 4 5 6 
#
# 1 105.6912 52.2990 11.1901 -21.5013 3.8982 -4.3386
# 2 52.2990 157.4994 27.3222 -52.9212 -1.5180 -19.2041
# 3 11.1901 27.3222 41.5435 -21.4950 7.2510 10.7207
# 4 -21.5013 -52.9212 -21.4950 38.9203 4.1531 6.6218
# 5 3.8982 -1.5180 7.2510 4.1531 22.9199 -1.5062
# 6 -4.3386 -19.2041 10.7207 6.6218 -1.5062 47.2362
#
#
#
# Elastic Compliance Matrix: (Units=1/GPa)
#
#
# Indices 1 2 3 4 5 6 
#
# 1 0.011654 -0.003079 0.001812 0.003841 -0.003537 -0.001244
# 2 -0.003079 0.012908 -0.000249 0.015352 -0.001138 0.002833
# 3 0.001812 -0.000249 0.049051 0.032990 -0.022899 -0.016422
# 4 0.003841 0.015352 0.032990 0.071432 -0.023783 -0.011665
# 5 -0.003537 -0.001138 -0.022899 -0.023783 0.056337 0.009540
# 6 -0.001244 0.002833 -0.016422 -0.011665 0.009540 0.027874
#
#
# Mechanical properties :
#
#
# Convention : Reuss Voigt Hill
#
# Bulk Modulus (GPa) = 14.16840 54.03963 34.10401
# Shear Modulus (GPa) = 19.54527 36.07680 27.81103
#
# Velocity S-wave (km/s) = 2.95461 4.01415 3.52442
# Velocity P-wave (km/s) = 4.23885 6.75432 5.63864
#
# Compressibility (1/GPa) = 0.07057962
#
# Stress axis : x y z
#
# Youngs Moduli (GPa) = 85.80578 77.47272 20.38701
#
# Poissons Ratio (x) = 0.23857 -0.03693
# Poissons Ratio (y) = 0.26423 0.00507
# Poissons Ratio (z) = -0.15545 0.01928
#
# Static dielectric constant tensor:
#      x y z
#    x 1.810840 -0.012070 0.034300 
#    y -0.012070 1.881980 -0.012210 
#    z 0.034300 -0.012210 1.910480 
# 
# From -- ./inp_files/40588.got.cif
#   From: 2010.05.17/outbox.cif.g08.bks.cpg/sg2_21_cif.got.tgz:40588.got - 2010.06.03 11:33:40.
