data_PCOD9065001
_publ_section_title
;
Structure prediction by ZEFSAII (Michael W. Deem and Ramdas Pophale) SiO2 
 PCOD9065001
Probable space group: P -1
;
_chemical_formula_sum "Si O2"
_cell_formula_units_Z 14
_cell_length_a 6.106821
_cell_length_b 5.649420
_cell_length_c 27.539098
_cell_angle_alpha 114.196619
_cell_angle_beta 44.692600
_cell_angle_gamma 98.217455
_cell_volume 592.959812
_symmetry_space_group_name_H-M "P -1"
_symmetry_group_IT_number 2
_symmetry_cell_setting 'triclinic'
loop_
_space_group_symop_operation_xyz
x,y,z
-x,-y,-z
loop_
_atom_site_type_symbol
_atom_site_label
_atom_site_fract_x
_atom_site_fract_y
_atom_site_fract_z
Si Si1 0.639154 0.553700 0.536800
Si Si2 0.058901 0.517808 0.849277
Si Si3 0.366726 0.188484 0.625781
Si Si4 0.286760 0.100904 0.991879
Si Si5 0.762328 0.093583 0.827993
Si Si6 0.313625 0.927462 0.270288
Si Si7 0.358840 0.675621 0.730234
O O1 0.500000 0.500000 0.500000
O O2 0.480015 0.356430 0.578699
O O3 0.000000 0.500000 0.500000
O O4 0.536407 0.879259 0.581887
O O5 0.369318 0.282628 0.783474
O O6 0.189109 0.725633 0.813828
O O7 0.811474 0.394162 0.847424
O O8 0.908634 0.615793 0.932585
O O9 0.404104 0.373344 0.681382
O O10 0.996266 0.178307 0.677717
O O11 0.547394 0.076762 0.906778
O O12 0.500000 0.000000 0.000000
O O13 0.000000 0.000000 0.000000
O O14 0.631345 0.051579 0.793508
O O15 0.090664 0.866869 0.756523
O O16 0.322638 0.215200 0.314584
#
# Coordination Sequence:
#
# PCOD9065001 Si02
#       7
#     2   2   2   2   2   2   2
#     4  12  31  59  89 126 170 215 266 323 396 494
#     4  11  25  43  71 102 152 204 270 341 399 481
#     4  12  28  52  87 122 167 215 266 330 406 485
#     4  12  27  44  71  98 146 217 272 338 419 471
#     4  11  24  47  66 104 151 205 275 338 403 475
#     4  11  27  44  77 114 153 208 265 342 399 479
#     4  11  25  46  73 113 156 199 271 332 404 475
#
# _framework density 23.610368999999999
#
# number of rings (size 3 to 8) (size 9 to 14) (size 15 to 20)
#    0.000    0.571    2.857    3.000   14.000    0.571 
#    0.000    0.000    0.000    0.000    0.000    0.000 
#    0.000    0.000    0.000    0.000    0.000    0.000 
#
# Total GULP energy -77968.828933 kJ/mol
# GULP energy per Si atom -5569.202067 kJ/mol
# Density = 2.355663 g / cm^3
# Si number density = 23.610369 Si / 1000 Ang^3
#
#
#
# Elastic Constant Matrix: (Units=GPa)
#
#
# Indices 1 2 3 4 5 6 
#
# 1 140.5004 73.5944 59.2801 -13.3033 8.1304 21.6383
# 2 73.5944 155.2713 73.4882 -2.3075 1.9549 28.5504
# 3 59.2801 73.4882 105.6619 -1.2115 6.4630 7.7210
# 4 -13.3033 -2.3075 -1.2115 50.2381 -6.0315 12.2336
# 5 8.1304 1.9549 6.4630 -6.0315 23.4159 -6.1133
# 6 21.6383 28.5504 7.7210 12.2336 -6.1133 52.3287
#
#
#
# Elastic Compliance Matrix: (Units=1/GPa)
#
#
# Indices 1 2 3 4 5 6 
#
# 1 0.011237 -0.002690 -0.003961 0.003332 -0.002688 -0.003687
# 2 -0.002690 0.011426 -0.006160 0.000806 0.000762 -0.004312
# 3 -0.003961 -0.006160 0.015879 -0.001910 -0.002243 0.002841
# 4 0.003332 0.000806 -0.001910 0.022767 0.003483 -0.006451
# 5 -0.002688 0.000762 -0.002243 0.003483 0.046568 0.005653
# 6 -0.003687 -0.004312 0.002841 -0.006451 0.005653 0.024737
#
#
# Mechanical properties :
#
#
# Convention : Reuss Voigt Hill
#
# Bulk Modulus (GPa) = 77.40496 90.46210 83.93353
# Shear Modulus (GPa) = 30.76131 38.20129 34.48130
#
# Velocity S-wave (km/s) = 3.61345 4.02679 3.82570
# Velocity P-wave (km/s) = 7.08977 7.74711 7.42572
#
# Compressibility (1/GPa) = 0.01291907
#
# Stress axis : x y z
#
# Youngs Moduli (GPa) = 88.99563 87.52065 62.97723
#
# Poissons Ratio (x) = 0.23539 0.24948
# Poissons Ratio (y) = 0.23936 0.38794
# Poissons Ratio (z) = 0.35255 0.53913
#
# Static dielectric constant tensor:
#      x y z
#    x 1.958160 0.013970 0.014760 
#    y 0.013970 2.026450 0.027530 
#    z 0.014760 0.027530 1.923880 
# 
# From -- ./inp_files/8822.got.cif
#   From: 2010.05.17/outbox.cif.g08.bks.cpg/sg2_5_cif.got.tgz:8822.got - 2010.06.03 11:33:40.
