data_PCOD9065260
_publ_section_title
;
Structure prediction by ZEFSAII (Michael W. Deem and Ramdas Pophale) SiO2 
 PCOD9065260
Probable space group: P -1
;
_chemical_formula_sum "Si O2"
_cell_formula_units_Z 13
_cell_length_a 9.102720
_cell_length_b 11.964607
_cell_length_c 5.297539
_cell_angle_alpha 68.038309
_cell_angle_beta 93.929165
_cell_angle_gamma 106.348659
_cell_volume 513.016590
_symmetry_space_group_name_H-M "P -1"
_symmetry_group_IT_number 2
_symmetry_cell_setting 'triclinic'
loop_
_space_group_symop_operation_xyz
x,y,z
-x,-y,-z
loop_
_atom_site_type_symbol
_atom_site_label
_atom_site_fract_x
_atom_site_fract_y
_atom_site_fract_z
Si Si1 0.116728 0.581743 0.244206
Si Si2 0.340038 0.087866 0.897501
Si Si3 0.500000 0.500000 0.000000
Si Si4 0.061300 0.122705 0.576678
Si Si5 0.248189 0.823129 0.341148
Si Si6 0.826099 0.624326 0.905879
Si Si7 0.498099 0.781670 0.697683
O O1 0.233897 0.698613 0.285702
O O2 0.203129 0.490032 0.202933
O O3 0.000000 0.500000 0.500000
O O4 0.995626 0.628327 0.019641
O O5 0.166848 0.096828 0.834746
O O6 0.413827 0.136425 0.596197
O O7 0.424731 0.169580 0.070461
O O8 0.330249 0.945903 0.089404
O O9 0.327922 0.424356 0.910014
O O10 0.514130 0.364008 0.213784
O O11 0.158746 0.241017 0.325971
O O12 0.919745 0.165823 0.629773
O O13 0.000000 0.000000 0.500000
O O14 0.332429 0.807117 0.623310
#
# Coordination Sequence:
#
# PCOD9065260 Si02
#       7
#     2   2   1   2   2   2   2
#     4  11  24  47  76 114 153 204 274 333 408 476
#     4  12  28  53  77 118 164 214 271 333 403 490
#     4  12  28  50  78 114 168 210 272 326 418 478
#     4  12  26  50  81 119 157 213 269 338 405 481
#     4  12  27  48  83 115 159 213 270 338 407 485
#     4  11  26  48  76 113 161 208 269 336 403 489
#     4  12  30  52  80 118 163 215 269 333 410 486
#
# _framework density 25.340313999999999
#
# number of rings (size 3 to 8) (size 9 to 14) (size 15 to 20)
#    0.000    0.308    3.077    4.154    6.462    3.077 
#    0.000    0.000    0.000    0.000    0.000    0.000 
#    0.000    0.000    0.000    0.000    0.000    0.000 
#
# Total GULP energy -72634.919078 kJ/mol
# GULP energy per Si atom -5587.301468 kJ/mol
# Density = 2.528264 g / cm^3
# Si number density = 25.340314 Si / 1000 Ang^3
#
#
#
# Elastic Constant Matrix: (Units=GPa)
#
#
# Indices 1 2 3 4 5 6 
#
# 1 87.6214 21.5316 24.8057 2.1699 27.7793 15.9881
# 2 21.5316 175.5195 56.0255 -17.5331 16.8559 18.1442
# 3 24.8057 56.0255 91.3859 -12.6929 24.9789 6.6623
# 4 2.1699 -17.5331 -12.6929 55.9431 5.5954 1.1957
# 5 27.7793 16.8559 24.9789 5.5954 60.1190 -6.7041
# 6 15.9881 18.1442 6.6623 1.1957 -6.7041 39.0432
#
#
#
# Elastic Compliance Matrix: (Units=1/GPa)
#
#
# Indices 1 2 3 4 5 6 
#
# 1 0.015544 0.000111 -0.001769 -0.000083 -0.007292 -0.007365
# 2 0.000111 0.007511 -0.003899 0.001635 -0.001035 -0.003099
# 3 -0.001769 -0.003899 0.015662 0.002922 -0.004989 -0.001082
# 4 -0.000083 0.001635 0.002922 0.019479 -0.003722 -0.002460
# 5 -0.007292 -0.001035 -0.004989 -0.003722 0.023660 0.008495
# 6 -0.007365 -0.003099 -0.001082 -0.002460 0.008495 0.031787
#
#
# Mechanical properties :
#
#
# Convention : Reuss Voigt Hill
#
# Bulk Modulus (GPa) = 36.22744 62.13916 49.18330
# Shear Modulus (GPa) = 37.32512 47.83200 42.57856
#
# Velocity S-wave (km/s) = 3.84207 4.34935 4.10356
# Velocity P-wave (km/s) = 5.83176 7.05674 6.47329
#
# Compressibility (1/GPa) = 0.02760339
#
# Stress axis : x y z
#
# Youngs Moduli (GPa) = 64.33389 133.13096 63.84963
#
# Poissons Ratio (x) = -0.01479 0.11293
# Poissons Ratio (y) = -0.00715 0.24897
# Poissons Ratio (z) = 0.11379 0.51911
#
# Static dielectric constant tensor:
#      x y z
#    x 2.222610 0.006250 -0.016940 
#    y 0.006250 1.673970 0.007650 
#    z -0.016940 0.007650 1.993550 
# 
# From -- ./inp_files/26297.got.cif
#   From: 2010.05.17/outbox.cif.g08.bks.cpg/sg2_14_cif.got.tgz:26297.got - 2010.06.03 11:33:40.
