data_PCOD9065728
_publ_section_title
;
Structure prediction by ZEFSAII (Michael W. Deem and Ramdas Pophale) SiO2 
 PCOD9065728
Probable space group: P -1
;
_chemical_formula_sum "Si O2"
_cell_formula_units_Z 12
_cell_length_a 7.943681
_cell_length_b 9.780781
_cell_length_c 15.821322
_cell_angle_alpha 148.101004
_cell_angle_beta 53.585370
_cell_angle_gamma 134.950414
_cell_volume 459.643889
_symmetry_space_group_name_H-M "P -1"
_symmetry_group_IT_number 2
_symmetry_cell_setting 'triclinic'
loop_
_space_group_symop_operation_xyz
x,y,z
-x,-y,-z
loop_
_atom_site_type_symbol
_atom_site_label
_atom_site_fract_x
_atom_site_fract_y
_atom_site_fract_z
Si Si1 0.153417 0.715520 0.422232
Si Si2 0.686164 0.866063 0.555378
Si Si3 0.014626 0.304239 0.968605
Si Si4 0.862197 0.189225 0.132153
Si Si5 0.393170 0.174710 0.253623
Si Si6 0.621033 0.880969 0.285342
O O1 0.184892 0.857188 0.577945
O O2 0.938438 0.402871 0.302113
O O3 0.151067 0.936586 0.466608
O O4 0.398678 0.701863 0.321319
O O5 0.555915 0.526494 0.386816
O O6 0.743997 0.884738 0.647107
O O7 0.491917 0.984149 0.674207
O O8 0.795871 0.979201 0.844636
O O9 0.975761 0.385858 0.116888
O O10 0.260096 0.294988 0.883621
O O11 0.000000 0.500000 0.000000
O O12 0.580253 0.046224 0.129597
O O13 0.000000 0.000000 0.000000
#
# Coordination Sequence:
#
# PCOD9065728 Si02
#       6
#     2   2   2   2   2   2
#     4   9  22  43  72  92 124 177 224 264 318 396
#     4   9  21  43  69  97 125 173 222 279 312 392
#     4  12  28  43  68  97 140 177 213 274 332 401
#     4  12  28  43  68  97 140 177 213 274 332 401
#     4  11  25  41  65 103 132 168 223 278 329 376
#     4   9  22  43  72  92 124 177 224 264 318 396
#
# _framework density 26.107168000000001
#
# number of rings (size 3 to 8) (size 9 to 14) (size 15 to 20)
#    1.000    0.667    0.000    2.500   11.667    2.000 
#    0.000    0.000    0.000    0.000    0.000    0.000 
#    0.000    0.000    0.000    0.000    0.000    0.000 
#
# Total GULP energy -67160.974369 kJ/mol
# GULP energy per Si atom -5596.747864 kJ/mol
# Density = 2.604775 g / cm^3
# Si number density = 26.107168 Si / 1000 Ang^3
#
#
#
# Elastic Constant Matrix: (Units=GPa)
#
#
# Indices 1 2 3 4 5 6 
#
# 1 69.5062 -14.3207 -0.7447 -6.4921 -19.0705 10.8636
# 2 -14.3207 70.2559 23.3003 -21.9872 -11.6790 3.2717
# 3 -0.7447 23.3003 46.8582 -8.2421 -2.8949 2.7876
# 4 -6.4921 -21.9872 -8.2421 43.8613 7.7296 -1.3591
# 5 -19.0705 -11.6790 -2.8949 7.7296 50.5626 -10.3610
# 6 10.8636 3.2717 2.7876 -1.3591 -10.3610 41.7817
#
#
#
# Elastic Compliance Matrix: (Units=1/GPa)
#
#
# Indices 1 2 3 4 5 6 
#
# 1 0.018833 0.007291 -0.001847 0.004710 0.007267 -0.003389
# 2 0.007291 0.022794 -0.009070 0.009750 0.005731 -0.001337
# 3 -0.001847 -0.009070 0.025829 0.000277 -0.001541 -0.000906
# 4 0.004710 0.009750 0.000277 0.028497 -0.000562 -0.001219
# 5 0.007267 0.005731 -0.001541 -0.000562 0.024630 0.003854
# 6 -0.003389 -0.001337 -0.000906 -0.001219 0.003854 0.025896
#
#
# Mechanical properties :
#
#
# Convention : Reuss Voigt Hill
#
# Bulk Modulus (GPa) = 16.60996 22.56557 19.58777
# Shear Modulus (GPa) = 28.76869 39.13349 33.95109
#
# Velocity S-wave (km/s) = 3.32316 3.87584 3.61009
# Velocity P-wave (km/s) = 4.59353 5.35646 4.98960
#
# Compressibility (1/GPa) = 0.06020483
#
# Stress axis : x y z
#
# Youngs Moduli (GPa) = 53.09759 43.87044 38.71593
#
# Poissons Ratio (x) = -0.31988 0.07152
# Poissons Ratio (y) = -0.38716 0.35116
# Poissons Ratio (z) = 0.09809 0.39791
#
# Static dielectric constant tensor:
#      x y z
#    x 2.068840 0.053300 -0.058040 
#    y 0.053300 2.085610 0.018710 
#    z -0.058040 0.018710 1.990090 
# 
# From -- ./inp_files/560135.got.cif
#   From: 2010.05.17/outbox.cif.g08.bks.cpg/sg2_281_cif.got.tgz:560135.got - 2010.06.03 11:33:40.
