data_PCOD9065344
_publ_section_title
;
Structure prediction by ZEFSAII (Michael W. Deem and Ramdas Pophale) SiO2 
 PCOD9065344
Probable space group: P -1
;
_chemical_formula_sum "Si O2"
_cell_formula_units_Z 16
_cell_length_a 15.609710
_cell_length_b 10.909998
_cell_length_c 9.703837
_cell_angle_alpha 106.246272
_cell_angle_beta 116.886745
_cell_angle_gamma 128.373101
_cell_volume 690.875161
_symmetry_space_group_name_H-M "P -1"
_symmetry_group_IT_number 2
_symmetry_cell_setting 'triclinic'
loop_
_space_group_symop_operation_xyz
x,y,z
-x,-y,-z
loop_
_atom_site_type_symbol
_atom_site_label
_atom_site_fract_x
_atom_site_fract_y
_atom_site_fract_z
Si Si1 0.106923 0.845704 0.266537
Si Si2 0.208659 0.191026 0.654304
Si Si3 0.873689 0.520517 0.490338
Si Si4 0.642977 0.475674 0.379700
Si Si5 0.570058 0.944101 0.589411
Si Si6 0.813040 0.675485 0.843791
Si Si7 0.244741 0.143494 0.956810
Si Si8 0.125309 0.604310 0.841798
O O1 0.952295 0.581683 0.156510
O O2 0.185526 0.041863 0.492571
O O3 0.276158 0.951114 0.364622
O O4 0.994310 0.792985 0.047996
O O5 0.297631 0.402243 0.688366
O O6 0.312728 0.270311 0.895294
O O7 0.000000 0.000000 0.500000
O O8 0.951763 0.500525 0.640815
O O9 0.686820 0.376730 0.369883
O O10 0.829350 0.414980 0.273732
O O11 0.056317 0.832403 0.709443
O O12 0.790605 0.693567 0.675471
O O13 0.427752 0.278074 0.193525
O O14 0.382332 0.635747 0.372134
O O15 0.500000 0.000000 0.500000
O O16 0.690956 0.110552 0.869273
O O17 0.803357 0.786590 0.969585
#
# Coordination Sequence:
#
# PCOD9065344 Si02
#       8
#     2   2   2   2   2   2   2   2
#     4  12  24  46  75  99 144 191 233 286 358 413
#     4  12  23  47  73 104 142 186 232 289 354 422
#     4  11  25  46  72 101 141 185 236 296 344 415
#     4  12  26  43  72 105 144 182 230 291 359 415
#     4  12  27  44  69 102 142 184 235 287 340 424
#     4  12  27  46  73 107 142 183 232 294 355 422
#     4  12  25  47  74 105 143 181 236 295 353 422
#     4  11  24  48  70 100 143 189 238 286 347 418
#
# _framework density 23.159033000000001
#
# number of rings (size 3 to 8) (size 9 to 14) (size 15 to 20)
#    0.000    0.250    5.000    3.375    1.750    4.000 
#    0.000    1.875    0.000    0.000    0.000    0.000 
#    0.000    0.000    0.000    0.000    0.000    0.000 
#
# Total GULP energy -89651.701831 kJ/mol
# GULP energy per Si atom -5603.231364 kJ/mol
# Density = 2.310632 g / cm^3
# Si number density = 23.159033 Si / 1000 Ang^3
#
#
#
# Elastic Constant Matrix: (Units=GPa)
#
#
# Indices 1 2 3 4 5 6 
#
# 1 168.2799 2.7174 76.5615 -9.5147 11.1177 1.6897
# 2 2.7174 40.1586 22.8970 -14.1459 12.2245 -6.8352
# 3 76.5615 22.8970 102.3332 -21.9609 -1.5428 5.1222
# 4 -9.5147 -14.1459 -21.9609 37.3841 -6.8042 0.4680
# 5 11.1177 12.2245 -1.5428 -6.8042 45.6465 0.9366
# 6 1.6897 -6.8352 5.1222 0.4680 0.9366 26.7271
#
#
#
# Elastic Compliance Matrix: (Units=1/GPa)
#
#
# Indices 1 2 3 4 5 6 
#
# 1 0.010540 0.006360 -0.009891 -0.001654 -0.004914 0.003057
# 2 0.006360 0.040131 -0.013100 0.006767 -0.011990 0.012673
# 3 -0.009891 -0.013100 0.022099 0.007031 0.007863 -0.007359
# 4 -0.001654 0.006767 0.007031 0.033725 0.003860 -0.000238
# 5 -0.004914 -0.011990 0.007863 0.003860 0.027265 -0.005286
# 6 0.003057 0.012673 -0.007359 -0.000238 -0.005286 0.042063
#
#
# Mechanical properties :
#
#
# Convention : Reuss Voigt Hill
#
# Bulk Modulus (GPa) = 25.31171 57.23591 41.27381
# Shear Modulus (GPa) = 22.49681 35.85793 29.17737
#
# Velocity S-wave (km/s) = 3.12012 3.93916 3.55332
# Velocity P-wave (km/s) = 4.89218 6.74220 5.89027
#
# Compressibility (1/GPa) = 0.03950741
#
# Stress axis : x y z
#
# Youngs Moduli (GPa) = 94.87549 24.91840 45.25175
#
# Poissons Ratio (x) = -0.15847 0.44757
# Poissons Ratio (y) = -0.60337 0.59280
# Poissons Ratio (z) = 0.93838 0.32643
#
# Static dielectric constant tensor:
#      x y z
#    x 1.852500 -0.016660 0.016370 
#    y -0.016660 1.907820 0.000400 
#    z 0.016370 0.000400 1.868250 
# 
# From -- ./inp_files/308149.got.cif
#   From: 2010.05.17/outbox.cif.g08.bks.cpg/sg2_155_cif.got.tgz:308149.got - 2010.06.03 11:33:40.
