data_PCOD9065060
_publ_section_title
;
Structure prediction by ZEFSAII (Michael W. Deem and Ramdas Pophale) SiO2 
 PCOD9065060
Probable space group: P -1
;
_chemical_formula_sum "Si O2"
_cell_formula_units_Z 14
_cell_length_a 14.696557
_cell_length_b 8.832383
_cell_length_c 11.079562
_cell_angle_alpha 126.072240
_cell_angle_beta 31.904866
_cell_angle_gamma 129.716867
_cell_volume 580.864494
_symmetry_space_group_name_H-M "P -1"
_symmetry_group_IT_number 2
_symmetry_cell_setting 'triclinic'
loop_
_space_group_symop_operation_xyz
x,y,z
-x,-y,-z
loop_
_atom_site_type_symbol
_atom_site_label
_atom_site_fract_x
_atom_site_fract_y
_atom_site_fract_z
Si Si1 0.659987 0.155729 0.274616
Si Si2 0.487685 0.796251 0.986307
Si Si3 0.036235 0.142291 0.801587
Si Si4 0.169104 0.589971 0.437713
Si Si5 0.405996 0.450324 0.449330
Si Si6 0.127940 0.160619 0.340229
Si Si7 0.737695 0.005672 0.356259
O O1 0.629361 0.349594 0.456467
O O2 0.685912 0.001348 0.272285
O O3 0.464098 0.063983 0.386034
O O4 0.862407 0.217879 0.019439
O O5 0.484489 0.635778 0.809714
O O6 0.673589 0.854903 0.879776
O O7 0.331259 0.690405 0.207755
O O8 0.500000 0.000000 0.000000
O O9 0.209506 0.283532 0.602894
O O10 0.965738 0.923684 0.720427
O O11 0.132947 0.118228 0.807519
O O12 0.165951 0.393413 0.421696
O O13 0.166336 0.766309 0.611216
O O14 0.000000 0.500000 0.500000
O O15 0.500000 0.500000 0.500000
O O16 0.000000 0.000000 0.500000
#
# Coordination Sequence:
#
# PCOD9065060 Si02
#       7
#     2   2   2   2   2   2   2
#     4  11  26  45  73 103 148 196 245 308 375 443
#     4  12  27  48  77 108 152 199 249 314 374 447
#     4  12  24  46  73 105 146 197 251 306 373 450
#     4  12  25  46  73 109 146 196 249 308 376 448
#     4  12  26  47  72 107 151 196 247 305 380 446
#     4  12  25  46  75 105 149 195 251 312 375 444
#     4  11  24  47  70 106 149 188 253 309 371 449
#
# _framework density 24.102007
#
# number of rings (size 3 to 8) (size 9 to 14) (size 15 to 20)
#    0.000    0.286    4.286    4.714    2.000    3.429 
#    0.000    0.000    0.000    0.000    0.000    0.000 
#    0.000    0.000    0.000    0.000    0.000    0.000 
#
# Total GULP energy -78163.792418 kJ/mol
# GULP energy per Si atom -5583.128030 kJ/mol
# Density = 2.404715 g / cm^3
# Si number density = 24.102007 Si / 1000 Ang^3
#
#
#
# Elastic Constant Matrix: (Units=GPa)
#
#
# Indices 1 2 3 4 5 6 
#
# 1 91.2387 14.7756 11.9519 -11.6048 -23.7127 2.9285
# 2 14.7756 148.8155 31.0725 -5.9885 -6.1964 -0.4275
# 3 11.9519 31.0725 95.1182 -24.5077 -7.4028 8.9649
# 4 -11.6048 -5.9885 -24.5077 47.3099 6.3763 -3.8328
# 5 -23.7127 -6.1964 -7.4028 6.3763 46.0168 -6.4472
# 6 2.9285 -0.4275 8.9649 -3.8328 -6.4472 49.1328
#
#
#
# Elastic Compliance Matrix: (Units=1/GPa)
#
#
# Indices 1 2 3 4 5 6 
#
# 1 0.013040 -0.000875 -0.000353 0.002079 0.006294 0.000268
# 2 -0.000875 0.007310 -0.002450 -0.000553 0.000294 0.000558
# 3 -0.000353 -0.002450 0.013171 0.006210 0.000487 -0.001855
# 4 0.002079 -0.000553 0.006210 0.025024 -0.001401 0.000506
# 5 0.006294 0.000294 0.000487 -0.001401 0.025679 0.002799
# 6 0.000268 0.000558 -0.001855 0.000506 0.002799 0.021087
#
#
# Mechanical properties :
#
#
# Convention : Reuss Voigt Hill
#
# Bulk Modulus (GPa) = 38.21806 50.08582 44.15194
# Shear Modulus (GPa) = 41.19057 46.98340 44.08698
#
# Velocity S-wave (km/s) = 4.13850 4.41994 4.28153
# Velocity P-wave (km/s) = 6.22314 6.84644 6.54222
#
# Compressibility (1/GPa) = 0.02616564
#
# Stress axis : x y z
#
# Youngs Moduli (GPa) = 76.68835 136.80323 75.92566
#
# Poissons Ratio (x) = 0.11964 0.02677
# Poissons Ratio (y) = 0.06707 0.18603
# Poissons Ratio (z) = 0.02704 0.33519
#
# Static dielectric constant tensor:
#      x y z
#    x 2.020650 0.027640 0.040680 
#    y 0.027640 1.877020 0.022300 
#    z 0.040680 0.022300 2.026410 
# 
# From -- ./inp_files/306809.got.cif
#   From: 2010.05.17/outbox.cif.g08.bks.cpg/sg2_154_cif.got.tgz:306809.got - 2010.06.03 11:33:40.
