data_PCOD9065427
_publ_section_title
;
Structure prediction by ZEFSAII (Michael W. Deem and Ramdas Pophale) SiO2 
 PCOD9065427
Probable space group: P -1
;
_chemical_formula_sum "Si O2"
_cell_formula_units_Z 12
_cell_length_a 7.843867
_cell_length_b 18.130432
_cell_length_c 5.005968
_cell_angle_alpha 78.804959
_cell_angle_beta 94.058805
_cell_angle_gamma 130.970186
_cell_volume 525.764502
_symmetry_space_group_name_H-M "P -1"
_symmetry_group_IT_number 2
_symmetry_cell_setting 'triclinic'
loop_
_space_group_symop_operation_xyz
x,y,z
-x,-y,-z
loop_
_atom_site_type_symbol
_atom_site_label
_atom_site_fract_x
_atom_site_fract_y
_atom_site_fract_z
Si Si1 0.461808 0.812073 0.078350
Si Si2 0.794752 0.385936 0.476942
Si Si3 0.965128 0.308097 0.140632
Si Si4 0.636512 0.569960 0.214519
Si Si5 0.239914 0.108897 0.467762
Si Si6 0.314938 0.297976 0.485635
O O1 0.252595 0.796052 0.933367
O O2 0.640544 0.851949 0.834077
O O3 0.588922 0.879565 0.305996
O O4 0.663205 0.664722 0.235308
O O5 0.000000 0.500000 0.500000
O O6 0.882586 0.350558 0.296219
O O7 0.666417 0.300735 0.754109
O O8 0.574691 0.368774 0.355535
O O9 0.140052 0.304156 0.316878
O O10 0.110700 0.382418 0.857285
O O11 0.500000 0.500000 0.500000
O O12 0.500000 0.500000 0.000000
O O13 0.217059 0.186711 0.523825
O O14 0.000000 0.000000 0.500000
#
# Coordination Sequence:
#
# PCOD9065427 Si02
#       6
#     2   2   2   2   2   2
#     4  11  24  48  73 109 148 187 246 314 365 448
#     4  11  26  45  74 109 155 203 249 298 370 446
#     4  12  25  46  70 106 154 189 248 309 366 438
#     4  12  26  42  67 106 151 199 244 289 362 441
#     4  11  26  51  80 108 145 195 252 317 383 438
#     4  11  26  46  76 108 150 198 248 308 370 437
#
# _framework density 22.823905
#
# number of rings (size 3 to 8) (size 9 to 14) (size 15 to 20)
#    0.000    0.667    5.000    2.500    7.000    2.000 
#    0.000    1.667    0.000    0.000    0.000    0.000 
#    0.000    0.000    0.000    0.000    0.000    0.000 
#
# Total GULP energy -67014.996192 kJ/mol
# GULP energy per Si atom -5584.583016 kJ/mol
# Density = 2.277196 g / cm^3
# Si number density = 22.823905 Si / 1000 Ang^3
#
#
#
# Elastic Constant Matrix: (Units=GPa)
#
#
# Indices 1 2 3 4 5 6 
#
# 1 188.7548 70.2226 55.3966 3.2013 -7.9400 26.0430
# 2 70.2226 124.7195 52.2448 6.5893 -14.8697 44.2868
# 3 55.3966 52.2448 182.7638 9.5508 -23.9448 18.6521
# 4 3.2013 6.5893 9.5508 26.4687 7.5869 -5.5176
# 5 -7.9400 -14.8697 -23.9448 7.5869 44.6804 4.6170
# 6 26.0430 44.2868 18.6521 -5.5176 4.6170 53.9756
#
#
#
# Elastic Compliance Matrix: (Units=1/GPa)
#
#
# Indices 1 2 3 4 5 6 
#
# 1 0.006920 -0.003564 -0.001233 0.000744 -0.000759 0.000152
# 2 -0.003564 0.016106 -0.000936 -0.007822 0.006851 -0.012557
# 3 -0.001233 -0.000936 0.007016 -0.003679 0.004038 -0.001783
# 4 0.000744 -0.007822 -0.003679 0.047754 -0.013936 0.013404
# 5 -0.000759 0.006851 0.004038 -0.013936 0.030158 -0.010655
# 6 0.000152 -0.012557 -0.001783 0.013404 -0.010655 0.031655
#
#
# Mechanical properties :
#
#
# Convention : Reuss Voigt Hill
#
# Bulk Modulus (GPa) = 53.82930 94.66289 74.24609
# Shear Modulus (GPa) = 31.79345 46.24988 39.02167
#
# Velocity S-wave (km/s) = 3.73633 4.50642 4.13932
# Velocity P-wave (km/s) = 6.49995 8.28507 7.44620
#
# Compressibility (1/GPa) = 0.01857724
#
# Stress axis : x y z
#
# Youngs Moduli (GPa) = 144.51087 62.09001 142.53067
#
# Poissons Ratio (x) = 0.22127 0.17568
# Poissons Ratio (y) = 0.51499 0.13339
# Poissons Ratio (z) = 0.17812 0.05811
#
# Static dielectric constant tensor:
#      x y z
#    x 2.009290 -0.048910 0.112410 
#    y -0.048910 1.850320 -0.042570 
#    z 0.112410 -0.042570 1.935500 
# 
# From -- ./inp_files/32348.got.cif
#   From: 2010.05.17/outbox.cif.g08.bks.cpg/sg2_17_cif.got.tgz:32348.got - 2010.06.03 11:33:40.
