data_PCOD9065591
_publ_section_title
;
Structure prediction by ZEFSAII (Michael W. Deem and Ramdas Pophale) SiO2 
 PCOD9065591
Probable space group: P -1
;
_chemical_formula_sum "Si O2"
_cell_formula_units_Z 12
_cell_length_a 5.145975
_cell_length_b 14.153005
_cell_length_c 7.661101
_cell_angle_alpha 120.303925
_cell_angle_beta 108.673206
_cell_angle_gamma 83.391239
_cell_volume 455.630847
_symmetry_space_group_name_H-M "P -1"
_symmetry_group_IT_number 2
_symmetry_cell_setting 'triclinic'
loop_
_space_group_symop_operation_xyz
x,y,z
-x,-y,-z
loop_
_atom_site_type_symbol
_atom_site_label
_atom_site_fract_x
_atom_site_fract_y
_atom_site_fract_z
Si Si1 0.387323 0.774444 0.917330
Si Si2 0.699675 0.606241 0.666128
Si Si3 0.711430 0.638803 0.329364
Si Si4 0.950846 0.867236 0.666245
Si Si5 0.437546 0.997846 0.690996
Si Si6 0.193021 0.597663 0.001168
O O1 0.533928 0.714989 0.736804
O O2 0.119043 0.824604 0.826949
O O3 0.336275 0.678188 0.959223
O O4 0.560096 0.877691 0.128159
O O5 0.500000 0.500000 0.500000
O O6 0.850102 0.610272 0.517105
O O7 0.882771 0.609763 0.881362
O O8 0.779078 0.533113 0.132508
O O9 0.825176 0.761467 0.433132
O O10 0.375963 0.634387 0.242949
O O11 0.163524 0.934929 0.647546
O O12 0.705310 0.936134 0.752450
O O13 0.500000 0.000000 0.500000
#
# Coordination Sequence:
#
# PCOD9065591 Si02
#       6
#     2   2   2   2   2   2
#     4  12  26  47  77 111 155 205 265 321 393 471
#     4  12  24  46  75 112 158 208 253 324 393 465
#     4  11  24  49  74 116 156 207 264 322 393 466
#     4  12  26  50  80 112 157 208 262 323 395 464
#     4  12  29  52  78 115 156 206 267 328 390 465
#     4  11  25  46  74 113 159 201 267 319 397 463
#
# _framework density 26.337112000000001
#
# number of rings (size 3 to 8) (size 9 to 14) (size 15 to 20)
#    0.000    0.333    3.333    5.000    2.333    0.667 
#   12.000    0.000    0.000    0.000    0.000    0.000 
#    0.000    0.000    0.000    0.000    0.000    0.000 
#
# Total GULP energy -67136.127687 kJ/mol
# GULP energy per Si atom -5594.677307 kJ/mol
# Density = 2.627717 g / cm^3
# Si number density = 26.337112 Si / 1000 Ang^3
#
#
#
# Elastic Constant Matrix: (Units=GPa)
#
#
# Indices 1 2 3 4 5 6 
#
# 1 93.0700 40.4058 35.6009 27.3528 23.5085 6.9979
# 2 40.4058 115.0613 79.0750 10.8945 17.2097 12.0760
# 3 35.6009 79.0750 156.0812 41.9444 16.7543 14.9309
# 4 27.3528 10.8945 41.9444 71.5206 7.7578 11.7936
# 5 23.5085 17.2097 16.7543 7.7578 43.8060 4.2836
# 6 6.9979 12.0760 14.9309 11.7936 4.2836 59.3917
#
#
#
# Elastic Compliance Matrix: (Units=1/GPa)
#
#
# Indices 1 2 3 4 5 6 
#
# 1 0.015402 -0.004631 0.000793 -0.005071 -0.005887 0.000359
# 2 -0.004631 0.015545 -0.007697 0.004295 -0.001298 -0.001439
# 3 0.000793 -0.007697 0.011838 -0.005937 -0.000852 -0.000264
# 4 -0.005071 0.004295 -0.005937 0.019160 0.000166 -0.002600
# 5 -0.005887 -0.001298 -0.000852 0.000166 0.026872 -0.000799
# 6 0.000359 -0.001439 -0.000264 -0.002600 -0.000799 0.017728
#
#
# Mechanical properties :
#
#
# Convention : Reuss Voigt Hill
#
# Bulk Modulus (GPa) = 50.71910 74.93067 62.82489
# Shear Modulus (GPa) = 36.71491 48.88571 42.80031
#
# Velocity S-wave (km/s) = 3.73773 4.31298 4.03562
# Velocity P-wave (km/s) = 6.15849 7.30170 6.75432
#
# Compressibility (1/GPa) = 0.01971644
#
# Stress axis : x y z
#
# Youngs Moduli (GPa) = 64.92734 64.32855 84.47705
#
# Poissons Ratio (x) = 0.29790 -0.06703
# Poissons Ratio (y) = 0.30068 0.65018
# Poissons Ratio (z) = -0.05152 0.49511
#
# Static dielectric constant tensor:
#      x y z
#    x 2.176660 0.008220 0.048130 
#    y 0.008220 2.101560 -0.048480 
#    z 0.048130 -0.048480 2.013340 
# 
# From -- ./inp_files/92139.got.cif
#   From: 2010.05.17/outbox.cif.g08.bks.cpg/sg2_47_cif.got.tgz:92139.got - 2010.06.03 11:33:40.
