data_PCOD9065982
_publ_section_title
;
Structure prediction by ZEFSAII (Michael W. Deem and Ramdas Pophale) SiO2 
 PCOD9065982
Probable space group: P -1
;
_chemical_formula_sum "Si O2"
_cell_formula_units_Z 14
_cell_length_a 9.087712
_cell_length_b 14.514224
_cell_length_c 12.474891
_cell_angle_alpha 119.871405
_cell_angle_beta 129.502563
_cell_angle_gamma 29.654091
_cell_volume 621.670023
_symmetry_space_group_name_H-M "P -1"
_symmetry_group_IT_number 2
_symmetry_cell_setting 'triclinic'
loop_
_space_group_symop_operation_xyz
x,y,z
-x,-y,-z
loop_
_atom_site_type_symbol
_atom_site_label
_atom_site_fract_x
_atom_site_fract_y
_atom_site_fract_z
Si Si1 0.074609 0.529258 0.442836
Si Si2 0.106823 0.456887 0.852529
Si Si3 0.161261 0.815258 0.927841
Si Si4 0.113910 0.224730 0.814334
Si Si5 0.183746 0.808745 0.504789
Si Si6 0.877998 0.793802 0.951351
Si Si7 0.898317 0.843732 0.603467
O O1 0.428976 0.353629 0.443085
O O2 0.000000 0.500000 0.500000
O O3 0.821138 0.613093 0.277720
O O4 0.065669 0.653648 0.549304
O O5 0.018686 0.389621 0.836389
O O6 0.864559 0.671805 0.861997
O O7 0.446873 0.342176 0.998560
O O8 0.127569 0.737368 0.954014
O O9 0.975444 0.858810 0.761902
O O10 0.000000 0.000000 0.000000
O O11 0.956462 0.223869 0.649873
O O12 0.517617 0.015349 0.886472
O O13 0.006090 0.241645 0.893477
O O14 0.070658 0.837840 0.590197
O O15 0.000000 0.000000 0.500000
O O16 0.500000 0.000000 0.500000
#
# Coordination Sequence:
#
# PCOD9065982 Si02
#       7
#     2   2   2   2   2   2   2
#     4  12  27  48  75 109 151 195 255 312 380 456
#     4  12  25  46  73 105 148 193 249 305 375 445
#     4  12  26  45  74 108 148 198 251 304 381 446
#     4  11  25  46  71 106 148 189 247 312 369 449
#     4  12  27  46  75 108 149 198 254 306 385 449
#     4  11  25  44  70 107 147 192 244 305 374 441
#     4  12  26  48  76 109 152 197 249 313 375 454
#
# _framework density 22.519984999999998
#
# number of rings (size 3 to 8) (size 9 to 14) (size 15 to 20)
#    0.000    0.286    2.857    5.571    6.000    1.143 
#    0.000    0.000    0.000    0.000    0.000    0.000 
#    0.000    0.000    0.000    0.000    0.000    0.000 
#
# Total GULP energy -78322.430670 kJ/mol
# GULP energy per Si atom -5594.459334 kJ/mol
# Density = 2.246873 g / cm^3
# Si number density = 22.519985 Si / 1000 Ang^3
#
#
#
# Elastic Constant Matrix: (Units=GPa)
#
#
# Indices 1 2 3 4 5 6 
#
# 1 153.6617 41.6767 15.9315 0.0469 -21.1231 13.4485
# 2 41.6767 115.8243 8.6669 14.4564 5.6031 15.3129
# 3 15.9315 8.6669 115.1029 8.6386 -15.8408 -7.8689
# 4 0.0469 14.4564 8.6386 30.8891 -2.1582 7.1448
# 5 -21.1231 5.6031 -15.8408 -2.1582 36.0437 2.5340
# 6 13.4485 15.3129 -7.8689 7.1448 2.5340 44.6687
#
#
#
# Elastic Compliance Matrix: (Units=1/GPa)
#
#
# Indices 1 2 3 4 5 6 
#
# 1 0.008401 -0.003279 -0.000499 0.002560 0.005523 -0.002216
# 2 -0.003279 0.010906 -0.000700 -0.004752 -0.004077 -0.001883
# 3 -0.000499 -0.000700 0.009683 -0.002651 0.003751 0.002307
# 4 0.002560 -0.004752 -0.002651 0.036917 0.003687 -0.005723
# 5 0.005523 -0.004077 0.003751 0.003687 0.033631 -0.002102
# 6 -0.002216 -0.001883 0.002307 -0.005723 -0.002102 0.025141
#
#
# Mechanical properties :
#
#
# Convention : Reuss Voigt Hill
#
# Bulk Modulus (GPa) = 49.92274 57.45990 53.69132
# Shear Modulus (GPa) = 35.63425 43.54122 39.58773
#
# Velocity S-wave (km/s) = 3.98218 4.40187 4.19727
# Velocity P-wave (km/s) = 6.58483 7.16978 6.88352
#
# Compressibility (1/GPa) = 0.02003095
#
# Stress axis : x y z
#
# Youngs Moduli (GPa) = 119.02748 91.69634 103.27773
#
# Poissons Ratio (x) = 0.30071 0.05158
# Poissons Ratio (y) = 0.39034 0.07234
# Poissons Ratio (z) = 0.05945 0.06423
#
# Static dielectric constant tensor:
#      x y z
#    x 1.728440 -0.005240 -0.005640 
#    y -0.005240 1.887210 -0.024920 
#    z -0.005640 -0.024920 1.830900 
# 
# From -- ./inp_files/399388.got.cif
#   From: 2010.05.17/outbox.cif.g08.bks.cpg/sg2_200_cif.got.tgz:399388.got - 2010.06.03 11:33:40.
