data_PCOD9065876
_publ_section_title
;
Structure prediction by ZEFSAII (Michael W. Deem and Ramdas Pophale) SiO2 
 PCOD9065876
Probable space group: P -1
;
_chemical_formula_sum "Si O2"
_cell_formula_units_Z 15
_cell_length_a 8.815527
_cell_length_b 16.448579
_cell_length_c 8.027753
_cell_angle_alpha 82.182689
_cell_angle_beta 92.508648
_cell_angle_gamma 148.546277
_cell_volume 595.858961
_symmetry_space_group_name_H-M "P -1"
_symmetry_group_IT_number 2
_symmetry_cell_setting 'triclinic'
loop_
_space_group_symop_operation_xyz
x,y,z
-x,-y,-z
loop_
_atom_site_type_symbol
_atom_site_label
_atom_site_fract_x
_atom_site_fract_y
_atom_site_fract_z
Si Si1 0.818314 0.293415 0.603628
Si Si2 0.500000 0.000000 0.000000
Si Si3 0.285971 0.301589 0.361579
Si Si4 0.206358 0.603677 0.137292
Si Si5 0.384439 0.524597 0.342173
Si Si6 0.762100 0.958442 0.945095
Si Si7 0.632554 0.041739 0.314978
Si Si8 0.313898 0.136319 0.388620
O O1 0.926834 0.413335 0.700867
O O2 0.563372 0.214206 0.497487
O O3 0.083852 0.382600 0.479907
O O4 0.638150 0.136673 0.732917
O O5 0.773544 0.056516 0.984194
O O6 0.339290 0.883220 0.856837
O O7 0.423891 0.453883 0.281229
O O8 0.359819 0.334225 0.554380
O O9 0.401295 0.269487 0.303909
O O10 0.944421 0.147665 0.341894
O O11 0.330720 0.573022 0.201743
O O12 0.471529 0.784646 0.055066
O O13 0.000000 0.500000 0.000000
O O14 0.743125 0.945589 0.749395
O O15 0.000000 0.000000 0.000000
O O16 0.500000 0.000000 0.500000
O O17 0.000000 0.000000 0.500000
#
# Coordination Sequence:
#
# PCOD9065876 Si02
#       8
#     2   1   2   2   2   2   2   2
#     4  12  23  46  73 103 141 200 253 308 374 465
#     4  12  28  48  76 120 154 194 264 332 380 468
#     4  11  25  43  72 110 140 193 259 310 375 463
#     4  12  27  47  69 106 153 198 245 314 401 461
#     4  11  26  45  71 101 152 195 250 308 379 476
#     4  12  28  50  76 111 154 198 251 327 389 457
#     4  12  24  45  78 109 147 196 262 316 386 451
#     4  12  24  44  79 110 142 194 258 320 384 454
#
# _framework density 25.173741
#
# number of rings (size 3 to 8) (size 9 to 14) (size 15 to 20)
#    0.000    0.267    5.333    3.600    3.733    0.000 
#    0.000    0.667    0.000    0.000    0.000    0.000 
#    0.000    0.000    0.000    0.000    0.000    0.000 
#
# Total GULP energy -83724.924488 kJ/mol
# GULP energy per Si atom -5581.661633 kJ/mol
# Density = 2.511644 g / cm^3
# Si number density = 25.173741 Si / 1000 Ang^3
#
#
#
# Elastic Constant Matrix: (Units=GPa)
#
#
# Indices 1 2 3 4 5 6 
#
# 1 156.9739 32.9625 29.3980 18.8050 2.8048 -12.2283
# 2 32.9625 94.2920 24.8925 16.9679 6.3170 12.5562
# 3 29.3980 24.8925 78.4852 31.1223 -11.9175 8.4310
# 4 18.8050 16.9679 31.1223 42.0197 4.7523 6.6992
# 5 2.8048 6.3170 -11.9175 4.7523 52.5898 8.1977
# 6 -12.2283 12.5562 8.4310 6.6992 8.1977 54.8007
#
#
#
# Elastic Compliance Matrix: (Units=1/GPa)
#
#
# Indices 1 2 3 4 5 6 
#
# 1 0.007615 -0.002188 -0.002075 -0.001332 -0.000933 0.002822
# 2 -0.002188 0.012783 -0.002460 -0.001785 -0.001408 -0.002610
# 3 -0.002075 -0.002460 0.021237 -0.014193 0.006885 -0.002461
# 4 -0.001332 -0.001785 -0.014193 0.036512 -0.006033 -0.001266
# 5 -0.000933 -0.001408 0.006885 -0.006033 0.021882 -0.003481
# 6 0.002822 -0.002610 -0.002461 -0.001266 -0.003481 0.020530
#
#
# Mechanical properties :
#
#
# Convention : Reuss Voigt Hill
#
# Bulk Modulus (GPa) = 35.47625 56.02857 45.75241
# Shear Modulus (GPa) = 34.86761 46.04859 40.45810
#
# Velocity S-wave (km/s) = 3.72570 4.28159 4.01328
# Velocity P-wave (km/s) = 5.71235 6.83723 6.29995
#
# Compressibility (1/GPa) = 0.02818787
#
# Stress axis : x y z
#
# Youngs Moduli (GPa) = 131.32783 78.23051 47.08799
#
# Poissons Ratio (x) = 0.17114 0.09771
# Poissons Ratio (y) = 0.28731 0.11586
# Poissons Ratio (z) = 0.27251 0.19248
#
# Static dielectric constant tensor:
#      x y z
#    x 2.014090 -0.000050 -0.147800 
#    y -0.000050 1.951620 0.105380 
#    z -0.147800 0.105380 1.723350 
# 
# From -- ./inp_files/217690.got.cif
#   From: 2010.05.17/outbox.cif.g08.bks.cpg/sg2_109_cif.got.tgz:217690.got - 2010.06.03 11:33:40.
