data_PCOD9065162
_publ_section_title
;
Structure prediction by ZEFSAII (Michael W. Deem and Ramdas Pophale) SiO2 
 PCOD9065162
Probable space group: P -1
;
_chemical_formula_sum "Si O2"
_cell_formula_units_Z 16
_cell_length_a 21.341432
_cell_length_b 5.260559
_cell_length_c 7.795106
_cell_angle_alpha 63.429893
_cell_angle_beta 116.864961
_cell_angle_gamma 123.413429
_cell_volume 628.088207
_symmetry_space_group_name_H-M "P -1"
_symmetry_group_IT_number 2
_symmetry_cell_setting 'triclinic'
loop_
_space_group_symop_operation_xyz
x,y,z
-x,-y,-z
loop_
_atom_site_type_symbol
_atom_site_label
_atom_site_fract_x
_atom_site_fract_y
_atom_site_fract_z
Si Si1 0.281567 0.436674 0.224844
Si Si2 0.014608 0.950773 0.334454
Si Si3 0.553206 0.352943 0.516782
Si Si4 0.674164 0.468846 0.117428
Si Si5 0.226336 0.779355 0.517098
Si Si6 0.135017 0.550682 0.138879
Si Si7 0.878126 0.313994 0.282675
Si Si8 0.416925 0.245048 0.898349
O O1 0.373252 0.664363 0.293595
O O2 0.211528 0.503399 0.191297
O O3 0.275326 0.120727 0.399807
O O4 0.272169 0.397164 0.022172
O O5 0.078888 0.823370 0.491885
O O6 0.933719 0.687599 0.243086
O O7 0.054217 0.240352 0.165653
O O8 0.000000 0.000000 0.500000
O O9 0.500000 0.500000 0.500000
O O10 0.587492 0.570324 0.330279
O O11 0.500000 0.000000 0.500000
O O12 0.723374 0.418697 0.349018
O O13 0.642941 0.722883 0.051001
O O14 0.606790 0.114033 0.089128
O O15 0.155750 0.655823 0.331000
O O16 0.201195 0.782209 0.682066
O O17 0.126894 0.754975 0.906765
O O18 0.500000 0.500000 0.000000
#
# Coordination Sequence:
#
# PCOD9065162 Si02
#       8
#     2   2   2   2   2   2   2   2
#     4  12  27  46  74 107 148 197 254 310 390 450
#     4  11  24  47  73 105 149 193 244 313 378 462
#     4  12  26  46  74 108 150 197 255 315 378 458
#     4  12  27  47  75 108 152 197 256 321 382 464
#     4  12  26  46  72 108 147 199 249 322 377 461
#     4  12  26  44  76 105 148 197 252 309 386 455
#     4  11  25  47  71 107 148 190 252 306 383 458
#     4  12  25  48  74 107 151 197 253 321 390 457
#
# _framework density 25.474129000000001
#
# number of rings (size 3 to 8) (size 9 to 14) (size 15 to 20)
#    0.000    0.250    5.000    3.750    3.500    2.500 
#    0.000    0.000    0.000    0.000    0.000    0.000 
#    0.000    0.000    0.000    0.000    0.000    0.000 
#
# Total GULP energy -89366.054665 kJ/mol
# GULP energy per Si atom -5585.378417 kJ/mol
# Density = 2.541615 g / cm^3
# Si number density = 25.474129 Si / 1000 Ang^3
#
#
#
# Elastic Constant Matrix: (Units=GPa)
#
#
# Indices 1 2 3 4 5 6 
#
# 1 100.8883 5.9378 -3.0491 -12.2823 -19.2474 -16.7646
# 2 5.9378 101.7390 13.0100 13.8682 -1.4887 4.5969
# 3 -3.0491 13.0100 119.7006 -7.1217 -28.6046 7.3260
# 4 -12.2823 13.8682 -7.1217 29.2892 5.0315 -3.9738
# 5 -19.2474 -1.4887 -28.6046 5.0315 42.5124 -2.5477
# 6 -16.7646 4.5969 7.3260 -3.9738 -2.5477 29.9155
#
#
#
# Elastic Compliance Matrix: (Units=1/GPa)
#
#
# Indices 1 2 3 4 5 6 
#
# 1 0.014020 -0.002456 0.002288 0.007581 0.007462 0.009316
# 2 -0.002456 0.011321 -0.001801 -0.007109 -0.001309 -0.003731
# 3 0.002288 -0.001801 0.010647 0.003068 0.007775 0.000021
# 4 0.007581 -0.007109 0.003068 0.042695 0.000814 0.010330
# 5 0.007462 -0.001309 0.007775 0.000814 0.032310 0.005339
# 6 0.009316 -0.003731 0.000021 0.010330 0.005339 0.041043
#
#
# Mechanical properties :
#
#
# Convention : Reuss Voigt Hill
#
# Bulk Modulus (GPa) = 31.19902 39.34725 35.27314
# Shear Modulus (GPa) = 30.00145 40.77204 35.38675
#
# Velocity S-wave (km/s) = 3.43552 4.00500 3.73114
# Velocity P-wave (km/s) = 5.29254 6.07175 5.69549
#
# Compressibility (1/GPa) = 0.03205228
#
# Stress axis : x y z
#
# Youngs Moduli (GPa) = 71.32508 88.33010 93.91940
#
# Poissons Ratio (x) = 0.21693 -0.21490
# Poissons Ratio (y) = 0.17517 0.16910
# Poissons Ratio (z) = -0.16320 0.15904
#
# Static dielectric constant tensor:
#      x y z
#    x -0.089550 -0.253930 -1.418110 
#    y -0.253930 2.102590 -0.022790 
#    z -1.418110 -0.022790 1.068690 
# 
# From -- ./inp_files/340166.got.cif
#   From: 2010.05.17/outbox.cif.g08.bks.cpg/sg2_171_cif.got.tgz:340166.got - 2010.06.03 11:33:40.
