data_PCOD9065422
_publ_section_title
;
Structure prediction by ZEFSAII (Michael W. Deem and Ramdas Pophale) SiO2 
 PCOD9065422
Probable space group: P -1
;
_chemical_formula_sum "Si O2"
_cell_formula_units_Z 16
_cell_length_a 15.567421
_cell_length_b 9.770225
_cell_length_c 5.547983
_cell_angle_alpha 99.246055
_cell_angle_beta 122.538777
_cell_angle_gamma 105.693589
_cell_volume 634.256809
_symmetry_space_group_name_H-M "P -1"
_symmetry_group_IT_number 2
_symmetry_cell_setting 'triclinic'
loop_
_space_group_symop_operation_xyz
x,y,z
-x,-y,-z
loop_
_atom_site_type_symbol
_atom_site_label
_atom_site_fract_x
_atom_site_fract_y
_atom_site_fract_z
Si Si1 0.714897 0.846774 0.575445
Si Si2 0.136722 0.488227 0.951199
Si Si3 0.543144 0.719260 0.654450
Si Si4 0.948096 0.024862 0.178582
Si Si5 0.678025 0.047463 0.202436
Si Si6 0.908490 0.279598 0.390354
Si Si7 0.664414 0.343830 0.379082
Si Si8 0.302519 0.399905 0.881629
O O1 0.815605 0.907565 0.934616
O O2 0.593575 0.736924 0.469635
O O3 0.700343 0.988499 0.475674
O O4 0.748311 0.752807 0.401506
O O5 0.206904 0.583350 0.311527
O O6 0.128791 0.604449 0.772249
O O7 0.210652 0.406961 0.927872
O O8 0.413983 0.663094 0.513567
O O9 0.604651 0.894349 0.900118
O O10 0.593747 0.616260 0.838702
O O11 0.957732 0.196899 0.252576
O O12 0.000000 0.000000 0.500000
O O13 0.991866 0.633341 0.244444
O O14 0.000000 0.000000 0.000000
O O15 0.799939 0.144644 0.300247
O O16 0.626991 0.170904 0.183226
O O17 0.658325 0.454856 0.195231
#
# Coordination Sequence:
#
# PCOD9065422 Si02
#       8
#     2   2   2   2   2   2   2   2
#     4  11  25  46  70 107 144 194 247 311 377 446
#     4  11  26  45  72 105 146 188 249 298 378 456
#     4  11  26  47  72 106 146 188 252 313 368 454
#     4  12  26  43  75 107 149 200 252 313 381 453
#     4  11  24  48  73 106 147 191 250 307 381 447
#     4  11  24  49  71 106 150 192 241 316 370 455
#     4  12  26  45  75 105 142 198 246 308 379 450
#     4  11  25  47  72 104 147 190 246 306 379 451
#
# _framework density 25.226372999999999
#
# number of rings (size 3 to 8) (size 9 to 14) (size 15 to 20)
#    0.000    0.750    2.500    3.750    5.250    5.000 
#    2.250    0.000    0.000    0.000    0.000    0.000 
#    0.000    0.000    0.000    0.000    0.000    0.000 
#
# Total GULP energy -89729.660551 kJ/mol
# GULP energy per Si atom -5608.103784 kJ/mol
# Density = 2.516896 g / cm^3
# Si number density = 25.226373 Si / 1000 Ang^3
#
#
#
# Elastic Constant Matrix: (Units=GPa)
#
#
# Indices 1 2 3 4 5 6 
#
# 1 96.7100 11.2365 2.3877 -0.4293 5.5316 5.6104
# 2 11.2365 121.8868 14.5551 -12.3060 7.1723 -7.1291
# 3 2.3877 14.5551 69.3490 1.2366 11.9398 10.3431
# 4 -0.4293 -12.3060 1.2366 37.6006 7.8236 -5.1330
# 5 5.5316 7.1723 11.9398 7.8236 39.1015 4.6233
# 6 5.6104 -7.1291 10.3431 -5.1330 4.6233 45.6426
#
#
#
# Elastic Compliance Matrix: (Units=1/GPa)
#
#
# Indices 1 2 3 4 5 6 
#
# 1 0.010604 -0.001042 0.000274 -0.000176 -0.001189 -0.001428
# 2 -0.001042 0.009203 -0.002015 0.003847 -0.002010 0.002658
# 3 0.000274 -0.002015 0.016082 -0.000862 -0.003972 -0.003688
# 4 -0.000176 0.003847 -0.000862 0.030007 -0.007001 0.004902
# 5 -0.001189 -0.002010 -0.003972 -0.007001 0.029080 -0.003001
# 6 -0.001428 0.002658 -0.003688 0.004902 -0.003001 0.024191
#
#
# Mechanical properties :
#
#
# Convention : Reuss Voigt Hill
#
# Bulk Modulus (GPa) = 32.97551 38.25604 35.61578
# Shear Modulus (GPa) = 37.08092 41.78671 39.43382
#
# Velocity S-wave (km/s) = 3.83812 4.07439 3.95802
# Velocity P-wave (km/s) = 5.72204 6.11001 5.91921
#
# Compressibility (1/GPa) = 0.03032553
#
# Stress axis : x y z
#
# Youngs Moduli (GPa) = 94.29965 108.65842 62.17984
#
# Poissons Ratio (x) = 0.11319 -0.01706
# Poissons Ratio (y) = 0.09824 0.12528
# Poissons Ratio (z) = -0.02587 0.21893
#
# Static dielectric constant tensor:
#      x y z
#    x 1.984570 -0.007850 0.002870 
#    y -0.007850 1.983790 0.055370 
#    z 0.002870 0.055370 1.973980 
# 
# From -- ./inp_files/54382.got.cif
#   From: 2010.05.17/outbox.cif.g08.bks.cpg/sg2_28_cif.got.tgz:54382.got - 2010.06.03 11:33:40.
