data_PCOD9065367
_publ_section_title
;
Structure prediction by ZEFSAII (Michael W. Deem and Ramdas Pophale) SiO2 
 PCOD9065367
Probable space group: P -1
;
_chemical_formula_sum "Si O2"
_cell_formula_units_Z 14
_cell_length_a 7.846105
_cell_length_b 26.237260
_cell_length_c 5.131200
_cell_angle_alpha 122.043776
_cell_angle_beta 75.180906
_cell_angle_gamma 142.188384
_cell_volume 521.083765
_symmetry_space_group_name_H-M "P -1"
_symmetry_group_IT_number 2
_symmetry_cell_setting 'triclinic'
loop_
_space_group_symop_operation_xyz
x,y,z
-x,-y,-z
loop_
_atom_site_type_symbol
_atom_site_label
_atom_site_fract_x
_atom_site_fract_y
_atom_site_fract_z
Si Si1 0.051870 0.395712 0.454432
Si Si2 0.233502 0.116938 0.704688
Si Si3 0.829469 0.773244 0.108947
Si Si4 0.306947 0.597594 0.511749
Si Si5 0.579424 0.060014 0.882807
Si Si6 0.446689 0.814391 0.727969
Si Si7 0.341874 0.388593 0.955963
O O1 0.810079 0.381909 0.575043
O O2 0.889699 0.295848 0.387015
O O3 0.131652 0.387784 0.116686
O O4 0.356765 0.507206 0.735129
O O5 0.115529 0.140894 0.641440
O O6 0.502258 0.172705 0.565926
O O7 0.354269 0.166235 0.079130
O O8 0.000000 0.000000 0.500000
O O9 0.077167 0.830045 0.951739
O O10 0.506483 0.683346 0.878526
O O11 0.821009 0.716240 0.160045
O O12 0.000000 0.500000 0.500000
O O13 0.502137 0.595847 0.323152
O O14 0.500000 0.000000 0.500000
O O15 0.446711 0.089242 0.989479
O O16 0.500000 0.000000 0.000000
#
# Coordination Sequence:
#
# PCOD9065367 Si02
#       7
#     2   2   2   2   2   2   2
#     4  11  24  48  71 110 152 200 253 317 386 462
#     4  12  27  46  73 107 145 194 253 318 381 451
#     4  12  26  46  73 107 147 199 257 311 391 462
#     4  12  26  45  73 112 152 200 255 318 390 464
#     4  12  28  50  75 107 148 197 256 323 381 452
#     4  12  25  47  74 105 145 194 248 311 387 449
#     4  11  26  47  73 107 153 201 257 310 387 476
#
# _framework density 26.867079
#
# number of rings (size 3 to 8) (size 9 to 14) (size 15 to 20)
#    0.000    0.286    4.286    4.286    4.000    1.714 
#    0.000    0.000    0.000    0.000    0.000    0.000 
#    0.000    0.000    0.000    0.000    0.000    0.000 
#
# Total GULP energy -78036.387475 kJ/mol
# GULP energy per Si atom -5574.027677 kJ/mol
# Density = 2.680593 g / cm^3
# Si number density = 26.867079 Si / 1000 Ang^3
#
#
#
# Elastic Constant Matrix: (Units=GPa)
#
#
# Indices 1 2 3 4 5 6 
#
# 1 49.6593 28.9190 20.4963 3.7468 -7.8308 -14.3830
# 2 28.9190 219.3246 49.2388 7.7691 3.0779 -25.7951
# 3 20.4963 49.2388 99.0335 1.4670 -6.9500 -9.4994
# 4 3.7468 7.7691 1.4670 49.2520 -2.9959 -5.1204
# 5 -7.8308 3.0779 -6.9500 -2.9959 33.0729 17.0700
# 6 -14.3830 -25.7951 -9.4994 -5.1204 17.0700 55.7176
#
#
#
# Elastic Compliance Matrix: (Units=1/GPa)
#
#
# Indices 1 2 3 4 5 6 
#
# 1 0.024385 -0.002022 -0.003446 -0.000851 0.003253 0.003696
# 2 -0.002022 0.005720 -0.002374 -0.000588 -0.002879 0.002549
# 3 -0.003446 -0.002374 0.012089 0.000354 0.002285 -0.000595
# 4 -0.000851 -0.000588 0.000354 0.020639 0.001236 0.001086
# 5 0.003253 -0.002879 0.002285 0.001236 0.037846 -0.011585
# 6 0.003696 0.002549 -0.000595 0.001086 -0.011585 0.023630
#
#
# Mechanical properties :
#
#
# Convention : Reuss Voigt Hill
#
# Bulk Modulus (GPa) = 37.72265 62.81399 50.26832
# Shear Modulus (GPa) = 33.59534 45.56607 39.58071
#
# Velocity S-wave (km/s) = 3.53998 4.12270 3.84240
# Velocity P-wave (km/s) = 5.54793 6.78914 6.19968
#
# Compressibility (1/GPa) = 0.02650927
#
# Stress axis : x y z
#
# Youngs Moduli (GPa) = 41.00897 174.81811 82.71816
#
# Poissons Ratio (x) = 0.35357 0.28503
# Poissons Ratio (y) = 0.08294 0.19640
# Poissons Ratio (z) = 0.14131 0.41507
#
# Static dielectric constant tensor:
#      x y z
#    x 2.367560 -0.195680 0.143950 
#    y -0.195680 1.736940 0.428780 
#    z 0.143950 0.428780 1.562000 
# 
# From -- ./inp_files/53538.got.cif
#   From: 2010.05.17/outbox.cif.g08.bks.cpg/sg2_27_cif.got.tgz:53538.got - 2010.06.03 11:33:40.
