data_PCOD9065510
_publ_section_title
;
Structure prediction by ZEFSAII (Michael W. Deem and Ramdas Pophale) SiO2 
 PCOD9065510
Probable space group: P -1
;
_chemical_formula_sum "Si O2"
_cell_formula_units_Z 13
_cell_length_a 11.761885
_cell_length_b 9.373467
_cell_length_c 5.339924
_cell_angle_alpha 111.207703
_cell_angle_beta 80.790333
_cell_angle_gamma 114.963267
_cell_volume 497.559793
_symmetry_space_group_name_H-M "P -1"
_symmetry_group_IT_number 2
_symmetry_cell_setting 'triclinic'
loop_
_space_group_symop_operation_xyz
x,y,z
-x,-y,-z
loop_
_atom_site_type_symbol
_atom_site_label
_atom_site_fract_x
_atom_site_fract_y
_atom_site_fract_z
Si Si1 0.077433 0.387971 0.437112
Si Si2 0.678488 0.306549 0.361169
Si Si3 0.000000 0.000000 0.000000
Si Si4 0.609917 0.527206 0.174237
Si Si5 0.892738 0.754188 0.160234
Si Si6 0.586339 0.841370 0.476214
Si Si7 0.730796 0.002974 0.015121
O O1 0.221900 0.518803 0.458847
O O2 0.047462 0.245444 0.142207
O O3 0.000000 0.500000 0.500000
O O4 0.054671 0.312430 0.673043
O O5 0.615849 0.363145 0.186478
O O6 0.562212 0.203080 0.513267
O O7 0.752623 0.193610 0.190080
O O8 0.923690 0.946016 0.265664
O O9 0.142886 0.024855 0.095120
O O10 0.595967 0.667038 0.447701
O O11 0.500000 0.500000 0.000000
O O12 0.750940 0.631244 0.099434
O O13 0.652074 0.900149 0.220590
O O14 0.649781 0.960974 0.761135
#
# Coordination Sequence:
#
# PCOD9065510 Si02
#       7
#     2   2   1   2   2   2   2
#     4  11  25  47  74 108 150 192 261 311 388 445
#     4  11  26  46  77 115 151 199 253 325 382 450
#     4  12  28  50  76 104 166 198 268 296 404 448
#     4  11  24  48  79 113 150 201 252 315 386 458
#     4  11  26  44  74 107 144 202 252 311 372 465
#     4  12  26  49  76 109 155 199 257 311 391 457
#     4  12  29  48  75 111 154 206 252 318 379 461
#
# _framework density 26.127513
#
# number of rings (size 3 to 8) (size 9 to 14) (size 15 to 20)
#    0.000    0.615    1.538    4.615    4.308    9.846 
#    0.000    0.000    0.000    0.000    0.000    0.000 
#    0.000    0.000    0.000    0.000    0.000    0.000 
#
# Total GULP energy -72553.243359 kJ/mol
# GULP energy per Si atom -5581.018720 kJ/mol
# Density = 2.606805 g / cm^3
# Si number density = 26.127513 Si / 1000 Ang^3
#
#
#
# Elastic Constant Matrix: (Units=GPa)
#
#
# Indices 1 2 3 4 5 6 
#
# 1 130.6207 39.8591 33.6617 -31.1485 8.6135 -4.0524
# 2 39.8591 120.6573 30.4592 -25.0196 6.7832 9.2017
# 3 33.6617 30.4592 109.0614 -12.0857 10.9050 7.3544
# 4 -31.1485 -25.0196 -12.0857 46.6201 -3.7360 -8.7034
# 5 8.6135 6.7832 10.9050 -3.7360 40.7608 11.4137
# 6 -4.0524 9.2017 7.3544 -8.7034 11.4137 46.9750
#
#
#
# Elastic Compliance Matrix: (Units=1/GPa)
#
#
# Indices 1 2 3 4 5 6 
#
# 1 0.010341 -0.001823 -0.002078 0.005831 -0.001647 0.003055
# 2 -0.001823 0.010177 -0.001790 0.003547 -0.000177 -0.001170
# 3 -0.002078 -0.001790 0.010566 0.000053 -0.001795 -0.001037
# 4 0.005831 0.003547 0.000053 0.028175 -0.000708 0.005192
# 5 -0.001647 -0.000177 -0.001795 -0.000708 0.027162 -0.006557
# 6 0.003055 -0.001170 -0.001037 0.005192 -0.006557 0.024498
#
#
# Mechanical properties :
#
#
# Convention : Reuss Voigt Hill
#
# Bulk Modulus (GPa) = 50.75630 63.14438 56.95034
# Shear Modulus (GPa) = 38.79922 43.96181 41.38052
#
# Velocity S-wave (km/s) = 3.85774 4.10638 3.98400
# Velocity P-wave (km/s) = 6.26989 6.83399 6.55801
#
# Compressibility (1/GPa) = 0.01970199
#
# Stress axis : x y z
#
# Youngs Moduli (GPa) = 96.69913 98.26384 94.64697
#
# Poissons Ratio (x) = 0.17914 0.19667
# Poissons Ratio (y) = 0.17629 0.16941
# Poissons Ratio (z) = 0.20093 0.17588
#
# Static dielectric constant tensor:
#      x y z
#    x 2.117030 0.065350 0.007130 
#    y 0.065350 2.789090 0.169980 
#    z 0.007130 0.169980 2.161420 
# 
# From -- ./inp_files/61182.got.cif
#   From: 2010.05.17/outbox.cif.g08.bks.cpg/sg2_31_cif.got.tgz:61182.got - 2010.06.03 11:33:40.
