data_PCOD9065530
_publ_section_title
;
Structure prediction by ZEFSAII (Michael W. Deem and Ramdas Pophale) SiO2 
 PCOD9065530
Probable space group: P -1
;
_chemical_formula_sum "Si O2"
_cell_formula_units_Z 13
_cell_length_a 7.079515
_cell_length_b 11.228308
_cell_length_c 9.541214
_cell_angle_alpha 60.068735
_cell_angle_beta 91.557361
_cell_angle_gamma 124.866920
_cell_volume 502.517490
_symmetry_space_group_name_H-M "P -1"
_symmetry_group_IT_number 2
_symmetry_cell_setting 'triclinic'
loop_
_space_group_symop_operation_xyz
x,y,z
-x,-y,-z
loop_
_atom_site_type_symbol
_atom_site_label
_atom_site_fract_x
_atom_site_fract_y
_atom_site_fract_z
Si Si1 0.665068 0.554880 0.643996
Si Si2 0.477374 0.751818 0.493759
Si Si3 0.887755 0.652934 0.891163
Si Si4 0.589131 0.251674 0.197595
Si Si5 0.892866 0.796828 0.099080
Si Si6 0.000000 0.500000 0.500000
Si Si7 0.642635 0.055916 0.826525
O O1 0.634477 0.691550 0.493782
O O2 0.814315 0.511830 0.585761
O O3 0.796704 0.652605 0.736479
O O4 0.393192 0.365203 0.779640
O O5 0.534940 0.826978 0.607870
O O6 0.190758 0.575553 0.593861
O O7 0.928665 0.773423 0.950783
O O8 0.153892 0.708877 0.837790
O O9 0.677275 0.447735 0.059645
O O10 0.411241 0.109010 0.158749
O O11 0.073312 0.795079 0.209962
O O12 0.000000 0.000000 0.000000
O O13 0.455579 0.866894 0.317694
O O14 0.500000 0.000000 0.000000
#
# Coordination Sequence:
#
# PCOD9065530 Si02
#       7
#     2   2   2   2   2   1   2
#     4  12  27  52  83 123 165 219 284 335 422 500
#     4  12  27  48  81 118 164 220 276 341 421 488
#     4  11  24  48  83 118 163 220 271 341 412 505
#     4  11  24  49  78 120 165 221 273 332 426 492
#     4  12  27  48  83 128 166 219 281 343 414 498
#     4  12  28  50  80 120 164 216 276 354 400 492
#     4  12  28  50  79 119 174 218 277 350 415 496
#
# _framework density 25.869745999999999
#
# number of rings (size 3 to 8) (size 9 to 14) (size 15 to 20)
#    0.000    0.308    4.615    3.231    6.462    0.000 
#    0.000    0.769    0.000    0.000    0.000    0.000 
#    0.000    0.000    0.000    0.000    0.000    0.000 
#
# Total GULP energy -72657.150390 kJ/mol
# GULP energy per Si atom -5589.011568 kJ/mol
# Density = 2.581086 g / cm^3
# Si number density = 25.869746 Si / 1000 Ang^3
#
#
#
# Elastic Constant Matrix: (Units=GPa)
#
#
# Indices 1 2 3 4 5 6 
#
# 1 147.8213 45.5889 43.7956 19.0301 -30.1888 -7.2213
# 2 45.5889 197.8983 42.7109 27.7751 -4.2831 -8.9652
# 3 43.7956 42.7109 102.9478 22.9715 1.0095 -14.6164
# 4 19.0301 27.7751 22.9715 59.7791 -5.7654 -0.5938
# 5 -30.1888 -4.2831 1.0095 -5.7654 39.6824 7.4634
# 6 -7.2213 -8.9652 -14.6164 -0.5938 7.4634 53.9156
#
#
#
# Elastic Compliance Matrix: (Units=1/GPa)
#
#
# Indices 1 2 3 4 5 6 
#
# 1 0.009822 -0.001276 -0.003780 -0.000361 0.007561 -0.000972
# 2 -0.001276 0.005923 -0.001423 -0.001858 -0.000659 0.000499
# 3 -0.003780 -0.001423 0.013256 -0.003633 -0.004541 0.003439
# 4 -0.000361 -0.001858 -0.003633 0.019349 0.002711 -0.001504
# 5 0.007561 -0.000659 -0.004541 0.002711 0.032287 -0.004768
# 6 -0.000972 0.000499 0.003439 -0.001504 -0.004768 0.020076
#
#
# Mechanical properties :
#
#
# Convention : Reuss Voigt Hill
#
# Bulk Modulus (GPa) = 62.33620 79.20647 70.77134
# Shear Modulus (GPa) = 42.01026 51.78020 46.89523
#
# Velocity S-wave (km/s) = 4.03415 4.47875 4.26225
# Velocity P-wave (km/s) = 6.77109 7.57822 7.18600
#
# Compressibility (1/GPa) = 0.01604204
#
# Stress axis : x y z
#
# Youngs Moduli (GPa) = 101.81550 168.82650 75.43983
#
# Poissons Ratio (x) = 0.21549 0.28518
# Poissons Ratio (y) = 0.12996 0.10732
# Poissons Ratio (z) = 0.38489 0.24017
#
# Static dielectric constant tensor:
#      x y z
#    x 2.562660 -0.483830 0.409980 
#    y -0.483830 2.412320 -0.377690 
#    z 0.409980 -0.377690 2.322440 
# 
# From -- ./inp_files/185946.got.cif
#   From: 2010.05.17/outbox.cif.g08.bks.cpg/sg2_93_cif.got.tgz:185946.got - 2010.06.03 11:33:40.
