data_PCOD9065281
_publ_section_title
;
Structure prediction by ZEFSAII (Michael W. Deem and Ramdas Pophale) SiO2 
 PCOD9065281
Probable space group: P -1
;
_chemical_formula_sum "Si O2"
_cell_formula_units_Z 14
_cell_length_a 20.423076
_cell_length_b 14.327164
_cell_length_c 11.456565
_cell_angle_alpha 148.249026
_cell_angle_beta 31.533062
_cell_angle_gamma 159.798535
_cell_volume 581.327537
_symmetry_space_group_name_H-M "P -1"
_symmetry_group_IT_number 2
_symmetry_cell_setting 'triclinic'
loop_
_space_group_symop_operation_xyz
x,y,z
-x,-y,-z
loop_
_atom_site_type_symbol
_atom_site_label
_atom_site_fract_x
_atom_site_fract_y
_atom_site_fract_z
Si Si1 0.042426 0.563120 0.366432
Si Si2 0.792471 0.358731 0.326191
Si Si3 0.774962 0.724448 0.518887
Si Si4 0.750764 0.087070 0.871448
Si Si5 0.814133 0.898886 0.230102
Si Si6 0.659001 0.418882 0.131146
Si Si7 0.492470 0.653623 0.265288
O O1 0.000000 0.500000 0.500000
O O2 0.857281 0.321295 0.304067
O O3 0.107793 0.840178 0.545182
O O4 0.206311 0.596826 0.127847
O O5 0.609194 0.282109 0.567069
O O6 0.022819 0.660467 0.252258
O O7 0.722637 0.182703 0.127704
O O8 0.726047 0.551021 0.298496
O O9 0.679785 0.550895 0.594866
O O10 0.703210 0.840858 0.728106
O O11 0.000000 0.000000 0.500000
O O12 0.567043 0.900661 0.864145
O O13 0.708670 0.643041 0.207794
O O14 0.681813 0.831932 0.252842
O O15 0.000000 0.000000 0.000000
O O16 0.500000 0.500000 0.000000
#
# Coordination Sequence:
#
# PCOD9065281 Si02
#       7
#     2   2   2   2   2   2   2
#     4  12  27  48  76 108 156 208 253 318 387 458
#     4  11  26  48  76 112 154 199 258 323 385 461
#     4  12  25  46  76 111 149 201 252 315 391 451
#     4  11  24  47  77 112 152 196 258 324 381 454
#     4  12  26  49  79 112 154 202 257 315 392 455
#     4  12  27  48  79 114 154 202 264 320 380 472
#     4  12  28  47  75 111 151 200 251 320 387 463
#
# _framework density 24.082809999999998
#
# number of rings (size 3 to 8) (size 9 to 14) (size 15 to 20)
#    0.000    0.286    4.286    3.857    6.000    1.714 
#    0.000    2.143    0.000    0.000    0.000    0.000 
#    0.000    0.000    0.000    0.000    0.000    0.000 
#
# Total GULP energy -78148.171414 kJ/mol
# GULP energy per Si atom -5582.012244 kJ/mol
# Density = 2.402800 g / cm^3
# Si number density = 24.082810 Si / 1000 Ang^3
#
#
#
# Elastic Constant Matrix: (Units=GPa)
#
#
# Indices 1 2 3 4 5 6 
#
# 1 208.1036 59.5356 520.5913 -388.4150 204.6459 94.2807
# 2 59.5356 112.4083 154.1077 -87.6926 47.1539 46.8760
# 3 520.5913 154.1077 2521.0258-1827.9572 921.7705 404.4950
# 4 -388.4150 -87.6926-1827.9572 1470.9134 -702.1144 -307.6109
# 5 204.6459 47.1539 921.7705 -702.1144 414.6163 156.2625
# 6 94.2807 46.8760 404.4950 -307.6109 156.2625 117.6126
#
#
#
# Elastic Compliance Matrix: (Units=1/GPa)
#
#
# Indices 1 2 3 4 5 6 
#
# 1 0.011290 -0.003362 -0.000673 0.000897 -0.002055 -0.000321
# 2 -0.003362 0.012525 -0.001584 -0.002491 0.001614 -0.005510
# 3 -0.000673 -0.001584 0.004995 0.004498 -0.002757 -0.000582
# 4 0.000897 -0.002491 0.004498 0.008276 0.002853 0.002659
# 5 -0.002055 0.001614 -0.002757 0.002853 0.014899 -0.001849
# 6 -0.000321 -0.005510 -0.000582 0.002659 -0.001849 0.022367
#
#
# Mechanical properties :
#
#
# Convention : Reuss Voigt Hill
#
# Bulk Modulus (GPa) = 56.90379 478.88966 267.89672
# Shear Modulus (GPa) = 54.67545 541.11534 297.89540
#
# Velocity S-wave (km/s) = 4.76995 15.00591 11.13395
# Velocity P-wave (km/s) = 7.34957 22.34993 16.63634
#
# Compressibility (1/GPa) = 0.01757352
#
# Stress axis : x y z
#
# Youngs Moduli (GPa) = 88.57296 79.83843 200.18994
#
# Poissons Ratio (x) = 0.26840 0.13475
# Poissons Ratio (y) = 0.29776 0.31705
# Poissons Ratio (z) = 0.05962 0.12644
#
# Static dielectric constant tensor:
#      x y z
#    x 1.151410 -0.340680 0.115210 
#    y -0.340680 1.810010 0.068550 
#    z 0.115210 0.068550 1.856050 
# 
# From -- ./inp_files/471990.got.cif
#   From: 2010.05.17/outbox.cif.g08.bks.cpg/sg2_236_cif.got.tgz:471990.got - 2010.06.03 11:33:40.
