data_PCOD9065752
_publ_section_title
;
Structure prediction by ZEFSAII (Michael W. Deem and Ramdas Pophale) SiO2 
 PCOD9065752
Probable space group: P -1
;
_chemical_formula_sum "Si O2"
_cell_formula_units_Z 16
_cell_length_a 21.902999
_cell_length_b 22.434922
_cell_length_c 5.071658
_cell_angle_alpha 106.877190
_cell_angle_beta 70.775913
_cell_angle_gamma 165.678646
_cell_volume 577.674681
_symmetry_space_group_name_H-M "P -1"
_symmetry_group_IT_number 2
_symmetry_cell_setting 'triclinic'
loop_
_space_group_symop_operation_xyz
x,y,z
-x,-y,-z
loop_
_atom_site_type_symbol
_atom_site_label
_atom_site_fract_x
_atom_site_fract_y
_atom_site_fract_z
Si Si1 0.597844 0.351623 0.169737
Si Si2 0.617144 0.161181 0.736572
Si Si3 0.908444 0.195313 0.297529
Si Si4 0.597456 0.659772 0.103900
Si Si5 0.109783 0.692843 0.190010
Si Si6 0.611143 0.260082 0.458407
Si Si7 0.857006 0.692813 0.618201
Si Si8 0.214069 0.103722 0.331219
O O1 0.522012 0.227001 0.319786
O O2 0.369620 0.183439 0.184894
O O3 0.753273 0.542294 0.388325
O O4 0.819519 0.541265 0.891083
O O5 0.825891 0.312748 0.774801
O O6 0.703462 0.295936 0.592807
O O7 0.500000 0.000000 0.500000
O O8 0.367013 0.943786 0.984633
O O9 0.907353 0.257149 0.559103
O O10 0.938615 0.153051 0.304223
O O11 0.628294 0.940668 0.258780
O O12 0.659338 0.736404 0.413531
O O13 0.365287 0.487381 0.122137
O O14 0.500000 0.500000 0.000000
O O15 0.812252 0.881943 0.880928
O O16 0.824209 0.428664 0.155640
O O17 0.955722 0.840302 0.488340
#
# Coordination Sequence:
#
# PCOD9065752 Si02
#       8
#     2   2   2   2   2   2   2   2
#     4  11  25  42  66 101 139 178 234 293 356 424
#     4  11  25  48  65  93 133 173 235 288 351 435
#     4  12  24  43  67  99 135 173 231 292 349 427
#     4  11  26  48  74 110 151 192 242 290 347 424
#     4  11  26  46  65  96 130 177 227 295 353 427
#     4  12  24  42  68  95 128 181 219 286 363 412
#     4  11  25  43  69 102 144 183 239 291 348 427
#     4  11  25  45  75 107 144 197 234 293 358 412
#
# _framework density 27.697251999999999
#
# number of rings (size 3 to 8) (size 9 to 14) (size 15 to 20)
#    0.000    0.750    5.000    1.500    1.750    3.500 
#    0.000    0.000    0.000    0.000    0.000    0.000 
#    0.000    0.000    0.000    0.000    0.000    0.000 
#
# Total GULP energy -89098.188431 kJ/mol
# GULP energy per Si atom -5568.636777 kJ/mol
# Density = 2.763421 g / cm^3
# Si number density = 27.697252 Si / 1000 Ang^3
#
#
#
# Elastic Constant Matrix: (Units=GPa)
#
#
# Indices 1 2 3 4 5 6 
#
# 1 202.8024 -6.7968 53.9365 -0.7567 12.1714 -21.6508
# 2 -6.7968 47.0437 -6.5383 -11.5637 -9.8738 -2.3955
# 3 53.9365 -6.5383 105.3324 -6.7276 -1.1067 -12.8653
# 4 -0.7567 -11.5637 -6.7276 42.6786 -12.6248 -4.5570
# 5 12.1714 -9.8738 -1.1067 -12.6248 55.3689 -8.7449
# 6 -21.6508 -2.3955 -12.8653 -4.5570 -8.7449 50.2179
#
#
#
# Elastic Compliance Matrix: (Units=1/GPa)
#
#
# Indices 1 2 3 4 5 6 
#
# 1 0.005942 0.000167 -0.002883 -0.000489 -0.001196 0.001578
# 2 0.000167 0.026005 0.002785 0.010212 0.007662 0.004287
# 3 -0.002883 0.002785 0.011728 0.003610 0.002611 0.002677
# 4 -0.000489 0.010212 0.003610 0.030259 0.009793 0.005652
# 5 -0.001196 0.007662 0.002611 0.009793 0.022825 0.005382
# 6 0.001578 0.004287 0.002677 0.005652 0.005382 0.022934
#
#
# Mechanical properties :
#
#
# Convention : Reuss Voigt Hill
#
# Bulk Modulus (GPa) = 22.82498 48.48680 35.65589
# Shear Modulus (GPa) = 37.26925 50.62488 43.94707
#
# Velocity S-wave (km/s) = 3.67221 4.27991 3.98765
# Velocity P-wave (km/s) = 5.12240 6.47823 5.83980
#
# Compressibility (1/GPa) = 0.04381165
#
# Stress axis : x y z
#
# Youngs Moduli (GPa) = 168.29963 38.45470 85.26609
#
# Poissons Ratio (x) = -0.00641 0.24584
# Poissons Ratio (y) = -0.02806 -0.23748
# Poissons Ratio (z) = 0.48525 -0.10710
#
# Static dielectric constant tensor:
#      x y z
#    x 2.068460 0.002440 0.023700 
#    y 0.002440 2.332090 -0.033010 
#    z 0.023700 -0.033010 2.158030 
# 
# From -- ./inp_files/120413.got.cif
#   From: 2010.05.17/outbox.cif.g08.bks.cpg/sg2_61_cif.got.tgz:120413.got - 2010.06.03 11:33:40.
