data_PCOD9065965
_publ_section_title
;
Structure prediction by ZEFSAII (Michael W. Deem and Ramdas Pophale) SiO2 
 PCOD9065965
Probable space group: P -1
;
_chemical_formula_sum "Si O2"
_cell_formula_units_Z 16
_cell_length_a 17.148521
_cell_length_b 9.656652
_cell_length_c 9.760576
_cell_angle_alpha 117.759830
_cell_angle_beta 149.296462
_cell_angle_gamma 52.598930
_cell_volume 649.225304
_symmetry_space_group_name_H-M "P -1"
_symmetry_group_IT_number 2
_symmetry_cell_setting 'triclinic'
loop_
_space_group_symop_operation_xyz
x,y,z
-x,-y,-z
loop_
_atom_site_type_symbol
_atom_site_label
_atom_site_fract_x
_atom_site_fract_y
_atom_site_fract_z
Si Si1 0.159977 0.605246 0.233016
Si Si2 0.771751 0.525842 0.153000
Si Si3 0.428479 0.685096 0.552898
Si Si4 0.214253 0.234291 0.147873
Si Si5 0.253702 0.981191 0.838339
Si Si6 0.704181 0.398107 0.264591
Si Si7 0.616466 0.944776 0.410094
Si Si8 0.905541 0.788401 0.543411
O O1 0.243448 0.716608 0.340579
O O2 0.215560 0.409418 0.168657
O O3 0.234579 0.573085 0.483774
O O4 0.958178 0.702194 0.993538
O O5 0.781032 0.472817 0.300203
O O6 0.849257 0.660032 0.314982
O O7 0.894986 0.340224 0.179413
O O8 0.572380 0.631567 0.863103
O O9 0.500000 0.500000 0.500000
O O10 0.420706 0.852277 0.539975
O O11 0.356082 0.139529 0.436194
O O12 0.209160 0.112105 0.960959
O O13 0.138979 0.058903 0.564756
O O14 0.242947 0.804754 0.777712
O O15 0.452439 0.937211 0.089483
O O16 0.500000 0.500000 0.000000
O O17 0.780411 0.856890 0.516267
#
# Coordination Sequence:
#
# PCOD9065965 Si02
#       8
#     2   2   2   2   2   2   2   2
#     4  11  25  47  71 102 141 182 229 284 348 413
#     4  11  25  44  70 101 138 179 226 281 348 406
#     4  12  27  44  69  98 142 182 230 279 344 412
#     4  11  27  46  72 103 140 184 230 287 346 411
#     4  12  25  45  74 104 140 177 235 288 346 408
#     4  12  24  43  72 103 135 178 231 285 344 409
#     4  12  26  45  73 102 138 183 233 283 345 411
#     4  11  25  45  73 101 137 180 230 286 342 411
#
# _framework density 24.644757999999999
#
# number of rings (size 3 to 8) (size 9 to 14) (size 15 to 20)
#    0.000    0.500    2.500    5.250    3.500    5.500 
#    0.000    0.000    0.000    0.000    0.000    0.000 
#    0.000    0.000    0.000    0.000    0.000    0.000 
#
# Total GULP energy -89630.379161 kJ/mol
# GULP energy per Si atom -5601.898698 kJ/mol
# Density = 2.458867 g / cm^3
# Si number density = 24.644758 Si / 1000 Ang^3
#
#
#
# Elastic Constant Matrix: (Units=GPa)
#
#
# Indices 1 2 3 4 5 6 
#
# 1 52.7369 10.1657 0.5571 -9.5513 1.1839 -7.2408
# 2 10.1657 106.6458 9.2441 5.5625 -8.9057 -6.1742
# 3 0.5571 9.2441 74.9293 -5.3367 4.3606 5.7145
# 4 -9.5513 5.5625 -5.3367 33.3817 -3.6050 4.0537
# 5 1.1839 -8.9057 4.3606 -3.6050 43.5107 1.8084
# 6 -7.2408 -6.1742 5.7145 4.0537 1.8084 48.5446
#
#
#
# Elastic Compliance Matrix: (Units=1/GPa)
#
#
# Indices 1 2 3 4 5 6 
#
# 1 0.020818 -0.002259 0.000419 0.006050 -0.000665 0.002288
# 2 -0.002259 0.010108 -0.001626 -0.002526 0.002031 0.001275
# 3 0.000419 -0.001626 0.013969 0.002707 -0.001438 -0.001961
# 4 0.006050 -0.002526 0.002707 0.033058 0.001893 -0.002568
# 5 -0.000665 0.002031 -0.001438 0.001893 0.023747 -0.000714
# 6 0.002288 0.001275 -0.001961 -0.002568 -0.000714 0.021575
#
#
# Mechanical properties :
#
#
# Convention : Reuss Voigt Hill
#
# Bulk Modulus (GPa) = 26.34084 30.47174 28.40629
# Shear Modulus (GPa) = 34.99872 39.37706 37.18789
#
# Velocity S-wave (km/s) = 3.77255 4.00157 3.88874
# Velocity P-wave (km/s) = 5.44863 5.80873 5.63156
#
# Compressibility (1/GPa) = 0.03796387
#
# Stress axis : x y z
#
# Youngs Moduli (GPa) = 48.03529 98.92835 71.58491
#
# Poissons Ratio (x) = 0.22352 -0.03000
# Poissons Ratio (y) = 0.10853 0.11637
# Poissons Ratio (z) = -0.02013 0.16082
#
# Static dielectric constant tensor:
#      x y z
#    x 1.947210 -0.046840 0.003840 
#    y -0.046840 1.956930 -0.052980 
#    z 0.003840 -0.052980 2.143870 
# 
# From -- ./inp_files/462381.got.cif
#   From: 2010.05.17/outbox.cif.g08.bks.cpg/sg2_232_cif.got.tgz:462381.got - 2010.06.03 11:33:40.
