data_PCOD9065370
_publ_section_title
;
Structure prediction by ZEFSAII (Michael W. Deem and Ramdas Pophale) SiO2 
 PCOD9065370
Probable space group: P -1
;
_chemical_formula_sum "Si O2"
_cell_formula_units_Z 16
_cell_length_a 13.171224
_cell_length_b 9.643527
_cell_length_c 19.029969
_cell_angle_alpha 38.418790
_cell_angle_beta 151.598852
_cell_angle_gamma 130.332475
_cell_volume 707.183837
_symmetry_space_group_name_H-M "P -1"
_symmetry_group_IT_number 2
_symmetry_cell_setting 'triclinic'
loop_
_space_group_symop_operation_xyz
x,y,z
-x,-y,-z
loop_
_atom_site_type_symbol
_atom_site_label
_atom_site_fract_x
_atom_site_fract_y
_atom_site_fract_z
Si Si1 0.431687 0.061331 0.354381
Si Si2 0.113797 0.430710 0.669609
Si Si3 0.035514 0.076554 0.874381
Si Si4 0.426053 0.569373 0.100442
Si Si5 0.564874 0.242009 0.819208
Si Si6 0.981665 0.529856 0.184392
Si Si7 0.900214 0.792809 0.492561
Si Si8 0.383645 0.407607 0.399008
O O1 0.475916 0.308532 0.260638
O O2 0.500000 0.000000 0.500000
O O3 0.558574 0.860910 0.464185
O O4 0.176466 0.043496 0.199986
O O5 0.008481 0.247998 0.723190
O O6 0.364343 0.355851 0.837391
O O7 0.000000 0.500000 0.500000
O O8 0.074411 0.655179 0.602528
O O9 0.057620 0.228136 0.897182
O O10 0.253809 0.914627 0.052317
O O11 0.369569 0.720429 0.075484
O O12 0.235913 0.563750 0.931343
O O13 0.331661 0.159761 0.704582
O O14 0.539279 0.483656 0.668284
O O15 0.115432 0.369179 0.386419
O O16 0.132482 0.501320 0.219382
O O17 0.000000 0.000000 0.500000
O O18 0.500000 0.500000 0.500000
#
# Coordination Sequence:
#
# PCOD9065370 Si02
#       8
#     2   2   2   2   2   2   2   2
#     4  12  25  45  72 103 138 185 231 284 346 407
#     4  11  24  48  71  98 142 184 225 283 347 411
#     4  11  27  45  70 101 144 180 229 288 341 406
#     4  12  28  44  71 106 140 178 235 286 343 407
#     4  12  26  47  69 103 142 179 227 292 339 408
#     4  11  27  45  68 104 139 178 229 286 344 409
#     4  11  26  45  70  99 138 183 232 277 344 414
#     4  12  23  44  73  98 139 182 229 280 346 408
#
# _framework density 22.624950999999999
#
# number of rings (size 3 to 8) (size 9 to 14) (size 15 to 20)
#    0.000    0.500    5.000    2.250    8.750    4.500 
#    0.000    0.000    0.000    0.000    0.000    0.000 
#    0.000    0.000    0.000    0.000    0.000    0.000 
#
# Total GULP energy -89551.124706 kJ/mol
# GULP energy per Si atom -5596.945294 kJ/mol
# Density = 2.257346 g / cm^3
# Si number density = 22.624951 Si / 1000 Ang^3
#
#
#
# Elastic Constant Matrix: (Units=GPa)
#
#
# Indices 1 2 3 4 5 6 
#
# 1 77.6221 14.5573 4.3975 1.1097 12.5463 -3.3480
# 2 14.5573 84.8381 10.7800 -7.7718 9.7968 -16.8907
# 3 4.3975 10.7800 75.9371 9.4838 12.2298 -9.8579
# 4 1.1097 -7.7718 9.4838 45.5818 -4.8293 3.6695
# 5 12.5463 9.7968 12.2298 -4.8293 44.7321 -2.3164
# 6 -3.3480 -16.8907 -9.8579 3.6695 -2.3164 33.7155
#
#
#
# Elastic Compliance Matrix: (Units=1/GPa)
#
#
# Indices 1 2 3 4 5 6 
#
# 1 0.013865 -0.002037 0.000252 -0.001145 -0.003619 0.000306
# 2 -0.002037 0.013855 -0.001034 0.001960 -0.001652 0.006109
# 3 0.000252 -0.001034 0.015009 -0.004074 -0.004177 0.004051
# 4 -0.001145 0.001960 -0.004074 0.023727 0.003429 -0.002670
# 5 -0.003619 -0.001652 -0.004177 0.003429 0.025190 -0.001051
# 6 0.000306 0.006109 0.004051 -0.002670 -0.001051 0.034154
#
#
# Mechanical properties :
#
#
# Convention : Reuss Voigt Hill
#
# Bulk Modulus (GPa) = 26.96200 33.09630 30.02915
# Shear Modulus (GPa) = 34.77003 38.71672 36.74337
#
# Velocity S-wave (km/s) = 3.92446 4.14120 4.03429
# Velocity P-wave (km/s) = 5.69894 6.12585 5.91625
#
# Compressibility (1/GPa) = 0.03708923
#
# Stress axis : x y z
#
# Youngs Moduli (GPa) = 72.12249 72.17680 66.62845
#
# Poissons Ratio (x) = 0.14704 -0.01679
# Poissons Ratio (y) = 0.14693 0.06893
# Poissons Ratio (z) = -0.01817 0.07467
#
# Static dielectric constant tensor:
#      x y z
#    x 1.527510 0.001840 -0.148300 
#    y 0.001840 1.831030 -0.042710 
#    z -0.148300 -0.042710 1.794690 
# 
# From -- ./inp_files/208555.got.cif
#   From: 2010.05.17/outbox.cif.g08.bks.cpg/sg2_105_cif.got.tgz:208555.got - 2010.06.03 11:33:40.
