data_PCOD9065792
_publ_section_title
;
Structure prediction by ZEFSAII (Michael W. Deem and Ramdas Pophale) SiO2 
 PCOD9065792
Probable space group: P -1
;
_chemical_formula_sum "Si O2"
_cell_formula_units_Z 16
_cell_length_a 21.228198
_cell_length_b 5.583100
_cell_length_c 10.242670
_cell_angle_alpha 66.265323
_cell_angle_beta 141.492377
_cell_angle_gamma 114.635495
_cell_volume 680.758364
_symmetry_space_group_name_H-M "P -1"
_symmetry_group_IT_number 2
_symmetry_cell_setting 'triclinic'
loop_
_space_group_symop_operation_xyz
x,y,z
-x,-y,-z
loop_
_atom_site_type_symbol
_atom_site_label
_atom_site_fract_x
_atom_site_fract_y
_atom_site_fract_z
Si Si1 0.033382 0.800044 0.353356
Si Si2 0.664572 0.049361 0.861250
Si Si3 0.306109 0.563747 0.567893
Si Si4 0.545899 0.762057 0.193416
Si Si5 0.675267 0.537466 0.103370
Si Si6 0.167386 0.574520 0.834712
Si Si7 0.428024 0.065920 0.523291
Si Si8 0.924665 0.561018 0.752718
O O1 0.093266 0.733186 0.596072
O O2 0.064790 0.622413 0.319708
O O3 0.911152 0.690329 0.194869
O O4 0.055176 0.120024 0.308222
O O5 0.635980 0.883100 0.718006
O O6 0.551647 0.123813 0.689775
O O7 0.764627 0.278282 0.968447
O O8 0.695084 0.856739 0.064565
O O9 0.363893 0.314811 0.728066
O O10 0.302504 0.635676 0.698715
O O11 0.379739 0.762671 0.550367
O O12 0.188892 0.508564 0.353752
O O13 0.590897 0.796418 0.403611
O O14 0.446297 0.536404 0.094316
O O15 0.500000 0.000000 0.000000
O O16 0.744283 0.466654 0.113896
O O17 0.000000 0.500000 0.000000
#
# Coordination Sequence:
#
# PCOD9065792 Si02
#       8
#     2   2   2   2   2   2   2   2
#     4  11  28  52  76 111 148 198 265 322 384 447
#     4  11  25  44  67 104 148 195 240 308 373 461
#     4  12  26  44  73 104 148 195 245 313 376 452
#     4  12  24  41  70 107 149 192 244 303 379 462
#     4  12  23  42  71 107 140 193 248 305 372 462
#     4  11  26  45  78 102 145 196 251 321 381 446
#     4  11  25  43  65 104 151 186 244 295 383 454
#     4  12  29  52  77 111 153 202 262 323 383 453
#
# _framework density 23.5032
#
# number of rings (size 3 to 8) (size 9 to 14) (size 15 to 20)
#    0.000    0.500    5.000    2.250    7.000    2.500 
#    0.000    0.000    0.000    0.000    0.000    0.000 
#    0.000    0.000    0.000    0.000    0.000    0.000 
#
# Total GULP energy -89278.028523 kJ/mol
# GULP energy per Si atom -5579.876783 kJ/mol
# Density = 2.344971 g / cm^3
# Si number density = 23.503200 Si / 1000 Ang^3
#
#
#
# Elastic Constant Matrix: (Units=GPa)
#
#
# Indices 1 2 3 4 5 6 
#
# 1 64.4538 11.2081 25.6465 10.6643 0.4424 3.2591
# 2 11.2081 69.1481 39.2232 10.5582 10.3792 -5.0562
# 3 25.6465 39.2232 117.6266 30.6037 18.0853 16.5725
# 4 10.6643 10.5582 30.6037 39.5887 5.3790 1.7301
# 5 0.4424 10.3792 18.0853 5.3790 35.8630 4.8004
# 6 3.2591 -5.0562 16.5725 1.7301 4.8004 20.9853
#
#
#
# Elastic Compliance Matrix: (Units=1/GPa)
#
#
# Indices 1 2 3 4 5 6 
#
# 1 0.017314 -0.001135 -0.002998 -0.002289 0.002088 -0.000884
# 2 -0.001135 0.020463 -0.007984 0.000986 -0.003658 0.012168
# 3 -0.002998 -0.007984 0.016368 -0.008760 -0.002851 -0.013010
# 4 -0.002289 0.000986 -0.008760 0.032348 -0.001382 0.005161
# 5 0.002088 -0.003658 -0.002851 -0.001382 0.031367 -0.006015
# 6 -0.000884 0.012168 -0.013010 0.005161 -0.006015 0.061946
#
#
# Mechanical properties :
#
#
# Convention : Reuss Voigt Hill
#
# Bulk Modulus (GPa) = 33.43142 44.82048 39.12595
# Shear Modulus (GPa) = 23.36334 30.96411 27.16373
#
# Velocity S-wave (km/s) = 3.15628 3.63360 3.40331
# Velocity P-wave (km/s) = 5.24765 6.05932 5.66803
#
# Compressibility (1/GPa) = 0.02991198
#
# Stress axis : x y z
#
# Youngs Moduli (GPa) = 57.75604 48.86880 61.09448
#
# Poissons Ratio (x) = 0.05545 0.18314
# Poissons Ratio (y) = 0.06553 0.48780
# Poissons Ratio (z) = 0.17313 0.39019
#
# Static dielectric constant tensor:
#      x y z
#    x 1.702250 -0.095760 0.040390 
#    y -0.095760 2.132380 0.002000 
#    z 0.040390 0.002000 1.845150 
# 
# From -- ./inp_files/49363.got.cif
#   From: 2010.05.17/outbox.cif.g08.bks.cpg/sg2_25_cif.got.tgz:49363.got - 2010.06.03 11:33:40.
