data_PCOD9065821
_publ_section_title
;
Structure prediction by ZEFSAII (Michael W. Deem and Ramdas Pophale) SiO2 
 PCOD9065821
Probable space group: P -1
;
_chemical_formula_sum "Si O2"
_cell_formula_units_Z 14
_cell_length_a 9.399258
_cell_length_b 9.415831
_cell_length_c 11.095537
_cell_angle_alpha 73.094347
_cell_angle_beta 73.903695
_cell_angle_gamma 42.263075
_cell_volume 628.929457
_symmetry_space_group_name_H-M "P -1"
_symmetry_group_IT_number 2
_symmetry_cell_setting 'triclinic'
loop_
_space_group_symop_operation_xyz
x,y,z
-x,-y,-z
loop_
_atom_site_type_symbol
_atom_site_label
_atom_site_fract_x
_atom_site_fract_y
_atom_site_fract_z
Si Si1 0.743347 0.909182 0.716181
Si Si2 0.320340 0.608240 0.118477
Si Si3 0.487344 0.686721 0.448096
Si Si4 0.157188 0.115552 0.857537
Si Si5 0.826419 0.548010 0.203434
Si Si6 0.519244 0.792031 0.680393
Si Si7 0.546842 0.184907 0.916204
O O1 0.642489 0.855186 0.668006
O O2 0.970300 0.698577 0.763535
O O3 0.725220 0.079286 0.610016
O O4 0.604892 0.022213 0.842628
O O5 0.370484 0.418625 0.218136
O O6 0.362761 0.719172 0.165982
O O7 0.074771 0.787910 0.093375
O O8 0.500000 0.500000 0.000000
O O9 0.500000 0.500000 0.500000
O O10 0.663556 0.613020 0.329076
O O11 0.528817 0.733236 0.555526
O O12 0.124045 0.315546 0.822275
O O13 0.277356 0.985638 0.737620
O O14 0.327077 0.944730 0.961288
O O15 0.707679 0.618176 0.084364
#
# Coordination Sequence:
#
# PCOD9065821 Si02
#       7
#     2   2   2   2   2   2   2
#     4  11  25  44  73 104 137 192 235 294 352 414
#     4  12  27  44  68 109 144 185 235 293 356 416
#     4  11  26  48  71 106 144 180 241 299 352 419
#     4  12  25  44  72 106 142 194 234 286 355 425
#     4  11  25  45  73 104 141 190 240 288 350 420
#     4  12  24  45  73 103 145 185 239 290 351 423
#     4  11  25  43  69 106 147 180 239 292 347 418
#
# _framework density 22.26005
#
# number of rings (size 3 to 8) (size 9 to 14) (size 15 to 20)
#    0.000    0.571    5.714    3.000    2.000    4.000 
#    0.000    0.000    0.000    0.000    0.000    0.000 
#    0.000    0.000    0.000    0.000    0.000    0.000 
#
# Total GULP energy -78256.851185 kJ/mol
# GULP energy per Si atom -5589.775085 kJ/mol
# Density = 2.220939 g / cm^3
# Si number density = 22.260050 Si / 1000 Ang^3
#
#
#
# Elastic Constant Matrix: (Units=GPa)
#
#
# Indices 1 2 3 4 5 6 
#
# 1 124.7486 59.2531 24.0335 -3.4419 5.1981 1.6868
# 2 59.2531 150.0120 31.5304 -37.9438 1.8482 -13.3661
# 3 24.0335 31.5304 63.3436 -10.1710 7.3474 -7.0461
# 4 -3.4419 -37.9438 -10.1710 36.8524 6.8456 -4.7880
# 5 5.1981 1.8482 7.3474 6.8456 31.0520 -3.8703
# 6 1.6868 -13.3661 -7.0461 -4.7880 -3.8703 53.0542
#
#
#
# Elastic Compliance Matrix: (Units=1/GPa)
#
#
# Indices 1 2 3 4 5 6 
#
# 1 0.010991 -0.005443 -0.002660 -0.005654 0.000038 -0.002582
# 2 -0.005443 0.012893 -0.001531 0.013249 -0.001882 0.004276
# 3 -0.002660 -0.001531 0.019105 0.004624 -0.004715 0.002309
# 4 -0.005654 0.013249 0.004624 0.044305 -0.009779 0.007417
# 5 0.000038 -0.001882 -0.004715 -0.009779 0.035658 0.000617
# 6 -0.002582 0.004276 0.002309 0.007417 0.000617 0.021029
#
#
# Mechanical properties :
#
#
# Convention : Reuss Voigt Hill
#
# Bulk Modulus (GPa) = 42.15853 63.08202 52.62027
# Shear Modulus (GPa) = 29.21274 39.07753 34.14514
#
# Velocity S-wave (km/s) = 3.62655 4.19441 3.92078
# Velocity P-wave (km/s) = 6.04285 7.20123 6.64732
#
# Compressibility (1/GPa) = 0.02371999
#
# Stress axis : x y z
#
# Youngs Moduli (GPa) = 90.98143 77.55906 52.34270
#
# Poissons Ratio (x) = 0.42215 0.13926
# Poissons Ratio (y) = 0.49520 0.08016
# Poissons Ratio (z) = 0.24205 0.11877
#
# Static dielectric constant tensor:
#      x y z
#    x 1.842890 -0.002010 0.013030 
#    y -0.002010 1.879240 -0.007990 
#    z 0.013030 -0.007990 1.840910 
# 
# From -- ./inp_files/346025.got.cif
#   From: 2010.05.17/outbox.cif.g08.bks.cpg/sg2_174_cif.got.tgz:346025.got - 2010.06.03 11:33:40.
