data_PCOD9065730
_publ_section_title
;
Structure prediction by ZEFSAII (Michael W. Deem and Ramdas Pophale) SiO2 
 PCOD9065730
Probable space group: P -1
;
_chemical_formula_sum "Si O2"
_cell_formula_units_Z 14
_cell_length_a 23.134349
_cell_length_b 5.412986
_cell_length_c 5.503180
_cell_angle_alpha 108.319544
_cell_angle_beta 106.238726
_cell_angle_gamma 68.886138
_cell_volume 599.421804
_symmetry_space_group_name_H-M "P -1"
_symmetry_group_IT_number 2
_symmetry_cell_setting 'triclinic'
loop_
_space_group_symop_operation_xyz
x,y,z
-x,-y,-z
loop_
_atom_site_type_symbol
_atom_site_label
_atom_site_fract_x
_atom_site_fract_y
_atom_site_fract_z
Si Si1 0.266614 0.086947 0.279483
Si Si2 0.284164 0.476836 0.023983
Si Si3 0.833620 0.505264 0.428839
Si Si4 0.615126 0.807770 0.277068
Si Si5 0.942544 0.522838 0.250985
Si Si6 0.058216 0.972098 0.737890
Si Si7 0.460292 0.567164 0.723346
O O1 0.197945 0.288338 0.332258
O O2 0.323664 0.137631 0.515213
O O3 0.279209 0.206478 0.072054
O O4 0.271490 0.771252 0.226330
O O5 0.227108 0.536900 0.785547
O O6 0.353934 0.397073 0.968658
O O7 0.876763 0.636482 0.353740
O O8 0.882816 0.203979 0.409827
O O9 0.583433 0.635735 0.364279
O O10 0.572991 0.105124 0.230098
O O11 0.943119 0.219920 0.096867
O O12 0.000000 0.500000 0.500000
O O13 0.941722 0.729365 0.101862
O O14 0.000000 0.000000 0.500000
O O15 0.500000 0.500000 0.500000
O O16 0.500000 0.500000 0.000000
#
# Coordination Sequence:
#
# PCOD9065730 Si02
#       7
#     2   2   2   2   2   2   2
#     4  11  25  41  66  94 129 174 222 279 331 399
#     4  11  25  41  66  94 129 174 222 279 331 399
#     4   9  22  36  62  87 122 162 222 270 342 398
#     4  11  26  48  72 100 144 181 224 278 340 407
#     4   8  15  28  53  81 110 159 206 257 338 408
#     4   8  15  28  53  81 110 159 206 257 338 408
#     4  12  28  48  80 113 148 189 234 286 344 413
#
# _framework density 23.355839
#
# number of rings (size 3 to 8) (size 9 to 14) (size 15 to 20)
#    0.857    1.143    0.000    2.571   10.000    2.286 
#    0.000    0.000    0.000    5.143    0.000    0.000 
#    0.000    0.000    0.000    0.000    0.000    0.000 
#
# Total GULP energy -77944.656302 kJ/mol
# GULP energy per Si atom -5567.475450 kJ/mol
# Density = 2.330268 g / cm^3
# Si number density = 23.355839 Si / 1000 Ang^3
#
#
#
# Elastic Constant Matrix: (Units=GPa)
#
#
# Indices 1 2 3 4 5 6 
#
# 1 116.9664 51.1847 25.9004 0.0684 -14.2855 -12.2144
# 2 51.1847 186.0285 8.3327 -7.2115 -10.7336 9.3105
# 3 25.9004 8.3327 43.9997 -2.5195 -2.7217 -17.3100
# 4 0.0684 -7.2115 -2.5195 24.1179 1.4064 -3.4789
# 5 -14.2855 -10.7336 -2.7217 1.4064 30.6979 1.8120
# 6 -12.2144 9.3105 -17.3100 -3.4789 1.8120 53.2128
#
#
#
# Elastic Compliance Matrix: (Units=1/GPa)
#
#
# Indices 1 2 3 4 5 6 
#
# 1 0.011657 -0.002836 -0.005751 -0.001558 0.003931 0.001065
# 2 -0.002836 0.006360 -0.000058 0.001603 0.000926 -0.001709
# 3 -0.005751 -0.000058 0.029743 0.004403 -0.000774 0.008679
# 4 -0.001558 0.001603 0.004403 0.043051 -0.001963 0.003676
# 5 0.003931 0.000926 -0.000774 -0.001963 0.034799 -0.000825
# 6 0.001065 -0.001709 0.008679 0.003676 -0.000825 0.022428
#
#
# Mechanical properties :
#
#
# Convention : Reuss Voigt Hill
#
# Bulk Modulus (GPa) = 32.82233 57.53670 45.17951
# Shear Modulus (GPa) = 28.49250 39.04418 33.76834
#
# Velocity S-wave (km/s) = 3.49654 4.09309 3.80652
# Velocity P-wave (km/s) = 5.51223 6.85756 6.22137
#
# Compressibility (1/GPa) = 0.03046706
#
# Stress axis : x y z
#
# Youngs Moduli (GPa) = 85.78867 157.24019 33.62159
#
# Poissons Ratio (x) = 0.44601 0.19337
# Poissons Ratio (y) = 0.24334 0.00196
# Poissons Ratio (z) = 0.49340 0.00915
#
# Static dielectric constant tensor:
#      x y z
#    x 1.931500 0.034690 -0.034580 
#    y 0.034690 1.949240 0.006280 
#    z -0.034580 0.006280 1.909870 
# 
# From -- ./inp_files/120999.got.cif
#   From: 2010.05.17/outbox.cif.g08.bks.cpg/sg2_61_cif.got.tgz:120999.got - 2010.06.03 11:33:40.
