data_PCOD9065451
_publ_section_title
;
Structure prediction by ZEFSAII (Michael W. Deem and Ramdas Pophale) SiO2 
 PCOD9065451
Probable space group: P -1
;
_chemical_formula_sum "Si O2"
_cell_formula_units_Z 14
_cell_length_a 6.665985
_cell_length_b 21.508281
_cell_length_c 11.528985
_cell_angle_alpha 153.948507
_cell_angle_beta 125.301121
_cell_angle_gamma 49.371251
_cell_volume 550.824580
_symmetry_space_group_name_H-M "P -1"
_symmetry_group_IT_number 2
_symmetry_cell_setting 'triclinic'
loop_
_space_group_symop_operation_xyz
x,y,z
-x,-y,-z
loop_
_atom_site_type_symbol
_atom_site_label
_atom_site_fract_x
_atom_site_fract_y
_atom_site_fract_z
Si Si1 0.295543 0.496271 0.090418
Si Si2 0.000000 0.000000 0.000000
Si Si3 0.057016 0.534365 0.446687
Si Si4 0.920540 0.163492 0.008766
Si Si5 0.374121 0.285464 0.964741
Si Si6 0.584369 0.979368 0.212485
Si Si7 0.484561 0.300296 0.599393
Si Si8 0.500000 0.000000 0.500000
O O1 0.414823 0.407767 0.098581
O O2 0.313384 0.659791 0.350663
O O3 0.451029 0.391320 0.861540
O O4 0.000000 0.500000 0.000000
O O5 0.036856 0.065394 0.994821
O O6 0.325336 0.940699 0.034951
O O7 0.792311 0.620952 0.428990
O O8 0.000000 0.500000 0.500000
O O9 0.195680 0.658227 0.697682
O O10 0.222437 0.377646 0.176955
O O11 0.657508 0.140420 0.833245
O O12 0.142662 0.138996 0.946085
O O13 0.244048 0.173561 0.681357
O O14 0.544350 0.131489 0.379043
O O15 0.600241 0.000053 0.389617
#
# Coordination Sequence:
#
# PCOD9065451 Si02
#       8
#     2   1   2   2   2   2   2   1
#     4  11  24  48  74 109 151 197 251 318 392 462
#     4  12  26  50  78 114 164 210 264 322 390 474
#     4  12  26  47  76 108 152 199 259 319 383 465
#     4  12  28  48  78 113 155 211 263 322 392 472
#     4  12  26  48  75 113 152 202 258 325 395 462
#     4  12  27  52  79 117 158 212 265 327 394 467
#     4  11  25  45  76 111 146 198 255 311 385 466
#     4  12  26  48  78 114 158 200 260 326 400 462
#
# _framework density 25.416440999999999
#
# number of rings (size 3 to 8) (size 9 to 14) (size 15 to 20)
#    0.000    0.286    5.714    2.571    0.000    4.000 
#    0.000    0.000    0.000    0.000    0.000    0.000 
#    0.000    0.000    0.000    0.000    0.000    0.000 
#
# Total GULP energy -77945.452494 kJ/mol
# GULP energy per Si atom -5567.532321 kJ/mol
# Density = 2.535859 g / cm^3
# Si number density = 25.416441 Si / 1000 Ang^3
#
#
#
# Elastic Constant Matrix: (Units=GPa)
#
#
# Indices 1 2 3 4 5 6 
#
# 1 137.2390 42.5824 48.5779 15.9152 5.9004 27.5642
# 2 42.5824 149.2033 14.2920 -6.6444 -9.8880 24.7581
# 3 48.5779 14.2920 127.2866 11.8024 -17.7866 15.9205
# 4 15.9152 -6.6444 11.8024 23.3650 -0.3892 -1.3056
# 5 5.9004 -9.8880 -17.7866 -0.3892 38.0113 -8.1708
# 6 27.5642 24.7581 15.9205 -1.3056 -8.1708 62.2920
#
#
#
# Elastic Compliance Matrix: (Units=1/GPa)
#
#
# Indices 1 2 3 4 5 6 
#
# 1 0.011203 -0.002884 -0.003544 -0.006952 -0.005016 -0.003709
# 2 -0.002884 0.008102 0.000358 0.004036 0.002413 -0.001634
# 3 -0.003544 0.000358 0.010214 -0.002586 0.005279 -0.000547
# 4 -0.006952 0.004036 -0.002586 0.050219 0.002179 0.003471
# 5 -0.005016 0.002413 0.005279 0.002179 0.031074 0.004033
# 6 -0.003709 -0.001634 -0.000547 0.003471 0.004033 0.019085
#
#
# Mechanical properties :
#
#
# Convention : Reuss Voigt Hill
#
# Bulk Modulus (GPa) = 57.54023 69.40374 63.47199
# Shear Modulus (GPa) = 33.82267 45.28543 39.55405
#
# Velocity S-wave (km/s) = 3.65189 4.22564 3.94920
# Velocity P-wave (km/s) = 6.36159 7.15360 6.76919
#
# Compressibility (1/GPa) = 0.01737915
#
# Stress axis : x y z
#
# Youngs Moduli (GPa) = 89.26456 123.42656 97.90069
#
# Poissons Ratio (x) = 0.35600 0.34696
# Poissons Ratio (y) = 0.25747 -0.03509
# Poissons Ratio (z) = 0.31636 -0.04424
#
# Static dielectric constant tensor:
#      x y z
#    x 1.945560 -0.110470 0.054940 
#    y -0.110470 2.048840 -0.077030 
#    z 0.054940 -0.077030 2.102650 
# 
# From -- ./inp_files/69467.got.cif
#   From: 2010.05.17/outbox.cif.g08.bks.cpg/sg2_35_cif.got.tgz:69467.got - 2010.06.03 11:33:40.
