data_PCOD9065727
_publ_section_title
;
Structure prediction by ZEFSAII (Michael W. Deem and Ramdas Pophale) SiO2 
 PCOD9065727
Probable space group: P -1
;
_chemical_formula_sum "Si O2"
_cell_formula_units_Z 11
_cell_length_a 9.385803
_cell_length_b 7.722053
_cell_length_c 17.532698
_cell_angle_alpha 41.758524
_cell_angle_beta 38.581205
_cell_angle_gamma 34.892993
_cell_volume 433.330241
_symmetry_space_group_name_H-M "P -1"
_symmetry_group_IT_number 2
_symmetry_cell_setting 'triclinic'
loop_
_space_group_symop_operation_xyz
x,y,z
-x,-y,-z
loop_
_atom_site_type_symbol
_atom_site_label
_atom_site_fract_x
_atom_site_fract_y
_atom_site_fract_z
Si Si1 0.962977 0.419567 0.732521
Si Si2 0.230156 0.611691 0.326817
Si Si3 0.500000 0.000000 0.500000
Si Si4 0.677125 0.735662 0.076614
Si Si5 0.595613 0.968805 0.206440
Si Si6 0.285818 0.651860 0.449071
O O1 0.993233 0.249407 0.694145
O O2 0.131905 0.173141 0.809568
O O3 0.078728 0.635714 0.596899
O O4 0.638412 0.660283 0.806899
O O5 0.308409 0.265805 0.426007
O O6 0.517246 0.565748 0.201128
O O7 0.141524 0.813893 0.374679
O O8 0.485656 0.287446 0.457805
O O9 0.653641 0.883625 0.121061
O O10 0.000000 0.500000 0.000000
O O11 0.500000 0.000000 0.000000
O O12 0.461309 0.786092 0.353973
#
# Coordination Sequence:
#
# PCOD9065727 Si02
#       6
#     2   2   1   2   2   2
#     4  12  22  41  63 103 141 170 209 282 341 393
#     4   9  22  41  67 101 134 178 224 264 325 407
#     4   8  18  38  66  94 136 160 232 250 326 380
#     4  11  25  50  72  91 126 184 235 273 321 399
#     4  11  25  41  65 100 135 171 226 273 337 394
#     4   9  20  39  62  97 139 184 209 257 328 416
#
# _framework density 25.384795
#
# number of rings (size 3 to 8) (size 9 to 14) (size 15 to 20)
#    1.091    0.727    0.000    3.818    0.000    4.364 
#    6.545    5.455    0.000    0.000    0.000    0.000 
#    0.000    0.000    0.000    0.000    0.000    0.000 
#
# Total GULP energy -61301.150061 kJ/mol
# GULP energy per Si atom -5572.831824 kJ/mol
# Density = 2.532702 g / cm^3
# Si number density = 25.384795 Si / 1000 Ang^3
#
#
#
# Elastic Constant Matrix: (Units=GPa)
#
#
# Indices 1 2 3 4 5 6 
#
# 1 184.9238 53.3945 29.7229 1.9698 35.8884 -41.4537
# 2 53.3945 116.2500 16.9030 7.7683 21.1301 -26.9031
# 3 29.7229 16.9030 63.0039 17.4989 12.9953 -18.6953
# 4 1.9698 7.7683 17.4989 12.1840 0.8767 -0.7847
# 5 35.8884 21.1301 12.9953 0.8767 46.2742 -3.0050
# 6 -41.4537 -26.9031 -18.6953 -0.7847 -3.0050 54.8673
#
#
#
# Elastic Compliance Matrix: (Units=1/GPa)
#
#
# Indices 1 2 3 4 5 6 
#
# 1 0.008094 -0.001794 -0.002013 0.003343 -0.004674 0.004341
# 2 -0.001794 0.011650 0.003174 -0.011064 -0.004283 0.005046
# 3 -0.002013 0.003174 0.034818 -0.050437 -0.008013 0.010739
# 4 0.003343 -0.011064 -0.050437 0.159025 0.012499 -0.017126
# 5 -0.004674 -0.004283 -0.008013 0.012499 0.028775 -0.006607
# 6 0.004341 0.005046 0.010739 -0.017126 -0.006607 0.027032
#
#
# Mechanical properties :
#
#
# Convention : Reuss Voigt Hill
#
# Bulk Modulus (GPa) = 18.76298 62.69096 40.72697
# Shear Modulus (GPa) = 17.33546 40.27559 28.80552
#
# Velocity S-wave (km/s) = 2.61608 3.98754 3.37227
# Velocity P-wave (km/s) = 4.06604 6.77868 5.58942
#
# Compressibility (1/GPa) = 0.05329644
#
# Stress axis : x y z
#
# Youngs Moduli (GPa) = 123.54999 85.83660 28.72062
#
# Poissons Ratio (x) = 0.15399 0.05782
# Poissons Ratio (y) = 0.22164 -0.09117
# Poissons Ratio (z) = 0.24872 -0.27246
#
# Static dielectric constant tensor:
#      x y z
#    x 2.095500 -0.067940 0.006950 
#    y -0.067940 1.905530 0.084950 
#    z 0.006950 0.084950 2.226210 
# 
# From -- ./inp_files/555861.got.cif
#   From: 2010.05.17/outbox.cif.g08.bks.cpg/sg2_278_cif.got.tgz:555861.got - 2010.06.03 11:33:40.
