data_PCOD9065190
_publ_section_title
;
Structure prediction by ZEFSAII (Michael W. Deem and Ramdas Pophale) SiO2 
 PCOD9065190
Probable space group: P -1
;
_chemical_formula_sum "Si O2"
_cell_formula_units_Z 14
_cell_length_a 8.546553
_cell_length_b 11.350044
_cell_length_c 14.228408
_cell_angle_alpha 148.574647
_cell_angle_beta 126.171095
_cell_angle_gamma 66.603894
_cell_volume 562.001889
_symmetry_space_group_name_H-M "P -1"
_symmetry_group_IT_number 2
_symmetry_cell_setting 'triclinic'
loop_
_space_group_symop_operation_xyz
x,y,z
-x,-y,-z
loop_
_atom_site_type_symbol
_atom_site_label
_atom_site_fract_x
_atom_site_fract_y
_atom_site_fract_z
Si Si1 0.737078 0.786407 0.705071
Si Si2 0.227683 0.806292 0.344930
Si Si3 0.453706 0.347616 0.784043
Si Si4 0.171611 0.128407 0.840173
Si Si5 0.894532 0.232534 0.290713
Si Si6 0.305493 0.481765 0.297344
Si Si7 0.610588 0.229721 0.031883
O O1 0.542789 0.614524 0.470028
O O2 0.752126 0.636252 0.702168
O O3 0.945232 0.863267 0.776624
O O4 0.686404 0.033683 0.871049
O O5 0.358638 0.683606 0.236575
O O6 0.207376 0.675783 0.348967
O O7 0.010992 0.795711 0.218428
O O8 0.338534 0.079578 0.579021
O O9 0.500000 0.500000 0.000000
O O10 0.323479 0.496028 0.781938
O O11 0.376211 0.173218 0.887996
O O12 0.117582 0.862628 0.674159
O O13 0.240953 0.271283 0.057875
O O14 0.000000 0.500000 0.500000
O O15 0.681036 0.190647 0.135620
#
# Coordination Sequence:
#
# PCOD9065190 Si02
#       7
#     2   2   2   2   2   2   2
#     4  11  27  46  76 110 142 198 247 321 365 444
#     4  11  26  49  75 110 153 203 244 310 383 442
#     4  11  26  47  76 108 151 199 256 309 366 453
#     4  12  26  45  74 108 148 198 238 306 383 448
#     4  12  27  45  74 105 145 192 251 302 379 441
#     4  11  24  47  74 102 151 190 249 304 377 443
#     4  12  25  47  69 110 144 190 249 304 373 438
#
# _framework density 24.910945999999999
#
# number of rings (size 3 to 8) (size 9 to 14) (size 15 to 20)
#    0.000    0.571    2.857    3.857   10.000    0.000 
#    2.571    1.429    0.000    0.000    0.000    0.000 
#    0.000    0.000    0.000    0.000    0.000    0.000 
#
# Total GULP energy -78304.290734 kJ/mol
# GULP energy per Si atom -5593.163624 kJ/mol
# Density = 2.485425 g / cm^3
# Si number density = 24.910946 Si / 1000 Ang^3
#
#
#
# Elastic Constant Matrix: (Units=GPa)
#
#
# Indices 1 2 3 4 5 6 
#
# 1 73.7788 47.0741 33.6671 5.6518 0.3760 -9.7439
# 2 47.0741 180.5608 41.4357 7.8049 -3.0546 -11.7927
# 3 33.6671 41.4357 103.9316 12.2150 -4.4233 -19.1049
# 4 5.6518 7.8049 12.2150 60.3439 -5.1569 4.3533
# 5 0.3760 -3.0546 -4.4233 -5.1569 34.0027 5.1628
# 6 -9.7439 -11.7927 -19.1049 4.3533 5.1628 36.9473
#
#
#
# Elastic Compliance Matrix: (Units=1/GPa)
#
#
# Indices 1 2 3 4 5 6 
#
# 1 0.018018 -0.003651 -0.004040 -0.000647 -0.001420 0.001772
# 2 -0.003651 0.006865 -0.001421 -0.000262 0.000361 0.000474
# 3 -0.004040 -0.001421 0.012768 -0.002370 0.000413 0.005305
# 4 -0.000647 -0.000262 -0.002370 0.017686 0.002961 -0.003977
# 5 -0.001420 0.000361 0.000413 0.002961 0.030671 -0.004681
# 6 0.001772 0.000474 0.005305 -0.003977 -0.004681 0.031550
#
#
# Mechanical properties :
#
#
# Convention : Reuss Voigt Hill
#
# Bulk Modulus (GPa) = 51.47344 66.95833 59.21588
# Shear Modulus (GPa) = 35.14805 41.99841 38.57323
#
# Velocity S-wave (km/s) = 3.76033 4.11048 3.93930
# Velocity P-wave (km/s) = 6.28978 7.03317 6.67184
#
# Compressibility (1/GPa) = 0.01942749
#
# Stress axis : x y z
#
# Youngs Moduli (GPa) = 55.50139 145.67675 78.32039
#
# Poissons Ratio (x) = 0.53181 0.31639
# Poissons Ratio (y) = 0.20262 0.11129
# Poissons Ratio (z) = 0.22421 0.20700
#
# Static dielectric constant tensor:
#      x y z
#    x 2.018170 -0.008520 -0.089080 
#    y -0.008520 2.022090 0.100260 
#    z -0.089080 0.100260 2.137150 
# 
# From -- ./inp_files/501304.got.cif
#   From: 2010.05.17/outbox.cif.g08.bks.cpg/sg2_251_cif.got.tgz:501304.got - 2010.06.03 11:33:40.
