data_PCOD9065417
_publ_section_title
;
Structure prediction by ZEFSAII (Michael W. Deem and Ramdas Pophale) SiO2 
 PCOD9065417
Probable space group: P -1
;
_chemical_formula_sum "Si O2"
_cell_formula_units_Z 14
_cell_length_a 6.247157
_cell_length_b 21.579872
_cell_length_c 6.224999
_cell_angle_alpha 125.690515
_cell_angle_beta 106.516290
_cell_angle_gamma 59.246108
_cell_volume 585.620273
_symmetry_space_group_name_H-M "P -1"
_symmetry_group_IT_number 2
_symmetry_cell_setting 'triclinic'
loop_
_space_group_symop_operation_xyz
x,y,z
-x,-y,-z
loop_
_atom_site_type_symbol
_atom_site_label
_atom_site_fract_x
_atom_site_fract_y
_atom_site_fract_z
Si Si1 0.930810 0.123234 0.869026
Si Si2 0.185037 0.191057 0.382473
Si Si3 0.170229 0.729597 0.198780
Si Si4 0.113487 0.537741 0.290419
Si Si5 0.561713 0.384126 0.328559
Si Si6 0.619374 0.700791 0.586638
Si Si7 0.392992 0.952908 0.528828
O O1 0.920645 0.182307 0.782569
O O2 0.690479 0.107019 0.756151
O O3 0.158133 0.028947 0.726184
O O4 0.980696 0.164532 0.177338
O O5 0.282802 0.230029 0.298717
O O6 0.410412 0.107879 0.369046
O O7 0.050155 0.257024 0.670636
O O8 0.421283 0.711614 0.364594
O O9 0.254198 0.653080 0.897168
O O10 0.302326 0.460812 0.336971
O O11 0.296106 0.583622 0.392353
O O12 0.863943 0.611167 0.463796
O O13 0.000000 0.500000 0.000000
O O14 0.507947 0.307995 0.248634
O O15 0.500000 0.000000 0.500000
#
# Coordination Sequence:
#
# PCOD9065417 Si02
#       7
#     2   2   2   2   2   2   2
#     4  11  25  46  72 107 143 191 246 298 354 436
#     4  12  27  48  75 108 147 195 238 303 365 428
#     4  12  24  47  72 108 148 188 245 295 360 439
#     4  11  24  51  75 107 144 193 243 300 363 428
#     4  11  27  49  76 108 145 190 244 304 355 438
#     4  12  25  47  74 108 144 192 241 297 369 426
#     4  11  24  48  73 105 146 193 244 297 362 428
#
# _framework density 23.906278
#
# number of rings (size 3 to 8) (size 9 to 14) (size 15 to 20)
#    0.000    0.571    4.286    3.429    0.000    5.714 
#   12.857    0.000    0.000    0.000    0.000    0.000 
#    0.000    0.000    0.000    0.000    0.000    0.000 
#
# Total GULP energy -78324.683274 kJ/mol
# GULP energy per Si atom -5594.620234 kJ/mol
# Density = 2.385187 g / cm^3
# Si number density = 23.906278 Si / 1000 Ang^3
#
#
#
# Elastic Constant Matrix: (Units=GPa)
#
#
# Indices 1 2 3 4 5 6 
#
# 1 82.9376 49.0322 36.5998 -8.2480 14.6173 1.4129
# 2 49.0322 170.3212 27.2729 -4.2574 -1.0314 -23.6137
# 3 36.5998 27.2729 81.4955 -4.6120 18.7613 -2.2403
# 4 -8.2480 -4.2574 -4.6120 24.5367 -6.7937 5.0585
# 5 14.6173 -1.0314 18.7613 -6.7937 40.1219 1.3608
# 6 1.4129 -23.6137 -2.2403 5.0585 1.3608 58.2141
#
#
#
# Elastic Compliance Matrix: (Units=1/GPa)
#
#
# Indices 1 2 3 4 5 6 
#
# 1 0.018414 -0.004690 -0.005781 0.003943 -0.003362 -0.002836
# 2 -0.004690 0.007824 -0.000947 -0.000466 0.002164 0.003241
# 3 -0.005781 -0.000947 0.016488 -0.000728 -0.005771 0.000589
# 4 0.003943 -0.000466 -0.000728 0.044582 0.006588 -0.004341
# 5 -0.003362 0.002164 -0.005771 0.006588 0.030037 -0.000537
# 6 -0.002836 0.003241 0.000589 -0.004341 -0.000537 0.018974
#
#
# Mechanical properties :
#
#
# Convention : Reuss Voigt Hill
#
# Bulk Modulus (GPa) = 50.28096 62.28490 56.28293
# Shear Modulus (GPa) = 30.15937 39.36450 34.76193
#
# Velocity S-wave (km/s) = 3.55571 4.06226 3.81739
# Velocity P-wave (km/s) = 6.15919 6.93635 6.55929
#
# Compressibility (1/GPa) = 0.01988825
#
# Stress axis : x y z
#
# Youngs Moduli (GPa) = 54.30543 127.81133 60.65195
#
# Poissons Ratio (x) = 0.59949 0.35063
# Poissons Ratio (y) = 0.25472 0.05746
# Poissons Ratio (z) = 0.31394 0.12108
#
# Static dielectric constant tensor:
#      x y z
#    x 1.933980 0.000860 -0.005640 
#    y 0.000860 1.884860 0.010520 
#    z -0.005640 0.010520 1.922970 
# 
# From -- ./inp_files/10112.got.cif
#   From: 2010.05.17/outbox.cif.g08.bks.cpg/sg2_6_cif.got.tgz:10112.got - 2010.06.03 11:33:40.
