data_PCOD9065644
_publ_section_title
;
Structure prediction by ZEFSAII (Michael W. Deem and Ramdas Pophale) SiO2 
 PCOD9065644
Probable space group: P -1
;
_chemical_formula_sum "Si O2"
_cell_formula_units_Z 16
_cell_length_a 11.413740
_cell_length_b 14.189479
_cell_length_c 16.624926
_cell_angle_alpha 124.882347
_cell_angle_beta 158.820089
_cell_angle_gamma 50.223977
_cell_volume 744.681005
_symmetry_space_group_name_H-M "P -1"
_symmetry_group_IT_number 2
_symmetry_cell_setting 'triclinic'
loop_
_space_group_symop_operation_xyz
x,y,z
-x,-y,-z
loop_
_atom_site_type_symbol
_atom_site_label
_atom_site_fract_x
_atom_site_fract_y
_atom_site_fract_z
Si Si1 0.739061 0.123290 0.234061
Si Si2 0.715222 0.592611 0.695777
Si Si3 0.659662 0.622821 0.855155
Si Si4 0.309469 0.454020 0.612371
Si Si5 0.086214 0.770624 0.025679
Si Si6 0.607481 0.999425 0.932406
Si Si7 0.166290 0.470559 0.796805
Si Si8 0.370203 0.194384 0.732933
O O1 0.385871 0.246901 0.071435
O O2 0.066457 0.164526 0.477510
O O3 0.763690 0.052601 0.132197
O O4 0.690542 0.039507 0.234879
O O5 0.500000 0.500000 0.500000
O O6 0.566730 0.647405 0.714274
O O7 0.078452 0.494316 0.845753
O O8 0.809146 0.712522 0.784423
O O9 0.424562 0.568943 0.728853
O O10 0.000000 0.500000 0.000000
O O11 0.626059 0.337262 0.790613
O O12 0.000000 0.500000 0.500000
O O13 0.157265 0.440406 0.420354
O O14 0.305069 0.812031 0.119204
O O15 0.883695 0.881010 0.008946
O O16 0.477155 0.101631 0.830458
O O17 0.228831 0.332674 0.743861
O O18 0.500000 0.500000 0.000000
#
# Coordination Sequence:
#
# PCOD9065644 Si02
#       8
#     2   2   2   2   2   2   2   2
#     4  11  24  50  69 106 139 188 248 289 359 424
#     4  12  23  42  66 102 143 173 234 290 356 425
#     4  12  23  41  70  99 139 179 225 298 357 414
#     4  12  22  43  71  98 144 180 222 298 361 423
#     4  12  25  48  67 105 146 186 240 290 352 437
#     4  11  27  47  74 100 141 194 244 292 349 427
#     4  12  25  42  68 110 135 182 231 290 373 426
#     4  12  25  47  74  99 148 187 239 297 351 431
#
# _framework density 21.485710000000001
#
# number of rings (size 3 to 8) (size 9 to 14) (size 15 to 20)
#    0.000    0.250    7.500    0.750    1.750    1.500 
#    2.250    0.000    0.000    0.000    0.000    0.000 
#    0.000    0.000    0.000    0.000    0.000    0.000 
#
# Total GULP energy -89101.355546 kJ/mol
# GULP energy per Si atom -5568.834722 kJ/mol
# Density = 2.143681 g / cm^3
# Si number density = 21.485710 Si / 1000 Ang^3
#
#
#
# Elastic Constant Matrix: (Units=GPa)
#
#
# Indices 1 2 3 4 5 6 
#
# 1 123.2393 63.6310 49.7843 15.3488 23.7420 -8.7602
# 2 63.6310 128.9124 55.1421 24.0785 -2.1376 -9.4216
# 3 49.7843 55.1421 90.1268 27.8885 13.1889 7.6815
# 4 15.3488 24.0785 27.8885 37.4223 7.4491 -6.9789
# 5 23.7420 -2.1376 13.1889 7.4491 41.5596 8.4544
# 6 -8.7602 -9.4216 7.6815 -6.9789 8.4544 55.9856
#
#
#
# Elastic Compliance Matrix: (Units=1/GPa)
#
#
# Indices 1 2 3 4 5 6 
#
# 1 0.014326 -0.005612 -0.004666 0.003559 -0.008371 0.003645
# 2 -0.005612 0.013487 -0.004920 -0.003774 0.005997 0.000690
# 3 -0.004666 -0.004920 0.020805 -0.011279 -0.001015 -0.005665
# 4 0.003559 -0.003774 -0.011279 0.038893 -0.007123 0.007393
# 5 -0.008371 0.005997 -0.001015 -0.007123 0.031946 -0.005873
# 6 0.003645 0.000690 -0.005665 0.007393 -0.005873 0.021134
#
#
# Mechanical properties :
#
#
# Convention : Reuss Voigt Hill
#
# Bulk Modulus (GPa) = 54.88466 75.48815 65.18640
# Shear Modulus (GPa) = 28.23867 38.57490 33.40678
#
# Velocity S-wave (km/s) = 3.62926 4.24178 3.94742
# Velocity P-wave (km/s) = 6.56980 7.69420 7.15412
#
# Compressibility (1/GPa) = 0.01822003
#
# Stress axis : x y z
#
# Youngs Moduli (GPa) = 69.80509 74.14646 48.06498
#
# Poissons Ratio (x) = 0.41612 0.22429
# Poissons Ratio (y) = 0.39176 0.23648
# Poissons Ratio (z) = 0.32574 0.36481
#
# Static dielectric constant tensor:
#      x y z
#    x 1.861570 0.098310 -0.075780 
#    y 0.098310 1.865930 -0.087220 
#    z -0.075780 -0.087220 1.928940 
# 
# From -- ./inp_files/569952.got.cif
#   From: 2010.05.17/outbox.cif.g08.bks.cpg/sg2_285_cif.got.tgz:569952.got - 2010.06.03 11:33:40.
