data_PCOD9065968
_publ_section_title
;
Structure prediction by ZEFSAII (Michael W. Deem and Ramdas Pophale) SiO2 
 PCOD9065968
Probable space group: P -1
;
_chemical_formula_sum "Si O2"
_cell_formula_units_Z 13
_cell_length_a 9.307542
_cell_length_b 8.471190
_cell_length_c 15.258381
_cell_angle_alpha 37.284367
_cell_angle_beta 54.572185
_cell_angle_gamma 45.978565
_cell_volume 523.060985
_symmetry_space_group_name_H-M "P -1"
_symmetry_group_IT_number 2
_symmetry_cell_setting 'triclinic'
loop_
_space_group_symop_operation_xyz
x,y,z
-x,-y,-z
loop_
_atom_site_type_symbol
_atom_site_label
_atom_site_fract_x
_atom_site_fract_y
_atom_site_fract_z
Si Si1 0.421673 0.476540 0.132309
Si Si2 0.537714 0.832178 0.430651
Si Si3 0.000000 0.000000 0.000000
Si Si4 0.675191 0.711218 0.025763
Si Si5 0.979416 0.732879 0.785811
Si Si6 0.816508 0.899136 0.448036
Si Si7 0.893862 0.537898 0.324304
O O1 0.577611 0.501592 0.132451
O O2 0.200555 0.750998 0.090878
O O3 0.436219 0.159772 0.280670
O O4 0.500000 0.500000 0.000000
O O5 0.697036 0.827061 0.448467
O O6 0.677424 0.599435 0.411388
O O7 0.355259 0.837978 0.547728
O O8 0.873260 0.846994 0.159340
O O9 0.855557 0.567356 0.094272
O O10 0.769796 0.771364 0.878150
O O11 0.500000 0.000000 0.000000
O O12 0.015835 0.684956 0.691179
O O13 0.030931 0.985108 0.688984
O O14 0.948938 0.614358 0.585809
#
# Coordination Sequence:
#
# PCOD9065968 Si02
#       7
#     2   2   1   2   2   2   2
#     4  12  23  44  71 102 139 176 240 298 346 416
#     4  11  25  44  70 103 140 190 232 290 355 412
#     4  12  24  40  72 104 132 176 240 296 342 408
#     4  11  26  45  71 102 142 185 230 293 357 413
#     4  11  26  47  68 106 143 186 236 283 351 429
#     4  11  25  47  67 101 151 184 236 288 344 427
#     4  12  25  42  72 105 138 190 235 284 354 418
#
# _framework density 24.853698999999999
#
# number of rings (size 3 to 8) (size 9 to 14) (size 15 to 20)
#    0.000    0.615    4.615    2.769    0.000    4.308 
#    0.000    0.000    0.000    0.000    0.000    0.000 
#    0.000    0.000    0.000    0.000    0.000    0.000 
#
# Total GULP energy -72500.606079 kJ/mol
# GULP energy per Si atom -5576.969698 kJ/mol
# Density = 2.479713 g / cm^3
# Si number density = 24.853699 Si / 1000 Ang^3
#
#
#
# Elastic Constant Matrix: (Units=GPa)
#
#
# Indices 1 2 3 4 5 6 
#
# 1 73.8684 31.9583 18.7028 3.5198 12.7241 -24.2464
# 2 31.9583 105.6376 6.9700 20.9743 2.5492 -19.9459
# 3 18.7028 6.9700 81.1796 -4.5372 14.4318 -12.6847
# 4 3.5198 20.9743 -4.5372 34.5332 -13.3329 0.5410
# 5 12.7241 2.5492 14.4318 -13.3329 41.0593 6.4285
# 6 -24.2464 -19.9459 -12.6847 0.5410 6.4285 33.8824
#
#
#
# Elastic Compliance Matrix: (Units=1/GPa)
#
#
# Indices 1 2 3 4 5 6 
#
# 1 0.022211 -0.002220 -0.000734 -0.005453 -0.010834 0.016456
# 2 -0.002220 0.013675 0.000894 -0.010001 -0.004959 0.007897
# 3 -0.000734 0.000894 0.014514 -0.001110 -0.006332 0.006654
# 4 -0.005453 -0.010001 -0.001110 0.042974 0.018923 -0.014481
# 5 -0.010834 -0.004959 -0.006332 0.018923 0.039658 -0.020869
# 6 0.016456 0.007897 0.006654 -0.014481 -0.020869 0.052620
#
#
# Mechanical properties :
#
#
# Convention : Reuss Voigt Hill
#
# Bulk Modulus (GPa) = 21.60744 41.77200 31.68972
# Shear Modulus (GPa) = 24.36650 35.43195 29.89923
#
# Velocity S-wave (km/s) = 3.13453 3.77984 3.47220
# Velocity P-wave (km/s) = 4.67045 5.99109 5.37151
#
# Compressibility (1/GPa) = 0.04628035
#
# Stress axis : x y z
#
# Youngs Moduli (GPa) = 45.02220 73.12463 68.89915
#
# Poissons Ratio (x) = 0.16233 0.05057
# Poissons Ratio (y) = 0.09995 -0.06159
# Poissons Ratio (z) = 0.03305 -0.06537
#
# Static dielectric constant tensor:
#      x y z
#    x 2.881960 -0.035390 -0.141910 
#    y -0.035390 2.016390 0.024810 
#    z -0.141910 0.024810 1.977500 
# 
# From -- ./inp_files/233368.got.cif
#   From: 2010.05.17/outbox.cif.g08.bks.cpg/sg2_117_cif.got.tgz:233368.got - 2010.06.03 11:33:40.
