data_PCOD9065311
_publ_section_title
;
Structure prediction by ZEFSAII (Michael W. Deem and Ramdas Pophale) SiO2 
 PCOD9065311
Probable space group: P -1
;
_chemical_formula_sum "Si O2"
_cell_formula_units_Z 14
_cell_length_a 9.023192
_cell_length_b 13.607278
_cell_length_c 5.212479
_cell_angle_alpha 69.534543
_cell_angle_beta 103.498854
_cell_angle_gamma 77.091375
_cell_volume 549.385718
_symmetry_space_group_name_H-M "P -1"
_symmetry_group_IT_number 2
_symmetry_cell_setting 'triclinic'
loop_
_space_group_symop_operation_xyz
x,y,z
-x,-y,-z
loop_
_atom_site_type_symbol
_atom_site_label
_atom_site_fract_x
_atom_site_fract_y
_atom_site_fract_z
Si Si1 0.086273 0.167901 0.649204
Si Si2 0.177333 0.943421 0.286853
Si Si3 0.292290 0.281862 0.886708
Si Si4 0.794479 0.352465 0.119542
Si Si5 0.681682 0.484233 0.481202
Si Si6 0.354458 0.818708 0.977458
Si Si7 0.330584 0.095018 0.406807
O O1 0.131276 0.260061 0.750887
O O2 0.254994 0.097703 0.650462
O O3 0.991000 0.080049 0.740230
O O4 0.962028 0.252023 0.318237
O O5 0.265479 0.871484 0.149559
O O6 0.201419 0.063564 0.198050
O O7 0.274905 0.890709 0.632509
O O8 0.292660 0.404668 0.722639
O O9 0.457275 0.203893 0.889607
O O10 0.326289 0.220400 0.233187
O O11 0.729197 0.401214 0.329819
O O12 0.794367 0.441236 0.818513
O O13 0.673449 0.295819 0.997100
O O14 0.500000 0.500000 0.500000
O O15 0.500000 0.000000 0.500000
#
# Coordination Sequence:
#
# PCOD9065311 Si02
#       7
#     2   2   2   2   2   2   2
#     4  11  29  47  78 116 158 205 258 321 394 463
#     4  11  26  48  78 108 157 206 252 314 390 456
#     4  12  29  44  79 114 159 195 272 312 391 459
#     4  11  26  50  79 112 156 202 255 323 382 459
#     4  12  27  48  84 113 152 207 263 313 392 460
#     4  11  24  47  80 111 151 204 260 311 379 467
#     4  12  27  50  78 113 160 205 263 322 384 462
#
# _framework density 25.483008999999999
#
# number of rings (size 3 to 8) (size 9 to 14) (size 15 to 20)
#    0.000    0.571    2.857    3.429   10.000    2.857 
#    0.000    0.000    0.000    0.000    0.000    0.000 
#    0.000    0.000    0.000    0.000    0.000    0.000 
#
# Total GULP energy -78223.617488 kJ/mol
# GULP energy per Si atom -5587.401249 kJ/mol
# Density = 2.542501 g / cm^3
# Si number density = 25.483009 Si / 1000 Ang^3
#
#
#
# Elastic Constant Matrix: (Units=GPa)
#
#
# Indices 1 2 3 4 5 6 
#
# 1 97.1056 46.1095 21.8843 0.5655 -4.7539 11.7554
# 2 46.1095 112.3969 35.2039 3.1428 -24.4080 9.4193
# 3 21.8843 35.2039 57.6413 10.2323 -25.1242 9.6526
# 4 0.5655 3.1428 10.2323 56.0475 6.9759 -18.2240
# 5 -4.7539 -24.4080 -25.1242 6.9759 56.8631 10.1684
# 6 11.7554 9.4193 9.6526 -18.2240 10.1684 49.8742
#
#
#
# Elastic Compliance Matrix: (Units=1/GPa)
#
#
# Indices 1 2 3 4 5 6 
#
# 1 0.013322 -0.004964 -0.002966 0.000662 -0.002242 -0.000929
# 2 -0.004964 0.013212 -0.004016 -0.001001 0.003910 -0.001711
# 3 -0.002966 -0.004016 0.031780 -0.011409 0.015624 -0.012047
# 4 0.000662 -0.001001 -0.011409 0.025895 -0.011089 0.013964
# 5 -0.002242 0.003910 0.015624 -0.011089 0.029727 -0.013346
# 6 -0.000929 -0.001711 -0.012047 0.013964 -0.013346 0.030748
#
#
# Mechanical properties :
#
#
# Convention : Reuss Voigt Hill
#
# Bulk Modulus (GPa) = 29.05004 52.61545 40.83275
# Shear Modulus (GPa) = 27.77023 43.48670 35.62847
#
# Velocity S-wave (km/s) = 3.30472 4.13546 3.74321
# Velocity P-wave (km/s) = 5.09766 6.59506 5.89410
#
# Compressibility (1/GPa) = 0.03442336
#
# Stress axis : x y z
#
# Youngs Moduli (GPa) = 75.06133 75.68986 31.46650
#
# Poissons Ratio (x) = 0.37573 0.09332
# Poissons Ratio (y) = 0.37261 0.12636
# Poissons Ratio (z) = 0.22260 0.30395
#
# Static dielectric constant tensor:
#      x y z
#    x 2.034530 0.063110 -0.068260 
#    y 0.063110 2.049800 -0.096600 
#    z -0.068260 -0.096600 2.250510 
# 
# From -- ./inp_files/37527.got.cif
#   From: 2010.05.17/outbox.cif.g08.bks.cpg/sg2_19_cif.got.tgz:37527.got - 2010.06.03 11:33:40.
