data_PCOD9065045
_publ_section_title
;
Structure prediction by ZEFSAII (Michael W. Deem and Ramdas Pophale) SiO2 
 PCOD9065045
Probable space group: P -1
;
_chemical_formula_sum "Si O2"
_cell_formula_units_Z 14
_cell_length_a 7.805202
_cell_length_b 6.760371
_cell_length_c 12.344946
_cell_angle_alpha 90.233568
_cell_angle_beta 132.290707
_cell_angle_gamma 83.446919
_cell_volume 476.365100
_symmetry_space_group_name_H-M "P -1"
_symmetry_group_IT_number 2
_symmetry_cell_setting 'triclinic'
loop_
_space_group_symop_operation_xyz
x,y,z
-x,-y,-z
loop_
_atom_site_type_symbol
_atom_site_label
_atom_site_fract_x
_atom_site_fract_y
_atom_site_fract_z
Si Si1 0.246136 0.047677 0.148918
Si Si2 0.500000 0.500000 0.000000
Si Si3 0.378361 0.685420 0.352034
Si Si4 0.984202 0.092008 0.337884
Si Si5 0.015800 0.407989 0.162121
Si Si6 0.246138 0.547679 0.648916
Si Si7 0.500000 0.000000 0.500000
Si Si8 0.621640 0.814578 0.147969
O O1 0.316611 0.928136 0.293237
O O2 0.441263 0.938707 0.152230
O O3 0.181365 0.281599 0.143287
O O4 0.000000 0.000000 0.000000
O O5 0.495506 0.757256 0.987020
O O6 0.742431 0.466299 0.022615
O O7 0.142532 0.593609 0.249088
O O8 0.558735 0.561293 0.347772
O O9 0.504500 0.742747 0.512983
O O10 0.818635 0.218398 0.356716
O O11 0.999998 0.249996 0.250000
O O12 0.857476 0.906381 0.250922
O O13 0.257571 0.033702 0.477390
O O14 0.316618 0.428140 0.793238
O O15 0.000000 0.500000 0.500000
#
# Coordination Sequence:
#
# PCOD9065045 Si02
#       8
#     2   1   2   2   2   2   1   2
#     4  11  24  47  69  99 137 181 220 277 340 391
#     4  12  24  44  70 102 134 176 228 278 332 398
#     4  11  26  46  69 103 135 173 234 273 329 413
#     4  12  26  45  69 102 137 179 222 278 340 393
#     4  12  26  45  69 102 137 179 222 278 340 393
#     4  11  24  47  69  99 137 181 220 277 340 391
#     4  12  24  44  70 102 134 176 228 278 332 398
#     4  11  26  46  69 103 135 173 234 273 329 413
#
# _framework density 29.389223000000001
#
# number of rings (size 3 to 8) (size 9 to 14) (size 15 to 20)
#    0.000    0.571    5.714    1.714    0.000    4.571 
#    0.000    0.000    0.000    0.000    0.000    0.000 
#    0.000    0.000    0.000    0.000    0.000    0.000 
#
# Total GULP energy -78101.350567 kJ/mol
# GULP energy per Si atom -5578.667898 kJ/mol
# Density = 2.932233 g / cm^3
# Si number density = 29.389223 Si / 1000 Ang^3
#
#
#
# Elastic Constant Matrix: (Units=GPa)
#
#
# Indices 1 2 3 4 5 6 
#
# 1 143.0291 125.0002 43.9854 -9.6763 26.8877 -35.3067
# 2 125.0002 207.2543 77.9155 56.4787 47.8507 -51.1452
# 3 43.9854 77.9155 172.7348 24.1709 53.4811 14.7817
# 4 -9.6763 56.4787 24.1709 79.5425 16.3919 8.3965
# 5 26.8877 47.8507 53.4811 16.3919 68.4201 -5.1163
# 6 -35.3067 -51.1452 14.7817 8.3965 -5.1163 77.1083
#
#
#
# Elastic Compliance Matrix: (Units=1/GPa)
#
#
# Indices 1 2 3 4 5 6 
#
# 1 0.028314 -0.025036 0.001831 0.021476 -0.000671 -0.006376
# 2 -0.025036 0.032951 -0.005590 -0.025918 -0.001567 0.014182
# 3 0.001831 -0.005590 0.009561 0.002967 -0.005397 -0.005383
# 4 0.021476 -0.025918 0.002967 0.034284 -0.001727 -0.011774
# 5 -0.000671 -0.001567 -0.005397 -0.001727 0.020701 0.001250
# 6 -0.006376 0.014182 -0.005383 -0.011774 0.001250 0.021853
#
#
# Mechanical properties :
#
#
# Convention : Reuss Voigt Hill
#
# Bulk Modulus (GPa) = 75.55038 112.98005 94.26521
# Shear Modulus (GPa) = 23.84760 63.42198 43.63479
#
# Velocity S-wave (km/s) = 2.85167 4.65047 3.85739
# Velocity P-wave (km/s) = 6.05023 8.20743 7.20997
#
# Compressibility (1/GPa) = 0.01323620
#
# Stress axis : x y z
#
# Youngs Moduli (GPa) = 35.31827 30.34835 104.59527
#
# Poissons Ratio (x) = 0.75981 -0.19155
# Poissons Ratio (y) = 0.88424 0.58465
# Poissons Ratio (z) = -0.06468 0.16964
#
# Static dielectric constant tensor:
#      x y z
#    x 2.579740 0.000550 -1.032170 
#    y 0.000550 2.441340 0.363240 
#    z -1.032170 0.363240 5.401110 
# 
# From -- ./inp_files/6770.got.cif
#   From: 2010.05.17/outbox.cif.g08.bks.cpg/sg2_4_cif.got.tgz:6770.got - 2010.06.03 11:33:40.
