data_PCOD9065300
_publ_section_title
;
Structure prediction by ZEFSAII (Michael W. Deem and Ramdas Pophale) SiO2 
 PCOD9065300
Probable space group: P -1
;
_chemical_formula_sum "Si O2"
_cell_formula_units_Z 12
_cell_length_a 7.198788
_cell_length_b 11.899087
_cell_length_c 7.538041
_cell_angle_alpha 105.909012
_cell_angle_beta 103.870374
_cell_angle_gamma 126.310838
_cell_volume 427.779105
_symmetry_space_group_name_H-M "P -1"
_symmetry_group_IT_number 2
_symmetry_cell_setting 'triclinic'
loop_
_space_group_symop_operation_xyz
x,y,z
-x,-y,-z
loop_
_atom_site_type_symbol
_atom_site_label
_atom_site_fract_x
_atom_site_fract_y
_atom_site_fract_z
Si Si1 0.217263 0.366134 0.127061
Si Si2 0.729157 0.842571 0.774663
Si Si3 0.472671 0.330233 0.899917
Si Si4 0.721634 0.192288 0.169973
Si Si5 0.509435 0.864661 0.408424
Si Si6 0.985876 0.593156 0.381566
O O1 0.303217 0.309786 0.272095
O O2 0.425671 0.557010 0.203662
O O3 0.220102 0.285657 0.915456
O O4 0.780696 0.308520 0.668458
O O5 0.478573 0.794660 0.796023
O O6 0.719479 0.893135 0.600818
O O7 0.000000 0.000000 0.000000
O O8 0.436528 0.178273 0.783257
O O9 0.929195 0.290003 0.094441
O O10 0.716070 0.462971 0.150890
O O11 0.924927 0.258055 0.412535
O O12 0.500000 0.000000 0.000000
O O13 0.500000 0.000000 0.500000
O O14 0.000000 0.500000 0.500000
#
# Coordination Sequence:
#
# PCOD9065300 Si02
#       6
#     2   2   2   2   2   2
#     4  11  26  48  83 119 167 216 275 334 419 491
#     4  11  25  48  79 117 160 216 276 330 410 490
#     4  11  26  49  78 119 172 213 273 345 414 502
#     4  11  24  47  78 116 159 216 276 336 399 492
#     4  11  27  49  83 123 166 214 278 351 417 488
#     4  11  25  44  77 114 158 217 273 329 409 492
#
# _framework density 28.051863999999998
#
# number of rings (size 3 to 8) (size 9 to 14) (size 15 to 20)
#    0.000    1.000    1.667    3.500    2.333   10.667 
#    0.000    3.333    0.000    0.000    0.000    0.000 
#    0.000    0.000    0.000    0.000    0.000    0.000 
#
# Total GULP energy -67101.507333 kJ/mol
# GULP energy per Si atom -5591.792278 kJ/mol
# Density = 2.798802 g / cm^3
# Si number density = 28.051864 Si / 1000 Ang^3
#
#
#
# Elastic Constant Matrix: (Units=GPa)
#
#
# Indices 1 2 3 4 5 6 
#
# 1 212.1266 22.7517 28.8517 7.8592 -15.9283 -2.2600
# 2 22.7517 115.4556 38.7050 -1.6914 -6.5921 -21.8902
# 3 28.8517 38.7050 170.0670 9.6124 -3.8080 -10.1861
# 4 7.8592 -1.6914 9.6124 54.0488 -3.7737 2.8957
# 5 -15.9283 -6.5921 -3.8080 -3.7737 45.5127 1.5422
# 6 -2.2600 -21.8902 -10.1861 2.8957 1.5422 62.8220
#
#
#
# Elastic Compliance Matrix: (Units=1/GPa)
#
#
# Indices 1 2 3 4 5 6 
#
# 1 0.005013 -0.000731 -0.000631 -0.000520 0.001559 -0.000191
# 2 -0.000731 0.010139 -0.002013 0.000684 0.000995 0.003124
# 3 -0.000631 -0.002013 0.006532 -0.001159 -0.000075 0.000390
# 4 -0.000520 0.000684 -0.001159 0.018951 0.001421 -0.000877
# 5 0.001559 0.000995 -0.000075 0.001421 0.022781 -0.000234
# 6 -0.000191 0.003124 0.000390 -0.000877 -0.000234 0.017109
#
#
# Mechanical properties :
#
#
# Convention : Reuss Voigt Hill
#
# Bulk Modulus (GPa) = 66.95885 75.36290 71.16087
# Shear Modulus (GPa) = 54.19802 59.63274 56.91538
#
# Velocity S-wave (km/s) = 4.40029 4.61565 4.50926
# Velocity P-wave (km/s) = 7.05254 7.43838 7.24802
#
# Compressibility (1/GPa) = 0.01493455
#
# Stress axis : x y z
#
# Youngs Moduli (GPa) = 199.49222 98.62532 153.08293
#
# Poissons Ratio (x) = 0.07210 0.09662
# Poissons Ratio (y) = 0.14584 0.30812
# Poissons Ratio (z) = 0.12591 0.19851
#
# Static dielectric constant tensor:
#      x y z
#    x 2.187380 -0.075770 0.002610 
#    y -0.075770 2.381180 -0.065750 
#    z 0.002610 -0.065750 2.414690 
# 
# From -- ./inp_files/188099.got.cif
#   From: 2010.05.17/outbox.cif.g08.bks.cpg/sg2_95_cif.got.tgz:188099.got - 2010.06.03 11:33:40.
