data_PCOD9065160
_publ_section_title
;
Structure prediction by ZEFSAII (Michael W. Deem and Ramdas Pophale) SiO2 
 PCOD9065160
Probable space group: P -1
;
_chemical_formula_sum "Si O2"
_cell_formula_units_Z 16
_cell_length_a 8.580745
_cell_length_b 14.430093
_cell_length_c 10.145430
_cell_angle_alpha 81.579193
_cell_angle_beta 107.453052
_cell_angle_gamma 139.438796
_cell_volume 772.520830
_symmetry_space_group_name_H-M "P -1"
_symmetry_group_IT_number 2
_symmetry_cell_setting 'triclinic'
loop_
_space_group_symop_operation_xyz
x,y,z
-x,-y,-z
loop_
_atom_site_type_symbol
_atom_site_label
_atom_site_fract_x
_atom_site_fract_y
_atom_site_fract_z
Si Si1 0.330102 0.416611 0.605598
Si Si2 0.408879 0.373502 0.912576
Si Si3 0.926242 0.052973 0.873580
Si Si4 0.772538 0.420194 0.363050
Si Si5 0.401405 0.902047 0.869012
Si Si6 0.263876 0.110626 0.397651
Si Si7 0.080784 0.876921 0.580788
Si Si8 0.796520 0.384997 0.079078
O O1 0.500000 0.500000 0.500000
O O2 0.441493 0.404642 0.757507
O O3 0.302114 0.505274 0.647291
O O4 0.063430 0.258472 0.523136
O O5 0.119649 0.222587 0.897642
O O6 0.500000 0.500000 0.000000
O O7 0.554749 0.343040 0.995700
O O8 0.648341 0.970289 0.845110
O O9 0.924596 0.008089 0.737465
O O10 0.000000 0.000000 0.000000
O O11 0.530933 0.252540 0.373661
O O12 0.861175 0.438690 0.234156
O O13 0.000000 0.500000 0.500000
O O14 0.226816 0.887359 0.731631
O O15 0.252784 0.746301 0.911180
O O16 0.500000 0.000000 0.000000
O O17 0.139437 0.149755 0.418071
O O18 0.269641 0.029059 0.521241
O O19 0.000000 0.500000 0.000000
#
# Coordination Sequence:
#
# PCOD9065160 Si02
#       8
#     2   2   2   2   2   2   2   2
#     4  12  26  44  73 109 143 191 235 299 364 440
#     4  12  27  49  76 105 144 193 246 298 369 440
#     4  12  24  47  74 101 143 189 240 296 366 431
#     4  12  26  47  72 105 149 193 240 302 365 433
#     4  12  28  45  73 106 141 192 239 302 361 434
#     4  11  24  47  73 105 143 191 240 300 367 434
#     4  11  26  46  73 108 144 187 245 298 367 442
#     4  12  29  48  69 107 148 192 247 306 361 432
#
# _framework density 20.711416
#
# number of rings (size 3 to 8) (size 9 to 14) (size 15 to 20)
#    0.000    0.250    6.250    1.500    5.250    2.500 
#    0.000    0.000    0.000    0.000    0.000    0.000 
#    0.000    0.000    0.000    0.000    0.000    0.000 
#
# Total GULP energy -89501.201896 kJ/mol
# GULP energy per Si atom -5593.825118 kJ/mol
# Density = 2.066428 g / cm^3
# Si number density = 20.711416 Si / 1000 Ang^3
#
#
#
# Elastic Constant Matrix: (Units=GPa)
#
#
# Indices 1 2 3 4 5 6 
#
# 1 45.2764 45.3990 34.9926 -8.9406 -3.9931 -14.7037
# 2 45.3990 158.2319 66.8215 -3.6230 -9.4016 -11.8348
# 3 34.9926 66.8215 174.9574 -5.4994 7.4159 -19.6893
# 4 -8.9406 -3.6230 -5.4994 38.2998 -5.0575 -5.0747
# 5 -3.9931 -9.4016 7.4159 -5.0575 48.1855 -1.9738
# 6 -14.7037 -11.8348 -19.6893 -5.0747 -1.9738 40.4270
#
#
#
# Elastic Compliance Matrix: (Units=1/GPa)
#
#
# Indices 1 2 3 4 5 6 
#
# 1 0.039157 -0.008633 -0.003064 0.009894 0.003547 0.011637
# 2 -0.008633 0.009673 -0.002239 -0.001451 0.001302 -0.001517
# 3 -0.003064 -0.002239 0.007465 0.000152 -0.001750 0.001799
# 4 0.009894 -0.001451 0.000152 0.029774 0.003933 0.007178
# 5 0.003547 0.001302 -0.001750 0.003933 0.022081 0.002391
# 6 0.011637 -0.001517 0.001799 0.007178 0.002391 0.030418
#
#
# Mechanical properties :
#
#
# Convention : Reuss Voigt Hill
#
# Bulk Modulus (GPa) = 35.18345 74.76576 54.97461
# Shear Modulus (GPa) = 28.42252 40.79932 34.61092
#
# Velocity S-wave (km/s) = 3.70849 4.44317 4.09235
# Velocity P-wave (km/s) = 5.94656 7.90566 6.99504
#
# Compressibility (1/GPa) = 0.02842245
#
# Stress axis : x y z
#
# Youngs Moduli (GPa) = 25.53813 103.37926 133.95357
#
# Poissons Ratio (x) = 0.89248 0.41045
# Poissons Ratio (y) = 0.22047 0.29997
# Poissons Ratio (z) = 0.07825 0.23150
#
# Static dielectric constant tensor:
#      x y z
#    x 1.795700 -0.017610 -0.019010 
#    y -0.017610 1.787280 0.007350 
#    z -0.019010 0.007350 1.718060 
# 
# From -- ./inp_files/207088.got.cif
#   From: 2010.05.17/outbox.cif.g08.bks.cpg/sg2_104_cif.got.tgz:207088.got - 2010.06.03 11:33:40.
