data_PCOD9065922
_publ_section_title
;
Structure prediction by ZEFSAII (Michael W. Deem and Ramdas Pophale) SiO2 
 PCOD9065922
Probable space group: P -1
;
_chemical_formula_sum "Si O2"
_cell_formula_units_Z 16
_cell_length_a 20.219541
_cell_length_b 9.270047
_cell_length_c 5.473854
_cell_angle_alpha 116.919743
_cell_angle_beta 119.058503
_cell_angle_gamma 51.185622
_cell_volume 682.040968
_symmetry_space_group_name_H-M "P -1"
_symmetry_group_IT_number 2
_symmetry_cell_setting 'triclinic'
loop_
_space_group_symop_operation_xyz
x,y,z
-x,-y,-z
loop_
_atom_site_type_symbol
_atom_site_label
_atom_site_fract_x
_atom_site_fract_y
_atom_site_fract_z
Si Si1 0.638548 0.004308 0.858844
Si Si2 0.950549 0.995614 0.653093
Si Si3 0.623505 0.271794 0.672008
Si Si4 0.748708 0.345168 0.601791
Si Si5 0.481831 0.295870 0.097405
Si Si6 0.045348 0.389898 0.744326
Si Si7 0.319498 0.341043 0.651385
Si Si8 0.227299 0.327352 0.872145
O O1 0.675920 0.107522 0.837511
O O2 0.639642 0.832248 0.593285
O O3 0.541345 0.169688 0.885351
O O4 0.700527 0.892211 0.112443
O O5 0.949542 0.806005 0.450567
O O6 0.848065 0.168186 0.613473
O O7 0.000000 0.000000 0.500000
O O8 0.000000 0.000000 0.000000
O O9 0.685244 0.293347 0.598691
O O10 0.552241 0.229526 0.389561
O O11 0.560072 0.479962 0.831440
O O12 0.704737 0.460016 0.359616
O O13 0.756708 0.507727 0.880220
O O14 0.395840 0.279281 0.944934
O O15 0.141659 0.361400 0.880273
O O16 0.000000 0.500000 0.500000
O O17 0.000000 0.500000 0.000000
O O18 0.231782 0.354064 0.611579
#
# Coordination Sequence:
#
# PCOD9065922 Si02
#       8
#     2   2   2   2   2   2   2   2
#     4  11  26  42  72 100 147 188 259 309 376 447
#     4  12  29  52  84 122 155 202 256 320 396 473
#     4  11  26  43  70 103 145 195 252 312 374 441
#     4  11  27  47  74 107 152 195 250 315 381 458
#     4  11  25  44  67 102 144 199 252 309 373 441
#     4  12  29  52  84 116 160 202 255 319 393 477
#     4  11  26  46  71 101 149 201 246 309 373 451
#     4  11  26  49  72 108 149 199 248 309 386 458
#
# _framework density 23.459
#
# number of rings (size 3 to 8) (size 9 to 14) (size 15 to 20)
#    0.000    0.750    1.250    3.750   15.750    3.000 
#    0.000    0.000    0.000    0.000    0.000    0.000 
#    0.000    0.000    0.000    0.000    0.000    0.000 
#
# Total GULP energy -89348.278339 kJ/mol
# GULP energy per Si atom -5584.267396 kJ/mol
# Density = 2.340561 g / cm^3
# Si number density = 23.459000 Si / 1000 Ang^3
#
#
#
# Elastic Constant Matrix: (Units=GPa)
#
#
# Indices 1 2 3 4 5 6 
#
# 1 175.6124 84.3607 45.1458 -3.1313 -25.4881 -6.5386
# 2 84.3607 162.7183 39.9361 9.0231 -26.5521 -0.2666
# 3 45.1458 39.9361 99.9108 11.3104 -19.2422 -12.5248
# 4 -3.1313 9.0231 11.3104 31.8610 -0.8264 -9.5411
# 5 -25.4881 -26.5521 -19.2422 -0.8264 24.8839 2.7642
# 6 -6.5386 -0.2666 -12.5248 -9.5411 2.7642 46.4489
#
#
#
# Elastic Compliance Matrix: (Units=1/GPa)
#
#
# Indices 1 2 3 4 5 6 
#
# 1 0.008473 -0.003518 -0.001972 0.002929 0.003382 0.001041
# 2 -0.003518 0.009280 -0.000889 -0.003001 0.005694 -0.001637
# 3 -0.001972 -0.000889 0.013293 -0.003853 0.006950 0.002097
# 4 0.002929 -0.003001 -0.003853 0.035884 -0.002755 0.006891
# 5 0.003382 0.005694 0.006950 -0.002755 0.055172 -0.001467
# 6 0.001041 -0.001637 0.002097 0.006891 -0.001467 0.023734
#
#
# Mechanical properties :
#
#
# Convention : Reuss Voigt Hill
#
# Bulk Modulus (GPa) = 54.67833 86.34743 70.51288
# Shear Modulus (GPa) = 30.36005 38.55867 34.45936
#
# Velocity S-wave (km/s) = 3.60137 4.05861 3.83681
# Velocity P-wave (km/s) = 6.37587 7.67143 7.05346
#
# Compressibility (1/GPa) = 0.01828878
#
# Stress axis : x y z
#
# Youngs Moduli (GPa) = 118.02248 107.75476 75.22832
#
# Poissons Ratio (x) = 0.37903 0.14837
# Poissons Ratio (y) = 0.41515 0.06687
# Poissons Ratio (z) = 0.23277 0.09578
#
# Static dielectric constant tensor:
#      x y z
#    x 1.839780 -0.027460 -0.049370 
#    y -0.027460 1.809250 -0.000620 
#    z -0.049370 -0.000620 2.051110 
# 
# From -- ./inp_files/117476.got.cif
#   From: 2010.05.17/outbox.cif.g08.bks.cpg/sg2_59_cif.got.tgz:117476.got - 2010.06.03 11:33:40.
