data_PCOD9065112
_publ_section_title
;
Structure prediction by ZEFSAII (Michael W. Deem and Ramdas Pophale) SiO2 
 PCOD9065112
Probable space group: P -1
;
_chemical_formula_sum "Si O2"
_cell_formula_units_Z 16
_cell_length_a 11.078521
_cell_length_b 8.561774
_cell_length_c 15.367025
_cell_angle_alpha 113.278656
_cell_angle_beta 139.703742
_cell_angle_gamma 47.564124
_cell_volume 673.593394
_symmetry_space_group_name_H-M "P -1"
_symmetry_group_IT_number 2
_symmetry_cell_setting 'triclinic'
loop_
_space_group_symop_operation_xyz
x,y,z
-x,-y,-z
loop_
_atom_site_type_symbol
_atom_site_label
_atom_site_fract_x
_atom_site_fract_y
_atom_site_fract_z
Si Si1 0.370619 0.537380 0.747172
Si Si2 0.977640 0.927764 0.115360
Si Si3 0.733752 0.010599 0.827277
Si Si4 0.901245 0.520530 0.277962
Si Si5 0.496866 0.797465 0.973521
Si Si6 0.750832 0.282902 0.621731
Si Si7 0.564310 0.842711 0.578042
Si Si8 0.041990 0.778207 0.456493
O O1 0.569815 0.273174 0.806025
O O2 0.168631 0.590052 0.717633
O O3 0.473893 0.665037 0.857090
O O4 0.261079 0.605434 0.604460
O O5 0.094654 0.034129 0.168278
O O6 0.161230 0.726495 0.235623
O O7 0.743665 0.092856 0.079234
O O8 0.890904 0.886686 0.971249
O O9 0.597737 0.922068 0.703419
O O10 0.173603 0.373407 0.357590
O O11 0.866303 0.717748 0.355974
O O12 0.720119 0.623520 0.119929
O O13 0.500000 0.000000 0.000000
O O14 0.500000 0.500000 0.500000
O O15 0.674425 0.132595 0.542125
O O16 0.934481 0.226713 0.636607
O O17 0.500000 0.000000 0.500000
O O18 0.000000 0.000000 0.500000
#
# Coordination Sequence:
#
# PCOD9065112 Si02
#       8
#     2   2   2   2   2   2   2   2
#     4  12  26  47  74 106 144 187 247 301 351 437
#     4  11  24  47  72 102 143 184 233 302 353 425
#     4  11  25  44  74 109 137 181 249 296 352 416
#     4  12  26  48  72 108 143 193 244 288 370 431
#     4  12  27  48  74 105 149 190 232 296 376 431
#     4  12  25  48  71 100 148 190 237 291 367 428
#     4  12  26  45  74 104 143 193 238 295 355 432
#     4  12  27  45  72 107 146 189 240 301 360 425
#
# _framework density 23.753202999999999
#
# number of rings (size 3 to 8) (size 9 to 14) (size 15 to 20)
#    0.000    0.250    3.750    5.250    7.000    1.000 
#    0.000    1.250    0.000    0.000    0.000    0.000 
#    0.000    0.000    0.000    0.000    0.000    0.000 
#
# Total GULP energy -89326.871775 kJ/mol
# GULP energy per Si atom -5582.929486 kJ/mol
# Density = 2.369914 g / cm^3
# Si number density = 23.753203 Si / 1000 Ang^3
#
#
#
# Elastic Constant Matrix: (Units=GPa)
#
#
# Indices 1 2 3 4 5 6 
#
# 1 88.3493 30.4939 25.9715 0.1624 -3.6745 5.9187
# 2 30.4939 83.4019 32.5148 9.3479 1.6789 15.3638
# 3 25.9715 32.5148 173.8322 -1.7379 -34.2983 17.3535
# 4 0.1624 9.3479 -1.7379 45.4117 8.4475 9.6569
# 5 -3.6745 1.6789 -34.2983 8.4475 43.7698 -5.3665
# 6 5.9187 15.3638 17.3535 9.6569 -5.3665 36.6571
#
#
#
# Elastic Compliance Matrix: (Units=1/GPa)
#
#
# Indices 1 2 3 4 5 6 
#
# 1 0.013197 -0.004521 -0.001068 0.000760 0.000312 0.000115
# 2 -0.004521 0.015714 -0.002428 -0.001728 -0.003129 -0.004709
# 3 -0.001068 -0.002428 0.007674 0.000059 0.005808 -0.001608
# 4 0.000760 -0.001728 0.000059 0.024827 -0.005445 -0.006764
# 5 0.000312 -0.003129 0.005808 -0.005445 0.029111 0.004208
# 6 0.000115 -0.004709 -0.001608 -0.006764 0.004208 0.032394
#
#
# Mechanical properties :
#
#
# Convention : Reuss Voigt Hill
#
# Bulk Modulus (GPa) = 48.66512 58.17154 53.41833
# Shear Modulus (GPa) = 34.29292 42.27462 38.28377
#
# Velocity S-wave (km/s) = 3.80375 4.22328 4.01899
# Velocity P-wave (km/s) = 6.31060 6.95159 6.63883
#
# Compressibility (1/GPa) = 0.02054860
#
# Stress axis : x y z
#
# Youngs Moduli (GPa) = 75.77360 63.63688 130.31773
#
# Poissons Ratio (x) = 0.28773 0.13924
# Poissons Ratio (y) = 0.34260 0.31645
# Poissons Ratio (z) = 0.08096 0.15453
#
# Static dielectric constant tensor:
#      x y z
#    x 1.855170 -0.086090 -0.002700 
#    y -0.086090 1.975310 -0.005340 
#    z -0.002700 -0.005340 1.885750 
# 
# From -- ./inp_files/405674.got.cif
#   From: 2010.05.17/outbox.cif.g08.bks.cpg/sg2_203_cif.got.tgz:405674.got - 2010.06.03 11:33:40.
