data_PCOD9065543
_publ_section_title
;
Structure prediction by ZEFSAII (Michael W. Deem and Ramdas Pophale) SiO2 
 PCOD9065543
Probable space group: P -1
;
_chemical_formula_sum "Si O2"
_cell_formula_units_Z 14
_cell_length_a 15.669225
_cell_length_b 7.002209
_cell_length_c 6.848725
_cell_angle_alpha 120.194884
_cell_angle_beta 99.979876
_cell_angle_gamma 58.048095
_cell_volume 546.644761
_symmetry_space_group_name_H-M "P -1"
_symmetry_group_IT_number 2
_symmetry_cell_setting 'triclinic'
loop_
_space_group_symop_operation_xyz
x,y,z
-x,-y,-z
loop_
_atom_site_type_symbol
_atom_site_label
_atom_site_fract_x
_atom_site_fract_y
_atom_site_fract_z
Si Si1 0.849171 0.576819 0.397759
Si Si2 0.009127 0.024294 0.746643
Si Si3 0.382194 0.550578 0.205496
Si Si4 0.823622 0.039679 0.840062
Si Si5 0.692677 0.716065 0.710550
Si Si6 0.154343 0.228465 0.938587
Si Si7 0.505749 0.193618 0.748728
O O1 0.920002 0.271936 0.305539
O O2 0.740745 0.650193 0.481374
O O3 0.879697 0.740245 0.637518
O O4 0.839695 0.700412 0.245242
O O5 0.047727 0.224734 0.900251
O O6 0.000000 0.000000 0.500000
O O7 0.902265 0.124323 0.860231
O O8 0.275374 0.803541 0.246176
O O9 0.362002 0.435468 0.328543
O O10 0.468868 0.619269 0.265917
O O11 0.411747 0.348921 0.935377
O O12 0.791097 0.042316 0.052612
O O13 0.603970 0.014914 0.831951
O O14 0.787054 0.648952 0.859115
O O15 0.500000 0.000000 0.500000
#
# Coordination Sequence:
#
# PCOD9065543 Si02
#       7
#     2   2   2   2   2   2   2
#     4  11  25  46  70 106 150 200 252 307 372 445
#     4  12  25  45  74 110 153 201 260 309 372 447
#     4  11  25  51  77 109 160 187 251 323 377 454
#     4  11  24  49  69 108 151 200 250 311 379 444
#     4  11  26  48  74 110 152 193 251 310 381 454
#     4  11  26  44  72 105 153 198 254 305 376 446
#     4  11  26  50  81 116 146 195 254 314 389 461
#
# _framework density 25.610783999999999
#
# number of rings (size 3 to 8) (size 9 to 14) (size 15 to 20)
#    0.000    0.857    4.286    2.143    4.000    1.143 
#    2.571    0.000    0.000    0.000    0.000    0.000 
#    0.000    0.000    0.000    0.000    0.000    0.000 
#
# Total GULP energy -78100.438599 kJ/mol
# GULP energy per Si atom -5578.602757 kJ/mol
# Density = 2.555249 g / cm^3
# Si number density = 25.610784 Si / 1000 Ang^3
#
#
#
# Elastic Constant Matrix: (Units=GPa)
#
#
# Indices 1 2 3 4 5 6 
#
# 1 124.7386 56.8834 38.6001 -14.7607 -21.9180 35.3512
# 2 56.8834 114.4571 44.7183 -10.1713 -10.3062 35.7584
# 3 38.6001 44.7183 93.8100 -10.0175 7.6239 5.2820
# 4 -14.7607 -10.1713 -10.0175 45.9404 4.2975 -11.8795
# 5 -21.9180 -10.3062 7.6239 4.2975 43.7624 -12.3030
# 6 35.3512 35.7584 5.2820 -11.8795 -12.3030 46.8763
#
#
#
# Elastic Compliance Matrix: (Units=1/GPa)
#
#
# Indices 1 2 3 4 5 6 
#
# 1 0.013114 -0.002479 -0.004199 0.000724 0.004945 -0.006044
# 2 -0.002479 0.015042 -0.005839 -0.001152 0.000900 -0.009002
# 3 -0.004199 -0.005839 0.015556 0.002563 -0.004974 0.005212
# 4 0.000724 -0.001152 0.002563 0.023909 -0.001066 0.005823
# 5 0.004945 0.000900 -0.004974 -0.001066 0.027370 0.003058
# 6 -0.006044 -0.009002 0.005212 0.005823 0.003058 0.034449
#
#
# Mechanical properties :
#
#
# Convention : Reuss Voigt Hill
#
# Bulk Modulus (GPa) = 53.54192 68.15660 60.84926
# Shear Modulus (GPa) = 31.11394 40.16940 35.64167
#
# Velocity S-wave (km/s) = 3.48929 3.96467 3.73455
# Velocity P-wave (km/s) = 6.09794 6.90133 6.51204
#
# Compressibility (1/GPa) = 0.01867695
#
# Stress axis : x y z
#
# Youngs Moduli (GPa) = 76.25369 66.48258 64.28592
#
# Poissons Ratio (x) = 0.16482 0.26991
# Poissons Ratio (y) = 0.18905 0.37539
# Poissons Ratio (z) = 0.32016 0.38821
#
# Static dielectric constant tensor:
#      x y z
#    x 2.077360 -0.041940 0.063780 
#    y -0.041940 2.035170 -0.010100 
#    z 0.063780 -0.010100 2.067530 
# 
# From -- ./inp_files/293502.got.cif
#   From: 2010.05.17/outbox.cif.g08.bks.cpg/sg2_147_cif.got.tgz:293502.got - 2010.06.03 11:33:40.
