data_PCOD9065619
_publ_section_title
;
Structure prediction by ZEFSAII (Michael W. Deem and Ramdas Pophale) SiO2 
 PCOD9065619
Probable space group: P -1
;
_chemical_formula_sum "Si O2"
_cell_formula_units_Z 13
_cell_length_a 9.179797
_cell_length_b 18.717630
_cell_length_c 5.437665
_cell_angle_alpha 124.046849
_cell_angle_beta 53.726065
_cell_angle_gamma 139.837465
_cell_volume 475.272935
_symmetry_space_group_name_H-M "P -1"
_symmetry_group_IT_number 2
_symmetry_cell_setting 'triclinic'
loop_
_space_group_symop_operation_xyz
x,y,z
-x,-y,-z
loop_
_atom_site_type_symbol
_atom_site_label
_atom_site_fract_x
_atom_site_fract_y
_atom_site_fract_z
Si Si1 0.705399 0.589659 0.652652
Si Si2 0.000000 0.500000 0.000000
Si Si3 0.046900 0.810449 0.402866
Si Si4 0.585671 0.952302 0.632801
Si Si5 0.314483 0.562786 0.279152
Si Si6 0.651746 0.232883 0.859903
Si Si7 0.322259 0.187853 0.456067
O O1 0.500000 0.500000 0.500000
O O2 0.880636 0.710296 0.576085
O O3 0.789700 0.520690 0.535275
O O4 0.560093 0.591896 0.013709
O O5 0.124993 0.493883 0.120915
O O6 0.201460 0.637263 0.080664
O O7 0.883085 0.805514 0.352955
O O8 0.213803 0.782927 0.100377
O O9 0.231072 0.943929 0.535964
O O10 0.375421 0.841638 0.480456
O O11 0.716817 0.911945 0.551805
O O12 0.500000 0.000000 0.000000
O O13 0.429513 0.690597 0.471333
O O14 0.389548 0.179849 0.097169
#
# Coordination Sequence:
#
# PCOD9065619 Si02
#       7
#     2   1   2   2   2   2   2
#     4  11  24  49  77 119 170 211 284 343 404 511
#     4  12  26  48  78 120 166 216 268 342 434 466
#     4  12  27  49  85 115 162 226 268 338 426 484
#     4  12  28  57  80 119 171 216 284 344 409 503
#     4  11  26  48  80 121 171 215 276 349 414 500
#     4  12  29  51  77 124 167 208 284 347 399 511
#     4  12  27  52  80 119 164 213 279 350 407 499
#
# _framework density 27.352703999999999
#
# number of rings (size 3 to 8) (size 9 to 14) (size 15 to 20)
#    0.000    0.308    4.615    2.769    4.308    3.692 
#    0.000    0.000    0.000    0.000    0.000    0.000 
#    0.000    0.000    0.000    0.000    0.000    0.000 
#
# Total GULP energy -72532.917893 kJ/mol
# GULP energy per Si atom -5579.455223 kJ/mol
# Density = 2.729045 g / cm^3
# Si number density = 27.352704 Si / 1000 Ang^3
#
#
#
# Elastic Constant Matrix: (Units=GPa)
#
#
# Indices 1 2 3 4 5 6 
#
# 1 160.6214 56.0430 10.8489 17.9037 -5.6019 -23.0408
# 2 56.0430 230.5400 34.7869 13.1091 12.9652 -44.3262
# 3 10.8489 34.7869 62.1917 29.2155 1.6000 -1.7724
# 4 17.9037 13.1091 29.2155 35.9996 1.5637 -0.4191
# 5 -5.6019 12.9652 1.6000 1.5637 43.9772 2.0126
# 6 -23.0408 -44.3262 -1.7724 -0.4191 2.0126 58.7907
#
#
#
# Elastic Compliance Matrix: (Units=1/GPa)
#
#
# Indices 1 2 3 4 5 6 
#
# 1 0.007464 -0.001568 0.001749 -0.004603 0.001435 0.001714
# 2 -0.001568 0.006062 -0.003790 0.001784 -0.002092 0.003926
# 3 0.001749 -0.003790 0.028465 -0.022660 0.001179 -0.001516
# 4 -0.004603 0.001784 -0.022660 0.047883 -0.001957 -0.000733
# 5 0.001435 -0.002092 0.001179 -0.001957 0.023648 -0.001803
# 6 0.001714 0.003926 -0.001516 -0.000733 -0.001803 0.020652
#
#
# Mechanical properties :
#
#
# Convention : Reuss Voigt Hill
#
# Bulk Modulus (GPa) = 28.75715 72.96787 50.86251
# Shear Modulus (GPa) = 32.68373 51.19845 41.94109
#
# Velocity S-wave (km/s) = 3.46048 4.33111 3.92004
# Velocity P-wave (km/s) = 5.14809 7.19346 6.25495
#
# Compressibility (1/GPa) = 0.03477396
#
# Stress axis : x y z
#
# Youngs Moduli (GPa) = 133.98327 164.97285 35.13065
#
# Poissons Ratio (x) = 0.25863 -0.06145
# Poissons Ratio (y) = 0.21005 0.13313
# Poissons Ratio (z) = -0.23436 0.62519
#
# Static dielectric constant tensor:
#      x y z
#    x 2.197470 -0.017170 -0.013700 
#    y -0.017170 2.077930 -0.047150 
#    z -0.013700 -0.047150 1.929300 
# 
# From -- ./inp_files/48876.got.cif
#   From: 2010.05.17/outbox.cif.g08.bks.cpg/sg2_25_cif.got.tgz:48876.got - 2010.06.03 11:33:40.
