data_PCOD9065585
_publ_section_title
;
Structure prediction by ZEFSAII (Michael W. Deem and Ramdas Pophale) SiO2 
 PCOD9065585
Probable space group: P -1
;
_chemical_formula_sum "Si O2"
_cell_formula_units_Z 16
_cell_length_a 15.298967
_cell_length_b 8.651144
_cell_length_c 16.014791
_cell_angle_alpha 70.694406
_cell_angle_beta 28.497558
_cell_angle_gamma 88.928305
_cell_volume 760.888023
_symmetry_space_group_name_H-M "P -1"
_symmetry_group_IT_number 2
_symmetry_cell_setting 'triclinic'
loop_
_space_group_symop_operation_xyz
x,y,z
-x,-y,-z
loop_
_atom_site_type_symbol
_atom_site_label
_atom_site_fract_x
_atom_site_fract_y
_atom_site_fract_z
Si Si1 0.436568 0.370430 0.161143
Si Si2 0.633937 0.724632 0.388274
Si Si3 0.793300 0.399071 0.125501
Si Si4 0.131046 0.883321 0.997080
Si Si5 0.819058 0.673855 0.913623
Si Si6 0.672446 0.966950 0.013211
Si Si7 0.979969 0.295184 0.561319
Si Si8 0.778892 0.098821 0.591362
O O1 0.214847 0.343655 0.389025
O O2 0.362859 0.145939 0.244167
O O3 0.500000 0.500000 0.000000
O O4 0.644281 0.490828 0.029771
O O5 0.500000 0.500000 0.500000
O O6 0.451842 0.719167 0.601259
O O7 0.728877 0.896806 0.206373
O O8 0.860808 0.781458 0.235127
O O9 0.815079 0.254194 0.073083
O O10 0.824876 0.578386 0.011484
O O11 0.000000 0.500000 0.000000
O O12 0.212789 0.916503 0.017405
O O13 0.063994 0.811636 0.638007
O O14 0.733316 0.811831 0.973803
O O15 0.401530 0.851149 0.265394
O O16 0.775126 0.129731 0.822764
O O17 0.934157 0.195240 0.526203
O O18 0.000000 0.500000 0.500000
#
# Coordination Sequence:
#
# PCOD9065585 Si02
#       8
#     2   2   2   2   2   2   2   2
#     4  12  23  46  75 104 147 192 242 303 363 431
#     4  11  24  49  74 105 144 184 236 301 365 432
#     4  12  27  47  77 105 145 192 243 300 371 431
#     4  11  27  46  74 107 144 188 240 298 365 433
#     4  12  28  47  72 110 145 193 247 303 367 434
#     4  12  27  46  73 107 145 190 245 296 360 436
#     4  12  25  45  73 106 150 195 241 295 364 431
#     4  12  26  48  73 104 151 193 242 302 360 433
#
# _framework density 21.028061000000001
#
# number of rings (size 3 to 8) (size 9 to 14) (size 15 to 20)
#    0.000    0.250    3.750    4.875    7.000    2.000 
#    0.000    0.000    0.000    0.000    0.000    0.000 
#    0.000    0.000    0.000    0.000    0.000    0.000 
#
# Total GULP energy -89651.503880 kJ/mol
# GULP energy per Si atom -5603.218993 kJ/mol
# Density = 2.098020 g / cm^3
# Si number density = 21.028061 Si / 1000 Ang^3
#
#
#
# Elastic Constant Matrix: (Units=GPa)
#
#
# Indices 1 2 3 4 5 6 
#
# 1 82.7747 3.1003 32.4537 -9.4255 8.6794 -8.0651
# 2 3.1003 108.1881 33.7977 -9.7937 5.3994 -9.9560
# 3 32.4537 33.7977 128.5113 16.9363 -13.3592 -12.9813
# 4 -9.4255 -9.7937 16.9363 42.4139 -4.0647 -5.9161
# 5 8.6794 5.3994 -13.3592 -4.0647 22.6989 4.4990
# 6 -8.0651 -9.9560 -12.9813 -5.9161 4.4990 34.9757
#
#
#
# Elastic Compliance Matrix: (Units=1/GPa)
#
#
# Indices 1 2 3 4 5 6 
#
# 1 0.016978 0.003212 -0.006671 0.006816 -0.010935 0.004913
# 2 0.003212 0.011894 -0.004941 0.005348 -0.006815 0.004074
# 3 -0.006671 -0.004941 0.012640 -0.006802 0.010086 -0.000701
# 4 0.006816 0.005348 -0.006802 0.029523 -0.003794 0.006051
# 5 -0.010935 -0.006815 0.010086 -0.003794 0.056833 -0.008670
# 6 0.004913 0.004074 -0.000701 0.006051 -0.008670 0.032762
#
#
# Mechanical properties :
#
#
# Convention : Reuss Voigt Hill
#
# Bulk Modulus (GPa) = 40.46687 50.90861 45.68774
# Shear Modulus (GPa) = 26.93010 36.69254 31.81132
#
# Velocity S-wave (km/s) = 3.58253 4.18177 3.89370
# Velocity P-wave (km/s) = 6.03314 6.89773 6.47987
#
# Compressibility (1/GPa) = 0.02471158
#
# Stress axis : x y z
#
# Youngs Moduli (GPa) = 58.90114 84.07694 79.11654
#
# Poissons Ratio (x) = -0.27008 0.52779
# Poissons Ratio (y) = -0.18921 0.39092
# Poissons Ratio (z) = 0.39293 0.41543
#
# Static dielectric constant tensor:
#      x y z
#    x 1.732580 -0.000520 -0.010380 
#    y -0.000520 1.737980 0.012210 
#    z -0.010380 0.012210 1.771250 
# 
# From -- ./inp_files/55259.got.cif
#   From: 2010.05.17/outbox.cif.g08.bks.cpg/sg2_28_cif.got.tgz:55259.got - 2010.06.03 11:33:40.
