data_PCOD9065623
_publ_section_title
;
Structure prediction by ZEFSAII (Michael W. Deem and Ramdas Pophale) SiO2 
 PCOD9065623
Probable space group: P -1
;
_chemical_formula_sum "Si O2"
_cell_formula_units_Z 13
_cell_length_a 6.370039
_cell_length_b 9.052582
_cell_length_c 12.271313
_cell_angle_alpha 54.404013
_cell_angle_beta 70.877661
_cell_angle_gamma 69.900297
_cell_volume 532.766016
_symmetry_space_group_name_H-M "P -1"
_symmetry_group_IT_number 2
_symmetry_cell_setting 'triclinic'
loop_
_space_group_symop_operation_xyz
x,y,z
-x,-y,-z
loop_
_atom_site_type_symbol
_atom_site_label
_atom_site_fract_x
_atom_site_fract_y
_atom_site_fract_z
Si Si1 0.667992 0.391700 0.607769
Si Si2 0.754979 0.034047 0.263303
Si Si3 0.000000 0.000000 0.000000
Si Si4 0.842555 0.714062 0.539310
Si Si5 0.657971 0.723399 0.142100
Si Si6 0.413244 0.314218 0.067901
Si Si7 0.036170 0.683033 0.752250
O O1 0.500000 0.500000 0.500000
O O2 0.729762 0.533652 0.627442
O O3 0.535680 0.246510 0.746467
O O4 0.907946 0.317568 0.543678
O O5 0.534235 0.154387 0.194443
O O6 0.844668 0.165058 0.279687
O O7 0.704432 0.865492 0.416513
O O8 0.927357 0.986899 0.152010
O O9 0.840909 0.850854 0.062981
O O10 0.894403 0.753191 0.637793
O O11 0.789980 0.508804 0.220421
O O12 0.529005 0.747629 0.038531
O O13 0.146768 0.355630 0.112881
O O14 0.500000 0.500000 0.000000
#
# Coordination Sequence:
#
# PCOD9065623 Si02
#       7
#     2   2   1   2   2   2   2
#     4  11  24  49  78 110 150 207 250 311 385 445
#     4  12  28  47  72 115 151 198 253 313 377 450
#     4  12  28  48  74 112 156 190 258 316 370 456
#     4  11  27  46  77 115 153 197 255 314 374 455
#     4  12  25  49  78 110 152 199 255 313 379 448
#     4  12  25  46  77 107 148 204 251 306 385 449
#     4  12  25  50  74 107 154 199 253 312 372 458
#
# _framework density 24.400953000000001
#
# number of rings (size 3 to 8) (size 9 to 14) (size 15 to 20)
#    0.000    0.308    4.615    3.692    4.308    3.692 
#    0.000    0.000    0.000    0.000    0.000    0.000 
#    0.000    0.000    0.000    0.000    0.000    0.000 
#
# Total GULP energy -72606.070409 kJ/mol
# GULP energy per Si atom -5585.082339 kJ/mol
# Density = 2.434542 g / cm^3
# Si number density = 24.400953 Si / 1000 Ang^3
#
#
#
# Elastic Constant Matrix: (Units=GPa)
#
#
# Indices 1 2 3 4 5 6 
#
# 1 39.9588 1.6305 20.9252 8.9881 24.3270 5.7940
# 2 1.6305 60.4262 16.2478 8.5010 13.5719 28.9182
# 3 20.9252 16.2478 103.5617 7.6894 20.0663 8.6355
# 4 8.9881 8.5010 7.6894 31.4643 7.9187 8.3316
# 5 24.3270 13.5719 20.0663 7.9187 63.7713 -0.9589
# 6 5.7940 28.9182 8.6355 8.3316 -0.9589 51.2544
#
#
#
# Elastic Compliance Matrix: (Units=1/GPa)
#
#
# Indices 1 2 3 4 5 6 
#
# 1 0.038421 0.007798 -0.005210 -0.006413 -0.013987 -0.007085
# 2 0.007798 0.026345 -0.002784 -0.002794 -0.007584 -0.014964
# 3 -0.005210 -0.002784 0.011330 -0.000371 -0.000935 0.000294
# 4 -0.006413 -0.002794 -0.000371 0.035712 -0.001329 -0.003466
# 5 -0.013987 -0.007584 -0.000935 -0.001329 0.023190 0.006667
# 6 -0.007085 -0.014964 0.000294 -0.003466 0.006667 0.029393
#
#
# Mechanical properties :
#
#
# Convention : Reuss Voigt Hill
#
# Bulk Modulus (GPa) = 13.20923 31.28375 22.24649
# Shear Modulus (GPa) = 26.31351 40.30755 33.31053
#
# Velocity S-wave (km/s) = 3.28743 4.06875 3.69878
# Velocity P-wave (km/s) = 4.45363 5.90944 5.23241
#
# Compressibility (1/GPa) = 0.07570462
#
# Stress axis : x y z
#
# Youngs Moduli (GPa) = 26.02761 37.95751 88.26387
#
# Poissons Ratio (x) = -0.29600 0.45981
# Poissons Ratio (y) = -0.20297 0.24575
# Poissons Ratio (z) = 0.13559 0.10569
#
# Static dielectric constant tensor:
#      x y z
#    x 1.905520 -0.045710 0.050730 
#    y -0.045710 2.018860 0.025540 
#    z 0.050730 0.025540 1.903820 
# 
# From -- ./inp_files/23476.got.cif
#   From: 2010.05.17/outbox.cif.g08.bks.cpg/sg2_12_cif.got.tgz:23476.got - 2010.06.03 11:33:40.
