data_PCOD9065542
_publ_section_title
;
Structure prediction by ZEFSAII (Michael W. Deem and Ramdas Pophale) SiO2 
 PCOD9065542
Probable space group: P -1
;
_chemical_formula_sum "Si O2"
_cell_formula_units_Z 14
_cell_length_a 14.025352
_cell_length_b 8.964835
_cell_length_c 17.367919
_cell_angle_alpha 67.497236
_cell_angle_beta 159.576196
_cell_angle_gamma 101.193594
_cell_volume 605.423348
_symmetry_space_group_name_H-M "P -1"
_symmetry_group_IT_number 2
_symmetry_cell_setting 'triclinic'
loop_
_space_group_symop_operation_xyz
x,y,z
-x,-y,-z
loop_
_atom_site_type_symbol
_atom_site_label
_atom_site_fract_x
_atom_site_fract_y
_atom_site_fract_z
Si Si1 0.222063 0.345374 0.901599
Si Si2 0.701955 0.189799 0.905095
Si Si3 0.728107 0.521813 0.929255
Si Si4 0.267130 0.800745 0.406886
Si Si5 0.938640 0.771577 0.557509
Si Si6 0.485388 0.317292 0.545236
Si Si7 0.695951 0.052269 0.193257
O O1 0.949549 0.297075 0.728480
O O2 0.084377 0.551729 0.719650
O O3 0.382331 0.361114 0.098550
O O4 0.452265 0.199064 0.042093
O O5 0.622552 0.372279 0.858379
O O6 0.428849 0.139154 0.718844
O O7 0.670062 0.237217 0.780623
O O8 0.038938 0.014201 0.217841
O O9 0.584573 0.673485 0.721644
O O10 0.110211 0.393511 0.251428
O O11 0.358655 0.810132 0.386205
O O12 0.126486 0.850965 0.731691
O O13 0.939768 0.856870 0.458442
O O14 0.500000 0.500000 0.500000
O O15 0.500000 0.000000 0.000000
#
# Coordination Sequence:
#
# PCOD9065542 Si02
#       7
#     2   2   2   2   2   2   2
#     4  12  25  47  74 105 143 188 236 294 354 431
#     4  12  26  46  72 106 149 190 241 295 355 420
#     4  12  25  44  75 101 149 196 234 295 351 428
#     4  12  26  44  72 108 146 195 243 288 355 416
#     4  11  24  49  69 108 140 183 236 296 354 427
#     4  12  23  47  70 104 152 191 244 295 343 420
#     4  11  28  47  76 104 141 180 237 300 361 431
#
# _framework density 23.124316
#
# number of rings (size 3 to 8) (size 9 to 14) (size 15 to 20)
#    0.000    0.286    7.143    1.286    2.000    5.714 
#    0.000    0.000    0.000    0.000    0.000    0.000 
#    0.000    0.000    0.000    0.000    0.000    0.000 
#
# Total GULP energy -78265.928255 kJ/mol
# GULP energy per Si atom -5590.423447 kJ/mol
# Density = 2.307168 g / cm^3
# Si number density = 23.124316 Si / 1000 Ang^3
#
#
#
# Elastic Constant Matrix: (Units=GPa)
#
#
# Indices 1 2 3 4 5 6 
#
# 1 77.4814 38.5098 13.5407 1.3094 1.8591 -14.6557
# 2 38.5098 100.1286 33.3247 3.2211 -8.1324 -6.1417
# 3 13.5407 33.3247 75.1989 -0.0020 -11.4435 -4.6237
# 4 1.3094 3.2211 -0.0020 35.2205 11.2330 -6.3361
# 5 1.8591 -8.1324 -11.4435 11.2330 38.6592 -2.1346
# 6 -14.6557 -6.1417 -4.6237 -6.3361 -2.1346 43.5208
#
#
#
# Elastic Compliance Matrix: (Units=1/GPa)
#
#
# Indices 1 2 3 4 5 6 
#
# 1 0.017124 -0.006435 -0.000303 0.001628 -0.002467 0.004942
# 2 -0.006435 0.014287 -0.004858 -0.001986 0.002408 -0.000838
# 3 -0.000303 -0.004858 0.016182 -0.000641 0.004026 0.001036
# 4 0.001628 -0.001986 -0.000641 0.032461 -0.009873 0.004441
# 5 -0.002467 0.002408 0.004026 -0.009873 0.030553 -0.000002
# 6 0.004942 -0.000838 0.001036 0.004441 -0.000002 0.025280
#
#
# Mechanical properties :
#
#
# Convention : Reuss Voigt Hill
#
# Bulk Modulus (GPa) = 40.98186 47.06214 44.02200
# Shear Modulus (GPa) = 29.90223 34.64236 32.27229
#
# Velocity S-wave (km/s) = 3.59988 3.87472 3.73983
# Velocity P-wave (km/s) = 5.91944 6.35719 6.14222
#
# Compressibility (1/GPa) = 0.02440104
#
# Stress axis : x y z
#
# Youngs Moduli (GPa) = 58.39774 69.99509 61.79789
#
# Poissons Ratio (x) = 0.45039 0.01875
# Poissons Ratio (y) = 0.37576 0.30020
# Poissons Ratio (z) = 0.01772 0.34002
#
# Static dielectric constant tensor:
#      x y z
#    x 1.950380 -0.008930 0.004550 
#    y -0.008930 1.878750 0.039090 
#    z 0.004550 0.039090 1.946960 
# 
# From -- ./inp_files/48400.got.cif
#   From: 2010.05.17/outbox.cif.g08.bks.cpg/sg2_25_cif.got.tgz:48400.got - 2010.06.03 11:33:40.
