data_PCOD9065248
_publ_section_title
;
Structure prediction by ZEFSAII (Michael W. Deem and Ramdas Pophale) SiO2 
 PCOD9065248
Probable space group: P -1
;
_chemical_formula_sum "Si O2"
_cell_formula_units_Z 11
_cell_length_a 7.497834
_cell_length_b 14.115054
_cell_length_c 6.667993
_cell_angle_alpha 119.398885
_cell_angle_beta 63.927612
_cell_angle_gamma 137.784564
_cell_volume 409.614114
_symmetry_space_group_name_H-M "P -1"
_symmetry_group_IT_number 2
_symmetry_cell_setting 'triclinic'
loop_
_space_group_symop_operation_xyz
x,y,z
-x,-y,-z
loop_
_atom_site_type_symbol
_atom_site_label
_atom_site_fract_x
_atom_site_fract_y
_atom_site_fract_z
Si Si1 0.383142 0.270923 0.189969
Si Si2 0.993987 0.214208 0.640280
Si Si3 0.797679 0.628237 0.916293
Si Si4 0.000000 0.500000 0.000000
Si Si5 0.801084 0.300256 0.522376
Si Si6 0.646304 0.943669 0.793787
O O1 0.261401 0.288937 0.462990
O O2 0.228093 0.263154 0.065707
O O3 0.306148 0.117223 0.105607
O O4 0.699965 0.404198 0.160496
O O5 0.794656 0.189342 0.549972
O O6 0.034891 0.320653 0.904604
O O7 0.885777 0.073277 0.670807
O O8 0.941998 0.613741 0.658855
O O9 0.500000 0.500000 0.000000
O O10 0.837554 0.406260 0.775703
O O11 0.548736 0.198663 0.398847
O O12 0.500000 0.000000 0.000000
#
# Coordination Sequence:
#
# PCOD9065248 Si02
#       6
#     2   2   2   1   2   2
#     4  11  28  44  75 110 146 196 247 303 365 442
#     4  11  24  50  72 109 149 195 243 303 367 440
#     4  11  24  47  76 106 151 197 242 304 368 438
#     4  12  26  48  70 108 148 182 252 304 360 428
#     4  11  26  47  76 107 145 196 245 304 369 433
#     4  12  25  49  76 109 150 195 243 303 369 434
#
# _framework density 26.854545000000002
#
# number of rings (size 3 to 8) (size 9 to 14) (size 15 to 20)
#    0.000    0.727    1.818    4.364    5.091    4.364 
#    0.000    0.000    0.000    0.000    0.000    0.000 
#    0.000    0.000    0.000    0.000    0.000    0.000 
#
# Total GULP energy -61452.420746 kJ/mol
# GULP energy per Si atom -5586.583704 kJ/mol
# Density = 2.679342 g / cm^3
# Si number density = 26.854545 Si / 1000 Ang^3
#
#
#
# Elastic Constant Matrix: (Units=GPa)
#
#
# Indices 1 2 3 4 5 6 
#
# 1 81.4002 5.6875 34.8013 -17.4939 18.2312 -13.5534
# 2 5.6875 121.2707 64.1138 -36.3161 1.9007 -0.6073
# 3 34.8013 64.1138 168.2220 -23.1628 -3.7823 9.6079
# 4 -17.4939 -36.3161 -23.1628 51.4729 1.4353 3.5397
# 5 18.2312 1.9007 -3.7823 1.4353 48.7731 -9.9348
# 6 -13.5534 -0.6073 9.6079 3.5397 -9.9348 57.3630
#
#
#
# Elastic Compliance Matrix: (Units=1/GPa)
#
#
# Indices 1 2 3 4 5 6 
#
# 1 0.017270 0.003518 -0.004378 0.006331 -0.006437 0.003345
# 2 0.003518 0.013082 -0.004666 0.008331 -0.002260 0.000846
# 3 -0.004378 -0.004666 0.008689 -0.000781 0.002081 -0.002131
# 4 0.006331 0.008331 -0.000781 0.027250 -0.003677 -0.000603
# 5 -0.006437 -0.002260 0.002081 -0.003677 0.023766 0.002450
# 6 0.003345 0.000846 -0.002131 -0.000603 0.002450 0.019051
#
#
# Mechanical properties :
#
#
# Convention : Reuss Voigt Hill
#
# Bulk Modulus (GPa) = 35.72604 64.45537 50.09070
# Shear Modulus (GPa) = 38.61337 49.27449 43.94393
#
# Velocity S-wave (km/s) = 3.79604 4.28818 4.04959
# Velocity P-wave (km/s) = 5.70488 6.96934 6.36857
#
# Compressibility (1/GPa) = 0.02799079
#
# Stress axis : x y z
#
# Youngs Moduli (GPa) = 57.90347 76.43989 115.08345
#
# Poissons Ratio (x) = -0.26892 0.50380
# Poissons Ratio (y) = -0.20370 0.53695
# Poissons Ratio (z) = 0.25348 0.35665
#
# Static dielectric constant tensor:
#      x y z
#    x 1.967860 0.085260 0.029550 
#    y 0.085260 1.893380 -0.062980 
#    z 0.029550 -0.062980 1.945240 
# 
# From -- ./inp_files/17214.got.cif
#   From: 2010.05.17/outbox.cif.g08.bks.cpg/sg2_9_cif.got.tgz:17214.got - 2010.06.03 11:33:40.
