data_PCOD9065185
_publ_section_title
;
Structure prediction by ZEFSAII (Michael W. Deem and Ramdas Pophale) SiO2 
 PCOD9065185
Probable space group: P -1
;
_chemical_formula_sum "Si O2"
_cell_formula_units_Z 16
_cell_length_a 20.738452
_cell_length_b 9.414190
_cell_length_c 11.968125
_cell_angle_alpha 141.389783
_cell_angle_beta 148.934962
_cell_angle_gamma 46.771478
_cell_volume 751.508160
_symmetry_space_group_name_H-M "P -1"
_symmetry_group_IT_number 2
_symmetry_cell_setting 'triclinic'
loop_
_space_group_symop_operation_xyz
x,y,z
-x,-y,-z
loop_
_atom_site_type_symbol
_atom_site_label
_atom_site_fract_x
_atom_site_fract_y
_atom_site_fract_z
Si Si1 0.432824 0.693987 0.445910
Si Si2 0.370404 0.914072 0.706609
Si Si3 0.774757 0.512377 0.716005
Si Si4 0.742988 0.600518 0.149751
Si Si5 0.143698 0.745492 0.510498
Si Si6 0.886905 0.712615 0.229437
Si Si7 0.385264 0.062678 0.286939
Si Si8 0.646382 0.435398 0.140400
O O1 0.500000 0.500000 0.500000
O O2 0.364975 0.867785 0.537719
O O3 0.545082 0.827341 0.644371
O O4 0.350081 0.569957 0.155570
O O5 0.333068 0.673333 0.553509
O O6 0.283149 0.130299 0.738691
O O7 0.500000 0.000000 0.000000
O O8 0.880879 0.370533 0.716825
O O9 0.722391 0.748791 0.727951
O O10 0.816964 0.578379 0.944259
O O11 0.864064 0.587831 0.237969
O O12 0.708686 0.568022 0.210698
O O13 0.264192 0.592676 0.637402
O O14 0.032110 0.712670 0.411221
O O15 0.157656 0.017292 0.683608
O O16 0.500000 0.000000 0.500000
O O17 0.337569 0.822373 0.037997
O O18 0.500000 0.500000 0.000000
#
# Coordination Sequence:
#
# PCOD9065185 Si02
#       8
#     2   2   2   2   2   2   2   2
#     4  12  22  37  60  92 134 177 217 277 334 401
#     4  12  24  35  62 101 136 173 224 278 338 402
#     4  12  23  42  70 100 136 176 231 290 340 402
#     4  12  24  43  66  98 135 181 228 277 340 410
#     4  11  26  46  71 100 137 181 232 293 341 401
#     4  11  24  47  73  99 132 183 242 286 334 400
#     4  12  23  39  61  98 140 175 214 268 350 415
#     4  12  27  45  68 102 145 182 220 281 354 420
#
# _framework density 21.290520000000001
#
# number of rings (size 3 to 8) (size 9 to 14) (size 15 to 20)
#    0.000    0.250    7.500    1.875    3.500    0.500 
#    0.000    0.000    0.000    1.500    0.000    0.000 
#    0.000    0.000    0.000    0.000    0.000    0.000 
#
# Total GULP energy -89068.392435 kJ/mol
# GULP energy per Si atom -5566.774527 kJ/mol
# Density = 2.124206 g / cm^3
# Si number density = 21.290520 Si / 1000 Ang^3
#
#
#
# Elastic Constant Matrix: (Units=GPa)
#
#
# Indices 1 2 3 4 5 6 
#
# 1 129.6731 31.6992 16.7962 8.6890 10.3849 6.3941
# 2 31.6992 78.3685 21.1958 17.2426 6.3326 0.5339
# 3 16.7962 21.1958 75.8782 22.5691 -4.9435 -1.6017
# 4 8.6890 17.2426 22.5691 35.8380 -0.4886 -5.8740
# 5 10.3849 6.3326 -4.9435 -0.4886 39.7658 15.4810
# 6 6.3941 0.5339 -1.6017 -5.8740 15.4810 37.1271
#
#
#
# Elastic Compliance Matrix: (Units=1/GPa)
#
#
# Indices 1 2 3 4 5 6 
#
# 1 0.008796 -0.003086 -0.001191 -0.000060 -0.001622 -0.000855
# 2 -0.003086 0.016014 -0.002291 -0.005504 -0.002193 0.000246
# 3 -0.001191 -0.002291 0.017148 -0.009689 0.003468 -0.002001
# 4 -0.000060 -0.005504 -0.009689 0.037725 -0.002441 0.006658
# 5 -0.001622 -0.002193 0.003468 -0.002441 0.031387 -0.013013
# 6 -0.000855 0.000246 -0.002001 0.006658 -0.013013 0.033472
#
#
# Mechanical properties :
#
#
# Convention : Reuss Voigt Hill
#
# Bulk Modulus (GPa) = 34.69409 47.03357 40.86383
# Shear Modulus (GPa) = 29.88888 36.82811 33.35850
#
# Velocity S-wave (km/s) = 3.75088 4.16359 3.96261
# Velocity P-wave (km/s) = 5.92365 6.72705 6.33809
#
# Compressibility (1/GPa) = 0.02882335
#
# Stress axis : x y z
#
# Youngs Moduli (GPa) = 113.68324 62.44372 58.31548
#
# Poissons Ratio (x) = 0.19269 0.06945
# Poissons Ratio (y) = 0.35080 0.13360
# Poissons Ratio (z) = 0.13539 0.14306
#
# Static dielectric constant tensor:
#      x y z
#    x 2.058270 0.230380 -0.433640 
#    y 0.230380 2.461660 -1.027060 
#    z -0.433640 -1.027060 3.184660 
# 
# From -- ./inp_files/470228.got.cif
#   From: 2010.05.17/outbox.cif.g08.bks.cpg/sg2_236_cif.got.tgz:470228.got - 2010.06.03 11:33:40.
