data_PCOD9065682
_publ_section_title
;
Structure prediction by ZEFSAII (Michael W. Deem and Ramdas Pophale) SiO2 
 PCOD9065682
Probable space group: P -1
;
_chemical_formula_sum "Si O2"
_cell_formula_units_Z 12
_cell_length_a 5.077969
_cell_length_b 6.865309
_cell_length_c 16.674149
_cell_angle_alpha 54.335077
_cell_angle_beta 66.822429
_cell_angle_gamma 70.878740
_cell_volume 430.387133
_symmetry_space_group_name_H-M "P -1"
_symmetry_group_IT_number 2
_symmetry_cell_setting 'triclinic'
loop_
_space_group_symop_operation_xyz
x,y,z
-x,-y,-z
loop_
_atom_site_type_symbol
_atom_site_label
_atom_site_fract_x
_atom_site_fract_y
_atom_site_fract_z
Si Si1 0.665713 0.015519 0.060486
Si Si2 0.636053 0.525468 0.582726
Si Si3 0.165006 0.710774 0.892076
Si Si4 0.192081 0.753640 0.218957
Si Si5 0.053641 0.895653 0.430410
Si Si6 0.104113 0.619103 0.742099
O O1 0.611842 0.234664 0.077974
O O2 0.524033 0.805362 0.172614
O O3 0.500000 0.000000 0.000000
O O4 0.000000 0.000000 0.000000
O O5 0.846113 0.395896 0.660232
O O6 0.777375 0.756569 0.482697
O O7 0.339995 0.596749 0.647958
O O8 0.673388 0.309547 0.565570
O O9 0.237182 0.630255 0.812166
O O10 0.989351 0.981616 0.834508
O O11 0.000000 0.500000 0.000000
O O12 0.105921 0.583945 0.198223
O O13 0.077255 0.117951 0.315414
O O14 0.000000 0.000000 0.500000
#
# Coordination Sequence:
#
# PCOD9065682 Si02
#       6
#     2   2   2   2   2   2
#     4  12  27  53  81 115 164 219 285 360 425 500
#     4  11  26  46  80 119 171 219 285 352 425 514
#     4  12  29  50  81 122 164 225 291 355 430 510
#     4  12  26  51  80 117 171 218 285 353 428 509
#     4  11  24  50  78 123 169 222 282 351 430 515
#     4  12  27  51  83 123 169 229 284 355 431 515
#
# _framework density 27.881874
#
# number of rings (size 3 to 8) (size 9 to 14) (size 15 to 20)
#    0.000    0.333    5.000    2.500    2.333    5.333 
#    0.000    0.000    0.000    0.000    0.000    0.000 
#    0.000    0.000    0.000    0.000    0.000    0.000 
#
# Total GULP energy -67199.439919 kJ/mol
# GULP energy per Si atom -5599.953327 kJ/mol
# Density = 2.781841 g / cm^3
# Si number density = 27.881874 Si / 1000 Ang^3
#
#
#
# Elastic Constant Matrix: (Units=GPa)
#
#
# Indices 1 2 3 4 5 6 
#
# 1 147.5766 74.5567 33.6973 -4.8357 -17.6734 34.5939
# 2 74.5567 240.9533 54.2234 -2.4152 -10.7729 36.3271
# 3 33.6973 54.2234 105.6744 -11.0096 -13.5198 28.7739
# 4 -4.8357 -2.4152 -11.0096 75.8091 0.2527 8.4321
# 5 -17.6734 -10.7729 -13.5198 0.2527 41.8531 -4.1219
# 6 34.5939 36.3271 28.7739 8.4321 -4.1219 66.5437
#
#
#
# Elastic Compliance Matrix: (Units=1/GPa)
#
#
# Indices 1 2 3 4 5 6 
#
# 1 0.009068 -0.002064 -0.000491 0.000799 0.002809 -0.003302
# 2 -0.002064 0.005351 -0.001837 -0.000110 -0.000190 -0.001052
# 3 -0.000491 -0.001837 0.012281 0.002146 0.002866 -0.004147
# 4 0.000799 -0.000110 0.002146 0.013882 0.000623 -0.003004
# 5 0.002809 -0.000190 0.002866 0.000623 0.025847 -0.001074
# 6 -0.003302 -0.001052 -0.004147 -0.003004 -0.001074 0.019426
#
#
# Mechanical properties :
#
#
# Convention : Reuss Voigt Hill
#
# Bulk Modulus (GPa) = 55.81249 91.01769 73.41509
# Shear Modulus (GPa) = 49.69666 58.95629 54.32647
#
# Velocity S-wave (km/s) = 4.22643 4.60336 4.41892
# Velocity P-wave (km/s) = 6.62404 7.80830 7.24042
#
# Compressibility (1/GPa) = 0.01791714
#
# Stress axis : x y z
#
# Youngs Moduli (GPa) = 110.28312 186.87564 81.42334
#
# Poissons Ratio (x) = 0.38568 0.03994
# Poissons Ratio (y) = 0.22761 0.14959
# Poissons Ratio (z) = 0.05410 0.34332
#
# Static dielectric constant tensor:
#      x y z
#    x 2.309780 -0.080460 0.095900 
#    y -0.080460 2.224050 -0.002300 
#    z 0.095900 -0.002300 2.207480 
# 
# From -- ./inp_files/545853.got.cif
#   From: 2010.05.17/outbox.cif.g08.bks.cpg/sg2_273_cif.got.tgz:545853.got - 2010.06.03 11:33:40.
