data_PCOD9065006
_publ_section_title
;
Structure prediction by ZEFSAII (Michael W. Deem and Ramdas Pophale) SiO2 
 PCOD9065006
Probable space group: P -1
;
_chemical_formula_sum "Si O2"
_cell_formula_units_Z 12
_cell_length_a 18.001628
_cell_length_b 5.333615
_cell_length_c 8.320331
_cell_angle_alpha 115.067155
_cell_angle_beta 129.719687
_cell_angle_gamma 47.188252
_cell_volume 450.691237
_symmetry_space_group_name_H-M "P -1"
_symmetry_group_IT_number 2
_symmetry_cell_setting 'triclinic'
loop_
_space_group_symop_operation_xyz
x,y,z
-x,-y,-z
loop_
_atom_site_type_symbol
_atom_site_label
_atom_site_fract_x
_atom_site_fract_y
_atom_site_fract_z
Si Si1 0.195992 0.244470 0.816810
Si Si2 0.630429 0.952302 0.563875
Si Si3 0.785498 0.195621 0.720230
Si Si4 0.081064 0.182342 0.914894
Si Si5 0.051566 0.078603 0.425717
Si Si6 0.454256 0.832761 0.138972
O O1 0.165367 0.251882 0.961507
O O2 0.173140 0.961615 0.652059
O O3 0.079014 0.555602 0.651318
O O4 0.329311 0.119558 0.956418
O O5 0.703583 0.566625 0.630206
O O6 0.537707 0.961316 0.315133
O O7 0.710798 0.039302 0.603340
O O8 0.572643 0.186816 0.711066
O O9 0.900830 0.974417 0.706203
O O10 0.838774 0.159340 0.961859
O O11 0.990284 0.166562 0.674329
O O12 0.000000 0.500000 0.000000
O O13 0.500000 0.500000 0.000000
#
# Coordination Sequence:
#
# PCOD9065006 Si02
#       6
#     2   2   2   2   2   2
#     4  11  24  47  67 110 145 191 245 306 367 443
#     4  11  27  50  79 110 149 199 252 311 368 443
#     4  12  24  48  81 111 148 193 247 306 381 448
#     4  12  23  41  73 108 149 190 237 295 382 448
#     4  11  25  42  73 108 150 187 238 305 380 444
#     4  11  25  50  75 107 152 200 258 306 371 435
#
# _framework density 26.625768999999998
#
# number of rings (size 3 to 8) (size 9 to 14) (size 15 to 20)
#    0.000    0.667    3.333    4.000    0.000    2.667 
#    9.000    4.167    0.000    0.000    0.000    0.000 
#    0.000    0.000    0.000    0.000    0.000    0.000 
#
# Total GULP energy -67013.998463 kJ/mol
# GULP energy per Si atom -5584.499872 kJ/mol
# Density = 2.656517 g / cm^3
# Si number density = 26.625769 Si / 1000 Ang^3
#
#
#
# Elastic Constant Matrix: (Units=GPa)
#
#
# Indices 1 2 3 4 5 6 
#
# 1 92.3064 39.9451 36.6417 -21.8816 28.6894 18.0662
# 2 39.9451 131.2935 55.1396 -17.2640 2.3702 -11.2255
# 3 36.6417 55.1396 212.4726 -11.4507 56.7415 -3.3288
# 4 -21.8816 -17.2640 -11.4507 36.1723 4.7252 -7.9090
# 5 28.6894 2.3702 56.7415 4.7252 52.4805 6.1531
# 6 18.0662 -11.2255 -3.3288 -7.9090 6.1531 43.9635
#
#
#
# Elastic Compliance Matrix: (Units=1/GPa)
#
#
# Indices 1 2 3 4 5 6 
#
# 1 0.020449 -0.005969 0.002085 0.010627 -0.013420 -0.005979
# 2 -0.005969 0.011209 -0.003284 0.000924 0.005704 0.004434
# 3 0.002085 -0.003284 0.008175 0.003860 -0.010302 0.001060
# 4 0.010627 0.000924 0.003860 0.038694 -0.014106 0.005096
# 5 -0.013420 0.005704 -0.010302 -0.014106 0.038749 -0.001770
# 6 -0.005979 0.004434 0.001060 0.005096 -0.001770 0.027580
#
#
# Mechanical properties :
#
#
# Convention : Reuss Voigt Hill
#
# Bulk Modulus (GPa) = 39.21729 77.72505 58.47117
# Shear Modulus (GPa) = 29.81684 46.81299 38.31491
#
# Velocity S-wave (km/s) = 3.35004 4.19762 3.79755
# Velocity P-wave (km/s) = 5.45204 7.26281 6.42157
#
# Compressibility (1/GPa) = 0.02549896
#
# Stress axis : x y z
#
# Youngs Moduli (GPa) = 48.90170 89.21273 122.32761
#
# Poissons Ratio (x) = 0.53250 -0.25509
# Poissons Ratio (y) = 0.29189 0.40166
# Poissons Ratio (z) = -0.10197 0.29293
#
# Static dielectric constant tensor:
#      x y z
#    x 2.229670 -0.023370 -0.230330 
#    y -0.023370 2.387810 0.225450 
#    z -0.230330 0.225450 2.414070 
# 
# From -- ./inp_files/322946.got.cif
#   From: 2010.05.17/outbox.cif.g08.bks.cpg/sg2_162_cif.got.tgz:322946.got - 2010.06.03 11:33:40.
