data_PCOD9065137
_publ_section_title
;
Structure prediction by ZEFSAII (Michael W. Deem and Ramdas Pophale) SiO2 
 PCOD9065137
Probable space group: P -1
;
_chemical_formula_sum "Si O2"
_cell_formula_units_Z 13
_cell_length_a 5.889054
_cell_length_b 14.244946
_cell_length_c 7.839051
_cell_angle_alpha 79.209473
_cell_angle_beta 112.902207
_cell_angle_gamma 125.932526
_cell_volume 489.752398
_symmetry_space_group_name_H-M "P -1"
_symmetry_group_IT_number 2
_symmetry_cell_setting 'triclinic'
loop_
_space_group_symop_operation_xyz
x,y,z
-x,-y,-z
loop_
_atom_site_type_symbol
_atom_site_label
_atom_site_fract_x
_atom_site_fract_y
_atom_site_fract_z
Si Si1 0.277102 0.243504 0.148526
Si Si2 0.335682 0.127322 0.729799
Si Si3 0.000000 0.000000 0.000000
Si Si4 0.992757 0.318002 0.762852
Si Si5 0.880401 0.689749 0.582941
Si Si6 0.733734 0.066348 0.396704
Si Si7 0.086269 0.546534 0.818878
O O1 0.119190 0.104791 0.147826
O O2 0.303031 0.294021 0.330749
O O3 0.601474 0.330195 0.133922
O O4 0.082431 0.273840 0.966214
O O5 0.632580 0.242904 0.706400
O O6 0.055743 0.099972 0.542938
O O7 0.405415 0.029900 0.755963
O O8 0.210019 0.104632 0.890131
O O9 0.120759 0.303401 0.627090
O O10 0.107996 0.451234 0.761173
O O11 0.207023 0.811823 0.672132
O O12 0.862840 0.574300 0.662059
O O13 0.500000 0.000000 0.500000
O O14 0.000000 0.500000 0.000000
#
# Coordination Sequence:
#
# PCOD9065137 Si02
#       7
#     2   2   1   2   2   2   2
#     4  12  29  50  76 113 157 196 256 324 378 453
#     4  11  26  44  73 109 153 194 251 311 376 461
#     4  12  26  44  76 110 148 198 248 312 388 448
#     4  12  27  52  76 111 154 207 255 311 381 458
#     4  12  27  48  79 110 150 206 249 317 392 437
#     4  11  24  47  72 107 155 190 247 315 377 450
#     4  12  28  53  77 110 157 201 262 319 370 455
#
# _framework density 26.544025999999999
#
# number of rings (size 3 to 8) (size 9 to 14) (size 15 to 20)
#    0.000    0.308    4.615    2.769    4.308    1.231 
#    0.000    0.000    0.000    0.000    0.000    0.000 
#    0.000    0.000    0.000    0.000    0.000    0.000 
#
# Total GULP energy -72476.104915 kJ/mol
# GULP energy per Si atom -5575.084993 kJ/mol
# Density = 2.648361 g / cm^3
# Si number density = 26.544026 Si / 1000 Ang^3
#
#
#
# Elastic Constant Matrix: (Units=GPa)
#
#
# Indices 1 2 3 4 5 6 
#
# 1 61.8100 32.9209 45.0881 -2.5914 -18.5150 17.0648
# 2 32.9209 171.3834 18.6853 -5.4907 -8.2425 -11.5363
# 3 45.0881 18.6853 120.2792 -23.5635 -21.5718 7.8727
# 4 -2.5914 -5.4907 -23.5635 44.4408 11.2519 -17.5328
# 5 -18.5150 -8.2425 -21.5718 11.2519 44.8657 0.5107
# 6 17.0648 -11.5363 7.8727 -17.5328 0.5107 62.4647
#
#
#
# Elastic Compliance Matrix: (Units=1/GPa)
#
#
# Indices 1 2 3 4 5 6 
#
# 1 0.033841 -0.005978 -0.011477 -0.012466 0.010617 -0.012488
# 2 -0.005978 0.007123 0.001235 0.002962 -0.001349 0.003636
# 3 -0.011477 0.001235 0.013802 0.008374 -0.000019 0.003975
# 4 -0.012466 0.002962 0.008374 0.033829 -0.009200 0.012468
# 5 0.010617 -0.001349 -0.000019 -0.009200 0.028788 -0.005965
# 6 -0.012488 0.003636 0.003975 0.012468 -0.005965 0.023139
#
#
# Mechanical properties :
#
#
# Convention : Reuss Voigt Hill
#
# Bulk Modulus (GPa) = 44.79573 60.76233 52.77903
# Shear Modulus (GPa) = 27.71530 47.47279 37.59405
#
# Velocity S-wave (km/s) = 3.23480 4.23360 3.76745
# Velocity P-wave (km/s) = 5.55559 6.84388 6.23311
#
# Compressibility (1/GPa) = 0.02232356
#
# Stress axis : x y z
#
# Youngs Moduli (GPa) = 29.55022 140.38275 72.45541
#
# Poissons Ratio (x) = 0.83927 0.83160
# Poissons Ratio (y) = 0.17667 -0.08947
# Poissons Ratio (z) = 0.33916 -0.17336
#
# Static dielectric constant tensor:
#      x y z
#    x 2.381140 -0.206090 0.149740 
#    y -0.206090 2.165930 -0.078570 
#    z 0.149740 -0.078570 2.211100 
# 
# From -- ./inp_files/131654.got.cif
#   From: 2010.05.17/outbox.cif.g08.bks.cpg/sg2_66_cif.got.tgz:131654.got - 2010.06.03 11:33:40.
