data_PCOD9065891
_publ_section_title
;
Structure prediction by ZEFSAII (Michael W. Deem and Ramdas Pophale) SiO2 
 PCOD9065891
Probable space group: P -1
;
_chemical_formula_sum "Si O2"
_cell_formula_units_Z 12
_cell_length_a 11.508348
_cell_length_b 7.993740
_cell_length_c 11.379502
_cell_angle_alpha 54.210507
_cell_angle_beta 44.637391
_cell_angle_gamma 36.804900
_cell_volume 440.372616
_symmetry_space_group_name_H-M "P -1"
_symmetry_group_IT_number 2
_symmetry_cell_setting 'triclinic'
loop_
_space_group_symop_operation_xyz
x,y,z
-x,-y,-z
loop_
_atom_site_type_symbol
_atom_site_label
_atom_site_fract_x
_atom_site_fract_y
_atom_site_fract_z
Si Si1 0.930705 0.279115 0.616535
Si Si2 0.884227 0.909606 0.188714
Si Si3 0.457066 0.737615 0.115435
Si Si4 0.231271 0.437318 0.829109
Si Si5 0.462690 0.176154 0.234260
Si Si6 0.946004 0.699482 0.731187
O O1 0.728677 0.284638 0.744575
O O2 0.781098 0.607905 0.622688
O O3 0.077588 0.096564 0.698240
O O4 0.049329 0.201033 0.439392
O O5 0.984954 0.597883 0.213347
O O6 0.634647 0.113731 0.233712
O O7 0.000000 0.000000 0.000000
O O8 0.650958 0.552479 0.149751
O O9 0.540292 0.693955 0.939543
O O10 0.296710 0.065384 0.133217
O O11 0.130773 0.646778 0.705529
O O12 0.000000 0.500000 0.000000
O O13 0.424308 0.131482 0.760793
#
# Coordination Sequence:
#
# PCOD9065891 Si02
#       6
#     2   2   2   2   2   2
#     4  12  27  45  72 110 150 185 238 302 360 421
#     4  11  25  46  73 104 145 189 246 289 357 431
#     4  12  25  45  74 105 146 192 240 294 361 428
#     4  11  25  44  74 103 139 191 250 294 354 430
#     4  11  25  43  74 103 138 191 246 294 352 426
#     4  11  27  47  72 108 147 193 234 300 362 424
#
# _framework density 27.249652000000001
#
# number of rings (size 3 to 8) (size 9 to 14) (size 15 to 20)
#    0.000    0.667    3.333    3.000    4.667    6.000 
#    0.000    0.000    0.000    0.000    0.000    0.000 
#    0.000    0.000    0.000    0.000    0.000    0.000 
#
# Total GULP energy -67300.580982 kJ/mol
# GULP energy per Si atom -5608.381749 kJ/mol
# Density = 2.718763 g / cm^3
# Si number density = 27.249652 Si / 1000 Ang^3
#
#
#
# Elastic Constant Matrix: (Units=GPa)
#
#
# Indices 1 2 3 4 5 6 
#
# 1 249.4800 59.4756 74.0124 -14.0696 65.4819 -39.9172
# 2 59.4756 146.3384 45.0100 14.2598 14.2333 -14.9321
# 3 74.0124 45.0100 152.5857 4.3193 42.4954 -15.2629
# 4 -14.0696 14.2598 4.3193 46.8427 -5.4504 3.7142
# 5 65.4819 14.2333 42.4954 -5.4504 55.0243 -14.2684
# 6 -39.9172 -14.9321 -15.2629 3.7142 -14.2684 60.6606
#
#
#
# Elastic Compliance Matrix: (Units=1/GPa)
#
#
# Indices 1 2 3 4 5 6 
#
# 1 0.006778 -0.001837 -0.000852 0.001778 -0.006178 0.002231
# 2 -0.001837 0.008366 -0.001782 -0.002848 0.001348 0.000893
# 3 -0.000852 -0.001782 0.009110 -0.001216 -0.005673 0.000033
# 4 0.001778 -0.002848 -0.001216 0.023119 0.001624 -0.000871
# 5 -0.006178 0.001348 -0.005673 0.001624 0.030197 0.001843
# 6 0.002231 0.000893 0.000033 -0.000871 0.001843 0.018669
#
#
# Mechanical properties :
#
#
# Convention : Reuss Voigt Hill
#
# Bulk Modulus (GPa) = 65.31293 100.60001 82.95647
# Shear Modulus (GPa) = 45.33665 57.16593 51.25129
#
# Velocity S-wave (km/s) = 4.08334 4.58521 4.34153
# Velocity P-wave (km/s) = 6.80087 8.06413 7.45929
#
# Compressibility (1/GPa) = 0.01531090
#
# Stress axis : x y z
#
# Youngs Moduli (GPa) = 147.53472 119.53293 109.76531
#
# Poissons Ratio (x) = 0.21962 0.09355
# Poissons Ratio (y) = 0.27107 0.19561
# Poissons Ratio (z) = 0.12574 0.21302
#
# Static dielectric constant tensor:
#      x y z
#    x 2.269900 0.130860 -0.062460 
#    y 0.130860 2.158840 -0.096250 
#    z -0.062460 -0.096250 2.125550 
# 
# From -- ./inp_files/418836.got.cif
#   From: 2010.05.17/outbox.cif.g08.bks.cpg/sg2_210_cif.got.tgz:418836.got - 2010.06.03 11:33:40.
