data_PCOD9065863
_publ_section_title
;
Structure prediction by ZEFSAII (Michael W. Deem and Ramdas Pophale) SiO2 
 PCOD9065863
Probable space group: P -1
;
_chemical_formula_sum "Si O2"
_cell_formula_units_Z 16
_cell_length_a 11.225560
_cell_length_b 8.244835
_cell_length_c 19.064798
_cell_angle_alpha 31.458554
_cell_angle_beta 133.588311
_cell_angle_gamma 124.095334
_cell_volume 665.216224
_symmetry_space_group_name_H-M "P -1"
_symmetry_group_IT_number 2
_symmetry_cell_setting 'triclinic'
loop_
_space_group_symop_operation_xyz
x,y,z
-x,-y,-z
loop_
_atom_site_type_symbol
_atom_site_label
_atom_site_fract_x
_atom_site_fract_y
_atom_site_fract_z
Si Si1 0.743524 0.821044 0.113289
Si Si2 0.388588 0.576348 0.083758
Si Si3 0.360271 0.008486 0.380213
Si Si4 0.679480 0.282345 0.725493
Si Si5 0.138526 0.259675 0.298938
Si Si6 0.320929 0.332366 0.554966
Si Si7 0.199565 0.342613 0.966625
Si Si8 0.974999 0.346546 0.469835
O O1 0.571016 0.688558 0.114006
O O2 0.756505 0.765082 0.055233
O O3 0.890326 0.608492 0.288128
O O4 0.725555 0.170443 0.010193
O O5 0.401458 0.241487 0.250035
O O6 0.320615 0.535568 0.992295
O O7 0.176682 0.122501 0.288879
O O8 0.500000 0.000000 0.500000
O O9 0.348994 0.654917 0.485538
O O10 0.725560 0.486519 0.734463
O O11 0.499008 0.150220 0.703923
O O12 0.692107 0.547018 0.574198
O O13 0.808454 0.989988 0.874728
O O14 0.970591 0.453520 0.175423
O O15 0.138256 0.945033 0.461146
O O16 0.153199 0.216963 0.559185
O O17 0.000000 0.500000 0.500000
#
# Coordination Sequence:
#
# PCOD9065863 Si02
#       8
#     2   2   2   2   2   2   2   2
#     4  11  27  47  73 108 152 192 240 300 368 431
#     4  11  26  47  75 108 146 198 243 296 364 436
#     4  12  23  45  74 103 140 189 243 300 355 425
#     4  11  25  46  70 105 143 186 241 297 354 432
#     4  12  26  44  74 106 142 190 237 298 368 424
#     4  11  25  43  72 103 139 188 240 290 358 426
#     4  12  26  48  72 109 149 190 244 301 361 434
#     4  12  26  46  72 106 146 184 241 301 360 432
#
# _framework density 24.052329
#
# number of rings (size 3 to 8) (size 9 to 14) (size 15 to 20)
#    0.000    0.500    3.750    3.750    0.000    6.500 
#    0.000    0.000    0.000    0.000    0.000    0.000 
#    0.000    0.000    0.000    0.000    0.000    0.000 
#
# Total GULP energy -89412.310074 kJ/mol
# GULP energy per Si atom -5588.269380 kJ/mol
# Density = 2.399759 g / cm^3
# Si number density = 24.052329 Si / 1000 Ang^3
#
#
#
# Elastic Constant Matrix: (Units=GPa)
#
#
# Indices 1 2 3 4 5 6 
#
# 1 98.4335 17.6460 17.7626 4.3501 9.7694 -7.4649
# 2 17.6460 84.2840 24.1791 -2.0747 -5.6490 -18.7725
# 3 17.7626 24.1791 89.6794 3.3163 5.7468 -10.2560
# 4 4.3501 -2.0747 3.3163 27.0096 -12.3021 -2.5269
# 5 9.7694 -5.6490 5.7468 -12.3021 31.0172 -6.0666
# 6 -7.4649 -18.7725 -10.2560 -2.5269 -6.0666 38.8643
#
#
#
# Elastic Compliance Matrix: (Units=1/GPa)
#
#
# Indices 1 2 3 4 5 6 
#
# 1 0.011602 -0.002781 -0.001064 -0.004727 -0.005962 -0.000634
# 2 -0.002781 0.016058 -0.003674 0.006893 0.008795 0.008074
# 3 -0.001064 -0.003674 0.012796 -0.003432 -0.003957 0.000557
# 4 -0.004727 0.006893 -0.003432 0.051117 0.025376 0.008801
# 5 -0.005962 0.008795 -0.003957 0.025376 0.048731 0.011315
# 6 -0.000634 0.008074 0.000557 0.008801 0.011315 0.031994
#
#
# Mechanical properties :
#
#
# Convention : Reuss Voigt Hill
#
# Bulk Modulus (GPa) = 39.33997 43.50805 41.42401
# Shear Modulus (GPa) = 25.53500 33.56550 29.55025
#
# Velocity S-wave (km/s) = 3.26182 3.73972 3.50892
# Velocity P-wave (km/s) = 5.52969 6.06428 5.80314
#
# Compressibility (1/GPa) = 0.02541944
#
# Stress axis : x y z
#
# Youngs Moduli (GPa) = 86.19035 62.27329 78.14752
#
# Poissons Ratio (x) = 0.17318 0.08314
# Poissons Ratio (y) = 0.23969 0.28711
# Poissons Ratio (z) = 0.09169 0.22879
#
# Static dielectric constant tensor:
#      x y z
#    x 1.975090 0.041120 0.067970 
#    y 0.041120 2.189880 0.248160 
#    z 0.067970 0.248160 2.095190 
# 
# From -- ./inp_files/403511.got.cif
#   From: 2010.05.17/outbox.cif.g08.bks.cpg/sg2_202_cif.got.tgz:403511.got - 2010.06.03 11:33:40.
