data_PCOD9065283
_publ_section_title
;
Structure prediction by ZEFSAII (Michael W. Deem and Ramdas Pophale) SiO2 
 PCOD9065283
Probable space group: P -1
;
_chemical_formula_sum "Si O2"
_cell_formula_units_Z 16
_cell_length_a 5.416649
_cell_length_b 17.981362
_cell_length_c 10.117403
_cell_angle_alpha 42.801291
_cell_angle_beta 86.274568
_cell_angle_gamma 79.155856
_cell_volume 653.642903
_symmetry_space_group_name_H-M "P -1"
_symmetry_group_IT_number 2
_symmetry_cell_setting 'triclinic'
loop_
_space_group_symop_operation_xyz
x,y,z
-x,-y,-z
loop_
_atom_site_type_symbol
_atom_site_label
_atom_site_fract_x
_atom_site_fract_y
_atom_site_fract_z
Si Si1 0.016851 0.882901 0.082564
Si Si2 0.257596 0.460592 0.624530
Si Si3 0.199697 0.218061 0.547727
Si Si4 0.173048 0.707294 0.930989
Si Si5 0.214066 0.087152 0.238797
Si Si6 0.537026 0.224788 0.928624
Si Si7 0.269072 0.841387 0.526555
Si Si8 0.982149 0.520478 0.816202
O O1 0.845112 0.816714 0.256434
O O2 0.301165 0.812129 0.158177
O O3 0.930542 0.905980 0.905356
O O4 0.000000 0.000000 0.000000
O O5 0.500000 0.500000 0.500000
O O6 0.300572 0.325675 0.790433
O O7 0.214286 0.501929 0.725293
O O8 0.000000 0.500000 0.500000
O O9 0.668285 0.259579 0.239326
O O10 0.976181 0.177076 0.524031
O O11 0.157676 0.351660 0.363514
O O12 0.519342 0.836801 0.437161
O O13 0.296594 0.720827 0.047601
O O14 0.142958 0.581936 0.087483
O O15 0.077192 0.191429 0.196929
O O16 0.229405 0.960843 0.447875
O O17 0.476247 0.117553 0.145263
O O18 0.000000 0.500000 0.000000
#
# Coordination Sequence:
#
# PCOD9065283 Si02
#       8
#     2   2   2   2   2   2   2   2
#     4  11  24  47  77 113 158 200 263 328 395 472
#     4  12  28  52  79 115 157 214 267 324 397 483
#     4  12  29  47  75 117 154 201 254 326 398 467
#     4  11  26  50  76 112 153 207 263 321 400 472
#     4  11  25  47  77 111 150 207 258 327 391 476
#     4  11  26  45  79 109 153 207 261 322 399 474
#     4  12  28  48  76 111 155 201 259 317 395 468
#     4  12  27  52  82 116 162 207 270 336 399 476
#
# _framework density 24.478194999999999
#
# number of rings (size 3 to 8) (size 9 to 14) (size 15 to 20)
#    0.000    0.500    3.750    2.625   10.500    4.000 
#    0.000    0.000    0.000    0.000    0.000    0.000 
#    0.000    0.000    0.000    0.000    0.000    0.000 
#
# Total GULP energy -89519.457748 kJ/mol
# GULP energy per Si atom -5594.966109 kJ/mol
# Density = 2.442248 g / cm^3
# Si number density = 24.478195 Si / 1000 Ang^3
#
#
#
# Elastic Constant Matrix: (Units=GPa)
#
#
# Indices 1 2 3 4 5 6 
#
# 1 127.0893 51.4014 25.5329 0.1016 -12.8520 -5.2455
# 2 51.4014 123.7727 10.8699 -9.7200 0.2232 13.6322
# 3 25.5329 10.8699 92.3163 -11.6912 -20.2294 0.8201
# 4 0.1016 -9.7200 -11.6912 50.8395 2.2784 -19.8361
# 5 -12.8520 0.2232 -20.2294 2.2784 35.4495 -1.0578
# 6 -5.2455 13.6322 0.8201 -19.8361 -1.0578 40.7837
#
#
#
# Elastic Compliance Matrix: (Units=1/GPa)
#
#
# Indices 1 2 3 4 5 6 
#
# 1 0.010472 -0.004533 -0.001793 -0.000333 0.002907 0.002811
# 2 -0.004533 0.010461 -0.000327 0.000513 -0.002044 -0.003877
# 3 -0.001793 -0.000327 0.013238 0.003209 0.006740 0.001348
# 4 -0.000333 0.000513 0.003209 0.025156 0.000448 0.011968
# 5 0.002907 -0.002044 0.006740 0.000448 0.033153 0.001999
# 6 0.002811 -0.003877 0.001348 0.011968 0.001999 0.032023
#
#
# Mechanical properties :
#
#
# Convention : Reuss Voigt Hill
#
# Bulk Modulus (GPa) = 47.92127 57.64294 52.78211
# Shear Modulus (GPa) = 34.53909 42.43949 38.48929
#
# Velocity S-wave (km/s) = 3.76042 4.16837 3.96964
# Velocity P-wave (km/s) = 6.20274 6.83863 6.52843
#
# Compressibility (1/GPa) = 0.02086756
#
# Stress axis : x y z
#
# Youngs Moduli (GPa) = 95.49112 95.59048 75.53926
#
# Poissons Ratio (x) = 0.43327 0.13542
# Poissons Ratio (y) = 0.43282 0.02468
# Poissons Ratio (z) = 0.17119 0.03123
#
# Static dielectric constant tensor:
#      x y z
#    x 2.048320 -0.039750 -0.006130 
#    y -0.039750 1.979250 -0.009950 
#    z -0.006130 -0.009950 2.005410 
# 
# From -- ./inp_files/138583.got.cif
#   From: 2010.05.17/outbox.cif.g08.bks.cpg/sg2_70_cif.got.tgz:138583.got - 2010.06.03 11:33:40.
