data_PCOD9065081
_publ_section_title
;
Structure prediction by ZEFSAII (Michael W. Deem and Ramdas Pophale) SiO2 
 PCOD9065081
Probable space group: P -1
;
_chemical_formula_sum "Si O2"
_cell_formula_units_Z 16
_cell_length_a 29.735696
_cell_length_b 16.685337
_cell_length_c 9.769861
_cell_angle_alpha 134.337424
_cell_angle_beta 35.625657
_cell_angle_gamma 163.010990
_cell_volume 732.035254
_symmetry_space_group_name_H-M "P -1"
_symmetry_group_IT_number 2
_symmetry_cell_setting 'triclinic'
loop_
_space_group_symop_operation_xyz
x,y,z
-x,-y,-z
loop_
_atom_site_type_symbol
_atom_site_label
_atom_site_fract_x
_atom_site_fract_y
_atom_site_fract_z
Si Si1 0.133875 0.626780 0.127491
Si Si2 0.168931 0.155330 0.180000
Si Si3 0.545273 0.245032 0.465810
Si Si4 0.584782 0.309550 0.742074
Si Si5 0.943342 0.597796 0.679102
Si Si6 0.985339 0.882819 0.006721
Si Si7 0.213382 0.597975 0.460199
Si Si8 0.840144 0.111928 0.013901
O O1 0.167442 0.590164 0.129936
O O2 0.065813 0.653412 0.391395
O O3 0.959406 0.338796 0.113670
O O4 0.348709 0.941363 0.891544
O O5 0.386125 0.520037 0.097607
O O6 0.180309 0.045379 0.079488
O O7 0.000000 0.000000 0.500000
O O8 0.096620 0.058995 0.086063
O O9 0.662351 0.385135 0.488447
O O10 0.733331 0.520352 0.223044
O O11 0.387097 0.928949 0.451094
O O12 0.388625 0.140038 0.741831
O O13 0.714718 0.417959 0.663111
O O14 0.804344 0.440784 0.704052
O O15 0.076576 0.888420 0.732072
O O16 0.000000 0.000000 0.000000
O O17 0.991002 0.328214 0.764688
#
# Coordination Sequence:
#
# PCOD9065081 Si02
#       8
#     2   2   2   2   2   2   2   2
#     4  11  24  47  71 104 138 185 230 296 344 405
#     4  12  25  48  68 100 137 186 233 282 340 416
#     4  12  25  43  72 108 133 182 241 288 343 407
#     4  12  25  42  75 102 137 182 239 286 343 407
#     4  11  25  45  69 101 146 178 226 288 354 409
#     4  12  27  47  68  98 147 186 228 285 351 419
#     4  12  23  41  74 107 138 177 233 291 348 411
#     4  12  24  46  76 101 143 179 237 293 338 410
#
# _framework density 21.856873
#
# number of rings (size 3 to 8) (size 9 to 14) (size 15 to 20)
#    0.000    0.250    6.250    3.000    0.000    4.500 
#    0.000    1.250    0.000    0.000    0.000    0.000 
#    0.000    0.000    0.000    0.000    0.000    0.000 
#
# Total GULP energy -89530.520039 kJ/mol
# GULP energy per Si atom -5595.657502 kJ/mol
# Density = 2.180713 g / cm^3
# Si number density = 21.856873 Si / 1000 Ang^3
#
#
#
# Elastic Constant Matrix: (Units=GPa)
#
#
# Indices 1 2 3 4 5 6 
#
# 1 136.9257 52.1939 18.6102 13.8887 22.5120 -13.1709
# 2 52.1939 83.3616 20.0497 22.8712 14.7461 -17.6909
# 3 18.6102 20.0497 44.3838 11.8843 3.8931 -11.6807
# 4 13.8887 22.8712 11.8843 45.0406 2.2396 4.1605
# 5 22.5120 14.7461 3.8931 2.2396 40.4993 6.6511
# 6 -13.1709 -17.6909 -11.6807 4.1605 6.6511 45.7014
#
#
#
# Elastic Compliance Matrix: (Units=1/GPa)
#
#
# Indices 1 2 3 4 5 6 
#
# 1 0.010185 -0.005087 -0.001274 -0.000141 -0.003879 0.001218
# 2 -0.005087 0.020662 -0.002451 -0.008706 -0.005203 0.007455
# 3 -0.001274 -0.002451 0.027726 -0.006198 -0.001805 0.006598
# 4 -0.000141 -0.008706 -0.006198 0.028876 0.003585 -0.008146
# 5 -0.003879 -0.005203 -0.001805 0.003585 0.030080 -0.008297
# 6 0.001218 0.007455 0.006598 -0.008146 -0.008297 0.028753
#
#
# Mechanical properties :
#
#
# Convention : Reuss Voigt Hill
#
# Bulk Modulus (GPa) = 24.42087 49.59763 37.00925
# Shear Modulus (GPa) = 28.16007 37.83607 32.99807
#
# Velocity S-wave (km/s) = 3.59330 4.16514 3.88975
# Velocity P-wave (km/s) = 5.33039 6.77292 6.09449
#
# Compressibility (1/GPa) = 0.04094858
#
# Stress axis : x y z
#
# Youngs Moduli (GPa) = 98.18703 48.39848 36.06666
#
# Poissons Ratio (x) = 0.24621 0.04595
# Poissons Ratio (y) = 0.49950 0.08840
# Poissons Ratio (z) = 0.12509 0.11862
#
# Static dielectric constant tensor:
#      x y z
#    x 1.792860 -0.006150 -0.019160 
#    y -0.006150 1.794250 0.001400 
#    z -0.019160 0.001400 1.814940 
# 
# From -- ./inp_files/209354.got.cif
#   From: 2010.05.17/outbox.cif.g08.bks.cpg/sg2_105_cif.got.tgz:209354.got - 2010.06.03 11:33:40.
