data_PCOD9065789
_publ_section_title
;
Structure prediction by ZEFSAII (Michael W. Deem and Ramdas Pophale) SiO2 
 PCOD9065789
Probable space group: P -1
;
_chemical_formula_sum "Si O2"
_cell_formula_units_Z 12
_cell_length_a 15.999298
_cell_length_b 9.328948
_cell_length_c 6.469816
_cell_angle_alpha 83.203593
_cell_angle_beta 121.097540
_cell_angle_gamma 55.761954
_cell_volume 557.992389
_symmetry_space_group_name_H-M "P -1"
_symmetry_group_IT_number 2
_symmetry_cell_setting 'triclinic'
loop_
_space_group_symop_operation_xyz
x,y,z
-x,-y,-z
loop_
_atom_site_type_symbol
_atom_site_label
_atom_site_fract_x
_atom_site_fract_y
_atom_site_fract_z
Si Si1 0.839060 0.895335 0.757904
Si Si2 0.548495 0.350818 0.892872
Si Si3 0.924845 0.466860 0.557396
Si Si4 0.640635 0.941605 0.242743
Si Si5 0.034704 0.808637 0.678597
Si Si6 0.273453 0.698264 0.221191
O O1 0.702537 0.937001 0.542762
O O2 0.905557 0.869797 0.624791
O O3 0.788557 0.096351 0.771566
O O4 0.965848 0.686348 0.090003
O O5 0.406458 0.489326 0.549830
O O6 0.665096 0.311519 0.916009
O O7 0.500000 0.500000 0.000000
O O8 0.609418 0.127917 0.059573
O O9 0.774036 0.697901 0.388346
O O10 0.907000 0.347637 0.409734
O O11 0.000000 0.500000 0.500000
O O12 0.500000 0.000000 0.000000
O O13 0.152175 0.713220 0.020200
O O14 0.000000 0.000000 0.500000
#
# Coordination Sequence:
#
# PCOD9065789 Si02
#       6
#     2   2   2   2   2   2
#     4  12  25  48  75 107 148 185 246 307 357 429
#     4  11  25  47  70  99 150 188 241 294 362 430
#     4  12  27  48  73 105 152 189 242 301 365 428
#     4  12  28  45  73 104 146 196 233 298 370 430
#     4  12  26  43  77 109 139 189 246 296 362 428
#     4  11  25  42  77 108 135 189 245 303 354 426
#
# _framework density 21.505669000000001
#
# number of rings (size 3 to 8) (size 9 to 14) (size 15 to 20)
#    0.000    0.333    5.000    3.000    4.667    0.000 
#    0.000    2.500    0.000    0.000    0.000    0.000 
#    0.000    0.000    0.000    0.000    0.000    0.000 
#
# Total GULP energy -67080.269947 kJ/mol
# GULP energy per Si atom -5590.022496 kJ/mol
# Density = 2.145672 g / cm^3
# Si number density = 21.505669 Si / 1000 Ang^3
#
#
#
# Elastic Constant Matrix: (Units=GPa)
#
#
# Indices 1 2 3 4 5 6 
#
# 1 57.9539 16.1864 64.5437 -4.1435 14.1133 8.3938
# 2 16.1864 140.3356 60.4030 -4.8908 -0.5661 14.3217
# 3 64.5437 60.4030 148.4372 -17.4727 23.1796 11.1354
# 4 -4.1435 -4.8908 -17.4727 50.2175 8.9173 3.0310
# 5 14.1133 -0.5661 23.1796 8.9173 50.1356 6.4409
# 6 8.3938 14.3217 11.1354 3.0310 6.4409 31.0396
#
#
#
# Elastic Compliance Matrix: (Units=1/GPa)
#
#
# Indices 1 2 3 4 5 6 
#
# 1 0.035593 0.003423 -0.016523 -0.001944 -0.001379 -0.004801
# 2 0.003423 0.009470 -0.005537 -0.000914 0.002342 -0.003705
# 3 -0.016523 -0.005537 0.017347 0.004849 -0.004455 0.001251
# 4 -0.001944 -0.000914 0.004849 0.022432 -0.005457 -0.001850
# 5 -0.001379 0.002342 -0.004455 -0.005457 0.023844 -0.003524
# 6 -0.004801 -0.003705 0.001251 -0.001850 -0.003524 0.035688
#
#
# Mechanical properties :
#
#
# Convention : Reuss Voigt Hill
#
# Bulk Modulus (GPa) = 39.78387 69.88809 54.83598
# Shear Modulus (GPa) = 26.31213 39.98477 33.14845
#
# Velocity S-wave (km/s) = 3.50165 4.31660 3.93030
# Velocity P-wave (km/s) = 5.90662 7.57708 6.79339
#
# Compressibility (1/GPa) = 0.02513582
#
# Stress axis : x y z
#
# Youngs Moduli (GPa) = 28.09554 105.59544 57.64620
#
# Poissons Ratio (x) = -0.36146 0.95248
# Poissons Ratio (y) = -0.09617 0.31921
# Poissons Ratio (z) = 0.46422 0.58473
#
# Static dielectric constant tensor:
#      x y z
#    x 1.847270 0.036470 0.072830 
#    y 0.036470 1.815020 0.002980 
#    z 0.072830 0.002980 2.021550 
# 
# From -- ./inp_files/36888.got.cif
#   From: 2010.05.17/outbox.cif.g08.bks.cpg/sg2_19_cif.got.tgz:36888.got - 2010.06.03 11:33:40.
