data_PCOD9065637
_publ_section_title
;
Structure prediction by ZEFSAII (Michael W. Deem and Ramdas Pophale) SiO2 
 PCOD9065637
Probable space group: P -1
;
_chemical_formula_sum "Si O2"
_cell_formula_units_Z 14
_cell_length_a 19.451734
_cell_length_b 5.399818
_cell_length_c 20.165082
_cell_angle_alpha 58.171727
_cell_angle_beta 21.163578
_cell_angle_gamma 66.527354
_cell_volume 618.787594
_symmetry_space_group_name_H-M "P -1"
_symmetry_group_IT_number 2
_symmetry_cell_setting 'triclinic'
loop_
_space_group_symop_operation_xyz
x,y,z
-x,-y,-z
loop_
_atom_site_type_symbol
_atom_site_label
_atom_site_fract_x
_atom_site_fract_y
_atom_site_fract_z
Si Si1 0.049364 0.066813 0.174003
Si Si2 0.994454 0.745197 0.595662
Si Si3 0.321377 0.626995 0.162238
Si Si4 0.972974 0.247645 0.903671
Si Si5 0.317506 0.218243 0.025661
Si Si6 0.638550 0.823334 0.361444
Si Si7 0.271267 0.413385 0.384306
O O1 0.254697 0.110545 0.023561
O O2 0.029370 0.404242 0.135960
O O3 0.045999 0.883740 0.135238
O O4 0.868647 0.869952 0.410834
O O5 0.853338 0.456354 0.723481
O O6 0.877898 0.762042 0.764126
O O7 0.204924 0.702681 0.429729
O O8 0.000000 0.000000 0.500000
O O9 0.240830 0.455122 0.327331
O O10 0.388203 0.991861 0.043149
O O11 0.500000 0.500000 0.000000
O O12 0.187529 0.231730 0.740075
O O13 0.780395 0.038789 0.147382
O O14 0.496907 0.529814 0.820483
O O15 0.500000 0.500000 0.500000
O O16 0.500000 0.000000 0.500000
#
# Coordination Sequence:
#
# PCOD9065637 Si02
#       7
#     2   2   2   2   2   2   2
#     4  12  27  47  72 106 156 201 231 298 374 440
#     4  12  22  41  66  89 128 175 247 324 383 428
#     4  12  23  41  65  92 126 178 258 325 365 417
#     4  11  27  50  75 117 158 185 239 292 345 440
#     4  12  26  45  64  96 136 188 252 309 372 431
#     4  11  24  49  88 120 147 193 238 283 346 424
#     4  12  25  45  66  98 133 195 250 312 380 434
#
# _framework density 22.624887999999999
#
# number of rings (size 3 to 8) (size 9 to 14) (size 15 to 20)
#    0.000    0.286    4.286    5.143    0.000    6.857 
#    0.000    2.857    0.000    0.000    0.000    0.000 
#    0.000    0.000    0.000    0.000    0.000    0.000 
#
# Total GULP energy -78231.444019 kJ/mol
# GULP energy per Si atom -5587.960287 kJ/mol
# Density = 2.257339 g / cm^3
# Si number density = 22.624888 Si / 1000 Ang^3
#
#
#
# Elastic Constant Matrix: (Units=GPa)
#
#
# Indices 1 2 3 4 5 6 
#
# 1 116.4395 18.2499 36.4213 0.3957 3.3061 15.0049
# 2 18.2499 109.6197 46.6573 4.3712 13.5743 -0.2194
# 3 36.4213 46.6573 128.0946 4.1180 11.9509 6.8592
# 4 0.3957 4.3712 4.1180 49.9271 0.6269 4.1394
# 5 3.3061 13.5743 11.9509 0.6269 27.2678 -0.7717
# 6 15.0049 -0.2194 6.8592 4.1394 -0.7717 34.7483
#
#
#
# Elastic Compliance Matrix: (Units=1/GPa)
#
#
# Indices 1 2 3 4 5 6 
#
# 1 0.009939 -0.000670 -0.002396 0.000499 0.000057 -0.003881
# 2 -0.000670 0.011276 -0.003585 -0.000726 -0.003914 0.001068
# 3 -0.002396 -0.003585 0.010079 -0.000387 -0.002361 -0.000984
# 4 0.000499 -0.000726 -0.000387 0.020334 -0.000070 -0.002567
# 5 0.000057 -0.003914 -0.002361 -0.000070 0.039688 0.001307
# 6 -0.003881 0.001068 -0.000984 -0.002567 0.001307 0.030990
#
#
# Mechanical properties :
#
#
# Convention : Reuss Voigt Hill
#
# Bulk Modulus (GPa) = 55.57781 61.86787 58.72284
# Shear Modulus (GPa) = 35.30919 39.24364 37.27641
#
# Velocity S-wave (km/s) = 3.95477 4.16929 4.06345
# Velocity P-wave (km/s) = 6.74328 7.11208 6.93014
#
# Compressibility (1/GPa) = 0.01799279
#
# Stress axis : x y z
#
# Youngs Moduli (GPa) = 100.61047 88.68640 99.21393
#
# Poissons Ratio (x) = 0.05940 0.23768
# Poissons Ratio (y) = 0.06739 0.35571
# Poissons Ratio (z) = 0.24102 0.31797
#
# Static dielectric constant tensor:
#      x y z
#    x 1.466090 0.781070 1.335960 
#    y 0.781070 0.598320 -2.605190 
#    z 1.335960 -2.605190 -2.914100 
# 
# From -- ./inp_files/600452.got.cif
#   From: 2010.05.17/outbox.cif.g08.bks.cpg/sg2_301_cif.got.tgz:600452.got - 2010.06.03 11:33:40.
