data_PCOD9065018
_publ_section_title
;
Structure prediction by ZEFSAII (Michael W. Deem and Ramdas Pophale) SiO2 
 PCOD9065018
Probable space group: P -1
;
_chemical_formula_sum "Si O2"
_cell_formula_units_Z 14
_cell_length_a 13.750535
_cell_length_b 11.860879
_cell_length_c 14.883260
_cell_angle_alpha 27.726179
_cell_angle_beta 138.629884
_cell_angle_gamma 120.174512
_cell_volume 634.924314
_symmetry_space_group_name_H-M "P -1"
_symmetry_group_IT_number 2
_symmetry_cell_setting 'triclinic'
loop_
_space_group_symop_operation_xyz
x,y,z
-x,-y,-z
loop_
_atom_site_type_symbol
_atom_site_label
_atom_site_fract_x
_atom_site_fract_y
_atom_site_fract_z
Si Si1 0.427164 0.285022 0.304422
Si Si2 0.985260 0.753024 0.252206
Si Si3 0.102317 0.898570 0.886600
Si Si4 0.137001 0.861167 0.613053
Si Si5 0.478599 0.813736 0.192403
Si Si6 0.298070 0.251983 0.436420
Si Si7 0.293634 0.712085 0.398530
O O1 0.361617 0.258850 0.375697
O O2 0.576547 0.348294 0.387682
O O3 0.500000 0.000000 0.500000
O O4 0.276342 0.543074 0.962460
O O5 0.147446 0.649576 0.372657
O O6 0.000000 0.500000 0.500000
O O7 0.979118 0.980215 0.158684
O O8 0.807864 0.953526 0.933796
O O9 0.282175 0.891536 0.007732
O O10 0.150956 0.577361 0.129484
O O11 0.968519 0.104359 0.574201
O O12 0.227638 0.042480 0.538000
O O13 0.000000 0.000000 0.500000
O O14 0.554920 0.841192 0.319858
O O15 0.597638 0.490738 0.465665
O O16 0.500000 0.000000 0.000000
#
# Coordination Sequence:
#
# PCOD9065018 Si02
#       7
#     2   2   2   2   2   2   2
#     4  12  29  48  72 104 152 195 245 301 367 442
#     4  11  26  43  70 105 144 183 237 296 372 427
#     4  12  24  46  73 106 142 190 243 302 360 434
#     4  12  27  47  72 109 145 189 252 300 364 442
#     4  12  23  46  79 108 140 184 245 306 360 437
#     4  12  25  47  78 104 145 195 246 302 367 435
#     4  11  24  47  68 105 141 183 237 297 360 434
#
# _framework density 22.049873000000002
#
# number of rings (size 3 to 8) (size 9 to 14) (size 15 to 20)
#    0.000    0.286    4.286    4.286    4.000    1.714 
#    0.000    0.000    0.000    0.000    0.000    0.000 
#    0.000    0.000    0.000    0.000    0.000    0.000 
#
# Total GULP energy -78441.222076 kJ/mol
# GULP energy per Si atom -5602.944434 kJ/mol
# Density = 2.199969 g / cm^3
# Si number density = 22.049873 Si / 1000 Ang^3
#
#
#
# Elastic Constant Matrix: (Units=GPa)
#
#
# Indices 1 2 3 4 5 6 
#
# 1 86.5687 34.0429 45.9321 4.8759 -8.6369 6.7076
# 2 34.0429 80.0331 51.7473 16.7583 7.5259 -12.2352
# 3 45.9321 51.7473 181.2672 19.5061 -10.6135 6.1200
# 4 4.8759 16.7583 19.5061 48.5765 0.2266 -3.0290
# 5 -8.6369 7.5259 -10.6135 0.2266 39.9381 -2.4201
# 6 6.7076 -12.2352 6.1200 -3.0290 -2.4201 39.5841
#
#
#
# Elastic Compliance Matrix: (Units=1/GPa)
#
#
# Indices 1 2 3 4 5 6 
#
# 1 0.015859 -0.006834 -0.001825 0.001219 0.003972 -0.004181
# 2 -0.006834 0.020853 -0.004376 -0.004249 -0.006087 0.007583
# 3 -0.001825 -0.004376 0.007601 -0.001507 0.002326 -0.002192
# 4 0.001219 -0.004249 -0.001507 0.022562 0.000565 0.000474
# 5 0.003972 -0.006087 0.002326 0.000565 0.027588 -0.001184
# 6 -0.004181 0.007583 -0.002192 0.000474 -0.001184 0.028618
#
#
# Mechanical properties :
#
#
# Convention : Reuss Voigt Hill
#
# Bulk Modulus (GPa) = 54.81904 67.92374 61.37139
# Shear Modulus (GPa) = 32.21019 40.02953 36.11986
#
# Velocity S-wave (km/s) = 3.82617 4.26538 4.05173
# Velocity P-wave (km/s) = 6.66594 7.42492 7.05565
#
# Compressibility (1/GPa) = 0.01824184
#
# Stress axis : x y z
#
# Youngs Moduli (GPa) = 63.05640 47.95559 131.56396
#
# Poissons Ratio (x) = 0.32771 0.24013
# Poissons Ratio (y) = 0.43090 0.57578
# Poissons Ratio (z) = 0.11509 0.20987
#
# Static dielectric constant tensor:
#      x y z
#    x 1.784310 0.029960 -0.001160 
#    y 0.029960 1.798430 -0.003370 
#    z -0.001160 -0.003370 1.818840 
# 
# From -- ./inp_files/451734.got.cif
#   From: 2010.05.17/outbox.cif.g08.bks.cpg/sg2_226_cif.got.tgz:451734.got - 2010.06.03 11:33:40.
