data_PCOD9065220
_publ_section_title
;
Structure prediction by ZEFSAII (Michael W. Deem and Ramdas Pophale) SiO2 
 PCOD9065220
Probable space group: P -1
;
_chemical_formula_sum "Si O2"
_cell_formula_units_Z 14
_cell_length_a 7.759532
_cell_length_b 15.614884
_cell_length_c 8.747822
_cell_angle_alpha 143.043404
_cell_angle_beta 103.953284
_cell_angle_gamma 95.155199
_cell_volume 541.088778
_symmetry_space_group_name_H-M "P -1"
_symmetry_group_IT_number 2
_symmetry_cell_setting 'triclinic'
loop_
_space_group_symop_operation_xyz
x,y,z
-x,-y,-z
loop_
_atom_site_type_symbol
_atom_site_label
_atom_site_fract_x
_atom_site_fract_y
_atom_site_fract_z
Si Si1 0.577484 0.868725 0.863766
Si Si2 0.069619 0.915384 0.524496
Si Si3 0.268951 0.119425 0.416696
Si Si4 0.013915 0.478719 0.797865
Si Si5 0.941610 0.254770 0.202130
Si Si6 0.676477 0.218020 0.802925
Si Si7 0.307961 0.523786 0.470322
O O1 0.425555 0.712915 0.707529
O O2 0.626364 0.816329 0.634004
O O3 0.500000 0.000000 0.000000
O O4 0.771974 0.960060 0.142962
O O5 0.201306 0.845909 0.368017
O O6 0.000000 0.000000 0.500000
O O7 0.861183 0.809302 0.424814
O O8 0.439273 0.124019 0.578348
O O9 0.107938 0.930041 0.078385
O O10 0.864387 0.543290 0.791955
O O11 0.940414 0.309495 0.453835
O O12 0.000000 0.500000 0.000000
O O13 0.245299 0.598587 0.974374
O O14 0.150417 0.405485 0.399591
O O15 0.767130 0.243769 0.030328
O O16 0.500000 0.500000 0.500000
#
# Coordination Sequence:
#
# PCOD9065220 Si02
#       7
#     2   2   2   2   2   2   2
#     4  12  26  48  78 114 160 210 263 332 399 471
#     4  12  27  44  75 117 159 199 270 326 389 476
#     4  12  25  48  82 117 156 206 269 332 399 465
#     4  11  26  48  75 108 154 206 260 319 404 476
#     4  11  25  49  77 112 155 205 261 319 400 480
#     4  11  24  47  74 115 154 206 264 324 399 476
#     4  11  25  48  76 111 156 202 259 323 398 470
#
# _framework density 25.873756
#
# number of rings (size 3 to 8) (size 9 to 14) (size 15 to 20)
#    0.000    0.571    2.857    5.143    4.000    1.143 
#    0.000    0.714    0.000    0.000    0.000    0.000 
#    0.000    0.000    0.000    0.000    0.000    0.000 
#
# Total GULP energy -78086.759275 kJ/mol
# GULP energy per Si atom -5577.625663 kJ/mol
# Density = 2.581487 g / cm^3
# Si number density = 25.873756 Si / 1000 Ang^3
#
#
#
# Elastic Constant Matrix: (Units=GPa)
#
#
# Indices 1 2 3 4 5 6 
#
# 1 149.9521 46.7770 70.3267 -9.8202 20.5571 20.7314
# 2 46.7770 92.1707 39.9951 -3.6517 -5.0959 10.3170
# 3 70.3267 39.9951 137.0131 -4.2621 13.0833 13.6996
# 4 -9.8202 -3.6517 -4.2621 58.7567 5.7773 0.7722
# 5 20.5571 -5.0959 13.0833 5.7773 37.0677 -13.5592
# 6 20.7314 10.3170 13.6996 0.7722 -13.5592 41.6624
#
#
#
# Elastic Compliance Matrix: (Units=1/GPa)
#
#
# Indices 1 2 3 4 5 6 
#
# 1 0.011790 -0.004223 -0.003238 0.002425 -0.008791 -0.006662
# 2 -0.004223 0.014324 -0.002731 -0.000609 0.005873 0.001375
# 3 -0.003238 -0.002731 0.010265 0.000358 -0.003018 -0.002077
# 4 0.002425 -0.000609 0.000358 0.018005 -0.005576 -0.003322
# 5 -0.008791 0.005873 -0.003018 -0.005576 0.040937 0.017339
# 6 -0.006662 0.001375 -0.002077 -0.003322 0.017339 0.033365
#
#
# Mechanical properties :
#
#
# Convention : Reuss Voigt Hill
#
# Bulk Modulus (GPa) = 62.51746 77.03704 69.77725
# Shear Modulus (GPa) = 32.38345 42.29986 37.34165
#
# Velocity S-wave (km/s) = 3.54163 4.04772 3.80310
# Velocity P-wave (km/s) = 6.39837 7.18917 6.80527
#
# Compressibility (1/GPa) = 0.01599553
#
# Stress axis : x y z
#
# Youngs Moduli (GPa) = 84.82100 69.81204 97.42110
#
# Poissons Ratio (x) = 0.29478 0.31543
# Poissons Ratio (y) = 0.35816 0.26607
# Poissons Ratio (z) = 0.27463 0.19067
#
# Static dielectric constant tensor:
#      x y z
#    x 2.116110 0.010570 -0.031340 
#    y 0.010570 2.150830 0.104450 
#    z -0.031340 0.104450 2.072050 
# 
# From -- ./inp_files/204461.got.cif
#   From: 2010.05.17/outbox.cif.g08.bks.cpg/sg2_103_cif.got.tgz:204461.got - 2010.06.03 11:33:40.
