data_PCOD9065012
_publ_section_title
;
Structure prediction by ZEFSAII (Michael W. Deem and Ramdas Pophale) SiO2 
 PCOD9065012
Probable space group: P -1
;
_chemical_formula_sum "Si O2"
_cell_formula_units_Z 16
_cell_length_a 16.927787
_cell_length_b 12.693468
_cell_length_c 6.607912
_cell_angle_alpha 128.879855
_cell_angle_beta 135.138280
_cell_angle_gamma 41.523194
_cell_volume 649.515711
_symmetry_space_group_name_H-M "P -1"
_symmetry_group_IT_number 2
_symmetry_cell_setting 'triclinic'
loop_
_space_group_symop_operation_xyz
x,y,z
-x,-y,-z
loop_
_atom_site_type_symbol
_atom_site_label
_atom_site_fract_x
_atom_site_fract_y
_atom_site_fract_z
Si Si1 0.171412 0.376342 0.310771
Si Si2 0.349911 0.607933 0.265438
Si Si3 0.358660 0.176214 0.751282
Si Si4 0.093630 0.329621 0.701529
Si Si5 0.032227 0.074238 0.339857
Si Si6 0.346264 0.486708 0.684351
Si Si7 0.447178 0.816384 0.579859
Si Si8 0.195520 0.776353 0.546310
O O1 0.304274 0.244600 0.512560
O O2 0.209493 0.492212 0.412029
O O3 0.039404 0.490902 0.341768
O O4 0.130330 0.302016 0.973003
O O5 0.500000 0.500000 0.500000
O O6 0.338853 0.772645 0.376215
O O7 0.230498 0.658806 0.269705
O O8 0.349895 0.509887 0.956891
O O9 0.226617 0.288092 0.782062
O O10 0.396652 0.992624 0.613754
O O11 0.474513 0.189791 0.079939
O O12 0.061698 0.196797 0.435665
O O13 0.909991 0.166670 0.392232
O O14 0.149230 0.941646 0.544240
O O15 0.000000 0.000000 0.000000
O O16 0.454652 0.325317 0.569674
O O17 0.333515 0.645562 0.756217
#
# Coordination Sequence:
#
# PCOD9065012 Si02
#       8
#     2   2   2   2   2   2   2   2
#     4  11  25  44  72  98 135 189 231 286 351 411
#     4  12  25  44  71 103 136 186 233 285 347 414
#     4  11  25  47  69  99 142 186 229 294 342 414
#     4  11  24  47  68 103 138 176 239 282 343 430
#     4  11  25  46  72 106 138 178 225 290 354 415
#     4  12  24  46  70  99 141 182 236 290 346 419
#     4  11  25  46  69 103 142 182 242 284 346 417
#     4  11  25  43  71 101 141 179 225 285 352 413
#
# _framework density 24.633737
#
# number of rings (size 3 to 8) (size 9 to 14) (size 15 to 20)
#    0.000    0.750    3.750    3.000    0.000    3.500 
#    2.250    0.000    0.000    0.000    0.000    0.000 
#    0.000    0.000    0.000    0.000    0.000    0.000 
#
# Total GULP energy -89289.506444 kJ/mol
# GULP energy per Si atom -5580.594153 kJ/mol
# Density = 2.457767 g / cm^3
# Si number density = 24.633737 Si / 1000 Ang^3
#
#
#
# Elastic Constant Matrix: (Units=GPa)
#
#
# Indices 1 2 3 4 5 6 
#
# 1 68.5062 -1.3327 8.8497 12.3525 -13.5677 -22.1155
# 2 -1.3327 112.7114 36.8538 2.2830 -16.4370 4.6895
# 3 8.8497 36.8538 126.9185 12.9616 -0.5719 8.4499
# 4 12.3525 2.2830 12.9616 33.4107 2.6460 -11.6222
# 5 -13.5677 -16.4370 -0.5719 2.6460 40.6317 8.6873
# 6 -22.1155 4.6895 8.4499 -11.6222 8.6873 42.0144
#
#
#
# Elastic Compliance Matrix: (Units=1/GPa)
#
#
# Indices 1 2 3 4 5 6 
#
# 1 0.019316 0.001382 -0.001839 -0.004144 0.005522 0.008095
# 2 0.001382 0.010672 -0.003008 -0.000869 0.005037 -0.001140
# 3 -0.001839 -0.003008 0.009516 -0.003970 -0.000690 -0.003502
# 4 -0.004144 -0.000869 -0.003970 0.037160 -0.006418 0.010321
# 5 0.005522 0.005037 -0.000690 -0.006418 0.030079 -0.005511
# 6 0.008095 -0.001140 -0.003502 0.010321 -0.005511 0.032888
#
#
# Mechanical properties :
#
#
# Convention : Reuss Voigt Hill
#
# Bulk Modulus (GPa) = 30.69916 44.09755 37.39836
# Shear Modulus (GPa) = 31.76237 40.79570 36.27904
#
# Velocity S-wave (km/s) = 3.59470 4.07392 3.84179
# Velocity P-wave (km/s) = 5.45146 6.33003 5.90710
#
# Compressibility (1/GPa) = 0.03257418
#
# Stress axis : x y z
#
# Youngs Moduli (GPa) = 51.77123 93.70678 105.08484
#
# Poissons Ratio (x) = -0.12952 0.19326
# Poissons Ratio (y) = -0.07156 0.31607
# Poissons Ratio (z) = 0.09521 0.28185
#
# Static dielectric constant tensor:
#      x y z
#    x 2.031350 0.049670 -0.037610 
#    y 0.049670 2.039680 -0.052370 
#    z -0.037610 -0.052370 1.933730 
# 
# From -- ./inp_files/111079.got.cif
#   From: 2010.05.17/outbox.cif.g08.bks.cpg/sg2_56_cif.got.tgz:111079.got - 2010.06.03 11:33:40.
