data_PCOD9065453
_publ_section_title
;
Structure prediction by ZEFSAII (Michael W. Deem and Ramdas Pophale) SiO2 
 PCOD9065453
Probable space group: P -1
;
_chemical_formula_sum "Si O2"
_cell_formula_units_Z 14
_cell_length_a 13.946666
_cell_length_b 7.767745
_cell_length_c 23.811080
_cell_angle_alpha 137.276435
_cell_angle_beta 19.855200
_cell_angle_gamma 139.958099
_cell_volume 562.401624
_symmetry_space_group_name_H-M "P -1"
_symmetry_group_IT_number 2
_symmetry_cell_setting 'triclinic'
loop_
_space_group_symop_operation_xyz
x,y,z
-x,-y,-z
loop_
_atom_site_type_symbol
_atom_site_label
_atom_site_fract_x
_atom_site_fract_y
_atom_site_fract_z
Si Si1 0.310863 0.711451 0.899585
Si Si2 0.926208 0.030444 0.215225
Si Si3 0.644796 0.570122 0.376496
Si Si4 0.662770 0.430578 0.718610
Si Si5 0.236524 0.800373 0.546111
Si Si6 0.670103 0.901943 0.635050
Si Si7 0.095365 0.253273 0.051644
O O1 0.514074 0.565545 0.785343
O O2 0.467544 0.863936 0.793527
O O3 0.000000 0.500000 0.000000
O O4 0.188543 0.904879 0.052214
O O5 0.901415 0.244431 0.325923
O O6 0.583561 0.823669 0.353092
O O7 0.000982 0.147585 0.140262
O O8 0.500000 0.500000 0.500000
O O9 0.747486 0.889133 0.394430
O O10 0.406470 0.385202 0.420161
O O11 0.915123 0.457003 0.188468
O O12 0.998507 0.392502 0.412556
O O13 0.644367 0.117033 0.653604
O O14 0.442208 0.411191 0.888615
O O15 0.000000 0.000000 0.500000
O O16 0.000000 0.000000 0.000000
#
# Coordination Sequence:
#
# PCOD9065453 Si02
#       7
#     2   2   2   2   2   2   2
#     4  12  27  49  83 112 160 217 273 328 406 494
#     4  11  24  48  74 111 160 215 260 325 415 478
#     4  12  26  49  79 115 161 213 262 333 414 474
#     4  12  28  51  82 120 159 212 276 337 398 489
#     4  11  28  48  78 118 164 207 271 339 407 482
#     4  12  30  51  80 121 164 211 278 337 402 482
#     4  12  23  48  80 110 157 214 270 327 406 482
#
# _framework density 24.893242000000001
#
# number of rings (size 3 to 8) (size 9 to 14) (size 15 to 20)
#    0.000    0.286    4.286    3.429    8.000    3.429 
#    0.000    0.000    0.000    0.000    0.000    0.000 
#    0.000    0.000    0.000    0.000    0.000    0.000 
#
# Total GULP energy -78352.332030 kJ/mol
# GULP energy per Si atom -5596.595145 kJ/mol
# Density = 2.483658 g / cm^3
# Si number density = 24.893242 Si / 1000 Ang^3
#
#
#
# Elastic Constant Matrix: (Units=GPa)
#
#
# Indices 1 2 3 4 5 6 
#
# 1 108.3267 39.1620 34.8696 -3.1223 0.8765 -18.6231
# 2 39.1620 136.1080 46.2220 15.3784 -7.7337 -20.0403
# 3 34.8696 46.2220 150.2015 6.6613 1.5025 -3.1714
# 4 -3.1223 15.3784 6.6613 53.7380 1.0224 -6.5725
# 5 0.8765 -7.7337 1.5025 1.0224 51.3088 -8.0097
# 6 -18.6231 -20.0403 -3.1714 -6.5725 -8.0097 44.1563
#
#
#
# Elastic Compliance Matrix: (Units=1/GPa)
#
#
# Indices 1 2 3 4 5 6 
#
# 1 0.011421 -0.002259 -0.001964 0.002037 0.000101 0.003972
# 2 -0.002259 0.009636 -0.002293 -0.002240 0.002119 0.003307
# 3 -0.001964 -0.002293 0.007821 -0.000601 -0.000769 -0.001536
# 4 0.002037 -0.002240 -0.000601 0.019777 -0.000330 0.002683
# 5 0.000101 0.002119 -0.000769 -0.000330 0.020559 0.004630
# 6 0.003972 0.003307 -0.001536 0.002683 0.004630 0.026952
#
#
# Mechanical properties :
#
#
# Convention : Reuss Voigt Hill
#
# Bulk Modulus (GPa) = 63.10309 70.57150 66.83729
# Shear Modulus (GPa) = 43.67581 48.13282 45.90431
#
# Velocity S-wave (km/s) = 4.19325 4.40201 4.29890
# Velocity P-wave (km/s) = 6.98920 7.36533 7.17973
#
# Compressibility (1/GPa) = 0.01584709
#
# Stress axis : x y z
#
# Youngs Moduli (GPa) = 87.55934 103.77568 127.85852
#
# Poissons Ratio (x) = 0.23440 0.25108
# Poissons Ratio (y) = 0.19777 0.29318
# Poissons Ratio (z) = 0.17195 0.23796
#
# Static dielectric constant tensor:
#      x y z
#    x 2.125840 -0.068100 -0.025230 
#    y -0.068100 1.995510 0.047180 
#    z -0.025230 0.047180 2.001930 
# 
# From -- ./inp_files/611679.got.cif
#   From: 2010.05.17/outbox.cif.g08.bks.cpg/sg2_306_cif.got.tgz:611679.got - 2010.06.03 11:33:40.
