data_PCOD9065138
_publ_section_title
;
Structure prediction by ZEFSAII (Michael W. Deem and Ramdas Pophale) SiO2 
 PCOD9065138
Probable space group: P -1
;
_chemical_formula_sum "Si O2"
_cell_formula_units_Z 12
_cell_length_a 17.529730
_cell_length_b 7.148725
_cell_length_c 8.663141
_cell_angle_alpha 56.098821
_cell_angle_beta 146.220569
_cell_angle_gamma 130.246616
_cell_volume 460.161789
_symmetry_space_group_name_H-M "P -1"
_symmetry_group_IT_number 2
_symmetry_cell_setting 'triclinic'
loop_
_space_group_symop_operation_xyz
x,y,z
-x,-y,-z
loop_
_atom_site_type_symbol
_atom_site_label
_atom_site_fract_x
_atom_site_fract_y
_atom_site_fract_z
Si Si1 0.139024 0.631361 0.878139
Si Si2 0.165289 0.351660 0.322499
Si Si3 0.655912 0.584702 0.100879
Si Si4 0.066227 0.172697 0.740418
Si Si5 0.531399 0.977151 0.742601
Si Si6 0.564613 0.707515 0.379972
O O1 0.035975 0.767626 0.586152
O O2 0.093692 0.380233 0.821005
O O3 0.129015 0.553335 0.074864
O O4 0.308432 0.810691 0.045609
O O5 0.245413 0.442727 0.579582
O O6 0.288443 0.300679 0.446894
O O7 0.025423 0.096078 0.225630
O O8 0.551724 0.725148 0.913657
O O9 0.559714 0.362465 0.930986
O O10 0.585150 0.961396 0.378302
O O11 0.776622 0.777404 0.097760
O O12 0.500000 0.000000 0.500000
O O13 0.500000 0.500000 0.500000
#
# Coordination Sequence:
#
# PCOD9065138 Si02
#       6
#     2   2   2   2   2   2
#     4  11  24  47  72 108 145 196 245 300 372 430
#     4  12  25  44  77 110 145 197 249 296 376 441
#     4  12  25  47  74 108 152 194 244 308 367 436
#     4  11  25  49  75 105 155 193 243 309 363 443
#     4  12  24  45  77 104 139 197 245 294 373 429
#     4  12  24  47  74 106 151 192 245 314 357 436
#
# _framework density 26.077784000000001
#
# number of rings (size 3 to 8) (size 9 to 14) (size 15 to 20)
#    0.000    0.333    6.667    1.500    0.000    1.333 
#    0.000    3.333    0.000    0.000    0.000    0.000 
#    0.000    0.000    0.000    0.000    0.000    0.000 
#
# Total GULP energy -67393.090406 kJ/mol
# GULP energy per Si atom -5616.090867 kJ/mol
# Density = 2.601843 g / cm^3
# Si number density = 26.077784 Si / 1000 Ang^3
#
#
#
# Elastic Constant Matrix: (Units=GPa)
#
#
# Indices 1 2 3 4 5 6 
#
# 1 127.8932 17.5283 11.0127 3.5214 -13.1470 -3.5682
# 2 17.5283 114.6636 24.2645 -6.8062 -6.5523 -8.6888
# 3 11.0127 24.2645 121.6577 -13.3513 -19.7611 -8.1108
# 4 3.5214 -6.8062 -13.3513 51.0271 9.2419 -0.8668
# 5 -13.1470 -6.5523 -19.7611 9.2419 38.3109 5.5010
# 6 -3.5682 -8.6888 -8.1108 -0.8668 5.5010 45.6737
#
#
#
# Elastic Compliance Matrix: (Units=1/GPa)
#
#
# Indices 1 2 3 4 5 6 
#
# 1 0.008324 -0.001141 -0.000201 -0.001298 0.002867 0.000028
# 2 -0.001141 0.009393 -0.001575 0.000950 -0.000034 0.001440
# 3 -0.000201 -0.001575 0.009437 0.001560 0.004023 0.000906
# 4 -0.001298 0.000950 0.001560 0.021107 -0.004761 0.001330
# 5 0.002867 -0.000034 0.004023 -0.004761 0.030714 -0.002858
# 6 0.000028 0.001440 0.000906 0.001330 -0.002858 0.022701
#
#
# Mechanical properties :
#
#
# Convention : Reuss Voigt Hill
#
# Bulk Modulus (GPa) = 46.90584 52.20281 49.55432
# Shear Modulus (GPa) = 43.62385 47.76294 45.69340
#
# Velocity S-wave (km/s) = 4.09447 4.28431 4.19047
# Velocity P-wave (km/s) = 6.35443 6.67348 6.51591
#
# Compressibility (1/GPa) = 0.02131931
#
# Stress axis : x y z
#
# Youngs Moduli (GPa) = 120.13565 106.46761 105.96385
#
# Poissons Ratio (x) = 0.12149 0.02128
# Poissons Ratio (y) = 0.13708 0.16692
# Poissons Ratio (z) = 0.02413 0.16771
#
# Static dielectric constant tensor:
#      x y z
#    x 2.102750 0.026260 0.000200 
#    y 0.026260 2.035090 -0.026860 
#    z 0.000200 -0.026860 2.008200 
# 
# From -- ./inp_files/352085.got.cif
#   From: 2010.05.17/outbox.cif.g08.bks.cpg/sg2_177_cif.got.tgz:352085.got - 2010.06.03 11:33:40.
