data_PCOD9065710
_publ_section_title
;
Structure prediction by ZEFSAII (Michael W. Deem and Ramdas Pophale) SiO2 
 PCOD9065710
Probable space group: P -1
;
_chemical_formula_sum "Si O2"
_cell_formula_units_Z 16
_cell_length_a 24.059061
_cell_length_b 22.004763
_cell_length_c 6.784935
_cell_angle_alpha 44.699786
_cell_angle_beta 125.510508
_cell_angle_gamma 162.018392
_cell_volume 700.982755
_symmetry_space_group_name_H-M "P -1"
_symmetry_group_IT_number 2
_symmetry_cell_setting 'triclinic'
loop_
_space_group_symop_operation_xyz
x,y,z
-x,-y,-z
loop_
_atom_site_type_symbol
_atom_site_label
_atom_site_fract_x
_atom_site_fract_y
_atom_site_fract_z
Si Si1 0.199647 0.266715 0.195355
Si Si2 0.789643 0.403937 0.669743
Si Si3 0.797801 0.869557 0.812433
Si Si4 0.345256 0.127593 0.637414
Si Si5 0.439872 0.989110 0.588731
Si Si6 0.878344 0.275968 0.667824
Si Si7 0.439322 0.511595 0.463004
Si Si8 0.205096 0.408402 0.558186
O O1 0.262588 0.261680 0.195530
O O2 0.349907 0.467266 0.216519
O O3 0.153529 0.294479 0.909433
O O4 0.000000 0.000000 0.500000
O O5 0.817151 0.518577 0.603830
O O6 0.984770 0.605327 0.490072
O O7 0.630595 0.235869 0.552878
O O8 0.705016 0.230441 0.044482
O O9 0.701896 0.852126 0.662635
O O10 0.719988 0.714574 0.184318
O O11 0.035828 0.172275 0.604238
O O12 0.372435 0.218348 0.677113
O O13 0.563311 0.342117 0.574459
O O14 0.182496 0.861994 0.963664
O O15 0.320561 0.925227 0.387233
O O16 0.500000 0.000000 0.500000
O O17 0.000000 0.500000 0.500000
O O18 0.500000 0.500000 0.500000
#
# Coordination Sequence:
#
# PCOD9065710 Si02
#       8
#     2   2   2   2   2   2   2   2
#     4  12  24  44  72 101 147 195 241 294 366 427
#     4  11  28  47  77 111 142 193 243 297 377 441
#     4  12  26  49  72 105 154 194 243 306 361 434
#     4  12  28  46  75 108 148 198 250 304 367 433
#     4  11  24  52  79 104 145 185 241 310 368 433
#     4  12  28  49  77 109 148 192 245 308 373 434
#     4  12  24  45  72 103 146 195 246 301 362 435
#     4  12  27  46  73 110 147 192 251 298 360 446
#
# _framework density 22.825097
#
# number of rings (size 3 to 8) (size 9 to 14) (size 15 to 20)
#    0.000    0.250    5.000    3.375    8.750    2.000 
#    0.000    0.000    0.000    0.000    0.000    0.000 
#    0.000    0.000    0.000    0.000    0.000    0.000 
#
# Total GULP energy -89393.064790 kJ/mol
# GULP energy per Si atom -5587.066549 kJ/mol
# Density = 2.277315 g / cm^3
# Si number density = 22.825097 Si / 1000 Ang^3
#
#
#
# Elastic Constant Matrix: (Units=GPa)
#
#
# Indices 1 2 3 4 5 6 
#
# 1 81.3150 -1.8746 15.4252 -10.1148 -1.7243 15.7099
# 2 -1.8746 59.0700 7.5564 8.4012 3.3966 3.9801
# 3 15.4252 7.5564 83.3425 -8.9625 2.2880 3.2850
# 4 -10.1148 8.4012 -8.9625 40.3329 1.0572 -0.1457
# 5 -1.7243 3.3966 2.2880 1.0572 40.5442 -2.5678
# 6 15.7099 3.9801 3.2850 -0.1457 -2.5678 40.4782
#
#
#
# Elastic Compliance Matrix: (Units=1/GPa)
#
#
# Indices 1 2 3 4 5 6 
#
# 1 0.014121 0.000657 -0.002158 0.002899 0.000253 -0.005343
# 2 0.000657 0.017997 -0.002070 -0.004015 -0.001382 -0.001959
# 3 -0.002158 -0.002070 0.012906 0.002777 -0.000722 -0.000042
# 4 0.002899 -0.004015 0.002777 0.026983 -0.000457 -0.000888
# 5 0.000253 -0.001382 -0.000722 -0.000457 0.024950 0.001677
# 6 -0.005343 -0.001959 -0.000042 -0.000888 0.001677 0.027078
#
#
# Mechanical properties :
#
#
# Convention : Reuss Voigt Hill
#
# Bulk Modulus (GPa) = 26.39714 29.54906 27.97310
# Shear Modulus (GPa) = 34.77002 37.77911 36.27456
#
# Velocity S-wave (km/s) = 3.90721 4.07278 3.99085
# Velocity P-wave (km/s) = 5.65200 5.92373 5.78946
#
# Compressibility (1/GPa) = 0.03788289
#
# Stress axis : x y z
#
# Youngs Moduli (GPa) = 70.81851 55.56427 77.48470
#
# Poissons Ratio (x) = -0.03652 0.16719
# Poissons Ratio (y) = -0.04655 0.16039
# Poissons Ratio (z) = 0.15280 0.11502
#
# Static dielectric constant tensor:
#      x y z
#    x 1.861370 0.041150 0.013580 
#    y 0.041150 1.939320 0.056980 
#    z 0.013580 0.056980 1.874400 
# 
# From -- ./inp_files/125000.got.cif
#   From: 2010.05.17/outbox.cif.g08.bks.cpg/sg2_63_cif.got.tgz:125000.got - 2010.06.03 11:33:40.
