data_PCOD9065519
_publ_section_title
;
Structure prediction by ZEFSAII (Michael W. Deem and Ramdas Pophale) SiO2 
 PCOD9065519
Probable space group: P -1
;
_chemical_formula_sum "Si O2"
_cell_formula_units_Z 16
_cell_length_a 9.597769
_cell_length_b 14.116782
_cell_length_c 15.339990
_cell_angle_alpha 149.503460
_cell_angle_beta 115.007209
_cell_angle_gamma 85.679214
_cell_volume 743.737662
_symmetry_space_group_name_H-M "P -1"
_symmetry_group_IT_number 2
_symmetry_cell_setting 'triclinic'
loop_
_space_group_symop_operation_xyz
x,y,z
-x,-y,-z
loop_
_atom_site_type_symbol
_atom_site_label
_atom_site_fract_x
_atom_site_fract_y
_atom_site_fract_z
Si Si1 0.729178 0.635635 0.679640
Si Si2 0.840905 0.904974 0.458592
Si Si3 0.884398 0.582446 0.990433
Si Si4 0.912973 0.641847 0.388263
Si Si5 0.058478 0.086068 0.218011
Si Si6 0.713916 0.135398 0.884719
Si Si7 0.571202 0.231643 0.757962
Si Si8 0.737780 0.305898 0.549100
O O1 0.500000 0.500000 0.500000
O O2 0.834762 0.733861 0.692527
O O3 0.752972 0.457267 0.592116
O O4 0.838324 0.867168 0.954906
O O5 0.793286 0.680132 0.319489
O O6 0.634082 0.834396 0.317022
O O7 0.000000 0.000000 0.500000
O O8 0.962609 0.130957 0.736817
O O9 0.694964 0.460160 0.907478
O O10 0.812323 0.467198 0.784427
O O11 0.000000 0.500000 0.000000
O O12 0.936340 0.776749 0.589008
O O13 0.119590 0.756677 0.485358
O O14 0.812153 0.363556 0.154683
O O15 0.169898 0.971691 0.171531
O O16 0.706181 0.241601 0.875703
O O17 0.487948 0.922115 0.678597
O O18 0.500000 0.000000 0.500000
#
# Coordination Sequence:
#
# PCOD9065519 Si02
#       8
#     2   2   2   2   2   2   2   2
#     4  11  24  48  80 105 137 182 237 296 358 428
#     4  12  26  44  64 106 147 185 244 299 344 420
#     4  12  24  42  73 100 143 193 239 287 353 423
#     4  12  28  45  71 105 146 187 235 294 356 421
#     4  11  26  49  75 103 140 184 235 293 363 420
#     4  12  24  47  71 102 146 188 237 293 354 421
#     4  12  23  40  70 101 141 196 239 283 354 420
#     4  12  25  45  72 105 142 189 238 291 357 422
#
# _framework density 21.512964
#
# number of rings (size 3 to 8) (size 9 to 14) (size 15 to 20)
#    0.000    0.250    5.000    4.500    0.000    4.500 
#    0.000    1.250    0.000    0.000    0.000    0.000 
#    0.000    0.000    0.000    0.000    0.000    0.000 
#
# Total GULP energy -89540.898401 kJ/mol
# GULP energy per Si atom -5596.306150 kJ/mol
# Density = 2.146400 g / cm^3
# Si number density = 21.512964 Si / 1000 Ang^3
#
#
#
# Elastic Constant Matrix: (Units=GPa)
#
#
# Indices 1 2 3 4 5 6 
#
# 1 119.9949 40.9117 62.1279 -11.9525 4.8760 -1.0008
# 2 40.9117 118.6329 30.7115 -5.3702 -7.7121 0.0117
# 3 62.1279 30.7115 133.9161 -0.3597 -0.9748 4.1611
# 4 -11.9525 -5.3702 -0.3597 35.6274 2.5715 2.1182
# 5 4.8760 -7.7121 -0.9748 2.5715 46.1175 -4.4880
# 6 -1.0008 0.0117 4.1611 2.1182 -4.4880 25.5937
#
#
#
# Elastic Compliance Matrix: (Units=1/GPa)
#
#
# Indices 1 2 3 4 5 6 
#
# 1 0.012457 -0.002930 -0.005132 0.003796 -0.002064 0.000647
# 2 -0.002930 0.009810 -0.000886 0.000326 0.001946 0.000339
# 3 -0.005132 -0.000886 0.010101 -0.001697 0.000546 -0.001606
# 4 0.003796 0.000326 -0.001697 0.029683 -0.002274 -0.002431
# 5 -0.002064 0.001946 0.000546 -0.002274 0.022756 0.004008
# 6 0.000647 0.000339 -0.001606 -0.002431 0.004008 0.040262
#
#
# Mechanical properties :
#
#
# Convention : Reuss Voigt Hill
#
# Bulk Modulus (GPa) = 69.09836 71.11624 70.10730
# Shear Modulus (GPa) = 33.83172 37.38725 35.60948
#
# Velocity S-wave (km/s) = 3.96993 4.17333 4.07290
# Velocity P-wave (km/s) = 7.29403 7.50676 7.40116
#
# Compressibility (1/GPa) = 0.01447212
#
# Stress axis : x y z
#
# Youngs Moduli (GPa) = 80.27416 101.93270 99.00029
#
# Poissons Ratio (x) = 0.29864 0.50811
# Poissons Ratio (y) = 0.23518 0.08773
# Poissons Ratio (z) = 0.41200 0.09033
#
# Static dielectric constant tensor:
#      x y z
#    x 1.795630 -0.006290 -0.008360 
#    y -0.006290 1.808950 0.011040 
#    z -0.008360 0.011040 1.822020 
# 
# From -- ./inp_files/505918.got.cif
#   From: 2010.05.17/outbox.cif.g08.bks.cpg/sg2_253_cif.got.tgz:505918.got - 2010.06.03 11:33:40.
