data_PCOD9065531
_publ_section_title
;
Structure prediction by ZEFSAII (Michael W. Deem and Ramdas Pophale) SiO2 
 PCOD9065531
Probable space group: P -1
;
_chemical_formula_sum "Si O2"
_cell_formula_units_Z 10
_cell_length_a 7.067329
_cell_length_b 15.851920
_cell_length_c 4.900551
_cell_angle_alpha 123.716407
_cell_angle_beta 67.147781
_cell_angle_gamma 130.373618
_cell_volume 347.545519
_symmetry_space_group_name_H-M "P -1"
_symmetry_group_IT_number 2
_symmetry_cell_setting 'triclinic'
loop_
_space_group_symop_operation_xyz
x,y,z
-x,-y,-z
loop_
_atom_site_type_symbol
_atom_site_label
_atom_site_fract_x
_atom_site_fract_y
_atom_site_fract_z
Si Si1 0.529659 0.176849 0.007810
Si Si2 0.748240 0.148362 0.333849
Si Si3 0.229935 0.345845 0.158789
Si Si4 0.224097 0.554790 0.751798
Si Si5 0.952436 0.891953 0.535780
O O1 0.634843 0.118086 0.041593
O O2 0.721122 0.323347 0.205249
O O3 0.268716 0.142662 0.198192
O O4 0.566938 0.164731 0.647973
O O5 0.024475 0.272299 0.380109
O O6 0.808840 0.067002 0.334633
O O7 0.217778 0.464433 0.362768
O O8 0.514346 0.397484 0.155888
O O9 0.134362 0.233822 0.800194
O O10 0.000000 0.500000 0.000000
O O11 0.000000 0.000000 0.500000
#
# Coordination Sequence:
#
# PCOD9065531 Si02
#       5
#     2   2   2   2   2
#     4  12  27  51  79 121 160 210 266 327 410 476
#     4  12  26  52  78 119 159 205 276 323 395 486
#     4  11  25  51  78 119 159 206 271 318 401 482
#     4  11  24  48  85 119 163 210 255 335 404 481
#     4  12  30  55  81 114 164 214 269 339 393 467
#
# _framework density 28.773209000000001
#
# number of rings (size 3 to 8) (size 9 to 14) (size 15 to 20)
#    0.000    0.400    6.000    1.200    0.000    4.000 
#    3.600    0.000    0.000    0.000    0.000    0.000 
#    0.000    0.000    0.000    0.000    0.000    0.000 
#
# Total GULP energy -56076.980606 kJ/mol
# GULP energy per Si atom -5607.698061 kJ/mol
# Density = 2.870772 g / cm^3
# Si number density = 28.773209 Si / 1000 Ang^3
#
#
#
# Elastic Constant Matrix: (Units=GPa)
#
#
# Indices 1 2 3 4 5 6 
#
# 1 136.2964 6.1095 40.2688 -30.2783 12.3280 29.8411
# 2 6.1095 133.6171 55.5943 -17.1853 -19.2868 5.3644
# 3 40.2688 55.5943 207.2212 2.9974 -10.1680 14.3931
# 4 -30.2783 -17.1853 2.9974 67.2124 9.0992 -19.3201
# 5 12.3280 -19.2868 -10.1680 9.0992 46.7272 -13.2611
# 6 29.8411 5.3644 14.3931 -19.3201 -13.2611 68.8072
#
#
#
# Elastic Compliance Matrix: (Units=1/GPa)
#
#
# Indices 1 2 3 4 5 6 
#
# 1 0.010177 0.000433 -0.002139 0.004385 -0.004878 -0.003709
# 2 0.000433 0.009218 -0.002513 0.002527 0.002904 0.000888
# 3 -0.002139 -0.002513 0.006039 -0.002181 0.001113 -0.000537
# 4 0.004385 0.002527 -0.002181 0.018926 -0.003419 0.003013
# 5 -0.004878 0.002904 0.001113 -0.003419 0.026438 0.005792
# 6 -0.003709 0.000888 -0.000537 0.003013 0.005792 0.018147
#
#
# Mechanical properties :
#
#
# Convention : Reuss Voigt Hill
#
# Bulk Modulus (GPa) = 58.83430 75.67555 67.25492
# Shear Modulus (GPa) = 48.52092 61.56018 55.04055
#
# Velocity S-wave (km/s) = 4.11094 4.63049 4.37843
# Velocity P-wave (km/s) = 6.55935 7.41258 6.99898
#
# Compressibility (1/GPa) = 0.01699689
#
# Stress axis : x y z
#
# Youngs Moduli (GPa) = 98.26170 108.47959 165.58529
#
# Poissons Ratio (x) = -0.04702 0.35421
# Poissons Ratio (y) = -0.04260 0.41614
# Poissons Ratio (z) = 0.21019 0.27262
#
# Static dielectric constant tensor:
#      x y z
#    x 2.263980 -0.073970 0.002530 
#    y -0.073970 2.300390 0.131140 
#    z 0.002530 0.131140 2.201730 
# 
# From -- ./inp_files/45912.got.cif
#   From: 2010.05.17/outbox.cif.g08.bks.cpg/sg2_23_cif.got.tgz:45912.got - 2010.06.03 11:33:40.
