data_PCOD9065301
_publ_section_title
;
Structure prediction by ZEFSAII (Michael W. Deem and Ramdas Pophale) SiO2 
 PCOD9065301
Probable space group: P -1
;
_chemical_formula_sum "Si O2"
_cell_formula_units_Z 13
_cell_length_a 10.435917
_cell_length_b 16.173947
_cell_length_c 8.399223
_cell_angle_alpha 59.475447
_cell_angle_beta 134.761439
_cell_angle_gamma 146.147131
_cell_volume 550.064965
_symmetry_space_group_name_H-M "P -1"
_symmetry_group_IT_number 2
_symmetry_cell_setting 'triclinic'
loop_
_space_group_symop_operation_xyz
x,y,z
-x,-y,-z
loop_
_atom_site_type_symbol
_atom_site_label
_atom_site_fract_x
_atom_site_fract_y
_atom_site_fract_z
Si Si1 0.029118 0.280637 0.380216
Si Si2 0.300147 0.823941 0.486167
Si Si3 0.853985 0.986581 0.234694
Si Si4 0.590636 0.765117 0.940191
Si Si5 0.147325 0.279108 0.023398
Si Si6 0.361330 0.528045 0.180998
Si Si7 0.500000 0.000000 0.000000
O O1 0.124192 0.405665 0.223269
O O2 0.324785 0.343390 0.593058
O O3 0.919668 0.267050 0.470263
O O4 0.774880 0.112651 0.251304
O O5 0.482939 0.802970 0.688982
O O6 0.500000 0.000000 0.500000
O O7 0.116757 0.764532 0.225077
O O8 0.549986 0.906296 0.092948
O O9 0.809414 0.902071 0.122718
O O10 0.000000 0.000000 0.500000
O O11 0.021879 0.148705 0.159476
O O12 0.724395 0.730911 0.996287
O O13 0.339905 0.615278 0.973576
O O14 0.354311 0.434379 0.145730
#
# Coordination Sequence:
#
# PCOD9065301 Si02
#       7
#     2   2   2   2   2   2   1
#     4  11  24  47  79 102 155 194 250 310 371 442
#     4  12  26  47  75 110 148 195 249 314 365 439
#     4  12  27  44  76 111 145 200 258 308 371 448
#     4  12  26  46  74 111 148 200 249 306 378 453
#     4  12  26  49  72 106 157 197 246 312 378 446
#     4  11  26  49  75 111 153 203 242 312 387 443
#     4  12  22  50  74 108 144 194 252 314 354 434
#
# _framework density 23.633571
#
# number of rings (size 3 to 8) (size 9 to 14) (size 15 to 20)
#    0.000    0.308    6.154    1.846    2.154    2.462 
#    0.000    0.000    0.000    0.000    0.000    0.000 
#    0.000    0.000    0.000    0.000    0.000    0.000 
#
# Total GULP energy -72487.833347 kJ/mol
# GULP energy per Si atom -5575.987181 kJ/mol
# Density = 2.357978 g / cm^3
# Si number density = 23.633571 Si / 1000 Ang^3
#
#
#
# Elastic Constant Matrix: (Units=GPa)
#
#
# Indices 1 2 3 4 5 6 
#
# 1 64.9285 -12.2024 48.2709 -1.7355 -3.2256 -12.2080
# 2 -12.2024 41.4596 97.2400 -11.6821 -7.4223 -44.0723
# 3 48.2709 97.2400 143.4881 -10.5004 2.8550 8.0993
# 4 -1.7355 -11.6821 -10.5004 55.8450 -5.1358 -4.5575
# 5 -3.2256 -7.4223 2.8550 -5.1358 26.8739 -0.1969
# 6 -12.2080 -44.0723 8.0993 -4.5575 -0.1969 11.5464
#
#
#
# Elastic Compliance Matrix: (Units=1/GPa)
#
#
# Indices 1 2 3 4 5 6 
#
# 1 0.012744 -0.005630 -0.000093 -0.001532 -0.000371 -0.008562
# 2 -0.005630 -0.001334 0.003543 -0.001089 -0.001731 -0.013990
# 3 -0.000093 0.003543 0.004112 0.002557 0.001104 0.011567
# 4 -0.001532 -0.001089 0.002557 0.018342 0.002747 -0.000283
# 5 -0.000371 -0.001731 0.001104 0.002747 0.037051 -0.006058
# 6 -0.008562 -0.013990 0.011567 -0.000283 -0.006058 0.015827
#
#
# Mechanical properties :
#
#
# Convention : Reuss Voigt Hill
#
# Bulk Modulus (GPa) = 89.60386 57.38815 73.49600
# Shear Modulus (GPa) = 52.73000 26.62425 39.67712
#
# Velocity S-wave (km/s) = 4.72863 3.36004 4.10182
# Velocity P-wave (km/s) = 8.23464 6.27602 7.32112
#
# Compressibility (1/GPa) = 0.01116023
#
# Stress axis : x y z
#
# Youngs Moduli (GPa) = 78.47079 -749.47740 243.19181
#
# Poissons Ratio (x) = -4.21956 0.02266
# Poissons Ratio (y) = 0.44179 -0.86154
# Poissons Ratio (z) = 0.00731 2.65513
#
# Static dielectric constant tensor:
#      x y z
#    x 2.049450 0.041110 -0.012060 
#    y 0.041110 1.978650 0.067040 
#    z -0.012060 0.067040 1.940990 
# 
# From -- ./inp_files/279148.got.cif
#   From: 2010.05.17/outbox.cif.g08.bks.cpg/sg2_140_cif.got.tgz:279148.got - 2010.06.03 11:33:40.
