data_PCOD9065666
_publ_section_title
;
Structure prediction by ZEFSAII (Michael W. Deem and Ramdas Pophale) SiO2 
 PCOD9065666
Probable space group: P -1
;
_chemical_formula_sum "Si O2"
_cell_formula_units_Z 14
_cell_length_a 7.552123
_cell_length_b 9.988237
_cell_length_c 12.652624
_cell_angle_alpha 40.507134
_cell_angle_beta 112.044194
_cell_angle_gamma 122.560820
_cell_volume 521.492464
_symmetry_space_group_name_H-M "P -1"
_symmetry_group_IT_number 2
_symmetry_cell_setting 'triclinic'
loop_
_space_group_symop_operation_xyz
x,y,z
-x,-y,-z
loop_
_atom_site_type_symbol
_atom_site_label
_atom_site_fract_x
_atom_site_fract_y
_atom_site_fract_z
Si Si1 0.000000 0.500000 0.000000
Si Si2 0.625739 0.763372 0.644540
Si Si3 0.135886 0.301618 0.550180
Si Si4 0.000000 0.000000 0.500000
Si Si5 0.166836 0.798594 0.277958
Si Si6 0.453076 0.304345 0.763943
Si Si7 0.402366 0.865317 0.737749
Si Si8 0.843688 0.194545 0.946755
O O1 0.773783 0.326698 0.118298
O O2 0.048732 0.686051 0.995306
O O3 0.480095 0.530067 0.696605
O O4 0.508181 0.796247 0.701197
O O5 0.691132 0.970000 0.443951
O O6 0.864767 0.796277 0.690076
O O7 0.058296 0.206852 0.475623
O O8 0.171083 0.554885 0.434901
O O9 0.351725 0.288774 0.635927
O O10 0.956848 0.157940 0.679238
O O11 0.036832 0.773831 0.155973
O O12 0.403953 0.988692 0.230084
O O13 0.677529 0.300411 0.819163
O O14 0.295930 0.071420 0.918791
#
# Coordination Sequence:
#
# PCOD9065666 Si02
#       8
#     1   2   2   1   2   2   2   2
#     4  12  30  50  78 108 162 208 260 332 398 468
#     4  11  26  45  81 111 158 200 267 329 389 467
#     4  11  26  44  82 113 159 200 270 325 394 465
#     4  12  26  42  70 128 144 196 256 330 380 462
#     4  11  24  50  74 114 155 212 256 326 395 478
#     4  11  25  50  74 114 147 213 257 325 389 478
#     4  11  25  50  75 117 156 209 255 332 389 472
#     4  11  28  48  75 106 160 205 265 320 401 464
#
# _framework density 26.846026999999999
#
# number of rings (size 3 to 8) (size 9 to 14) (size 15 to 20)
#    0.000    0.857    2.857    2.571   10.000    1.714 
#    0.000    1.429    0.000    0.000    0.000    0.000 
#    0.000    0.000    0.000    0.000    0.000    0.000 
#
# Total GULP energy -77980.639855 kJ/mol
# GULP energy per Si atom -5570.045704 kJ/mol
# Density = 2.678492 g / cm^3
# Si number density = 26.846027 Si / 1000 Ang^3
#
#
#
# Elastic Constant Matrix: (Units=GPa)
#
#
# Indices 1 2 3 4 5 6 
#
# 1 129.7340 76.6152 54.8997 1.8843 -35.7565 -13.7317
# 2 76.6152 260.3026 82.8031 1.0005 -22.4388 -8.8330
# 3 54.8997 82.8031 85.0208 7.0232 -47.8227 4.6493
# 4 1.8843 1.0005 7.0232 53.7878 8.0826 -17.2911
# 5 -35.7565 -22.4388 -47.8227 8.0826 54.7940 4.8484
# 6 -13.7317 -8.8330 4.6493 -17.2911 4.8484 49.0419
#
#
#
# Elastic Compliance Matrix: (Units=1/GPa)
#
#
# Indices 1 2 3 4 5 6 
#
# 1 0.011764 -0.001404 -0.005625 0.001350 0.001649 0.003887
# 2 -0.001404 0.007625 -0.012886 0.004678 -0.010160 0.004856
# 3 -0.005625 -0.012886 0.055834 -0.020219 0.044599 -0.020727
# 4 0.001350 0.004678 -0.020219 0.029144 -0.020515 0.015441
# 5 0.001649 -0.010160 0.044599 -0.020515 0.058766 -0.018639
# 6 0.003887 0.004856 -0.020727 0.015441 -0.018639 0.031606
#
#
# Mechanical properties :
#
#
# Convention : Reuss Voigt Hill
#
# Bulk Modulus (GPa) = 28.25532 100.41038 64.33285
# Shear Modulus (GPa) = 20.29484 48.90736 34.60110
#
# Velocity S-wave (km/s) = 2.75248 4.27285 3.59398
# Velocity P-wave (km/s) = 4.54415 7.86299 6.42168
#
# Compressibility (1/GPa) = 0.03539157
#
# Stress axis : x y z
#
# Youngs Moduli (GPa) = 85.00368 131.14488 17.91012
#
# Poissons Ratio (x) = 0.18416 0.10075
# Poissons Ratio (y) = 0.11937 0.23080
# Poissons Ratio (z) = 0.47818 1.68999
#
# Static dielectric constant tensor:
#      x y z
#    x 1.122580 -0.319980 -0.445990 
#    y -0.319980 1.964950 -0.288730 
#    z -0.445990 -0.288730 2.697850 
# 
# From -- ./inp_files/381102.got.cif
#   From: 2010.05.17/outbox.cif.g08.bks.cpg/sg2_191_cif.got.tgz:381102.got - 2010.06.03 11:33:40.
