data_PCOD9065208
_publ_section_title
;
Structure prediction by ZEFSAII (Michael W. Deem and Ramdas Pophale) SiO2 
 PCOD9065208
Probable space group: P -1
;
_chemical_formula_sum "Si O2"
_cell_formula_units_Z 12
_cell_length_a 14.575923
_cell_length_b 5.415949
_cell_length_c 6.790972
_cell_angle_alpha 100.870113
_cell_angle_beta 77.384135
_cell_angle_gamma 96.971882
_cell_volume 511.963978
_symmetry_space_group_name_H-M "P -1"
_symmetry_group_IT_number 2
_symmetry_cell_setting 'triclinic'
loop_
_space_group_symop_operation_xyz
x,y,z
-x,-y,-z
loop_
_atom_site_type_symbol
_atom_site_label
_atom_site_fract_x
_atom_site_fract_y
_atom_site_fract_z
Si Si1 0.678053 0.517091 0.546323
Si Si2 0.210341 0.608918 0.145285
Si Si3 0.990823 0.274025 0.634054
Si Si4 0.173119 0.218105 0.787636
Si Si5 0.559976 0.759899 0.959408
Si Si6 0.312539 0.896212 0.795898
O O1 0.742084 0.415390 0.672305
O O2 0.748078 0.663779 0.382564
O O3 0.612670 0.697508 0.721984
O O4 0.633998 0.277070 0.405244
O O5 0.112942 0.733560 0.227298
O O6 0.182584 0.340999 0.016631
O O7 0.286215 0.751975 0.988329
O O8 0.000000 0.500000 0.500000
O O9 0.074148 0.286901 0.757619
O O10 0.000000 0.000000 0.500000
O O11 0.209728 0.942128 0.758003
O O12 0.500000 0.500000 0.000000
O O13 0.500000 0.000000 0.000000
O O14 0.629622 0.847426 0.121352
#
# Coordination Sequence:
#
# PCOD9065208 Si02
#       6
#     2   2   2   2   2   2
#     4  11  25  48  77 105 153 198 245 313 376 451
#     4  11  24  47  74 107 157 199 249 307 362 443
#     4  12  27  44  72 113 153 202 253 299 363 432
#     4  11  25  45  75 109 146 205 250 301 370 440
#     4  12  29  51  77 112 149 192 249 319 385 457
#     4  11  27  46  79 111 144 206 251 303 387 446
#
# _framework density 23.439147999999999
#
# number of rings (size 3 to 8) (size 9 to 14) (size 15 to 20)
#    0.000    0.667    3.333    2.500   14.000    2.000 
#    0.000    0.000    0.000    0.000    0.000    0.000 
#    0.000    0.000    0.000    0.000    0.000    0.000 
#
# Total GULP energy -67090.955134 kJ/mol
# GULP energy per Si atom -5590.912928 kJ/mol
# Density = 2.338580 g / cm^3
# Si number density = 23.439148 Si / 1000 Ang^3
#
#
#
# Elastic Constant Matrix: (Units=GPa)
#
#
# Indices 1 2 3 4 5 6 
#
# 1 110.4680 36.9191 41.1797 21.2221 -2.1135 -23.0047
# 2 36.9191 98.1492 45.5480 28.0184 0.1690 -12.8194
# 3 41.1797 45.5480 147.8696 34.2827 -4.5477 -4.0637
# 4 21.2221 28.0184 34.2827 50.1805 -18.4842 -2.5671
# 5 -2.1135 0.1690 -4.5477 -18.4842 39.3217 6.8008
# 6 -23.0047 -12.8194 -4.0637 -2.5671 6.8008 43.1996
#
#
#
# Elastic Compliance Matrix: (Units=1/GPa)
#
#
# Indices 1 2 3 4 5 6 
#
# 1 0.012252 -0.002023 -0.001954 -0.003178 -0.002069 0.005877
# 2 -0.002023 0.014470 -0.002295 -0.007084 -0.004331 0.003262
# 3 -0.001954 -0.002295 0.008986 -0.004440 -0.000972 -0.000987
# 4 -0.003178 -0.007084 -0.004440 0.033960 0.016129 -0.004734
# 5 -0.002069 -0.004331 -0.000972 0.016129 0.033996 -0.006872
# 6 0.005877 0.003262 -0.000987 -0.004734 -0.006872 0.027954
#
#
# Mechanical properties :
#
#
# Convention : Reuss Voigt Hill
#
# Bulk Modulus (GPa) = 43.17010 67.08672 55.12841
# Shear Modulus (GPa) = 32.91970 42.06302 37.49136
#
# Velocity S-wave (km/s) = 3.75170 4.24082 4.00374
# Velocity P-wave (km/s) = 6.10122 7.25694 6.70403
#
# Compressibility (1/GPa) = 0.02316418
#
# Stress axis : x y z
#
# Youngs Moduli (GPa) = 81.61997 69.10619 111.28206
#
# Poissons Ratio (x) = 0.13982 0.21744
# Poissons Ratio (y) = 0.16514 0.25538
# Poissons Ratio (z) = 0.15948 0.15859
#
# Static dielectric constant tensor:
#      x y z
#    x 1.867750 0.069750 0.147930 
#    y 0.069750 1.942560 0.024990 
#    z 0.147930 0.024990 1.850630 
# 
# From -- ./inp_files/3110.got.cif
#   From: 2010.05.17/outbox.cif.g08.bks.cpg/sg2_2_cif.got.tgz:3110.got - 2010.06.03 11:33:40.
