data_PCOD9065903
_publ_section_title
;
Structure prediction by ZEFSAII (Michael W. Deem and Ramdas Pophale) SiO2 
 PCOD9065903
Probable space group: P -1
;
_chemical_formula_sum "Si O2"
_cell_formula_units_Z 12
_cell_length_a 8.933940
_cell_length_b 12.256088
_cell_length_c 9.003823
_cell_angle_alpha 37.832497
_cell_angle_beta 113.117541
_cell_angle_gamma 129.145608
_cell_volume 457.177334
_symmetry_space_group_name_H-M "P -1"
_symmetry_group_IT_number 2
_symmetry_cell_setting 'triclinic'
loop_
_space_group_symop_operation_xyz
x,y,z
-x,-y,-z
loop_
_atom_site_type_symbol
_atom_site_label
_atom_site_fract_x
_atom_site_fract_y
_atom_site_fract_z
Si Si1 0.264901 0.322853 0.602715
Si Si2 0.429201 0.647405 0.864302
Si Si3 0.006387 0.708870 0.234161
Si Si4 0.930463 0.645708 0.759921
Si Si5 0.395295 0.941858 0.310951
Si Si6 0.805677 0.060253 0.223412
O O1 0.500000 0.500000 0.500000
O O2 0.117888 0.372467 0.411358
O O3 0.170041 0.281505 0.774827
O O4 0.233494 0.141840 0.668478
O O5 0.355098 0.730929 0.610846
O O6 0.571359 0.877127 0.755495
O O7 0.500000 0.500000 0.000000
O O8 0.279935 0.484839 0.105034
O O9 0.220328 0.894082 0.187122
O O10 0.000000 0.500000 0.500000
O O11 0.033564 0.746467 0.028296
O O12 0.090902 0.881487 0.636994
O O13 0.000000 0.500000 0.000000
O O14 0.598427 0.032319 0.201081
#
# Coordination Sequence:
#
# PCOD9065903 Si02
#       6
#     2   2   2   2   2   2
#     4  12  29  49  77 115 153 199 258 318 385 458
#     4  11  25  43  75 111 153 196 260 315 389 450
#     4  12  27  48  75 106 156 202 253 316 393 453
#     4  12  25  48  77 109 151 200 252 314 383 457
#     4  11  25  46  74 113 155 200 257 320 385 460
#     4  12  26  47  76 110 154 198 254 316 383 456
#
# _framework density 26.24802
#
# number of rings (size 3 to 8) (size 9 to 14) (size 15 to 20)
#    0.000    0.333    1.667    6.500    7.000    1.333 
#    0.000    0.000    0.000    0.000    0.000    0.000 
#    0.000    0.000    0.000    0.000    0.000    0.000 
#
# Total GULP energy -67102.098635 kJ/mol
# GULP energy per Si atom -5591.841553 kJ/mol
# Density = 2.618828 g / cm^3
# Si number density = 26.248020 Si / 1000 Ang^3
#
#
#
# Elastic Constant Matrix: (Units=GPa)
#
#
# Indices 1 2 3 4 5 6 
#
# 1 132.2514 42.2491 42.5210 -11.0538 -3.8081 -27.1258
# 2 42.2491 128.5079 23.4301 -4.4323 5.2321 -0.9372
# 3 42.5210 23.4301 79.8552 -5.9031 -1.3645 -14.4131
# 4 -11.0538 -4.4323 -5.9031 46.2776 -10.0665 6.3506
# 5 -3.8081 5.2321 -1.3645 -10.0665 59.3819 -6.9890
# 6 -27.1258 -0.9372 -14.4131 6.3506 -6.9890 43.6954
#
#
#
# Elastic Compliance Matrix: (Units=1/GPa)
#
#
# Indices 1 2 3 4 5 6 
#
# 1 0.011064 -0.002909 -0.003887 0.001489 0.001787 0.005593
# 2 -0.002909 0.009057 -0.001550 0.000014 -0.001292 -0.002332
# 3 -0.003887 -0.001550 0.015599 0.000689 0.000681 0.002708
# 4 0.001489 0.000014 0.000689 0.023107 0.003840 -0.001592
# 5 0.001787 -0.001292 0.000681 0.003840 0.018165 0.003654
# 6 0.005593 -0.002332 0.002708 -0.001592 0.003654 0.028017
#
#
# Mechanical properties :
#
#
# Convention : Reuss Voigt Hill
#
# Bulk Modulus (GPa) = 52.56085 61.89056 57.22570
# Shear Modulus (GPa) = 39.04897 45.36525 42.20711
#
# Velocity S-wave (km/s) = 3.86125 4.16183 4.01435
# Velocity P-wave (km/s) = 6.32037 6.83555 6.58300
#
# Compressibility (1/GPa) = 0.01902557
#
# Stress axis : x y z
#
# Youngs Moduli (GPa) = 90.38523 110.41438 64.10763
#
# Poissons Ratio (x) = 0.32122 0.24922
# Poissons Ratio (y) = 0.26295 0.09938
# Poissons Ratio (z) = 0.35137 0.17116
#
# Static dielectric constant tensor:
#      x y z
#    x 1.974680 0.029960 0.083400 
#    y 0.029960 2.158830 0.057220 
#    z 0.083400 0.057220 2.299960 
# 
# From -- ./inp_files/156532.got.cif
#   From: 2010.05.17/outbox.cif.g08.bks.cpg/sg2_79_cif.got.tgz:156532.got - 2010.06.03 11:33:40.
