data_PCOD9065348
_publ_section_title
;
Structure prediction by ZEFSAII (Michael W. Deem and Ramdas Pophale) SiO2 
 PCOD9065348
Probable space group: P -1
;
_chemical_formula_sum "Si O2"
_cell_formula_units_Z 14
_cell_length_a 9.341623
_cell_length_b 11.396669
_cell_length_c 7.526002
_cell_angle_alpha 99.486322
_cell_angle_beta 107.542074
_cell_angle_gamma 127.334628
_cell_volume 539.834583
_symmetry_space_group_name_H-M "P -1"
_symmetry_group_IT_number 2
_symmetry_cell_setting 'triclinic'
loop_
_space_group_symop_operation_xyz
x,y,z
-x,-y,-z
loop_
_atom_site_type_symbol
_atom_site_label
_atom_site_fract_x
_atom_site_fract_y
_atom_site_fract_z
Si Si1 0.841727 0.152044 0.130409
Si Si2 0.074694 0.157033 0.669971
Si Si3 0.555062 0.824624 0.704173
Si Si4 0.514974 0.642207 0.968353
Si Si5 0.819236 0.219506 0.532459
Si Si6 0.285073 0.316361 0.429066
Si Si7 0.143995 0.570717 0.900856
O O1 0.792714 0.130888 0.317419
O O2 0.810188 0.271110 0.099115
O O3 0.085680 0.251561 0.226850
O O4 0.693383 0.986178 0.920179
O O5 0.213149 0.297473 0.600237
O O6 0.904854 0.159396 0.673821
O O7 0.235443 0.201364 0.888898
O O8 0.000000 0.000000 0.500000
O O9 0.451334 0.671700 0.766657
O O10 0.388378 0.815631 0.536737
O O11 0.680924 0.805142 0.619602
O O12 0.361691 0.626914 0.039857
O O13 0.500000 0.500000 0.000000
O O14 0.007750 0.419425 0.670324
O O15 0.500000 0.500000 0.500000
O O16 0.000000 0.500000 0.000000
#
# Coordination Sequence:
#
# PCOD9065348 Si02
#       7
#     2   2   2   2   2   2   2
#     4  11  25  46  72 101 142 188 237 291 352 428
#     4  11  26  46  72 101 147 188 233 294 366 419
#     4  12  26  45  76 106 141 186 243 293 353 425
#     4  12  25  45  71 102 142 186 236 294 360 422
#     4  11  24  48  70 102 139 192 237 289 354 434
#     4  11  25  44  74 105 142 188 242 288 350 429
#     4  12  28  43  69 105 144 182 241 297 357 418
#
# _framework density 25.933869999999999
#
# number of rings (size 3 to 8) (size 9 to 14) (size 15 to 20)
#    0.000    0.571    2.857    4.714   10.000    1.143 
#    0.000    1.429    0.000    0.000    0.000    0.000 
#    0.000    0.000    0.000    0.000    0.000    0.000 
#
# Total GULP energy -78290.238610 kJ/mol
# GULP energy per Si atom -5592.159901 kJ/mol
# Density = 2.587484 g / cm^3
# Si number density = 25.933870 Si / 1000 Ang^3
#
#
#
# Elastic Constant Matrix: (Units=GPa)
#
#
# Indices 1 2 3 4 5 6 
#
# 1 227.3691 29.9082 55.8683 1.2696 36.5543 -49.9771
# 2 29.9082 87.5395 15.9507 10.4510 6.1463 -27.0422
# 3 55.8683 15.9507 98.5552 25.5729 13.8672 -22.2624
# 4 1.2696 10.4510 25.5729 41.7783 -5.5740 -10.9372
# 5 36.5543 6.1463 13.8672 -5.5740 55.3215 -12.7204
# 6 -49.9771 -27.0422 -22.2624 -10.9372 -12.7204 52.6817
#
#
#
# Elastic Compliance Matrix: (Units=1/GPa)
#
#
# Indices 1 2 3 4 5 6 
#
# 1 0.006570 -0.000385 -0.002964 0.002680 -0.002179 0.004813
# 2 -0.000385 0.013718 -0.000156 -0.001677 0.000043 0.006273
# 3 -0.002964 -0.000156 0.014719 -0.008972 -0.002415 0.000882
# 4 0.002680 -0.001677 -0.008972 0.031977 0.005217 0.005789
# 5 -0.002179 0.000043 -0.002415 0.005217 0.021373 0.003178
# 6 0.004813 0.006273 0.000882 0.005789 0.003178 0.029110
#
#
# Mechanical properties :
#
#
# Convention : Reuss Voigt Hill
#
# Bulk Modulus (GPa) = 35.71655 68.54646 52.13150
# Shear Modulus (GPa) = 37.36624 50.73874 44.05249
#
# Velocity S-wave (km/s) = 3.79994 4.42799 4.12594
# Velocity P-wave (km/s) = 5.74933 7.25476 6.54547
#
# Compressibility (1/GPa) = 0.02799823
#
# Stress axis : x y z
#
# Youngs Moduli (GPa) = 152.19825 72.89520 67.93893
#
# Poissons Ratio (x) = 0.02805 0.20136
# Poissons Ratio (y) = 0.05857 0.01060
# Poissons Ratio (z) = 0.45110 0.01138
#
# Static dielectric constant tensor:
#      x y z
#    x 2.078600 0.051600 0.040160 
#    y 0.051600 2.044680 0.055510 
#    z 0.040160 0.055510 2.196850 
# 
# From -- ./inp_files/158012.got.cif
#   From: 2010.05.17/outbox.cif.g08.bks.cpg/sg2_80_cif.got.tgz:158012.got - 2010.06.03 11:33:40.
