data_PCOD9065076
_publ_section_title
;
Structure prediction by ZEFSAII (Michael W. Deem and Ramdas Pophale) SiO2 
 PCOD9065076
Probable space group: P -1
;
_chemical_formula_sum "Si O2"
_cell_formula_units_Z 15
_cell_length_a 22.484479
_cell_length_b 12.734407
_cell_length_c 9.477639
_cell_angle_alpha 121.372142
_cell_angle_beta 139.095438
_cell_angle_gamma 27.522888
_cell_volume 713.640271
_symmetry_space_group_name_H-M "P -1"
_symmetry_group_IT_number 2
_symmetry_cell_setting 'triclinic'
loop_
_space_group_symop_operation_xyz
x,y,z
-x,-y,-z
loop_
_atom_site_type_symbol
_atom_site_label
_atom_site_fract_x
_atom_site_fract_y
_atom_site_fract_z
Si Si1 0.000000 0.000000 0.500000
Si Si2 0.572458 0.101488 0.632481
Si Si3 0.818581 0.875914 0.648268
Si Si4 0.357725 0.527443 0.007715
Si Si5 0.759805 0.694851 0.889791
Si Si6 0.785437 0.202984 0.762894
Si Si7 0.607451 0.986294 0.112145
Si Si8 0.378499 0.570343 0.677407
O O1 0.812254 0.201797 0.411297
O O2 0.848737 0.228637 0.266956
O O3 0.381854 0.247943 0.365168
O O4 0.512934 0.290992 0.749519
O O5 0.661657 0.036338 0.599282
O O6 0.728385 0.831335 0.804769
O O7 0.799475 0.038619 0.676944
O O8 0.772669 0.840887 0.410952
O O9 0.025391 0.607227 0.904135
O O10 0.323027 0.622408 0.168962
O O11 0.457670 0.276340 0.023447
O O12 0.496242 0.455178 0.119420
O O13 0.686840 0.845850 0.007408
O O14 0.684302 0.368751 0.555935
O O15 0.000000 0.000000 0.000000
O O16 0.500000 0.000000 0.000000
#
# Coordination Sequence:
#
# PCOD9065076 Si02
#       8
#     1   2   2   2   2   2   2   2
#     4  12  28  44  70 106 144 188 222 294 360 430
#     4  11  24  47  71 103 143 186 238 289 349 421
#     4  12  24  48  75 103 138 188 237 294 351 416
#     4  12  26  49  71 104 145 185 237 294 358 419
#     4  11  26  44  70 105 143 189 233 285 349 427
#     4  12  24  45  78 108 134 183 242 298 347 417
#     4  12  26  47  70 103 146 186 232 293 352 416
#     4  12  24  47  73 104 144 183 240 293 356 415
#
# _framework density 21.018992999999998
#
# number of rings (size 3 to 8) (size 9 to 14) (size 15 to 20)
#    0.000    0.267    5.333    4.000    1.867    0.000 
#    4.800    0.000    0.000    0.000    0.000    0.000 
#    0.000    0.000    0.000    0.000    0.000    0.000 
#
# Total GULP energy -83717.646174 kJ/mol
# GULP energy per Si atom -5581.176412 kJ/mol
# Density = 2.097115 g / cm^3
# Si number density = 21.018993 Si / 1000 Ang^3
#
#
#
# Elastic Constant Matrix: (Units=GPa)
#
#
# Indices 1 2 3 4 5 6 
#
# 1 100.0419 32.9037 8.9414 18.0275 2.1406 -2.6191
# 2 32.9037 96.1728 25.4825 1.8838 10.2360 13.1259
# 3 8.9414 25.4825 71.6169 -11.3653 -15.6248 16.0392
# 4 18.0275 1.8838 -11.3653 35.0049 10.6871 -1.0145
# 5 2.1406 10.2360 -15.6248 10.6871 27.7589 2.4248
# 6 -2.6191 13.1259 16.0392 -1.0145 2.4248 33.4230
#
#
#
# Elastic Compliance Matrix: (Units=1/GPa)
#
#
# Indices 1 2 3 4 5 6 
#
# 1 0.013039 -0.004674 -0.001272 -0.007601 0.002663 0.003044
# 2 -0.004674 0.014765 -0.005620 0.002440 -0.008948 -0.002745
# 3 -0.001272 -0.005620 0.021780 0.003523 0.013881 -0.009244
# 4 -0.007601 0.002440 0.003523 0.037303 -0.012587 -0.001199
# 5 0.002663 -0.008948 0.013881 -0.012587 0.052400 -0.007122
# 6 0.003044 -0.002745 -0.009244 -0.001199 -0.007122 0.036152
#
#
# Mechanical properties :
#
#
# Convention : Reuss Voigt Hill
#
# Bulk Modulus (GPa) = 37.80501 44.72076 41.26289
# Shear Modulus (GPa) = 24.10918 32.60427 28.35673
#
# Velocity S-wave (km/s) = 3.39044 3.94278 3.67699
# Velocity P-wave (km/s) = 5.77511 6.48459 6.14011
#
# Compressibility (1/GPa) = 0.02645152
#
# Stress axis : x y z
#
# Youngs Moduli (GPa) = 76.69149 67.72571 45.91433
#
# Poissons Ratio (x) = 0.31655 0.05840
# Poissons Ratio (y) = 0.35846 0.25806
# Poissons Ratio (z) = 0.09754 0.38065
#
# Static dielectric constant tensor:
#      x y z
#    x 1.764970 0.024630 -0.018540 
#    y 0.024630 1.732180 0.014430 
#    z -0.018540 0.014430 1.768640 
# 
# From -- ./inp_files/282331.got.cif
#   From: 2010.05.17/outbox.cif.g08.bks.cpg/sg2_142_cif.got.tgz:282331.got - 2010.06.03 11:33:40.
