data_PCOD9065565
_publ_section_title
;
Structure prediction by ZEFSAII (Michael W. Deem and Ramdas Pophale) SiO2 
 PCOD9065565
Probable space group: P -1
;
_chemical_formula_sum "Si O2"
_cell_formula_units_Z 14
_cell_length_a 12.041459
_cell_length_b 5.679442
_cell_length_c 11.381051
_cell_angle_alpha 104.449856
_cell_angle_beta 57.256642
_cell_angle_gamma 74.615638
_cell_volume 552.121734
_symmetry_space_group_name_H-M "P -1"
_symmetry_group_IT_number 2
_symmetry_cell_setting 'triclinic'
loop_
_space_group_symop_operation_xyz
x,y,z
-x,-y,-z
loop_
_atom_site_type_symbol
_atom_site_label
_atom_site_fract_x
_atom_site_fract_y
_atom_site_fract_z
Si Si1 0.088661 0.177838 0.463668
Si Si2 0.724718 0.919481 0.878198
Si Si3 0.349919 0.543419 0.449744
Si Si4 0.587362 0.576275 0.862030
Si Si5 0.168462 0.380023 0.672712
Si Si6 0.905910 0.863817 0.985002
Si Si7 0.379739 0.950759 0.660885
O O1 0.229861 0.037668 0.273435
O O2 0.140887 0.198371 0.568716
O O3 0.000000 0.500000 0.500000
O O4 0.000000 0.000000 0.500000
O O5 0.720320 0.628641 0.842768
O O6 0.840717 0.945851 0.901117
O O7 0.558749 0.126072 0.049405
O O8 0.356649 0.580231 0.312605
O O9 0.194102 0.590722 0.601210
O O10 0.392743 0.737480 0.524788
O O11 0.469751 0.216748 0.369282
O O12 0.500000 0.500000 0.000000
O O13 0.023429 0.536758 0.858535
O O14 0.314103 0.234135 0.657962
O O15 0.759860 0.968587 0.162359
O O16 0.000000 0.000000 0.000000
#
# Coordination Sequence:
#
# PCOD9065565 Si02
#       7
#     2   2   2   2   2   2   2
#     4  12  29  48  79 115 156 204 259 331 403 481
#     4  11  26  48  71 111 153 199 265 328 403 473
#     4  11  24  49  72 106 148 197 264 325 391 471
#     4  11  26  47  78 106 147 206 264 338 398 475
#     4  12  26  45  79 106 152 203 262 318 405 470
#     4  12  25  49  72 108 158 199 259 323 403 476
#     4  11  26  46  72 105 148 203 254 322 388 481
#
# _framework density 25.356725999999998
#
# number of rings (size 3 to 8) (size 9 to 14) (size 15 to 20)
#    0.000    0.571    5.714    0.857    8.000    0.000 
#    7.714    0.000    0.000    0.000    0.000    0.000 
#    0.000    0.000    0.000    0.000    0.000    0.000 
#
# Total GULP energy -78165.614367 kJ/mol
# GULP energy per Si atom -5583.258169 kJ/mol
# Density = 2.529901 g / cm^3
# Si number density = 25.356726 Si / 1000 Ang^3
#
#
#
# Elastic Constant Matrix: (Units=GPa)
#
#
# Indices 1 2 3 4 5 6 
#
# 1 118.8329 21.6199 36.3350 -12.0023 20.5574 9.6223
# 2 21.6199 62.4138 34.8056 -25.0526 6.8715 -1.7468
# 3 36.3350 34.8056 188.3796 -23.6203 14.9594 3.8232
# 4 -12.0023 -25.0526 -23.6203 48.1591 -2.5711 -9.1538
# 5 20.5574 6.8715 14.9594 -2.5711 50.0924 -2.6018
# 6 9.6223 -1.7468 3.8232 -9.1538 -2.6018 44.3466
#
#
#
# Elastic Compliance Matrix: (Units=1/GPa)
#
#
# Indices 1 2 3 4 5 6 
#
# 1 0.010029 -0.002519 -0.001140 -0.000014 -0.003555 -0.002389
# 2 -0.002519 0.022700 -0.002395 0.010699 -0.000617 0.003820
# 3 -0.001140 -0.002395 0.006235 0.001447 -0.000999 -0.000144
# 4 -0.000014 0.010699 0.001447 0.028191 -0.000130 0.006111
# 5 -0.003555 -0.000617 -0.000999 -0.000130 0.021907 0.002092
# 6 -0.002389 0.003820 -0.000144 0.006111 0.002092 0.024615
#
#
# Mechanical properties :
#
#
# Convention : Reuss Voigt Hill
#
# Bulk Modulus (GPa) = 37.23793 61.68304 49.46048
# Shear Modulus (GPa) = 37.10942 46.97733 42.04338
#
# Velocity S-wave (km/s) = 3.82971 4.30892 4.07637
# Velocity P-wave (km/s) = 5.85432 7.00961 6.45785
#
# Compressibility (1/GPa) = 0.02685434
#
# Stress axis : x y z
#
# Youngs Moduli (GPa) = 99.71068 44.05307 160.39763
#
# Poissons Ratio (x) = 0.11099 0.18284
# Poissons Ratio (y) = 0.25122 0.38418
# Poissons Ratio (z) = 0.11366 0.10551
#
# Static dielectric constant tensor:
#      x y z
#    x 2.024580 -0.045790 -0.012100 
#    y -0.045790 2.237980 0.159210 
#    z -0.012100 0.159210 2.013020 
# 
# From -- ./inp_files/410995.got.cif
#   From: 2010.05.17/outbox.cif.g08.bks.cpg/sg2_206_cif.got.tgz:410995.got - 2010.06.03 11:33:40.
