data_PCOD9065229
_publ_section_title
;
Structure prediction by ZEFSAII (Michael W. Deem and Ramdas Pophale) SiO2 
 PCOD9065229
Probable space group: P -1
;
_chemical_formula_sum "Si O2"
_cell_formula_units_Z 15
_cell_length_a 10.206790
_cell_length_b 12.907391
_cell_length_c 16.470778
_cell_angle_alpha 156.006443
_cell_angle_beta 43.788236
_cell_angle_gamma 134.336517
_cell_volume 604.588987
_symmetry_space_group_name_H-M "P -1"
_symmetry_group_IT_number 2
_symmetry_cell_setting 'triclinic'
loop_
_space_group_symop_operation_xyz
x,y,z
-x,-y,-z
loop_
_atom_site_type_symbol
_atom_site_label
_atom_site_fract_x
_atom_site_fract_y
_atom_site_fract_z
Si Si1 0.467196 0.234174 0.425061
Si Si2 0.000000 0.500000 0.000000
Si Si3 0.489744 0.435942 0.798076
Si Si4 0.802886 0.252845 0.762352
Si Si5 0.613015 0.195098 0.154570
Si Si6 0.744240 0.052586 0.481049
Si Si7 0.780479 0.507232 0.578030
Si Si8 0.908456 0.014941 0.806155
O O1 0.533286 0.154105 0.250267
O O2 0.406569 0.515746 0.652537
O O3 0.651399 0.256730 0.418690
O O4 0.284578 0.037319 0.388114
O O5 0.037420 0.606896 0.151085
O O6 0.108373 0.789589 0.120972
O O7 0.580952 0.224502 0.657471
O O8 0.650476 0.565854 0.756517
O O9 0.325654 0.252334 0.687985
O O10 0.379849 0.603251 0.027182
O O11 0.858048 0.220324 0.620789
O O12 0.830787 0.142272 0.011074
O O13 0.500000 0.000000 0.000000
O O14 0.872091 0.027662 0.327283
O O15 0.000000 0.500000 0.500000
O O16 0.799863 0.723272 0.652534
#
# Coordination Sequence:
#
# PCOD9065229 Si02
#       8
#     2   1   2   2   2   2   2   2
#     4  11  26  46  80 111 146 209 255 306 391 459
#     4  12  30  46  72 112 160 196 252 314 382 444
#     4  11  24  51  76 108 154 206 249 320 383 449
#     4  12  26  48  75 112 152 206 256 309 382 467
#     4  11  24  47  75 108 153 197 253 314 380 452
#     4  11  25  48  78 108 155 201 259 311 385 457
#     4  12  25  49  79 111 153 194 257 319 379 449
#     4  12  26  48  74 113 152 197 251 324 372 452
#
# _framework density 24.810244000000001
#
# number of rings (size 3 to 8) (size 9 to 14) (size 15 to 20)
#    0.000    0.533    5.333    2.000    5.600    1.600 
#    2.400    1.333    0.000    0.000    0.000    0.000 
#    0.000    0.000    0.000    0.000    0.000    0.000 
#
# Total GULP energy -83511.753208 kJ/mol
# GULP energy per Si atom -5567.450214 kJ/mol
# Density = 2.475377 g / cm^3
# Si number density = 24.810244 Si / 1000 Ang^3
#
#
#
# Elastic Constant Matrix: (Units=GPa)
#
#
# Indices 1 2 3 4 5 6 
#
# 1 65.3517 -0.6215 29.7150 -1.0339 28.6327 13.9012
# 2 -0.6215 103.7861 22.1534 4.7219 -1.0715 6.1618
# 3 29.7150 22.1534 134.5320 -19.1729 11.2777 7.3429
# 4 -1.0339 4.7219 -19.1729 49.4126 11.0756 -4.9774
# 5 28.6327 -1.0715 11.2777 11.0756 40.3027 0.9391
# 6 13.9012 6.1618 7.3429 -4.9774 0.9391 34.8639
#
#
#
# Elastic Compliance Matrix: (Units=1/GPa)
#
#
# Indices 1 2 3 4 5 6 
#
# 1 0.027284 0.001253 -0.003840 0.002188 -0.018657 -0.009477
# 2 0.001253 0.010356 -0.002232 -0.002199 0.000665 -0.002192
# 3 -0.003840 -0.002232 0.009279 0.004026 -0.001048 0.000574
# 4 0.002188 -0.002199 0.004026 0.024430 -0.009510 0.002412
# 5 -0.018657 0.000665 -0.001048 -0.009510 0.040872 0.005083
# 6 -0.009477 -0.002192 0.000574 0.002412 0.005083 0.032936
#
#
# Mechanical properties :
#
#
# Convention : Reuss Voigt Hill
#
# Bulk Modulus (GPa) = 26.82160 45.12931 35.97545
# Shear Modulus (GPa) = 29.90045 41.74403 35.82224
#
# Velocity S-wave (km/s) = 3.47532 4.10632 3.80392
# Velocity P-wave (km/s) = 5.19018 6.38057 5.81591
#
# Compressibility (1/GPa) = 0.03728338
#
# Stress axis : x y z
#
# Youngs Moduli (GPa) = 36.65127 96.56128 107.76982
#
# Poissons Ratio (x) = -0.12104 0.41381
# Poissons Ratio (y) = -0.04594 0.24051
# Poissons Ratio (z) = 0.14073 0.21550
#
# Static dielectric constant tensor:
#      x y z
#    x 2.143970 0.093320 -0.104060 
#    y 0.093320 2.091630 -0.019850 
#    z -0.104060 -0.019850 1.968020 
# 
# From -- ./inp_files/569848.got.cif
#   From: 2010.05.17/outbox.cif.g08.bks.cpg/sg2_285_cif.got.tgz:569848.got - 2010.06.03 11:33:40.
