data_PCOD9065272
_publ_section_title
;
Structure prediction by ZEFSAII (Michael W. Deem and Ramdas Pophale) SiO2 
 PCOD9065272
Probable space group: P -1
;
_chemical_formula_sum "Si O2"
_cell_formula_units_Z 16
_cell_length_a 6.664043
_cell_length_b 11.425290
_cell_length_c 14.223416
_cell_angle_alpha 47.213386
_cell_angle_beta 76.854604
_cell_angle_gamma 59.640658
_cell_volume 674.198645
_symmetry_space_group_name_H-M "P -1"
_symmetry_group_IT_number 2
_symmetry_cell_setting 'triclinic'
loop_
_space_group_symop_operation_xyz
x,y,z
-x,-y,-z
loop_
_atom_site_type_symbol
_atom_site_label
_atom_site_fract_x
_atom_site_fract_y
_atom_site_fract_z
Si Si1 0.770440 0.185182 0.890302
Si Si2 0.953024 0.443877 0.775415
Si Si3 0.519286 0.802974 0.609958
Si Si4 0.457722 0.703711 0.881878
Si Si5 0.295622 0.248608 0.999570
Si Si6 0.925086 0.003521 0.794359
Si Si7 0.691535 0.247357 0.525980
Si Si8 0.785291 0.569633 0.411239
O O1 0.784483 0.354362 0.841162
O O2 0.531237 0.191397 0.944647
O O3 0.813162 0.183083 0.774805
O O4 0.000000 0.000000 0.000000
O O5 0.791815 0.649995 0.646581
O O6 0.081806 0.414976 0.876253
O O7 0.152397 0.339768 0.731998
O O8 0.474678 0.753619 0.745777
O O9 0.355509 0.779939 0.561880
O O10 0.500000 0.000000 0.500000
O O11 0.199633 0.860503 0.858264
O O12 0.500000 0.500000 0.000000
O O13 0.650815 0.709770 0.925277
O O14 0.220345 0.094910 0.102721
O O15 0.885918 0.066443 0.656497
O O16 0.746084 0.410886 0.454189
O O17 0.448862 0.298413 0.578941
O O18 0.000000 0.500000 0.500000
#
# Coordination Sequence:
#
# PCOD9065272 Si02
#       8
#     2   2   2   2   2   2   2   2
#     4  12  24  44  74 116 152 182 242 319 382 448
#     4  12  27  45  78 109 150 193 250 307 381 440
#     4  12  29  52  74 109 156 207 259 308 365 454
#     4  12  29  50  73 103 154 198 259 311 358 447
#     4  12  25  46  74 109 145 195 243 308 385 440
#     4  12  26  45  75 109 147 192 245 306 380 448
#     4  11  27  46  75 112 146 195 248 312 380 446
#     4  11  24  47  77 109 149 188 245 316 389 445
#
# _framework density 23.731877999999998
#
# number of rings (size 3 to 8) (size 9 to 14) (size 15 to 20)
#    0.000    0.250    3.750    4.125    8.750    5.500 
#    0.000    0.000    0.000    0.000    0.000    0.000 
#    0.000    0.000    0.000    0.000    0.000    0.000 
#
# Total GULP energy -89636.534176 kJ/mol
# GULP energy per Si atom -5602.283386 kJ/mol
# Density = 2.367786 g / cm^3
# Si number density = 23.731878 Si / 1000 Ang^3
#
#
#
# Elastic Constant Matrix: (Units=GPa)
#
#
# Indices 1 2 3 4 5 6 
#
# 1 91.2818 28.3125 30.9341 8.2896 16.6809 19.2611
# 2 28.3125 89.5920 39.6587 17.1003 11.2383 16.1896
# 3 30.9341 39.6587 138.6944 18.1883 25.9687 23.0584
# 4 8.2896 17.1003 18.1883 55.7925 0.8450 4.2439
# 5 16.6809 11.2383 25.9687 0.8450 49.8335 14.1504
# 6 19.2611 16.1896 23.0584 4.2439 14.1504 33.6551
#
#
#
# Elastic Compliance Matrix: (Units=1/GPa)
#
#
# Indices 1 2 3 4 5 6 
#
# 1 0.013554 -0.002600 -0.001025 -0.000480 -0.002018 -0.004895
# 2 -0.002600 0.014265 -0.002575 -0.002900 -0.000039 -0.003228
# 3 -0.001025 -0.002575 0.009529 -0.001878 -0.003113 -0.003158
# 4 -0.000480 -0.002900 -0.001878 0.019483 0.001500 -0.000131
# 5 -0.002018 -0.000039 -0.003113 0.001500 0.024373 -0.007130
# 6 -0.004895 -0.003228 -0.003158 -0.000131 -0.007130 0.039245
#
#
# Mechanical properties :
#
#
# Convention : Reuss Voigt Hill
#
# Bulk Modulus (GPa) = 40.08272 57.48653 48.78462
# Shear Modulus (GPa) = 35.41947 42.56707 38.99327
#
# Velocity S-wave (km/s) = 3.86746 4.23976 4.05788
# Velocity P-wave (km/s) = 6.07203 6.94575 6.52353
#
# Compressibility (1/GPa) = 0.02494841
#
# Stress axis : x y z
#
# Youngs Moduli (GPa) = 73.77758 70.10206 104.94177
#
# Poissons Ratio (x) = 0.18229 0.10755
# Poissons Ratio (y) = 0.19185 0.27019
# Poissons Ratio (z) = 0.07561 0.18049
#
# Static dielectric constant tensor:
#      x y z
#    x 1.895240 0.020500 0.013700 
#    y 0.020500 2.008590 0.047040 
#    z 0.013700 0.047040 1.912600 
# 
# From -- ./inp_files/482634.got.cif
#   From: 2010.05.17/outbox.cif.g08.bks.cpg/sg2_242_cif.got.tgz:482634.got - 2010.06.03 11:33:40.
