data_PCOD9065601
_publ_section_title
;
Structure prediction by ZEFSAII (Michael W. Deem and Ramdas Pophale) SiO2 
 PCOD9065601
Probable space group: P -1
;
_chemical_formula_sum "Si O2"
_cell_formula_units_Z 12
_cell_length_a 5.642508
_cell_length_b 5.891794
_cell_length_c 15.252814
_cell_angle_alpha 63.781996
_cell_angle_beta 82.978383
_cell_angle_gamma 90.276262
_cell_volume 450.506082
_symmetry_space_group_name_H-M "P -1"
_symmetry_group_IT_number 2
_symmetry_cell_setting 'triclinic'
loop_
_space_group_symop_operation_xyz
x,y,z
-x,-y,-z
loop_
_atom_site_type_symbol
_atom_site_label
_atom_site_fract_x
_atom_site_fract_y
_atom_site_fract_z
Si Si1 0.304213 0.825870 0.983870
Si Si2 0.811459 0.167618 0.696007
Si Si3 0.196736 0.985101 0.595338
Si Si4 0.499669 0.400179 0.419543
Si Si5 0.574375 0.252663 0.203607
Si Si6 0.060534 0.297309 0.844046
O O1 0.394746 0.713459 0.908648
O O2 0.130703 0.022131 0.916053
O O3 0.152163 0.643556 0.088750
O O4 0.500000 0.000000 0.000000
O O5 0.615333 0.377512 0.665360
O O6 0.960041 0.256722 0.758932
O O7 0.691234 0.881629 0.757964
O O8 0.969769 0.136695 0.607510
O O9 0.250364 0.706965 0.602718
O O10 0.307668 0.940711 0.696933
O O11 0.313430 0.156424 0.481416
O O12 0.500000 0.500000 0.500000
O O13 0.706424 0.513714 0.186677
#
# Coordination Sequence:
#
# PCOD9065601 Si02
#       6
#     2   2   2   2   2   2
#     4  11  24  49  75 114 162 207 264 331 398 471
#     4  12  26  52  84 115 161 214 261 333 399 466
#     4  11  27  49  77 120 156 209 271 318 403 478
#     4  11  26  52  80 115 164 207 267 335 393 481
#     4  12  26  47  77 117 158 205 270 325 394 477
#     4  11  27  47  77 114 160 209 265 329 396 476
#
# _framework density 26.636714000000001
#
# number of rings (size 3 to 8) (size 9 to 14) (size 15 to 20)
#    0.000    0.667    5.000    1.000    4.667    4.000 
#    0.000    0.000    0.000    0.000    0.000    0.000 
#    0.000    0.000    0.000    0.000    0.000    0.000 
#
# Total GULP energy -66882.455762 kJ/mol
# GULP energy per Si atom -5573.537980 kJ/mol
# Density = 2.657609 g / cm^3
# Si number density = 26.636714 Si / 1000 Ang^3
#
#
#
# Elastic Constant Matrix: (Units=GPa)
#
#
# Indices 1 2 3 4 5 6 
#
# 1 65.9936 56.9804 34.2418 14.2019 -8.1061 2.9647
# 2 56.9804 104.8655 54.5428 11.4024 6.4601 1.9514
# 3 34.2418 54.5428 114.1772 19.9846 8.7481 7.4339
# 4 14.2019 11.4024 19.9846 64.7334 9.9628 0.8857
# 5 -8.1061 6.4601 8.7481 9.9628 53.8885 2.3590
# 6 2.9647 1.9514 7.4339 0.8857 2.3590 46.5728
#
#
#
# Elastic Compliance Matrix: (Units=1/GPa)
#
#
# Indices 1 2 3 4 5 6 
#
# 1 0.032644 -0.016975 -0.001336 -0.004994 0.008150 -0.001471
# 2 -0.016975 0.021547 -0.005318 0.002285 -0.004749 0.001224
# 3 -0.001336 -0.005318 0.012298 -0.002384 -0.001051 -0.001557
# 4 -0.004994 0.002285 -0.002384 0.017469 -0.003888 0.000467
# 5 0.008150 -0.004749 -0.001051 -0.003888 0.021292 -0.001157
# 6 -0.001471 0.001224 -0.001557 0.000467 -0.001157 0.021812
#
#
# Mechanical properties :
#
#
# Convention : Reuss Voigt Hill
#
# Bulk Modulus (GPa) = 51.99478 64.06293 58.02886
# Shear Modulus (GPa) = 27.66543 42.32371 34.99457
#
# Velocity S-wave (km/s) = 3.22626 3.99046 3.62853
# Velocity P-wave (km/s) = 5.78279 6.73309 6.27595
#
# Compressibility (1/GPa) = 0.01923270
#
# Stress axis : x y z
#
# Youngs Moduli (GPa) = 30.63328 46.41040 81.31096
#
# Poissons Ratio (x) = 0.78780 0.10861
# Poissons Ratio (y) = 0.51999 0.43241
# Poissons Ratio (z) = 0.04092 0.24681
#
# Static dielectric constant tensor:
#      x y z
#    x 2.045360 -0.229740 0.169810 
#    y -0.229740 2.155720 0.242750 
#    z 0.169810 0.242750 1.775020 
# 
# From -- ./inp_files/477995.got.cif
#   From: 2010.05.17/outbox.cif.g08.bks.cpg/sg2_239_cif.got.tgz:477995.got - 2010.06.03 11:33:40.
