data_PCOD9065857
_publ_section_title
;
Structure prediction by ZEFSAII (Michael W. Deem and Ramdas Pophale) SiO2 
 PCOD9065857
Probable space group: P -1
;
_chemical_formula_sum "Si O2"
_cell_formula_units_Z 16
_cell_length_a 14.924179
_cell_length_b 11.168512
_cell_length_c 5.492083
_cell_angle_alpha 80.632171
_cell_angle_beta 127.671019
_cell_angle_gamma 75.020307
_cell_volume 635.410330
_symmetry_space_group_name_H-M "P -1"
_symmetry_group_IT_number 2
_symmetry_cell_setting 'triclinic'
loop_
_space_group_symop_operation_xyz
x,y,z
-x,-y,-z
loop_
_atom_site_type_symbol
_atom_site_label
_atom_site_fract_x
_atom_site_fract_y
_atom_site_fract_z
Si Si1 0.361771 0.227729 0.755460
Si Si2 0.700709 0.490814 0.342686
Si Si3 0.878211 0.075178 0.528264
Si Si4 0.246416 0.874927 0.179658
Si Si5 0.117937 0.217124 0.475419
Si Si6 0.983579 0.271004 0.736646
Si Si7 0.402744 0.996886 0.530206
Si Si8 0.471130 0.610799 0.616562
O O1 0.312904 0.385321 0.547653
O O2 0.249787 0.224300 0.735503
O O3 0.362327 0.129310 0.577677
O O4 0.508837 0.142592 0.123612
O O5 0.837675 0.383426 0.511742
O O6 0.622068 0.415755 0.343307
O O7 0.607303 0.584506 0.945771
O O8 0.785920 0.137722 0.588414
O O9 0.986434 0.119318 0.775323
O O10 0.877360 0.931583 0.517803
O O11 0.845195 0.134218 0.175878
O O12 0.276260 0.002043 0.204483
O O13 0.382613 0.762964 0.339742
O O14 0.030456 0.286495 0.542479
O O15 0.058971 0.284054 0.091946
O O16 0.500000 0.000000 0.500000
O O17 0.500000 0.500000 0.500000
#
# Coordination Sequence:
#
# PCOD9065857 Si02
#       8
#     2   2   2   2   2   2   2   2
#     4  11  26  46  70 102 143 190 239 291 360 424
#     4  11  26  46  70 102 143 190 239 291 360 424
#     4  12  24  47  74 110 142 185 237 302 358 422
#     4  12  24  43  78 110 144 180 233 299 362 432
#     4  12  27  48  73 103 145 192 246 295 350 418
#     4  12  27  48  73 103 145 192 246 295 350 418
#     4  11  25  43  71 108 143 186 230 297 360 438
#     4  11  25  43  71 108 143 186 230 297 360 438
#
# _framework density 25.180579000000002
#
# number of rings (size 3 to 8) (size 9 to 14) (size 15 to 20)
#    0.000    0.500    3.750    3.750    8.750    1.000 
#    0.000    0.000    0.000    0.000    0.000    0.000 
#    0.000    0.000    0.000    0.000    0.000    0.000 
#
# Total GULP energy -89258.653665 kJ/mol
# GULP energy per Si atom -5578.665854 kJ/mol
# Density = 2.512327 g / cm^3
# Si number density = 25.180579 Si / 1000 Ang^3
#
#
#
# Elastic Constant Matrix: (Units=GPa)
#
#
# Indices 1 2 3 4 5 6 
#
# 1 111.1265 8.4897 24.2993 4.5975 9.4641 -28.7760
# 2 8.4897 93.8762 23.9072 -7.7084 2.7203 -21.2056
# 3 24.2993 23.9072 95.1032 22.5764 15.6417 -15.9324
# 4 4.5975 -7.7084 22.5764 29.9489 -5.0280 5.0063
# 5 9.4641 2.7203 15.6417 -5.0280 39.7836 10.1435
# 6 -28.7760 -21.2056 -15.9324 5.0063 10.1435 48.5199
#
#
#
# Elastic Compliance Matrix: (Units=1/GPa)
#
#
# Indices 1 2 3 4 5 6 
#
# 1 0.011943 0.000721 0.000339 -0.004439 -0.005932 0.009208
# 2 0.000721 0.013046 -0.004188 0.005762 0.000265 0.004104
# 3 0.000339 -0.004188 0.019836 -0.019782 -0.012527 0.009544
# 4 -0.004439 0.005762 -0.019782 0.056567 0.019818 -0.016589
# 5 -0.005932 0.000265 -0.012527 0.019818 0.038446 -0.017598
# 6 0.009208 0.004104 0.009544 -0.016589 -0.017598 0.036390
#
#
# Mechanical properties :
#
#
# Convention : Reuss Voigt Hill
#
# Bulk Modulus (GPa) = 25.92689 45.94427 35.93558
# Shear Modulus (GPa) = 25.59651 39.87780 32.73715
#
# Velocity S-wave (km/s) = 3.19175 3.98386 3.60960
# Velocity P-wave (km/s) = 4.88894 6.28068 5.62800
#
# Compressibility (1/GPa) = 0.03857000
#
# Stress axis : x y z
#
# Youngs Moduli (GPa) = 83.73360 76.65061 50.41321
#
# Poissons Ratio (x) = -0.05526 -0.01710
# Poissons Ratio (y) = -0.06036 0.21111
# Poissons Ratio (z) = -0.02841 0.32098
#
# Static dielectric constant tensor:
#      x y z
#    x 1.920980 -0.053620 -0.181020 
#    y -0.053620 1.866170 -0.348630 
#    z -0.181020 -0.348630 1.934630 
# 
# From -- ./inp_files/95091.got.cif
#   From: 2010.05.17/outbox.cif.g08.bks.cpg/sg2_48_cif.got.tgz:95091.got - 2010.06.03 11:33:40.
