data_PCOD9065036
_publ_section_title
;
Structure prediction by ZEFSAII (Michael W. Deem and Ramdas Pophale) SiO2 
 PCOD9065036
Probable space group: P -1
;
_chemical_formula_sum "Si O2"
_cell_formula_units_Z 15
_cell_length_a 11.474655
_cell_length_b 5.942437
_cell_length_c 8.385622
_cell_angle_alpha 95.432131
_cell_angle_beta 84.988051
_cell_angle_gamma 96.538874
_cell_volume 563.825138
_symmetry_space_group_name_H-M "P -1"
_symmetry_group_IT_number 2
_symmetry_cell_setting 'triclinic'
loop_
_space_group_symop_operation_xyz
x,y,z
-x,-y,-z
loop_
_atom_site_type_symbol
_atom_site_label
_atom_site_fract_x
_atom_site_fract_y
_atom_site_fract_z
Si Si1 0.569585 0.074481 0.335733
Si Si2 0.180381 0.573959 0.962546
Si Si3 0.157661 0.872416 0.275322
Si Si4 0.345881 0.272455 0.279063
Si Si5 0.223112 0.612562 0.525101
Si Si6 0.609586 0.657596 0.072844
Si Si7 0.000000 0.500000 0.500000
Si Si8 0.981904 0.777951 0.839566
O O1 0.482038 0.242953 0.284370
O O2 0.695300 0.200526 0.377630
O O3 0.500000 0.000000 0.500000
O O4 0.577644 0.861024 0.202441
O O5 0.296196 0.488956 0.867574
O O6 0.113315 0.746369 0.876654
O O7 0.213677 0.710657 0.131610
O O8 0.094672 0.356621 0.020723
O O9 0.122793 0.732770 0.434295
O O10 0.260041 0.058167 0.335276
O O11 0.058348 0.981377 0.193674
O O12 0.309778 0.490203 0.391589
O O13 0.324441 0.255419 0.091498
O O14 0.122364 0.433199 0.593607
O O15 0.500000 0.500000 0.000000
O O16 0.957699 0.645939 0.669687
#
# Coordination Sequence:
#
# PCOD9065036 Si02
#       8
#     2   2   2   2   2   2   1   2
#     4  12  27  46  77 112 146 193 246 305 378 438
#     4  11  24  47  69 105 143 187 249 303 360 435
#     4  12  20  46  76 100 139 196 243 298 370 426
#     4  12  24  49  75 102 145 196 248 299 372 435
#     4  12  26  47  74 108 155 194 244 310 366 446
#     4  12  25  47  76 110 147 189 244 310 364 444
#     4  12  24  48  66 108 148 200 234 300 378 434
#     4  11  25  43  72 101 147 190 245 302 362 438
#
# _framework density 26.603994
#
# number of rings (size 3 to 8) (size 9 to 14) (size 15 to 20)
#    0.000    0.267    6.667    2.800    0.000    4.800 
#    4.800    0.000    0.000    0.000    0.000    0.000 
#    0.000    0.000    0.000    0.000    0.000    0.000 
#
# Total GULP energy -83761.326184 kJ/mol
# GULP energy per Si atom -5584.088412 kJ/mol
# Density = 2.654344 g / cm^3
# Si number density = 26.603994 Si / 1000 Ang^3
#
#
#
# Elastic Constant Matrix: (Units=GPa)
#
#
# Indices 1 2 3 4 5 6 
#
# 1 213.6869 69.9447 41.9266 21.9898 15.7503 -10.4475
# 2 69.9447 102.8676 63.0140 13.5722 2.9461 -0.4456
# 3 41.9266 63.0140 113.5646 28.3243 -6.7234 4.5209
# 4 21.9898 13.5722 28.3243 69.4153 0.6091 5.8417
# 5 15.7503 2.9461 -6.7234 0.6091 53.3804 1.5799
# 6 -10.4475 -0.4456 4.5209 5.8417 1.5799 55.1982
#
#
#
# Elastic Compliance Matrix: (Units=1/GPa)
#
#
# Indices 1 2 3 4 5 6 
#
# 1 0.006343 -0.004183 0.000167 -0.001358 -0.001644 0.001344
# 2 -0.004183 0.017729 -0.008695 0.001419 -0.000854 -0.000062
# 3 0.000167 -0.008695 0.014829 -0.004352 0.002373 -0.000860
# 4 -0.001358 0.001419 -0.004352 0.016474 -0.000366 -0.001622
# 5 -0.001644 -0.000854 0.002373 -0.000366 0.019599 -0.001035
# 6 0.001344 -0.000062 -0.000860 -0.001622 -0.001035 0.018642
#
#
# Mechanical properties :
#
#
# Convention : Reuss Voigt Hill
#
# Bulk Modulus (GPa) = 74.19088 86.65439 80.42263
# Shear Modulus (GPa) = 40.47589 52.61437 46.54513
#
# Velocity S-wave (km/s) = 3.90477 4.45194 4.18731
# Velocity P-wave (km/s) = 6.94819 7.68564 7.32620
#
# Compressibility (1/GPa) = 0.01347875
#
# Stress axis : x y z
#
# Youngs Moduli (GPa) = 157.65877 56.40534 67.43755
#
# Poissons Ratio (x) = 0.23596 -0.01129
# Poissons Ratio (y) = 0.65953 0.58636
# Poissons Ratio (z) = -0.02641 0.49044
#
# Static dielectric constant tensor:
#      x y z
#    x 2.205480 0.023820 0.029030 
#    y 0.023820 2.322520 -0.206190 
#    z 0.029030 -0.206190 2.312930 
# 
# From -- ./inp_files/229597.got.cif
#   From: 2010.05.17/outbox.cif.g08.bks.cpg/sg2_115_cif.got.tgz:229597.got - 2010.06.03 11:33:40.
