data_PCOD9065810
_publ_section_title
;
Structure prediction by ZEFSAII (Michael W. Deem and Ramdas Pophale) SiO2 
 PCOD9065810
Probable space group: P -1
;
_chemical_formula_sum "Si O2"
_cell_formula_units_Z 14
_cell_length_a 5.985099
_cell_length_b 23.137990
_cell_length_c 5.160515
_cell_angle_alpha 76.734755
_cell_angle_beta 86.564059
_cell_angle_gamma 53.545002
_cell_volume 556.797451
_symmetry_space_group_name_H-M "P -1"
_symmetry_group_IT_number 2
_symmetry_cell_setting 'triclinic'
loop_
_space_group_symop_operation_xyz
x,y,z
-x,-y,-z
loop_
_atom_site_type_symbol
_atom_site_label
_atom_site_fract_x
_atom_site_fract_y
_atom_site_fract_z
Si Si1 0.256014 0.452781 0.724985
Si Si2 0.483692 0.072904 0.947917
Si Si3 0.020299 0.597549 0.817659
Si Si4 0.363209 0.880625 0.598340
Si Si5 0.865251 0.182810 0.009739
Si Si6 0.663643 0.741006 0.408529
Si Si7 0.822822 0.318410 0.926018
O O1 0.266486 0.517907 0.769909
O O2 0.560809 0.381489 0.706726
O O3 0.000000 0.500000 0.500000
O O4 0.146580 0.420818 0.966677
O O5 0.661487 0.077505 0.705903
O O6 0.155093 0.138994 0.882692
O O7 0.568957 0.085746 0.207335
O O8 0.500000 0.000000 0.000000
O O9 0.788008 0.658587 0.572922
O O10 0.136910 0.637303 0.909024
O O11 0.605132 0.794353 0.597723
O O12 0.127845 0.873662 0.733664
O O13 0.616718 0.215410 0.785996
O O14 0.794462 0.255358 0.088059
O O15 0.905461 0.725972 0.223279
#
# Coordination Sequence:
#
# PCOD9065810 Si02
#       7
#     2   2   2   2   2   2   2
#     4  11  25  46  67 100 148 200 257 327 394 455
#     4  12  29  53  83 118 159 205 257 316 390 465
#     4  11  25  43  68 104 145 197 265 316 392 465
#     4  12  26  53  75 121 156 201 265 311 385 470
#     4  12  26  48  80 110 159 206 253 325 386 455
#     4  12  25  46  73 110 150 198 268 314 379 469
#     4  12  24  45  71 105 147 205 256 323 388 462
#
# _framework density 25.143795999999998
#
# number of rings (size 3 to 8) (size 9 to 14) (size 15 to 20)
#    0.000    0.286    2.857    6.000    2.000    8.000 
#    2.571    0.000    0.000    0.000    0.000    0.000 
#    0.000    0.000    0.000    0.000    0.000    0.000 
#
# Total GULP energy -78408.912067 kJ/mol
# GULP energy per Si atom -5600.636576 kJ/mol
# Density = 2.508657 g / cm^3
# Si number density = 25.143796 Si / 1000 Ang^3
#
#
#
# Elastic Constant Matrix: (Units=GPa)
#
#
# Indices 1 2 3 4 5 6 
#
# 1 60.8740 51.8228 23.6219 11.6602 4.8713 24.2430
# 2 51.8228 157.4291 25.6625 -3.1108 10.8253 43.2668
# 3 23.6219 25.6625 97.2835 2.0884 -11.8479 20.2637
# 4 11.6602 -3.1108 2.0884 40.5665 14.8999 -1.2610
# 5 4.8713 10.8253 -11.8479 14.8999 32.5783 -5.6155
# 6 24.2430 43.2668 20.2637 -1.2610 -5.6155 52.6740
#
#
#
# Elastic Compliance Matrix: (Units=1/GPa)
#
#
# Indices 1 2 3 4 5 6 
#
# 1 0.027822 -0.007146 -0.003500 -0.008478 -0.000183 -0.005811
# 2 -0.007146 0.011005 -0.000784 0.005032 -0.006207 -0.005990
# 3 -0.003500 -0.000784 0.012503 -0.001913 0.005866 -0.001975
# 4 -0.008478 0.005032 -0.001913 0.033642 -0.016565 -0.000456
# 5 -0.000183 -0.006207 0.005866 -0.016565 0.043734 0.007192
# 6 -0.005811 -0.005990 -0.001975 -0.000456 0.007192 0.028095
#
#
# Mechanical properties :
#
#
# Convention : Reuss Voigt Hill
#
# Bulk Modulus (GPa) = 35.12595 57.53346 46.32971
# Shear Modulus (GPa) = 26.43386 39.46237 32.94812
#
# Velocity S-wave (km/s) = 3.24590 3.96595 3.62385
# Velocity P-wave (km/s) = 5.29606 6.62594 5.99797
#
# Compressibility (1/GPa) = 0.02846898
#
# Stress axis : x y z
#
# Youngs Moduli (GPa) = 35.94303 90.87053 79.98154
#
# Poissons Ratio (x) = 0.64933 0.27997
# Poissons Ratio (y) = 0.25684 0.06271
# Poissons Ratio (z) = 0.12582 0.07125
#
# Static dielectric constant tensor:
#      x y z
#    x 2.002680 0.039880 0.022330 
#    y 0.039880 2.043690 -0.015280 
#    z 0.022330 -0.015280 2.040800 
# 
# From -- ./inp_files/10651.got.cif
#   From: 2010.05.17/outbox.cif.g08.bks.cpg/sg2_6_cif.got.tgz:10651.got - 2010.06.03 11:33:40.
