data_PCOD9065232
_publ_section_title
;
Structure prediction by ZEFSAII (Michael W. Deem and Ramdas Pophale) SiO2 
 PCOD9065232
Probable space group: P -1
;
_chemical_formula_sum "Si O2"
_cell_formula_units_Z 16
_cell_length_a 12.103701
_cell_length_b 8.568638
_cell_length_c 9.079386
_cell_angle_alpha 105.745569
_cell_angle_beta 132.839250
_cell_angle_gamma 76.402799
_cell_volume 662.855272
_symmetry_space_group_name_H-M "P -1"
_symmetry_group_IT_number 2
_symmetry_cell_setting 'triclinic'
loop_
_space_group_symop_operation_xyz
x,y,z
-x,-y,-z
loop_
_atom_site_type_symbol
_atom_site_label
_atom_site_fract_x
_atom_site_fract_y
_atom_site_fract_z
Si Si1 0.866403 0.557108 0.279638
Si Si2 0.813961 0.928802 0.811423
Si Si3 0.004609 0.326847 0.880922
Si Si4 0.860537 0.865946 0.494552
Si Si5 0.553127 0.721236 0.520230
Si Si6 0.288653 0.760792 0.058048
Si Si7 0.684630 0.373907 0.495089
Si Si8 0.215303 0.846227 0.715601
O O1 0.926279 0.645735 0.210910
O O2 0.782958 0.702563 0.335031
O O3 0.000000 0.500000 0.500000
O O4 0.783373 0.404190 0.102694
O O5 0.855217 0.895838 0.670886
O O6 0.641112 0.881293 0.651774
O O7 0.821157 0.113711 0.916148
O O8 0.903207 0.810242 0.977860
O O9 0.830771 0.295314 0.691379
O O10 0.000000 0.500000 0.000000
O O11 0.038910 0.848232 0.605591
O O12 0.782562 0.012118 0.365932
O O13 0.433430 0.721483 0.279697
O O14 0.671728 0.566829 0.558428
O O15 0.464232 0.688396 0.581663
O O16 0.310991 0.860269 0.953597
O O17 0.717653 0.317992 0.345147
#
# Coordination Sequence:
#
# PCOD9065232 Si02
#       8
#     2   2   2   2   2   2   2   2
#     4  12  24  45  73 113 152 190 247 313 376 441
#     4  12  28  49  78 115 153 200 254 316 373 452
#     4  12  23  42  78 113 145 195 254 310 378 435
#     4  11  25  47  75 109 158 188 243 324 385 427
#     4  11  27  49  73 107 159 203 249 306 377 456
#     4  12  27  46  77 112 151 204 252 302 382 458
#     4  11  24  47  75 109 150 201 249 313 375 450
#     4  11  25  47  74 109 149 194 249 316 377 446
#
# _framework density 24.137998
#
# number of rings (size 3 to 8) (size 9 to 14) (size 15 to 20)
#    0.000    0.500    3.750    3.375    7.000    1.000 
#    0.000    1.250    0.000    0.000    0.000    0.000 
#    0.000    0.000    0.000    0.000    0.000    0.000 
#
# Total GULP energy -89601.805252 kJ/mol
# GULP energy per Si atom -5600.112828 kJ/mol
# Density = 2.408306 g / cm^3
# Si number density = 24.137998 Si / 1000 Ang^3
#
#
#
# Elastic Constant Matrix: (Units=GPa)
#
#
# Indices 1 2 3 4 5 6 
#
# 1 79.7456 28.1429 41.6810 2.4306 -27.2138 -3.5844
# 2 28.1429 125.5950 61.7643 1.4438 -7.4627 -6.6331
# 3 41.6810 61.7643 137.5733 -5.0411 -24.3322 -4.6032
# 4 2.4306 1.4438 -5.0411 61.4793 2.5757 -5.8921
# 5 -27.2138 -7.4627 -24.3322 2.5757 47.7655 4.4200
# 6 -3.5844 -6.6331 -4.6032 -5.8921 4.4200 35.0177
#
#
#
# Elastic Compliance Matrix: (Units=1/GPa)
#
#
# Indices 1 2 3 4 5 6 
#
# 1 0.017697 -0.001961 -0.003067 -0.001275 0.008304 -0.000226
# 2 -0.001961 0.010549 -0.004432 -0.000323 -0.001839 0.001393
# 3 -0.003067 -0.004432 0.010753 0.000987 0.002980 0.000050
# 4 -0.001275 -0.000323 0.000987 0.016747 -0.001449 0.002939
# 5 0.008304 -0.001839 0.002980 -0.001449 0.027233 -0.002788
# 6 -0.000226 0.001393 0.000050 0.002939 -0.002788 0.029651
#
#
# Mechanical properties :
#
#
# Convention : Reuss Voigt Hill
#
# Bulk Modulus (GPa) = 49.80442 67.34336 58.57389
# Shear Modulus (GPa) = 36.16778 42.94087 39.55433
#
# Velocity S-wave (km/s) = 3.87508 4.22236 4.05245
# Velocity P-wave (km/s) = 6.37963 7.19243 6.79819
#
# Compressibility (1/GPa) = 0.02007854
#
# Stress axis : x y z
#
# Youngs Moduli (GPa) = 56.50532 94.79290 92.99821
#
# Poissons Ratio (x) = 0.18591 0.28522
# Poissons Ratio (y) = 0.11082 0.41221
# Poissons Ratio (z) = 0.17330 0.42016
#
# Static dielectric constant tensor:
#      x y z
#    x 1.949080 0.002740 -0.007860 
#    y 0.002740 1.976190 0.036410 
#    z -0.007860 0.036410 1.941860 
# 
# From -- ./inp_files/239946.got.cif
#   From: 2010.05.17/outbox.cif.g08.bks.cpg/sg2_120_cif.got.tgz:239946.got - 2010.06.03 11:33:40.
