data_PCOD9065910
_publ_section_title
;
Structure prediction by ZEFSAII (Michael W. Deem and Ramdas Pophale) SiO2 
 PCOD9065910
Probable space group: P -1
;
_chemical_formula_sum "Si O2"
_cell_formula_units_Z 14
_cell_length_a 11.639856
_cell_length_b 11.202765
_cell_length_c 11.704029
_cell_angle_alpha 37.907269
_cell_angle_beta 48.820485
_cell_angle_gamma 42.472347
_cell_volume 622.302825
_symmetry_space_group_name_H-M "P -1"
_symmetry_group_IT_number 2
_symmetry_cell_setting 'triclinic'
loop_
_space_group_symop_operation_xyz
x,y,z
-x,-y,-z
loop_
_atom_site_type_symbol
_atom_site_label
_atom_site_fract_x
_atom_site_fract_y
_atom_site_fract_z
Si Si1 0.635196 0.289020 0.003517
Si Si2 0.804099 0.656409 0.225241
Si Si3 0.746453 0.490617 0.169364
Si Si4 0.545863 0.924023 0.838873
Si Si5 0.931416 0.165824 0.082408
Si Si6 0.208711 0.896875 0.428348
Si Si7 0.804838 0.276575 0.665349
O O1 0.541099 0.139359 0.160468
O O2 0.806845 0.190048 0.041924
O O3 0.500000 0.500000 0.000000
O O4 0.684305 0.341999 0.806094
O O5 0.859270 0.538385 0.154421
O O6 0.817207 0.476929 0.444741
O O7 0.605476 0.840810 0.201109
O O8 0.914057 0.779479 0.093166
O O9 0.834844 0.341963 0.113074
O O10 0.692514 0.334731 0.395446
O O11 0.605038 0.723972 0.039624
O O12 0.718167 0.946424 0.690230
O O13 0.012537 0.920141 0.264140
O O14 0.248160 0.843900 0.308721
O O15 0.000000 0.000000 0.500000
#
# Coordination Sequence:
#
# PCOD9065910 Si02
#       7
#     2   2   2   2   2   2   2
#     4  12  28  49  71 101 147 197 242 288 348 427
#     4  11  27  43  76 112 138 187 238 296 366 416
#     4  11  25  43  77 106 147 181 234 302 358 423
#     4  12  27  45  72 105 142 190 239 292 360 420
#     4  12  24  47  73 102 148 195 233 291 352 424
#     4  11  26  44  74 114 139 180 232 300 365 420
#     4  11  26  47  74 105 147 184 240 297 354 421
#
# _framework density 22.497084999999998
#
# number of rings (size 3 to 8) (size 9 to 14) (size 15 to 20)
#    0.000    0.571    4.286    2.143    8.000    1.714 
#    0.000    1.429    0.000    0.000    0.000    0.000 
#    0.000    0.000    0.000    0.000    0.000    0.000 
#
# Total GULP energy -78294.782822 kJ/mol
# GULP energy per Si atom -5592.484487 kJ/mol
# Density = 2.244588 g / cm^3
# Si number density = 22.497085 Si / 1000 Ang^3
#
#
#
# Elastic Constant Matrix: (Units=GPa)
#
#
# Indices 1 2 3 4 5 6 
#
# 1 164.5496 44.2980 75.8056 4.5506 -6.9097 -4.3392
# 2 44.2980 117.0697 71.2077 -2.8985 1.6149 3.7311
# 3 75.8056 71.2077 122.2262 -19.0720 20.5013 -17.3221
# 4 4.5506 -2.8985 -19.0720 43.4675 -5.9118 12.0169
# 5 -6.9097 1.6149 20.5013 -5.9118 23.0687 1.5214
# 6 -4.3392 3.7311 -17.3221 12.0169 1.5214 39.4489
#
#
#
# Elastic Compliance Matrix: (Units=1/GPa)
#
#
# Indices 1 2 3 4 5 6 
#
# 1 0.011407 0.002857 -0.012037 -0.003438 0.013281 -0.003766
# 2 0.002857 0.016650 -0.015071 -0.001855 0.013124 -0.007819
# 3 -0.012037 -0.015071 0.032520 0.006609 -0.030651 0.013550
# 4 -0.003438 -0.001855 0.006609 0.027850 0.000747 -0.005813
# 5 0.013281 0.013124 -0.030651 0.000747 0.074918 -0.016356
# 6 -0.003766 -0.007819 0.013550 -0.005813 -0.016356 0.034026
#
#
# Mechanical properties :
#
#
# Convention : Reuss Voigt Hill
#
# Bulk Modulus (GPa) = 82.81654 87.38535 85.10094
# Shear Modulus (GPa) = 20.00827 35.36594 27.68710
#
# Velocity S-wave (km/s) = 2.98547 3.96918 3.51194
# Velocity P-wave (km/s) = 6.98399 7.74165 7.37256
#
# Compressibility (1/GPa) = 0.01207488
#
# Stress axis : x y z
#
# Youngs Moduli (GPa) = 87.66811 60.05981 30.75072
#
# Poissons Ratio (x) = -0.17158 0.37013
# Poissons Ratio (y) = -0.25045 0.46344
# Poissons Ratio (z) = 1.05523 0.90516
#
# Static dielectric constant tensor:
#      x y z
#    x 1.839410 -0.002380 -0.020070 
#    y -0.002380 1.883520 0.012680 
#    z -0.020070 0.012680 1.813220 
# 
# From -- ./inp_files/424884.got.cif
#   From: 2010.05.17/outbox.cif.g08.bks.cpg/sg2_213_cif.got.tgz:424884.got - 2010.06.03 11:33:40.
