data_PCOD9065745
_publ_section_title
;
Structure prediction by ZEFSAII (Michael W. Deem and Ramdas Pophale) SiO2 
 PCOD9065745
Probable space group: P -1
;
_chemical_formula_sum "Si O2"
_cell_formula_units_Z 14
_cell_length_a 10.955854
_cell_length_b 9.075620
_cell_length_c 14.492409
_cell_angle_alpha 130.513655
_cell_angle_beta 147.514603
_cell_angle_gamma 58.312698
_cell_volume 587.477065
_symmetry_space_group_name_H-M "P -1"
_symmetry_group_IT_number 2
_symmetry_cell_setting 'triclinic'
loop_
_space_group_symop_operation_xyz
x,y,z
-x,-y,-z
loop_
_atom_site_type_symbol
_atom_site_label
_atom_site_fract_x
_atom_site_fract_y
_atom_site_fract_z
Si Si1 0.593390 0.153061 0.046960
Si Si2 0.052325 0.156623 0.245429
Si Si3 0.369128 0.751621 0.494562
Si Si4 0.788793 0.877500 0.361572
Si Si5 0.698347 0.593456 0.341464
Si Si6 0.268440 0.756569 0.219490
Si Si7 0.867924 0.628119 0.796445
O O1 0.662650 0.363212 0.218938
O O2 0.817850 0.079685 0.110865
O O3 0.396714 0.175821 0.856021
O O4 0.500000 0.000000 0.000000
O O5 0.160422 0.325001 0.447928
O O6 0.011167 0.245798 0.155785
O O7 0.224895 0.984807 0.278038
O O8 0.353139 0.715320 0.359961
O O9 0.614773 0.706647 0.673362
O O10 0.180718 0.596231 0.352246
O O11 0.310540 0.967008 0.568123
O O12 0.818693 0.688308 0.366000
O O13 0.000000 0.000000 0.500000
O O14 0.451044 0.679556 0.233657
O O15 0.024571 0.654608 0.996092
#
# Coordination Sequence:
#
# PCOD9065745 Si02
#       7
#     2   2   2   2   2   2   2
#     4  12  30  47  73 109 148 198 252 304 374 446
#     4  12  24  48  74 108 153 192 247 307 375 441
#     4  11  25  46  71 112 150 190 249 304 369 441
#     4  12  27  47  73 102 150 195 252 298 371 444
#     4  12  26  48  77 107 150 196 246 310 373 442
#     4  12  24  46  79 109 147 195 251 302 378 431
#     4  11  25  41  74 112 149 190 241 313 368 441
#
# _framework density 23.830719999999999
#
# number of rings (size 3 to 8) (size 9 to 14) (size 15 to 20)
#    0.000    0.286    2.857    5.571    6.000    1.143 
#    0.000    0.000    0.000    0.000    0.000    0.000 
#    0.000    0.000    0.000    0.000    0.000    0.000 
#
# Total GULP energy -78470.880843 kJ/mol
# GULP energy per Si atom -5605.062917 kJ/mol
# Density = 2.377648 g / cm^3
# Si number density = 23.830720 Si / 1000 Ang^3
#
#
#
# Elastic Constant Matrix: (Units=GPa)
#
#
# Indices 1 2 3 4 5 6 
#
# 1 93.7497 38.2997 21.1294 5.6131 18.1667 10.2422
# 2 38.2997 111.9417 24.5678 19.7274 8.6946 7.1557
# 3 21.1294 24.5678 141.9157 -5.2017 2.5368 -7.0708
# 4 5.6131 19.7274 -5.2017 44.6519 6.0286 4.7365
# 5 18.1667 8.6946 2.5368 6.0286 34.3457 -3.0364
# 6 10.2422 7.1557 -7.0708 4.7365 -3.0364 34.1050
#
#
#
# Elastic Compliance Matrix: (Units=1/GPa)
#
#
# Indices 1 2 3 4 5 6 
#
# 1 0.014451 -0.003974 -0.001522 0.001218 -0.007148 -0.004627
# 2 -0.003974 0.011530 -0.001622 -0.004694 0.000047 -0.000906
# 3 -0.001522 -0.001622 0.007710 0.001490 0.000583 0.002241
# 4 0.001218 -0.004694 0.001490 0.025384 -0.004285 -0.002979
# 5 -0.007148 0.000047 0.000583 -0.004285 0.034115 0.005890
# 6 -0.004627 -0.000906 0.002241 -0.002979 0.005890 0.032304
#
#
# Mechanical properties :
#
#
# Convention : Reuss Voigt Hill
#
# Bulk Modulus (GPa) = 51.40106 57.28897 54.34502
# Shear Modulus (GPa) = 34.19637 40.19453 37.19545
#
# Velocity S-wave (km/s) = 3.79221 4.11136 3.95501
# Velocity P-wave (km/s) = 6.38675 6.82861 6.61137
#
# Compressibility (1/GPa) = 0.01945485
#
# Stress axis : x y z
#
# Youngs Moduli (GPa) = 69.20010 86.72716 129.70659
#
# Poissons Ratio (x) = 0.34464 0.19738
# Poissons Ratio (y) = 0.27499 0.21044
# Poissons Ratio (z) = 0.10530 0.14071
#
# Static dielectric constant tensor:
#      x y z
#    x 1.918960 0.009450 0.033700 
#    y 0.009450 1.911020 0.008590 
#    z 0.033700 0.008590 1.885790 
# 
# From -- ./inp_files/306696.got.cif
#   From: 2010.05.17/outbox.cif.g08.bks.cpg/sg2_154_cif.got.tgz:306696.got - 2010.06.03 11:33:40.
