data_PCOD9065120
_publ_section_title
;
Structure prediction by ZEFSAII (Michael W. Deem and Ramdas Pophale) SiO2 
 PCOD9065120
Probable space group: P -1
;
_chemical_formula_sum "Si O2"
_cell_formula_units_Z 13
_cell_length_a 13.288701
_cell_length_b 7.479528
_cell_length_c 6.277757
_cell_angle_alpha 114.313182
_cell_angle_beta 114.603751
_cell_angle_gamma 81.959241
_cell_volume 516.625060
_symmetry_space_group_name_H-M "P -1"
_symmetry_group_IT_number 2
_symmetry_cell_setting 'triclinic'
loop_
_space_group_symop_operation_xyz
x,y,z
-x,-y,-z
loop_
_atom_site_type_symbol
_atom_site_label
_atom_site_fract_x
_atom_site_fract_y
_atom_site_fract_z
Si Si1 0.109826 0.384666 0.767902
Si Si2 0.104632 0.117223 0.257607
Si Si3 0.510067 0.202714 0.475993
Si Si4 0.312106 0.723081 0.692805
Si Si5 0.724247 0.851805 0.951709
Si Si6 0.883385 0.283651 0.757082
Si Si7 0.500000 0.500000 0.000000
O O1 0.079394 0.307053 0.468678
O O2 0.007406 0.308513 0.789158
O O3 0.220744 0.276056 0.879631
O O4 0.126448 0.608125 0.971060
O O5 0.197182 0.166217 0.190965
O O6 0.146306 0.945941 0.363736
O O7 0.000000 0.000000 0.000000
O O8 0.610758 0.207215 0.403286
O O9 0.399643 0.220539 0.246555
O O10 0.500000 0.000000 0.500000
O O11 0.518967 0.373079 0.738584
O O12 0.201723 0.628750 0.442452
O O13 0.383884 0.585718 0.834464
O O14 0.280592 0.918843 0.885302
#
# Coordination Sequence:
#
# PCOD9065120 Si02
#       7
#     2   2   2   2   2   2   1
#     4  11  25  46  72 104 143 181 234 297 349 427
#     4  12  24  44  71 104 144 185 231 287 361 423
#     4  12  27  48  73 106 141 190 241 294 357 421
#     4  12  26  49  74 103 149 189 239 297 356 425
#     4  12  25  46  73 104 139 189 234 293 358 421
#     4  11  24  47  72 104 143 186 234 293 355 426
#     4  12  28  46  74 104 142 192 242 294 354 420
#
# _framework density 25.163315999999998
#
# number of rings (size 3 to 8) (size 9 to 14) (size 15 to 20)
#    0.000    0.308    4.615    4.154    0.000    1.846 
#    2.769    0.000    0.000    0.000    0.000    0.000 
#    0.000    0.000    0.000    0.000    0.000    0.000 
#
# Total GULP energy -72653.581299 kJ/mol
# GULP energy per Si atom -5588.737023 kJ/mol
# Density = 2.510604 g / cm^3
# Si number density = 25.163316 Si / 1000 Ang^3
#
#
#
# Elastic Constant Matrix: (Units=GPa)
#
#
# Indices 1 2 3 4 5 6 
#
# 1 82.9443 36.2880 29.8370 11.3507 1.5078 -18.3284
# 2 36.2880 99.0306 43.5668 -1.7276 4.0407 -18.5950
# 3 29.8370 43.5668 168.5573 29.0503 -1.3115 -30.4122
# 4 11.3507 -1.7276 29.0503 51.3319 -36.4074 9.3233
# 5 1.5078 4.0407 -1.3115 -36.4074 48.1039 -4.5551
# 6 -18.3284 -18.5950 -30.4122 9.3233 -4.5551 42.7497
#
#
#
# Elastic Compliance Matrix: (Units=1/GPa)
#
#
# Indices 1 2 3 4 5 6 
#
# 1 0.017713 -0.005674 0.002175 -0.013690 -0.009563 0.008640
# 2 -0.005674 0.013727 -0.003655 0.006545 0.003872 -0.000077
# 3 0.002175 -0.003655 0.010898 -0.016137 -0.010781 0.009466
# 4 -0.013690 0.006545 -0.016137 0.074104 0.053157 -0.024999
# 5 -0.009563 0.003872 -0.010781 0.053157 0.059246 -0.015366
# 6 0.008640 -0.000077 0.009466 -0.024999 -0.015366 0.037612
#
#
# Mechanical properties :
#
#
# Convention : Reuss Voigt Hill
#
# Bulk Modulus (GPa) = 35.67747 63.32399 49.50073
# Shear Modulus (GPa) = 21.10156 44.49314 32.79735
#
# Velocity S-wave (km/s) = 2.89897 4.20953 3.61415
# Velocity P-wave (km/s) = 5.04128 6.98904 6.09349
#
# Compressibility (1/GPa) = 0.02802889
#
# Stress axis : x y z
#
# Youngs Moduli (GPa) = 56.45698 72.85037 91.76324
#
# Poissons Ratio (x) = 0.41332 -0.19959
# Poissons Ratio (y) = 0.32031 0.33544
# Poissons Ratio (z) = -0.12280 0.26630
#
# Static dielectric constant tensor:
#      x y z
#    x 1.937380 0.005090 0.032790 
#    y 0.005090 2.022130 -0.063320 
#    z 0.032790 -0.063320 1.978110 
# 
# From -- ./inp_files/28652.got.cif
#   From: 2010.05.17/outbox.cif.g08.bks.cpg/sg2_15_cif.got.tgz:28652.got - 2010.06.03 11:33:40.
