data_PCOD9065684
_publ_section_title
;
Structure prediction by ZEFSAII (Michael W. Deem and Ramdas Pophale) SiO2 
 PCOD9065684
Probable space group: P -1
;
_chemical_formula_sum "Si O2"
_cell_formula_units_Z 14
_cell_length_a 9.278919
_cell_length_b 16.548676
_cell_length_c 11.356576
_cell_angle_alpha 29.831997
_cell_angle_beta 141.717898
_cell_angle_gamma 135.357900
_cell_volume 534.791562
_symmetry_space_group_name_H-M "P -1"
_symmetry_group_IT_number 2
_symmetry_cell_setting 'triclinic'
loop_
_space_group_symop_operation_xyz
x,y,z
-x,-y,-z
loop_
_atom_site_type_symbol
_atom_site_label
_atom_site_fract_x
_atom_site_fract_y
_atom_site_fract_z
Si Si1 0.228752 0.618375 0.453721
Si Si2 0.907761 0.680647 0.572796
Si Si3 0.640103 0.763315 0.811711
Si Si4 0.027656 0.186593 0.812106
Si Si5 0.567261 0.183733 0.866577
Si Si6 0.182720 0.931154 0.611355
Si Si7 0.299029 0.505626 0.000628
O O1 0.791771 0.791304 0.991686
O O2 0.234580 0.713348 0.213948
O O3 0.474750 0.543991 0.721235
O O4 0.000000 0.500000 0.500000
O O5 0.901929 0.713184 0.386920
O O6 0.047706 0.816932 0.572495
O O7 0.645599 0.704037 0.413078
O O8 0.047373 0.520007 0.877553
O O9 0.214395 0.763150 0.354535
O O10 0.718725 0.616005 0.967353
O O11 0.678405 0.922854 0.555921
O O12 0.385335 0.690725 0.783157
O O13 0.000000 0.000000 0.000000
O O14 0.647567 0.158879 0.082233
O O15 0.500000 0.000000 0.000000
O O16 0.000000 0.000000 0.500000
#
# Coordination Sequence:
#
# PCOD9065684 Si02
#       7
#     2   2   2   2   2   2   2
#     4  12  27  54  87 116 167 220 274 341 412 495
#     4  12  29  49  76 126 162 210 280 335 404 501
#     4  11  24  50  80 117 165 213 268 341 412 488
#     4  12  24  48  84 119 160 210 283 343 399 486
#     4  12  27  53  84 119 168 221 268 344 424 485
#     4  12  26  51  80 115 164 215 269 341 413 481
#     4  11  27  48  78 122 164 216 269 334 417 488
#
# _framework density 26.178422000000001
#
# number of rings (size 3 to 8) (size 9 to 14) (size 15 to 20)
#    0.000    0.286    4.286    4.286    2.000    2.286 
#    0.000    1.429    0.000    0.000    0.000    0.000 
#    0.000    0.000    0.000    0.000    0.000    0.000 
#
# Total GULP energy -78396.857376 kJ/mol
# GULP energy per Si atom -5599.775527 kJ/mol
# Density = 2.611884 g / cm^3
# Si number density = 26.178422 Si / 1000 Ang^3
#
#
#
# Elastic Constant Matrix: (Units=GPa)
#
#
# Indices 1 2 3 4 5 6 
#
# 1 159.1498 50.0834 73.7695 7.0280 -17.3800 -4.3319
# 2 50.0834 134.1078 53.8208 21.8843 -23.9131 -8.6467
# 3 73.7695 53.8208 137.0935 17.7976 -6.1406 11.0500
# 4 7.0280 21.8843 17.7976 38.5727 -10.2535 0.8301
# 5 -17.3800 -23.9131 -6.1406 -10.2535 74.4422 -0.5156
# 6 -4.3319 -8.6467 11.0500 0.8301 -0.5156 34.8475
#
#
#
# Elastic Compliance Matrix: (Units=1/GPa)
#
#
# Indices 1 2 3 4 5 6 
#
# 1 0.009018 -0.001352 -0.004645 0.001625 0.001527 0.002242
# 2 -0.001352 0.010436 -0.003067 -0.003725 0.002295 0.003517
# 3 -0.004645 -0.003067 0.011739 -0.003139 -0.001568 -0.005009
# 4 0.001625 -0.003725 -0.003139 0.030012 0.003055 -0.000397
# 5 0.001527 0.002295 -0.001568 0.003055 0.014828 0.001403
# 6 0.002242 0.003517 -0.005009 -0.000397 0.001403 0.031466
#
#
# Mechanical properties :
#
#
# Convention : Reuss Voigt Hill
#
# Bulk Modulus (GPa) = 76.53665 87.29985 81.91825
# Shear Modulus (GPa) = 38.46699 46.41764 42.44231
#
# Velocity S-wave (km/s) = 3.83745 4.21542 4.03087
# Velocity P-wave (km/s) = 6.99534 7.55734 7.28176
#
# Compressibility (1/GPa) = 0.01306564
#
# Stress axis : x y z
#
# Youngs Moduli (GPa) = 110.88932 95.82063 85.18779
#
# Poissons Ratio (x) = 0.12954 0.39571
# Poissons Ratio (y) = 0.14991 0.26124
# Poissons Ratio (z) = 0.51509 0.29385
#
# Static dielectric constant tensor:
#      x y z
#    x 2.052270 0.002250 0.011120 
#    y 0.002250 2.062570 0.010510 
#    z 0.011120 0.010510 2.138340 
# 
# From -- ./inp_files/402764.got.cif
#   From: 2010.05.17/outbox.cif.g08.bks.cpg/sg2_202_cif.got.tgz:402764.got - 2010.06.03 11:33:40.
