data_PCOD9065460
_publ_section_title
;
Structure prediction by ZEFSAII (Michael W. Deem and Ramdas Pophale) SiO2 
 PCOD9065460
Probable space group: P -1
;
_chemical_formula_sum "Si O2"
_cell_formula_units_Z 16
_cell_length_a 24.336855
_cell_length_b 22.342441
_cell_length_c 6.775768
_cell_angle_alpha 46.219260
_cell_angle_beta 56.637613
_cell_angle_gamma 18.136301
_cell_volume 726.955281
_symmetry_space_group_name_H-M "P -1"
_symmetry_group_IT_number 2
_symmetry_cell_setting 'triclinic'
loop_
_space_group_symop_operation_xyz
x,y,z
-x,-y,-z
loop_
_atom_site_type_symbol
_atom_site_label
_atom_site_fract_x
_atom_site_fract_y
_atom_site_fract_z
Si Si1 0.347616 0.872009 0.882904
Si Si2 0.217064 0.583548 0.800171
Si Si3 0.217286 0.398041 0.151050
Si Si4 0.573515 0.967414 0.114290
Si Si5 0.157014 0.951466 0.258870
Si Si6 0.107681 0.796224 0.142518
Si Si7 0.869227 0.729647 0.836227
Si Si8 0.550841 0.507900 0.046240
O O1 0.227526 0.095179 0.537327
O O2 0.572981 0.629060 0.055487
O O3 0.373706 0.774758 0.874596
O O4 0.237985 0.949019 0.093146
O O5 0.191418 0.632618 0.509122
O O6 0.018220 0.855698 0.676093
O O7 0.209341 0.495177 0.053166
O O8 0.281081 0.255321 0.515093
O O9 0.384103 0.210198 0.076816
O O10 0.016599 0.607610 0.961015
O O11 0.693935 0.899344 0.931533
O O12 0.500000 0.000000 0.000000
O O13 0.338794 0.673907 0.583359
O O14 0.050384 0.056377 0.026842
O O15 0.291568 0.615562 0.072680
O O16 0.000000 0.000000 0.000000
O O17 0.000000 0.500000 0.000000
O O18 0.500000 0.500000 0.000000
#
# Coordination Sequence:
#
# PCOD9065460 Si02
#       8
#     2   2   2   2   2   2   2   2
#     4  12  28  46  73 107 144 190 242 293 358 425
#     4  12  27  46  73 108 143 188 239 291 355 429
#     4  11  27  45  75 106 138 190 238 288 364 426
#     4  11  24  48  75 102 141 184 239 300 355 421
#     4  12  26  48  74 102 150 188 235 296 354 421
#     4  12  23  44  73 102 142 188 235 288 357 420
#     4  12  27  47  75 106 145 189 238 298 360 421
#     4  12  25  46  73 106 146 190 238 296 354 424
#
# _framework density 22.009606000000002
#
# number of rings (size 3 to 8) (size 9 to 14) (size 15 to 20)
#    0.000    0.250    3.750    4.875    7.000    3.000 
#    0.000    0.000    0.000    0.000    0.000    0.000 
#    0.000    0.000    0.000    0.000    0.000    0.000 
#
# Total GULP energy -89573.179902 kJ/mol
# GULP energy per Si atom -5598.323744 kJ/mol
# Density = 2.195951 g / cm^3
# Si number density = 22.009606 Si / 1000 Ang^3
#
#
#
# Elastic Constant Matrix: (Units=GPa)
#
#
# Indices 1 2 3 4 5 6 
#
# 1 88.8172 15.2185 10.9909 -1.2614 5.9359 -21.6015
# 2 15.2185 81.9315 32.5104 12.9464 -1.6494 -23.5711
# 3 10.9909 32.5104 120.8713 5.0624 -13.6678 -9.5473
# 4 -1.2614 12.9464 5.0624 32.1477 -1.5511 -10.3385
# 5 5.9359 -1.6494 -13.6678 -1.5511 34.3140 5.4347
# 6 -21.6015 -23.5711 -9.5473 -10.3385 5.4347 42.6864
#
#
#
# Elastic Compliance Matrix: (Units=1/GPa)
#
#
# Indices 1 2 3 4 5 6 
#
# 1 0.013643 -0.000483 -0.001078 0.003175 -0.003882 0.007660
# 2 -0.000483 0.016506 -0.003884 -0.003791 -0.002004 0.007338
# 3 -0.001078 -0.003884 0.009799 -0.000165 0.004062 -0.001055
# 4 0.003175 -0.003791 -0.000165 0.035367 -0.000482 0.008104
# 5 -0.003882 -0.002004 0.004062 -0.000482 0.032327 -0.006395
# 6 0.007660 0.007338 -0.001055 0.008104 -0.006395 0.033896
#
#
# Mechanical properties :
#
#
# Convention : Reuss Voigt Hill
#
# Bulk Modulus (GPa) = 34.41283 45.45108 39.93195
# Shear Modulus (GPa) = 30.84296 37.35630 34.09963
#
# Velocity S-wave (km/s) = 3.74751 4.12427 3.94039
# Velocity P-wave (km/s) = 5.86468 6.58596 6.23575
#
# Compressibility (1/GPa) = 0.02905893
#
# Stress axis : x y z
#
# Youngs Moduli (GPa) = 73.29977 60.58396 102.05364
#
# Poissons Ratio (x) = 0.02925 0.10998
# Poissons Ratio (y) = 0.03539 0.39636
# Poissons Ratio (z) = 0.07899 0.23530
#
# Static dielectric constant tensor:
#      x y z
#    x 1.795080 0.030080 -0.015940 
#    y 0.030080 1.856460 -0.012900 
#    z -0.015940 -0.012900 1.776230 
# 
# From -- ./inp_files/124997.got.cif
#   From: 2010.05.17/outbox.cif.g08.bks.cpg/sg2_63_cif.got.tgz:124997.got - 2010.06.03 11:33:40.
