data_PCOD9065210
_publ_section_title
;
Structure prediction by ZEFSAII (Michael W. Deem and Ramdas Pophale) SiO2 
 PCOD9065210
Probable space group: P -1
;
_chemical_formula_sum "Si O2"
_cell_formula_units_Z 16
_cell_length_a 8.561759
_cell_length_b 18.358594
_cell_length_c 11.564603
_cell_angle_alpha 27.437790
_cell_angle_beta 125.151592
_cell_angle_gamma 127.373281
_cell_volume 662.221465
_symmetry_space_group_name_H-M "P -1"
_symmetry_group_IT_number 2
_symmetry_cell_setting 'triclinic'
loop_
_space_group_symop_operation_xyz
x,y,z
-x,-y,-z
loop_
_atom_site_type_symbol
_atom_site_label
_atom_site_fract_x
_atom_site_fract_y
_atom_site_fract_z
Si Si1 0.433876 0.162321 0.226309
Si Si2 0.323063 0.363683 0.068595
Si Si3 0.925105 0.872908 0.546845
Si Si4 0.780162 0.888718 0.025575
Si Si5 0.832033 0.542919 0.545117
Si Si6 0.243767 0.600428 0.524356
Si Si7 0.850034 0.364604 0.049383
Si Si8 0.520700 0.936192 0.224988
O O1 0.379077 0.204716 0.271791
O O2 0.259321 0.131741 0.100279
O O3 0.615529 0.315934 0.050063
O O4 0.500000 0.000000 0.500000
O O5 0.171948 0.304342 0.188712
O O6 0.500000 0.500000 0.000000
O O7 0.243651 0.432431 0.824611
O O8 0.752270 0.941344 0.323736
O O9 0.099580 0.810570 0.651178
O O10 0.000000 0.000000 0.500000
O O11 0.602865 0.967653 0.882781
O O12 0.752591 0.700688 0.321673
O O13 0.000000 0.000000 0.000000
O O14 0.726455 0.420522 0.569945
O O15 0.035958 0.625607 0.445643
O O16 0.853770 0.439776 0.814159
O O17 0.408555 0.745416 0.445714
O O18 0.000000 0.500000 0.000000
O O19 0.500000 0.000000 0.000000
#
# Coordination Sequence:
#
# PCOD9065210 Si02
#       8
#     2   2   2   2   2   2   2   2
#     4  12  29  48  73 114 154 201 252 312 385 451
#     4  12  23  46  77 101 142 198 256 302 370 449
#     4  12  27  48  72 107 151 197 245 312 371 453
#     4  12  27  49  75 109 151 202 249 314 379 455
#     4  11  26  47  77 108 152 192 257 311 381 449
#     4  11  24  47  74 108 144 201 249 310 373 449
#     4  12  29  48  78 113 151 197 254 318 380 450
#     4  12  29  45  75 108 149 198 252 306 385 453
#
# _framework density 24.161103000000001
#
# number of rings (size 3 to 8) (size 9 to 14) (size 15 to 20)
#    0.000    0.250    5.000    3.000    7.000    1.500 
#    0.000    0.000    0.000    0.000    0.000    0.000 
#    0.000    0.000    0.000    0.000    0.000    0.000 
#
# Total GULP energy -89299.169773 kJ/mol
# GULP energy per Si atom -5581.198111 kJ/mol
# Density = 2.410611 g / cm^3
# Si number density = 24.161103 Si / 1000 Ang^3
#
#
#
# Elastic Constant Matrix: (Units=GPa)
#
#
# Indices 1 2 3 4 5 6 
#
# 1 70.8656 23.9141 20.9811 2.3837 7.7820 -2.2700
# 2 23.9141 124.3419 21.5435 13.0875 11.2520 -1.0806
# 3 20.9811 21.5435 119.1654 17.9473 22.2742 -5.6369
# 4 2.3837 13.0875 17.9473 48.6327 -6.4140 5.5297
# 5 7.7820 11.2520 22.2742 -6.4140 50.3910 -5.5919
# 6 -2.2700 -1.0806 -5.6369 5.5297 -5.5919 41.2986
#
#
#
# Elastic Compliance Matrix: (Units=1/GPa)
#
#
# Indices 1 2 3 4 5 6 
#
# 1 0.015732 -0.002635 -0.002236 0.000631 -0.000738 0.000306
# 2 -0.002635 0.009036 -0.000496 -0.002353 -0.001679 0.000112
# 3 -0.002236 -0.000496 0.010446 -0.004358 -0.004577 0.001254
# 4 0.000631 -0.002353 -0.004358 0.023793 0.005036 -0.003126
# 5 -0.000738 -0.001679 -0.004577 0.005036 0.023193 0.001757
# 6 0.000306 0.000112 0.001254 -0.003126 0.001757 0.025061
#
#
# Mechanical properties :
#
#
# Convention : Reuss Voigt Hill
#
# Bulk Modulus (GPa) = 40.85051 49.69447 45.27249
# Shear Modulus (GPa) = 39.63371 44.59341 42.11356
#
# Velocity S-wave (km/s) = 4.05457 4.30079 4.17949
# Velocity P-wave (km/s) = 6.23407 6.72867 6.48609
#
# Compressibility (1/GPa) = 0.02447950
#
# Stress axis : x y z
#
# Youngs Moduli (GPa) = 63.56398 110.67229 95.72773
#
# Poissons Ratio (x) = 0.29165 0.21405
# Poissons Ratio (y) = 0.16751 0.04749
# Poissons Ratio (z) = 0.14213 0.05490
#
# Static dielectric constant tensor:
#      x y z
#    x 2.895270 0.128790 -0.207290 
#    y 0.128790 1.919930 -0.019450 
#    z -0.207290 -0.019450 2.105440 
# 
# From -- ./inp_files/402740.got.cif
#   From: 2010.05.17/outbox.cif.g08.bks.cpg/sg2_202_cif.got.tgz:402740.got - 2010.06.03 11:33:40.
