data_PCOD9065790
_publ_section_title
;
Structure prediction by ZEFSAII (Michael W. Deem and Ramdas Pophale) SiO2 
 PCOD9065790
Probable space group: P -1
;
_chemical_formula_sum "Si O2"
_cell_formula_units_Z 10
_cell_length_a 5.077559
_cell_length_b 21.547276
_cell_length_c 9.988957
_cell_angle_alpha 154.947718
_cell_angle_beta 107.216367
_cell_angle_gamma 74.966761
_cell_volume 441.930851
_symmetry_space_group_name_H-M "P -1"
_symmetry_group_IT_number 2
_symmetry_cell_setting 'triclinic'
loop_
_space_group_symop_operation_xyz
x,y,z
-x,-y,-z
loop_
_atom_site_type_symbol
_atom_site_label
_atom_site_fract_x
_atom_site_fract_y
_atom_site_fract_z
Si Si1 0.708038 0.923246 0.281790
Si Si2 0.487523 0.923791 0.705792
Si Si3 0.987050 0.267148 0.635833
Si Si4 0.283169 0.418661 0.403541
Si Si5 0.370667 0.543972 0.211349
O O1 0.248027 0.795903 0.423589
O O2 0.500000 0.000000 0.500000
O O3 0.598534 0.959826 0.189576
O O4 0.000000 0.000000 0.500000
O O5 0.782977 0.854043 0.585988
O O6 0.184827 0.684835 0.427811
O O7 0.500000 0.000000 0.000000
O O8 0.267498 0.248897 0.029656
O O9 0.164235 0.415186 0.982482
O O10 0.500000 0.500000 0.500000
O O11 0.393667 0.428204 0.590892
O O12 0.000000 0.500000 0.500000
O O13 0.500000 0.500000 0.000000
#
# Coordination Sequence:
#
# PCOD9065790 Si02
#       5
#     2   2   2   2   2
#     4  12  29  50  74 109 153 198 247 306 374 449
#     4  12  26  46  75 105 149 191 255 299 378 434
#     4  11  25  42  77 109 144 190 245 310 370 432
#     4  12  31  49  78 110 152 199 254 305 375 445
#     4  11  26  47  78 108 151 188 257 304 372 437
#
# _framework density 22.627973999999998
#
# number of rings (size 3 to 8) (size 9 to 14) (size 15 to 20)
#    0.000    0.400    2.000    4.200   14.000    1.600 
#    0.000    0.000    0.000    0.000    0.000    0.000 
#    0.000    0.000    0.000    0.000    0.000    0.000 
#
# Total GULP energy -56038.765726 kJ/mol
# GULP energy per Si atom -5603.876573 kJ/mol
# Density = 2.257647 g / cm^3
# Si number density = 22.627974 Si / 1000 Ang^3
#
#
#
# Elastic Constant Matrix: (Units=GPa)
#
#
# Indices 1 2 3 4 5 6 
#
# 1 187.7514 62.7957 65.3581 12.2433 -4.2184 -23.6685
# 2 62.7957 131.5705 67.3370 14.5528 -8.7459 -27.4966
# 3 65.3581 67.3370 133.0381 22.7656 8.4244 -8.8747
# 4 12.2433 14.5528 22.7656 53.9368 -1.8201 -1.4063
# 5 -4.2184 -8.7459 8.4244 -1.8201 35.7084 11.2970
# 6 -23.6685 -27.4966 -8.8747 -1.4063 11.2970 51.6972
#
#
#
# Elastic Compliance Matrix: (Units=1/GPa)
#
#
# Indices 1 2 3 4 5 6 
#
# 1 0.006986 -0.001646 -0.002503 -0.000023 0.000443 0.001796
# 2 -0.001646 0.012123 -0.005119 -0.000538 0.002617 0.004229
# 3 -0.002503 -0.005119 0.012116 -0.003333 -0.004279 -0.000945
# 4 -0.000023 -0.000538 -0.003333 0.020143 0.001912 -0.000739
# 5 0.000443 0.002617 -0.004279 0.001912 0.031708 -0.006016
# 6 0.001796 0.004229 -0.000945 -0.000739 -0.006016 0.023548
#
#
# Mechanical properties :
#
#
# Convention : Reuss Voigt Hill
#
# Bulk Modulus (GPa) = 78.81043 93.70461 86.25752
# Shear Modulus (GPa) = 38.64285 45.39309 42.01797
#
# Velocity S-wave (km/s) = 4.13697 4.48377 4.31386
# Velocity P-wave (km/s) = 7.59762 8.26477 7.93820
#
# Compressibility (1/GPa) = 0.01268868
#
# Stress axis : x y z
#
# Youngs Moduli (GPa) = 143.14532 82.48581 82.53608
#
# Poissons Ratio (x) = 0.13575 0.20661
# Poissons Ratio (y) = 0.23557 0.42252
# Poissons Ratio (z) = 0.35834 0.42226
#
# Static dielectric constant tensor:
#      x y z
#    x 1.795930 0.002540 0.022510 
#    y 0.002540 1.986770 -0.012600 
#    z 0.022510 -0.012600 1.845440 
# 
# From -- ./inp_files/38850.got.cif
#   From: 2010.05.17/outbox.cif.g08.bks.cpg/sg2_20_cif.got.tgz:38850.got - 2010.06.03 11:33:40.
