data_PCOD9065996
_publ_section_title
;
Structure prediction by ZEFSAII (Michael W. Deem and Ramdas Pophale) SiO2 
 PCOD9065996
Probable space group: P -1
;
_chemical_formula_sum "Si O2"
_cell_formula_units_Z 16
_cell_length_a 12.983476
_cell_length_b 9.127239
_cell_length_c 16.582903
_cell_angle_alpha 75.088789
_cell_angle_beta 154.099411
_cell_angle_gamma 115.226361
_cell_volume 735.949681
_symmetry_space_group_name_H-M "P -1"
_symmetry_group_IT_number 2
_symmetry_cell_setting 'triclinic'
loop_
_space_group_symop_operation_xyz
x,y,z
-x,-y,-z
loop_
_atom_site_type_symbol
_atom_site_label
_atom_site_fract_x
_atom_site_fract_y
_atom_site_fract_z
Si Si1 0.633044 0.392865 0.961667
Si Si2 0.651910 0.757835 0.593292
Si Si3 0.665825 0.313388 0.456563
Si Si4 0.201739 0.040245 0.709396
Si Si5 0.113926 0.665025 0.701050
Si Si6 0.537414 0.327393 0.190902
Si Si7 0.037402 0.133469 0.749538
Si Si8 0.118224 0.502411 0.172076
O O1 0.478126 0.196013 0.853198
O O2 0.455589 0.489456 0.820209
O O3 0.713074 0.387407 0.110607
O O4 0.896443 0.494887 0.079780
O O5 0.516938 0.750510 0.585370
O O6 0.407078 0.660841 0.371962
O O7 0.824781 0.656705 0.743099
O O8 0.835109 0.947394 0.666002
O O9 0.513804 0.251845 0.273833
O O10 0.887554 0.249114 0.625491
O O11 0.816020 0.521213 0.529702
O O12 0.122545 0.109344 0.723415
O O13 0.189279 0.859252 0.746696
O O14 0.000000 0.000000 0.500000
O O15 0.203906 0.657939 0.674751
O O16 0.288183 0.215745 0.974233
O O17 0.000000 0.500000 0.000000
#
# Coordination Sequence:
#
# PCOD9065996 Si02
#       8
#     2   2   2   2   2   2   2   2
#     4  12  23  45  71  97 138 177 224 278 338 397
#     4  11  26  44  69  99 137 178 227 279 330 396
#     4  12  25  46  70  97 135 182 224 274 336 401
#     4  12  27  42  68 105 136 175 224 282 339 400
#     4  12  23  44  69  98 137 174 224 278 339 396
#     4  12  25  43  71  99 134 179 220 276 339 401
#     4  12  26  45  68 101 139 174 225 278 334 400
#     4  11  25  44  71 101 135 180 224 276 336 398
#
# _framework density 21.740617
#
# number of rings (size 3 to 8) (size 9 to 14) (size 15 to 20)
#    0.000    0.250    3.750    5.250    5.250    1.500 
#    0.000    0.000    0.000    0.000    0.000    0.000 
#    0.000    0.000    0.000    0.000    0.000    0.000 
#
# Total GULP energy -89557.364170 kJ/mol
# GULP energy per Si atom -5597.335261 kJ/mol
# Density = 2.169113 g / cm^3
# Si number density = 21.740617 Si / 1000 Ang^3
#
#
#
# Elastic Constant Matrix: (Units=GPa)
#
#
# Indices 1 2 3 4 5 6 
#
# 1 83.8865 10.8227 24.2376 5.2439 -8.9670 -0.5048
# 2 10.8227 109.3013 25.1825 17.7369 4.5558 10.6200
# 3 24.2376 25.1825 108.9793 13.5331 -32.4874 14.9483
# 4 5.2439 17.7369 13.5331 22.8042 2.0413 6.9757
# 5 -8.9670 4.5558 -32.4874 2.0413 40.7106 -4.7497
# 6 -0.5048 10.6200 14.9483 6.9757 -4.7497 30.0762
#
#
#
# Elastic Compliance Matrix: (Units=1/GPa)
#
#
# Indices 1 2 3 4 5 6 
#
# 1 0.012983 -0.000718 -0.002396 -0.001835 0.001389 0.002307
# 2 -0.000718 0.011073 -0.002311 -0.006237 -0.003141 -0.001823
# 3 -0.002396 -0.002311 0.014979 -0.006569 0.011627 -0.003309
# 4 -0.001835 -0.006237 -0.006569 0.056595 -0.008847 -0.009087
# 5 0.001389 -0.003141 0.011627 -0.008847 0.035291 0.002979
# 6 0.002307 -0.001823 -0.003309 -0.009087 0.002979 0.038154
#
#
# Mechanical properties :
#
#
# Convention : Reuss Voigt Hill
#
# Bulk Modulus (GPa) = 35.47986 46.96142 41.22064
# Shear Modulus (GPa) = 26.41056 34.84650 30.62853
#
# Velocity S-wave (km/s) = 3.48918 4.00788 3.75749
# Velocity P-wave (km/s) = 5.70855 6.56240 6.15031
#
# Compressibility (1/GPa) = 0.02818501
#
# Stress axis : x y z
#
# Youngs Moduli (GPa) = 77.02452 90.31256 66.76095
#
# Poissons Ratio (x) = 0.06482 0.15996
# Poissons Ratio (y) = 0.05528 0.15428
# Poissons Ratio (z) = 0.18456 0.20870
#
# Static dielectric constant tensor:
#      x y z
#    x 1.765910 -0.011660 -0.007010 
#    y -0.011660 1.800610 0.009530 
#    z -0.007010 0.009530 1.813510 
# 
# From -- ./inp_files/400001.got.cif
#   From: 2010.05.17/outbox.cif.g08.bks.cpg/sg2_201_cif.got.tgz:400001.got - 2010.06.03 11:33:40.
