data_PCOD9065345
_publ_section_title
;
Structure prediction by ZEFSAII (Michael W. Deem and Ramdas Pophale) SiO2 
 PCOD9065345
Probable space group: P -1
;
_chemical_formula_sum "Si O2"
_cell_formula_units_Z 14
_cell_length_a 12.295258
_cell_length_b 12.130976
_cell_length_c 4.943390
_cell_angle_alpha 64.374116
_cell_angle_beta 115.056726
_cell_angle_gamma 89.409988
_cell_volume 585.096111
_symmetry_space_group_name_H-M "P -1"
_symmetry_group_IT_number 2
_symmetry_cell_setting 'triclinic'
loop_
_space_group_symop_operation_xyz
x,y,z
-x,-y,-z
loop_
_atom_site_type_symbol
_atom_site_label
_atom_site_fract_x
_atom_site_fract_y
_atom_site_fract_z
Si Si1 0.371303 0.372288 0.510018
Si Si2 0.250497 0.750838 0.775888
Si Si3 0.766982 0.966858 0.723917
Si Si4 0.373478 0.095431 0.847861
Si Si5 0.972547 0.753584 0.338637
Si Si6 0.386395 0.620170 0.558514
Si Si7 0.902372 0.617763 0.897332
O O1 0.392511 0.232029 0.802517
O O2 0.375835 0.480665 0.615681
O O3 0.479350 0.368166 0.410563
O O4 0.233851 0.405932 0.203622
O O5 0.349507 0.660725 0.780930
O O6 0.114872 0.734589 0.580354
O O7 0.248278 0.894517 0.554708
O O8 0.288610 0.713805 0.161770
O O9 0.710885 0.889299 0.524439
O O10 0.688520 0.965654 0.912951
O O11 0.906360 0.892141 0.015398
O O12 0.500000 0.000000 0.000000
O O13 0.901727 0.726301 0.560107
O O14 0.950889 0.657891 0.187519
O O15 0.000000 0.500000 0.000000
#
# Coordination Sequence:
#
# PCOD9065345 Si02
#       7
#     2   2   2   2   2   2   2
#     4  11  24  48  70 101 142 172 242 277 352 410
#     4  12  25  47  68 102 142 178 242 270 352 410
#     4  12  24  44  67 103 136 184 230 284 345 402
#     4  12  25  43  71 101 140 182 228 285 344 410
#     4  12  24  44  67 103 136 184 230 284 345 402
#     4  11  28  44  71 100 134 189 218 298 338 413
#     4  12  25  43  71 101 140 182 228 285 344 410
#
# _framework density 23.927693999999999
#
# number of rings (size 3 to 8) (size 9 to 14) (size 15 to 20)
#    0.000    0.286    2.857    6.429    0.000    6.857 
#    0.000    4.286    0.000    0.000    0.000    0.000 
#    0.000    0.000    0.000    0.000    0.000    0.000 
#
# Total GULP energy -78572.181339 kJ/mol
# GULP energy per Si atom -5612.298667 kJ/mol
# Density = 2.387323 g / cm^3
# Si number density = 23.927694 Si / 1000 Ang^3
#
#
#
# Elastic Constant Matrix: (Units=GPa)
#
#
# Indices 1 2 3 4 5 6 
#
# 1 99.2956 29.9953 16.9083 14.8012 30.1642 3.4050
# 2 29.9953 69.6728 10.6459 -15.3646 16.8328 9.9457
# 3 16.9083 10.6459 109.1905 -6.3892 11.7353 5.1227
# 4 14.8012 -15.3646 -6.3892 46.5824 -11.6691 0.7918
# 5 30.1642 16.8328 11.7353 -11.6691 40.4290 3.5229
# 6 3.4050 9.9457 5.1227 0.7918 3.5229 39.6263
#
#
#
# Elastic Compliance Matrix: (Units=1/GPa)
#
#
# Indices 1 2 3 4 5 6 
#
# 1 0.018485 -0.007282 -0.001443 -0.012006 -0.013973 0.001908
# 2 -0.007282 0.020132 -0.000100 0.009041 0.000091 -0.004603
# 3 -0.001443 -0.000100 0.009651 0.001474 -0.001169 -0.001024
# 4 -0.012006 0.009041 0.001474 0.032112 0.014325 -0.003343
# 5 -0.013973 0.000091 -0.001169 0.014325 0.039814 -0.002497
# 6 0.001908 -0.004603 -0.001024 -0.003343 -0.002497 0.026648
#
#
# Mechanical properties :
#
#
# Convention : Reuss Voigt Hill
#
# Bulk Modulus (GPa) = 32.65916 43.69532 38.17724
# Shear Modulus (GPa) = 28.62077 40.03483 34.32780
#
# Velocity S-wave (km/s) = 3.46227 4.09486 3.79178
# Velocity P-wave (km/s) = 5.44627 6.37638 5.92959
#
# Compressibility (1/GPa) = 0.03061928
#
# Stress axis : x y z
#
# Youngs Moduli (GPa) = 54.09723 49.67205 103.61222
#
# Poissons Ratio (x) = 0.36171 0.14949
# Poissons Ratio (y) = 0.39393 0.01036
# Poissons Ratio (z) = 0.07805 0.00497
#
# Static dielectric constant tensor:
#      x y z
#    x 1.866960 -0.007840 0.028730 
#    y -0.007840 1.940080 -0.014180 
#    z 0.028730 -0.014180 1.961940 
# 
# From -- ./inp_files/68789.got.cif
#   From: 2010.05.17/outbox.cif.g08.bks.cpg/sg2_35_cif.got.tgz:68789.got - 2010.06.03 11:33:40.
