data_PCOD9065497
_publ_section_title
;
Structure prediction by ZEFSAII (Michael W. Deem and Ramdas Pophale) SiO2 
 PCOD9065497
Probable space group: P -1
;
_chemical_formula_sum "Si O2"
_cell_formula_units_Z 10
_cell_length_a 11.261972
_cell_length_b 5.684216
_cell_length_c 11.897651
_cell_angle_alpha 90.324494
_cell_angle_beta 146.344675
_cell_angle_gamma 97.689543
_cell_volume 408.689645
_symmetry_space_group_name_H-M "P -1"
_symmetry_group_IT_number 2
_symmetry_cell_setting 'triclinic'
loop_
_space_group_symop_operation_xyz
x,y,z
-x,-y,-z
loop_
_atom_site_type_symbol
_atom_site_label
_atom_site_fract_x
_atom_site_fract_y
_atom_site_fract_z
Si Si1 0.718494 0.173803 0.231658
Si Si2 0.023901 0.177009 0.911314
Si Si3 0.607200 0.279354 0.551902
Si Si4 0.132506 0.104431 0.442883
Si Si5 0.475221 0.571089 0.742979
O O1 0.623256 0.384649 0.213653
O O2 0.929579 0.229046 0.315210
O O3 0.823266 0.059730 0.419197
O O4 0.500000 0.000000 0.000000
O O5 0.853015 0.341846 0.793332
O O6 0.264172 0.335627 0.066474
O O7 0.939543 0.016472 0.733618
O O8 0.000000 0.000000 0.000000
O O9 0.500000 0.500000 0.500000
O O10 0.611420 0.277543 0.420628
O O11 0.500000 0.000000 0.500000
O O12 0.367452 0.297977 0.622459
#
# Coordination Sequence:
#
# PCOD9065497 Si02
#       5
#     2   2   2   2   2
#     4  11  24  48  77 108 155 205 263 332 391 475
#     4  12  26  49  79 117 157 206 267 326 402 481
#     4  12  27  51  76 114 163 213 266 331 399 485
#     4  11  26  48  73 112 158 202 265 326 397 475
#     4  12  26  46  78 110 157 206 266 323 405 469
#
# _framework density 24.468440999999999
#
# number of rings (size 3 to 8) (size 9 to 14) (size 15 to 20)
#    0.000    0.400    6.000    1.800    0.000    3.200 
#    3.600    0.000    0.000    0.000    0.000    0.000 
#    0.000    0.000    0.000    0.000    0.000    0.000 
#
# Total GULP energy -55889.586656 kJ/mol
# GULP energy per Si atom -5588.958666 kJ/mol
# Density = 2.441275 g / cm^3
# Si number density = 24.468441 Si / 1000 Ang^3
#
#
#
# Elastic Constant Matrix: (Units=GPa)
#
#
# Indices 1 2 3 4 5 6 
#
# 1 133.9293 51.4495 68.4637 -0.0603 11.1114 -19.3138
# 2 51.4495 82.2206 43.8641 7.9838 10.0846 -12.0168
# 3 68.4637 43.8641 181.9874 17.0401 14.7937 -23.1635
# 4 -0.0603 7.9838 17.0401 53.0321 -3.7471 4.6489
# 5 11.1114 10.0846 14.7937 -3.7471 58.2525 -6.6486
# 6 -19.3138 -12.0168 -23.1635 4.6489 -6.6486 28.1872
#
#
#
# Elastic Compliance Matrix: (Units=1/GPa)
#
#
# Indices 1 2 3 4 5 6 
#
# 1 0.011353 -0.005334 -0.002727 0.001421 -0.000115 0.003003
# 2 -0.005334 0.017045 -0.001440 -0.002429 -0.001440 0.002489
# 3 -0.002727 -0.001440 0.007712 -0.002686 -0.000895 0.004087
# 4 0.001421 -0.002429 -0.002686 0.020662 0.001555 -0.005310
# 5 -0.000115 -0.001440 -0.000895 0.001555 0.018059 0.002575
# 6 0.003003 0.002489 0.004087 -0.005310 0.002575 0.043437
#
#
# Mechanical properties :
#
#
# Convention : Reuss Voigt Hill
#
# Bulk Modulus (GPa) = 58.45352 80.63242 69.54297
# Shear Modulus (GPa) = 34.97134 43.51837 39.24486
#
# Velocity S-wave (km/s) = 3.78463 4.22186 4.00921
# Velocity P-wave (km/s) = 6.56042 7.53596 7.06505
#
# Compressibility (1/GPa) = 0.01710761
#
# Stress axis : x y z
#
# Youngs Moduli (GPa) = 88.08286 58.66831 129.66265
#
# Poissons Ratio (x) = 0.31296 0.35355
# Poissons Ratio (y) = 0.46987 0.18674
# Poissons Ratio (z) = 0.24018 0.08450
#
# Static dielectric constant tensor:
#      x y z
#    x 2.079650 -0.061220 -0.013960 
#    y -0.061220 1.983280 -0.031890 
#    z -0.013960 -0.031890 1.949520 
# 
# From -- ./inp_files/73118.got.cif
#   From: 2010.05.17/outbox.cif.g08.bks.cpg/sg2_37_cif.got.tgz:73118.got - 2010.06.03 11:33:40.
