data_PCOD9065524
_publ_section_title
;
Structure prediction by ZEFSAII (Michael W. Deem and Ramdas Pophale) SiO2 
 PCOD9065524
Probable space group: P -1
;
_chemical_formula_sum "Si O2"
_cell_formula_units_Z 12
_cell_length_a 5.270827
_cell_length_b 11.894978
_cell_length_c 11.535855
_cell_angle_alpha 127.886865
_cell_angle_beta 54.848777
_cell_angle_gamma 103.404006
_cell_volume 458.334247
_symmetry_space_group_name_H-M "P -1"
_symmetry_group_IT_number 2
_symmetry_cell_setting 'triclinic'
loop_
_space_group_symop_operation_xyz
x,y,z
-x,-y,-z
loop_
_atom_site_type_symbol
_atom_site_label
_atom_site_fract_x
_atom_site_fract_y
_atom_site_fract_z
Si Si1 0.398556 0.063879 0.193310
Si Si2 0.791993 0.297017 0.734599
Si Si3 0.748496 0.780537 0.047868
Si Si4 0.136295 0.063116 0.656924
Si Si5 0.618162 0.361993 0.301745
Si Si6 0.282977 0.452107 0.802481
O O1 0.457906 0.225773 0.286433
O O2 0.043362 0.054477 0.314549
O O3 0.598279 0.941689 0.146409
O O4 0.500000 0.000000 0.000000
O O5 0.510214 0.319053 0.920388
O O6 0.970369 0.140368 0.634375
O O7 0.576764 0.339038 0.705385
O O8 0.074357 0.384587 0.720280
O O9 0.888478 0.813798 0.157822
O O10 0.008551 0.707245 0.842654
O O11 0.500000 0.000000 0.500000
O O12 0.500000 0.500000 0.500000
O O13 0.578160 0.422925 0.219670
O O14 0.000000 0.500000 0.000000
#
# Coordination Sequence:
#
# PCOD9065524 Si02
#       6
#     2   2   2   2   2   2
#     4  11  26  50  86 114 166 227 281 347 432 509
#     4  11  24  48  80 117 161 215 283 349 425 493
#     4  11  24  50  82 115 166 217 284 354 422 501
#     4  11  25  48  87 123 159 215 298 355 417 502
#     4  12  28  50  79 125 171 224 279 349 433 516
#     4  12  25  47  81 113 169 221 276 341 428 508
#
# _framework density 26.181764999999999
#
# number of rings (size 3 to 8) (size 9 to 14) (size 15 to 20)
#    0.000    0.667    5.000    1.000    2.333    5.333 
#    0.000    1.667    0.000    0.000    0.000    0.000 
#    0.000    0.000    0.000    0.000    0.000    0.000 
#
# Total GULP energy -67157.961662 kJ/mol
# GULP energy per Si atom -5596.496805 kJ/mol
# Density = 2.612217 g / cm^3
# Si number density = 26.181765 Si / 1000 Ang^3
#
#
#
# Elastic Constant Matrix: (Units=GPa)
#
#
# Indices 1 2 3 4 5 6 
#
# 1 163.6740 76.7429 50.2847 2.4131 -32.9420 -2.3180
# 2 76.7429 204.5983 52.1465 1.3413 -25.8341 6.2680
# 3 50.2847 52.1465 177.0925 4.5083 -26.7498 7.2616
# 4 2.4131 1.3413 4.5083 41.8725 -0.3691 -8.9056
# 5 -32.9420 -25.8341 -26.7498 -0.3691 46.7749 -5.3331
# 6 -2.3180 6.2680 7.2616 -8.9056 -5.3331 46.0193
#
#
#
# Elastic Compliance Matrix: (Units=1/GPa)
#
#
# Indices 1 2 3 4 5 6 
#
# 1 0.008430 -0.002398 -0.001123 0.000050 0.004132 0.001417
# 2 -0.002398 0.006190 -0.000943 -0.000099 0.001110 -0.000706
# 3 -0.001123 -0.000943 0.006660 -0.000782 0.002394 -0.000853
# 4 0.000050 -0.000099 -0.000782 0.025037 0.000303 0.005020
# 5 0.004132 0.001110 0.002394 0.000303 0.026595 0.002820
# 6 0.001417 -0.000706 -0.000853 0.005020 0.002820 0.023330
#
#
# Mechanical properties :
#
#
# Convention : Reuss Voigt Hill
#
# Bulk Modulus (GPa) = 80.95362 100.41255 90.68309
# Shear Modulus (GPa) = 45.75175 51.34605 48.54890
#
# Velocity S-wave (km/s) = 4.18481 4.43328 4.31083
# Velocity P-wave (km/s) = 7.37137 8.03994 7.71290
#
# Compressibility (1/GPa) = 0.01235275
#
# Stress axis : x y z
#
# Youngs Moduli (GPa) = 118.62434 161.56015 150.15864
#
# Poissons Ratio (x) = 0.38739 0.16859
# Poissons Ratio (y) = 0.28443 0.14156
# Poissons Ratio (z) = 0.13319 0.15230
#
# Static dielectric constant tensor:
#      x y z
#    x 2.142610 -0.000390 0.107160 
#    y -0.000390 2.073440 0.084980 
#    z 0.107160 0.084980 2.177630 
# 
# From -- ./inp_files/365348.got.cif
#   From: 2010.05.17/outbox.cif.g08.bks.cpg/sg2_183_cif.got.tgz:365348.got - 2010.06.03 11:33:40.
