data_PCOD9065354
_publ_section_title
;
Structure prediction by ZEFSAII (Michael W. Deem and Ramdas Pophale) SiO2 
 PCOD9065354
Probable space group: P -1
;
_chemical_formula_sum "Si O2"
_cell_formula_units_Z 14
_cell_length_a 11.288956
_cell_length_b 10.287675
_cell_length_c 11.219414
_cell_angle_alpha 57.746627
_cell_angle_beta 140.726912
_cell_angle_gamma 129.887802
_cell_volume 631.021358
_symmetry_space_group_name_H-M "P -1"
_symmetry_group_IT_number 2
_symmetry_cell_setting 'triclinic'
loop_
_space_group_symop_operation_xyz
x,y,z
-x,-y,-z
loop_
_atom_site_type_symbol
_atom_site_label
_atom_site_fract_x
_atom_site_fract_y
_atom_site_fract_z
Si Si1 0.511913 0.020425 0.358634
Si Si2 0.106412 0.664796 0.583907
Si Si3 0.853474 0.581463 0.104664
Si Si4 0.524903 0.433123 0.732825
Si Si5 0.130959 0.125789 0.647009
Si Si6 0.863108 0.907788 0.056832
Si Si7 0.303275 0.638142 0.327503
O O1 0.732120 0.170618 0.434429
O O2 0.500000 0.000000 0.500000
O O3 0.464945 0.835317 0.363190
O O4 0.347743 0.079145 0.144710
O O5 0.213896 0.601861 0.799645
O O6 0.000000 0.500000 0.500000
O O7 0.946227 0.726214 0.482832
O O8 0.860264 0.722338 0.135081
O O9 0.081691 0.626924 0.204874
O O10 0.671314 0.559126 0.884071
O O11 0.373754 0.241315 0.751426
O O12 0.392217 0.526048 0.527230
O O13 0.687072 0.420653 0.770017
O O14 0.091244 0.042436 0.790877
O O15 0.000000 0.000000 0.500000
O O16 0.000000 0.000000 0.000000
#
# Coordination Sequence:
#
# PCOD9065354 Si02
#       7
#     2   2   2   2   2   2   2
#     4  12  25  43  72 106 149 191 251 312 371 445
#     4  12  25  45  72 103 150 196 245 307 374 437
#     4  12  24  46  76 106 144 193 253 306 373 450
#     4  11  26  45  76 106 147 201 246 303 384 446
#     4  12  27  48  73 110 157 197 250 311 377 450
#     4  12  26  45  75 110 145 196 252 308 376 450
#     4  11  24  48  70 109 151 194 245 308 375 449
#
# _framework density 22.186254999999999
#
# number of rings (size 3 to 8) (size 9 to 14) (size 15 to 20)
#    0.000    0.286    4.286    4.714    2.000    4.571 
#    0.000    2.857    0.000    0.000    0.000    0.000 
#    0.000    0.000    0.000    0.000    0.000    0.000 
#
# Total GULP energy -78161.833599 kJ/mol
# GULP energy per Si atom -5582.988114 kJ/mol
# Density = 2.213576 g / cm^3
# Si number density = 22.186255 Si / 1000 Ang^3
#
#
#
# Elastic Constant Matrix: (Units=GPa)
#
#
# Indices 1 2 3 4 5 6 
#
# 1 95.0879 41.0133 32.8955 9.6964 -13.9592 3.3435
# 2 41.0133 100.9153 7.5852 12.8569 -7.2313 7.9445
# 3 32.8955 7.5852 77.9772 12.3500 -21.7046 -3.9503
# 4 9.6964 12.8569 12.3500 42.4302 -1.7807 -3.9588
# 5 -13.9592 -7.2313 -21.7046 -1.7807 25.0545 0.1430
# 6 3.3435 7.9445 -3.9503 -3.9588 0.1430 45.5284
#
#
#
# Elastic Compliance Matrix: (Units=1/GPa)
#
#
# Indices 1 2 3 4 5 6 
#
# 1 0.015056 -0.005486 -0.005168 -0.000235 0.002315 -0.000625
# 2 -0.005486 0.012711 0.002123 -0.003302 0.002228 -0.001925
# 3 -0.005168 0.002123 0.019561 -0.004434 0.014357 0.001276
# 4 -0.000235 -0.003302 -0.004434 0.026015 -0.003091 0.002480
# 5 0.002315 0.002228 0.014357 -0.003091 0.054062 0.000248
# 6 -0.000625 -0.001925 0.001276 0.002480 0.000248 0.022672
#
#
# Mechanical properties :
#
#
# Convention : Reuss Voigt Hill
#
# Bulk Modulus (GPa) = 33.03832 48.55205 40.79518
# Shear Modulus (GPa) = 28.21247 35.43505 31.82376
#
# Velocity S-wave (km/s) = 3.56985 4.00079 3.79144
# Velocity P-wave (km/s) = 5.64937 6.57823 6.13141
#
# Compressibility (1/GPa) = 0.03026788
#
# Stress axis : x y z
#
# Youngs Moduli (GPa) = 66.41727 78.67192 51.12231
#
# Poissons Ratio (x) = 0.43156 0.26420
# Poissons Ratio (y) = 0.36434 -0.10855
# Poissons Ratio (z) = 0.34324 -0.16705
#
# Static dielectric constant tensor:
#      x y z
#    x 1.871370 0.062250 -0.049880 
#    y 0.062250 1.855340 0.088590 
#    z -0.049880 0.088590 1.906130 
# 
# From -- ./inp_files/199999.got.cif
#   From: 2010.05.17/outbox.cif.g08.bks.cpg/sg2_100_cif.got.tgz:199999.got - 2010.06.03 11:33:40.
