data_PCOD9065167
_publ_section_title
;
Structure prediction by ZEFSAII (Michael W. Deem and Ramdas Pophale) SiO2 
 PCOD9065167
Probable space group: P -1
;
_chemical_formula_sum "Si O2"
_cell_formula_units_Z 10
_cell_length_a 11.222050
_cell_length_b 13.288704
_cell_length_c 14.542408
_cell_angle_alpha 20.917281
_cell_angle_beta 33.299233
_cell_angle_gamma 32.236661
_cell_volume 400.929164
_symmetry_space_group_name_H-M "P -1"
_symmetry_group_IT_number 2
_symmetry_cell_setting 'triclinic'
loop_
_space_group_symop_operation_xyz
x,y,z
-x,-y,-z
loop_
_atom_site_type_symbol
_atom_site_label
_atom_site_fract_x
_atom_site_fract_y
_atom_site_fract_z
Si Si1 0.108212 0.755321 0.717949
Si Si2 0.742352 0.707504 0.511089
Si Si3 0.089288 0.230572 0.454371
Si Si4 0.570562 0.648003 0.418977
Si Si5 0.492790 0.792946 0.913837
O O1 0.000000 0.000000 0.500000
O O2 0.054964 0.927607 0.701001
O O3 0.000000 0.500000 0.000000
O O4 0.247769 0.298598 0.214301
O O5 0.000000 0.500000 0.500000
O O6 0.765883 0.816010 0.506202
O O7 0.656518 0.972702 0.266703
O O8 0.592966 0.488050 0.791074
O O9 0.836666 0.472107 0.418447
O O10 0.500000 0.500000 0.500000
O O11 0.538626 0.001982 0.148649
O O12 0.379456 0.628382 0.631913
#
# Coordination Sequence:
#
# PCOD9065167 Si02
#       5
#     2   2   2   2   2
#     4  11  26  47  68 102 142 182 232 285 343 413
#     4  12  25  48  74 105 141 183 236 290 351 414
#     4  11  25  46  75 103 142 189 229 292 351 414
#     4  11  24  47  73 106 141 188 235 286 348 419
#     4  11  27  48  71 106 142 183 234 291 348 417
#
# _framework density 24.942062
#
# number of rings (size 3 to 8) (size 9 to 14) (size 15 to 20)
#    0.000    0.800    4.000    1.800    0.000   10.400 
#    0.000    0.000    0.000    0.000    0.000    0.000 
#    0.000    0.000    0.000    0.000    0.000    0.000 
#
# Total GULP energy -56048.558260 kJ/mol
# GULP energy per Si atom -5604.855826 kJ/mol
# Density = 2.488529 g / cm^3
# Si number density = 24.942062 Si / 1000 Ang^3
#
#
#
# Elastic Constant Matrix: (Units=GPa)
#
#
# Indices 1 2 3 4 5 6 
#
# 1 174.6924 57.2734 67.4295 -18.1980 3.2678 16.1678
# 2 57.2734 144.6060 22.4974 -18.1921 -2.1746 2.8003
# 3 67.4295 22.4974 138.7174 -34.5789 -2.2096 10.1746
# 4 -18.1980 -18.1921 -34.5789 21.8667 0.6852 -15.6003
# 5 3.2678 -2.1746 -2.2096 0.6852 47.9325 -8.6441
# 6 16.1678 2.8003 10.1746 -15.6003 -8.6441 90.4328
#
#
#
# Elastic Compliance Matrix: (Units=1/GPa)
#
#
# Indices 1 2 3 4 5 6 
#
# 1 0.008153 -0.003000 -0.004266 -0.003569 -0.001128 -0.001608
# 2 -0.003000 0.008967 0.002371 0.009968 0.000902 0.001798
# 3 -0.004266 0.002371 0.014623 0.023848 0.001324 0.003285
# 4 -0.003569 0.009968 0.023848 0.099439 0.003096 0.015096
# 5 -0.001128 0.000902 0.001324 0.003096 0.021468 0.002611
# 6 -0.001608 0.001798 0.003285 0.015096 0.002611 0.013774
#
#
# Mechanical properties :
#
#
# Convention : Reuss Voigt Hill
#
# Bulk Modulus (GPa) = 45.55196 83.60183 64.57689
# Shear Modulus (GPa) = 27.24314 52.76744 40.00529
#
# Velocity S-wave (km/s) = 3.30852 4.60456 4.00925
# Velocity P-wave (km/s) = 5.73566 7.86514 6.88325
#
# Compressibility (1/GPa) = 0.02195295
#
# Stress axis : x y z
#
# Youngs Moduli (GPa) = 122.65768 111.51463 68.38508
#
# Poissons Ratio (x) = 0.33456 0.29174
# Poissons Ratio (y) = 0.36799 -0.16216
# Poissons Ratio (z) = 0.52328 -0.26443
#
# Static dielectric constant tensor:
#      x y z
#    x 2.017000 0.052930 0.040840 
#    y 0.052930 2.007690 -0.002170 
#    z 0.040840 -0.002170 1.979760 
# 
# From -- ./inp_files/485.got.cif
#   From: 2010.05.17/outbox.cif.g08.bks.cpg/sg2_1_cif.got.tgz:485.got - 2010.06.03 11:33:40.
