data_PCOD9065177
_publ_section_title
;
Structure prediction by ZEFSAII (Michael W. Deem and Ramdas Pophale) SiO2 
 PCOD9065177
Probable space group: P -1
;
_chemical_formula_sum "Si O2"
_cell_formula_units_Z 14
_cell_length_a 11.396291
_cell_length_b 5.433176
_cell_length_c 14.747848
_cell_angle_alpha 118.859012
_cell_angle_beta 124.820432
_cell_angle_gamma 56.888964
_cell_volume 608.256002
_symmetry_space_group_name_H-M "P -1"
_symmetry_group_IT_number 2
_symmetry_cell_setting 'triclinic'
loop_
_space_group_symop_operation_xyz
x,y,z
-x,-y,-z
loop_
_atom_site_type_symbol
_atom_site_label
_atom_site_fract_x
_atom_site_fract_y
_atom_site_fract_z
Si Si1 0.657357 0.921940 0.111440
Si Si2 0.875145 0.257713 0.547731
Si Si3 0.099011 0.588826 0.763168
Si Si4 0.966146 0.768151 0.104020
Si Si5 0.263087 0.646025 0.322496
Si Si6 0.445593 0.987702 0.370433
Si Si7 0.295959 0.548476 0.674654
O O1 0.738161 0.630793 0.160208
O O2 0.798228 0.854731 0.090448
O O3 0.635795 0.208502 0.217059
O O4 0.500000 0.000000 0.000000
O O5 0.796341 0.150874 0.576843
O O6 0.749998 0.417932 0.444846
O O7 0.968357 0.451682 0.665286
O O8 0.000000 0.000000 0.500000
O O9 0.147912 0.629865 0.689054
O O10 0.037273 0.890542 0.851236
O O11 0.110517 0.630078 0.209386
O O12 0.000000 0.500000 0.000000
O O13 0.336772 0.797531 0.307995
O O14 0.368489 0.320255 0.352123
O O15 0.579124 0.789138 0.325838
O O16 0.500000 0.000000 0.500000
#
# Coordination Sequence:
#
# PCOD9065177 Si02
#       7
#     2   2   2   2   2   2   2
#     4  11  26  47  71 109 144 190 258 310 373 457
#     4  12  22  43  77 106 148 191 248 311 381 456
#     4  11  24  47  73 108 146 190 258 310 381 453
#     4  11  27  48  74 105 141 202 252 317 378 446
#     4  12  27  48  71 112 149 194 259 308 371 467
#     4  12  28  44  72 109 156 199 243 306 385 456
#     4  11  26  42  72 107 147 202 237 309 384 449
#
# _framework density 23.016625000000001
#
# number of rings (size 3 to 8) (size 9 to 14) (size 15 to 20)
#    0.000    0.571    4.286    2.571    6.000    4.000 
#    0.000    0.000    0.000    0.000    0.000    0.000 
#    0.000    0.000    0.000    0.000    0.000    0.000 
#
# Total GULP energy -78152.234499 kJ/mol
# GULP energy per Si atom -5582.302464 kJ/mol
# Density = 2.296424 g / cm^3
# Si number density = 23.016625 Si / 1000 Ang^3
#
#
#
# Elastic Constant Matrix: (Units=GPa)
#
#
# Indices 1 2 3 4 5 6 
#
# 1 54.8410 0.8322 23.6755 18.7837 7.1543 -5.3899
# 2 0.8322 130.0332 41.4890 20.2477 -1.0935 -31.4224
# 3 23.6755 41.4890 134.2292 5.1076 13.0902 -9.6573
# 4 18.7837 20.2477 5.1076 46.3718 -9.8862 -4.9657
# 5 7.1543 -1.0935 13.0902 -9.8862 23.5730 -0.6694
# 6 -5.3899 -31.4224 -9.6573 -4.9657 -0.6694 37.4793
#
#
#
# Elastic Compliance Matrix: (Units=1/GPa)
#
#
# Indices 1 2 3 4 5 6 
#
# 1 0.026726 0.004285 -0.004065 -0.014242 -0.011506 0.004296
# 2 0.004285 0.011785 -0.003445 -0.005773 -0.001011 0.008826
# 3 -0.004065 -0.003445 0.009480 0.001217 -0.003707 -0.000936
# 4 -0.014242 -0.005773 0.001217 0.033198 0.017249 -0.001868
# 5 -0.011506 -0.001011 -0.003707 0.017249 0.055153 -0.000187
# 6 0.004296 0.008826 -0.000936 -0.001868 -0.000187 0.034207
#
#
# Mechanical properties :
#
#
# Convention : Reuss Voigt Hill
#
# Bulk Modulus (GPa) = 24.07323 50.12187 37.09755
# Shear Modulus (GPa) = 26.19896 38.35859 32.27878
#
# Velocity S-wave (km/s) = 3.37747 4.08678 3.74894
# Velocity P-wave (km/s) = 5.06868 6.64023 5.90696
#
# Compressibility (1/GPa) = 0.04153992
#
# Stress axis : x y z
#
# Youngs Moduli (GPa) = 37.41700 84.85035 105.48785
#
# Poissons Ratio (x) = -0.36359 0.42884
# Poissons Ratio (y) = -0.16033 0.36344
# Poissons Ratio (z) = 0.15211 0.29234
#
# Static dielectric constant tensor:
#      x y z
#    x 1.950390 0.042090 0.032120 
#    y 0.042090 2.029680 -0.043500 
#    z 0.032120 -0.043500 1.853320 
# 
# From -- ./inp_files/410679.got.cif
#   From: 2010.05.17/outbox.cif.g08.bks.cpg/sg2_206_cif.got.tgz:410679.got - 2010.06.03 11:33:40.
