data_PCOD9065526
_publ_section_title
;
Structure prediction by ZEFSAII (Michael W. Deem and Ramdas Pophale) SiO2 
 PCOD9065526
Probable space group: P -1
;
_chemical_formula_sum "Si O2"
_cell_formula_units_Z 15
_cell_length_a 11.471363
_cell_length_b 10.067063
_cell_length_c 11.071545
_cell_angle_alpha 78.530264
_cell_angle_beta 140.759022
_cell_angle_gamma 127.766676
_cell_volume 533.599420
_symmetry_space_group_name_H-M "P -1"
_symmetry_group_IT_number 2
_symmetry_cell_setting 'triclinic'
loop_
_space_group_symop_operation_xyz
x,y,z
-x,-y,-z
loop_
_atom_site_type_symbol
_atom_site_label
_atom_site_fract_x
_atom_site_fract_y
_atom_site_fract_z
Si Si1 0.215781 0.777618 0.098855
Si Si2 0.145951 0.077591 0.730059
Si Si3 0.586502 0.516207 0.211349
Si Si4 0.347411 0.768284 0.687728
Si Si5 0.301472 0.476684 0.434022
Si Si6 0.015319 0.687487 0.218130
Si Si7 0.500000 0.000000 0.000000
Si Si8 0.667250 0.872893 0.545843
O O1 0.069113 0.670215 0.127122
O O2 0.450641 0.790211 0.280186
O O3 0.378939 0.008184 0.184887
O O4 0.997744 0.661575 0.837134
O O5 0.927502 0.938250 0.687960
O O6 0.353949 0.066963 0.887934
O O7 0.000000 0.000000 0.500000
O O8 0.262122 0.295106 0.788752
O O9 0.597037 0.360577 0.219624
O O10 0.712458 0.589540 0.433474
O O11 0.290724 0.424301 0.008069
O O12 0.106768 0.646559 0.414221
O O13 0.293454 0.838015 0.747006
O O14 0.500000 0.500000 0.500000
O O15 0.493124 0.713940 0.542408
O O16 0.217009 0.923658 0.352712
#
# Coordination Sequence:
#
# PCOD9065526 Si02
#       8
#     2   2   2   2   2   2   1   2
#     4  11  24  48  81 122 170 222 278 352 425 507
#     4  12  29  54  83 122 172 223 281 344 429 504
#     4  12  28  51  86 129 170 221 280 356 421 512
#     4  11  27  51  84 123 165 223 283 353 427 502
#     4  12  25  44  80 128 167 221 286 342 426 506
#     4  11  24  48  80 121 171 213 281 348 434 498
#     4  12  30  54  86 112 168 228 284 342 418 510
#     4  11  25  48  79 114 166 225 280 348 417 505
#
# _framework density 28.110973999999999
#
# number of rings (size 3 to 8) (size 9 to 14) (size 15 to 20)
#    0.000    0.533    1.333    6.800    5.600    4.267 
#    2.400    5.333    2.933    0.000    0.000    0.000 
#    0.000    0.000    0.000    0.000    0.000    0.000 
#
# Total GULP energy -83856.162280 kJ/mol
# GULP energy per Si atom -5590.410819 kJ/mol
# Density = 2.804699 g / cm^3
# Si number density = 28.110974 Si / 1000 Ang^3
#
#
#
# Elastic Constant Matrix: (Units=GPa)
#
#
# Indices 1 2 3 4 5 6 
#
# 1 143.0725 54.8352 61.7917 -19.3979 -5.4896 -9.3553
# 2 54.8352 162.1818 55.6135 -6.6721 13.8114 -12.3258
# 3 61.7917 55.6135 186.6624 -37.7375 4.6046 3.8176
# 4 -19.3979 -6.6721 -37.7375 56.2031 -0.2590 2.9912
# 5 -5.4896 13.8114 4.6046 -0.2590 49.0076 0.5674
# 6 -9.3553 -12.3258 3.8176 2.9912 0.5674 56.8596
#
#
#
# Elastic Compliance Matrix: (Units=1/GPa)
#
#
# Indices 1 2 3 4 5 6 
#
# 1 0.009146 -0.002399 -0.002094 0.001420 0.001893 0.001032
# 2 -0.002399 0.007843 -0.001751 -0.001164 -0.002338 0.001508
# 3 -0.002094 -0.001751 0.007450 0.004146 -0.000402 -0.001438
# 4 0.001420 -0.001164 0.004146 0.021004 0.000225 -0.001404
# 5 0.001893 -0.002338 -0.000402 0.000225 0.021319 -0.000393
# 6 0.001032 0.001508 -0.001438 -0.001404 -0.000393 0.018258
#
#
# Mechanical properties :
#
#
# Convention : Reuss Voigt Hill
#
# Bulk Modulus (GPa) = 83.67040 92.93307 88.30173
# Shear Modulus (GPa) = 49.26541 53.72582 51.49561
#
# Velocity S-wave (km/s) = 4.19087 4.37648 4.28468
# Velocity P-wave (km/s) = 7.29704 7.65958 7.48051
#
# Compressibility (1/GPa) = 0.01195166
#
# Stress axis : x y z
#
# Youngs Moduli (GPa) = 109.34235 127.49825 134.23457
#
# Poissons Ratio (x) = 0.30582 0.28103
# Poissons Ratio (y) = 0.26227 0.23506
# Poissons Ratio (z) = 0.22892 0.22327
#
# Static dielectric constant tensor:
#      x y z
#    x 2.241070 -0.048170 0.044350 
#    y -0.048170 2.324190 0.033830 
#    z 0.044350 0.033830 2.390770 
# 
# From -- ./inp_files/290674.got.cif
#   From: 2010.05.17/outbox.cif.g08.bks.cpg/sg2_146_cif.got.tgz:290674.got - 2010.06.03 11:33:40.
