data_PCOD9065282
_publ_section_title
;
Structure prediction by ZEFSAII (Michael W. Deem and Ramdas Pophale) SiO2 
 PCOD9065282
Probable space group: P -1
;
_chemical_formula_sum "Si O2"
_cell_formula_units_Z 13
_cell_length_a 8.483873
_cell_length_b 11.663516
_cell_length_c 6.622986
_cell_angle_alpha 84.146068
_cell_angle_beta 105.432482
_cell_angle_gamma 57.155645
_cell_volume 505.599654
_symmetry_space_group_name_H-M "P -1"
_symmetry_group_IT_number 2
_symmetry_cell_setting 'triclinic'
loop_
_space_group_symop_operation_xyz
x,y,z
-x,-y,-z
loop_
_atom_site_type_symbol
_atom_site_label
_atom_site_fract_x
_atom_site_fract_y
_atom_site_fract_z
Si Si1 0.688033 0.887235 0.944763
Si Si2 0.345986 0.666084 0.451047
Si Si3 0.274410 0.306647 0.681821
Si Si4 0.092556 0.814886 0.948991
Si Si5 0.444896 0.860560 0.535852
Si Si6 0.000000 0.000000 0.500000
Si Si7 0.880733 0.389957 0.321375
O O1 0.592922 0.878050 0.709213
O O2 0.868863 0.898735 0.956094
O O3 0.780383 0.741877 0.129767
O O4 0.500000 0.000000 0.000000
O O5 0.500000 0.500000 0.500000
O O6 0.460592 0.716441 0.606604
O O7 0.160351 0.694887 0.515172
O O8 0.247156 0.757914 0.198646
O O9 0.473230 0.174902 0.659891
O O10 0.276728 0.439967 0.721558
O O11 0.095869 0.358287 0.449067
O O12 0.129289 0.674716 0.878721
O O13 0.107146 0.906782 0.766396
O O14 0.212501 0.976754 0.502654
#
# Coordination Sequence:
#
# PCOD9065282 Si02
#       7
#     2   2   2   2   2   1   2
#     4  12  29  49  80 110 153 212 260 317 380 461
#     4  12  27  49  79 116 160 203 250 325 403 450
#     4  11  25  46  78 116 148 203 258 317 386 464
#     4  12  28  51  79 110 161 205 257 321 383 465
#     4  12  28  47  77 113 154 200 263 314 380 469
#     4  12  30  48  76 110 158 206 254 314 390 452
#     4  11  24  47  77 112 158 198 259 316 390 462
#
# _framework density 25.712040999999999
#
# number of rings (size 3 to 8) (size 9 to 14) (size 15 to 20)
#    0.000    0.308    6.154    0.923    8.615    3.077 
#    0.000    0.000    0.000    0.000    0.000    0.000 
#    0.000    0.000    0.000    0.000    0.000    0.000 
#
# Total GULP energy -72498.779387 kJ/mol
# GULP energy per Si atom -5576.829184 kJ/mol
# Density = 2.565352 g / cm^3
# Si number density = 25.712041 Si / 1000 Ang^3
#
#
#
# Elastic Constant Matrix: (Units=GPa)
#
#
# Indices 1 2 3 4 5 6 
#
# 1 127.6734 28.1836 44.6009 -1.0718 -17.9487 -15.3999
# 2 28.1836 96.2204 53.0870 24.4584 1.2692 -5.4875
# 3 44.6009 53.0870 100.0455 -2.6990 -18.6955 -6.6098
# 4 -1.0718 24.4584 -2.6990 41.3332 10.1172 0.4616
# 5 -17.9487 1.2692 -18.6955 10.1172 56.2167 -2.5066
# 6 -15.3999 -5.4875 -6.6098 0.4616 -2.5066 45.4887
#
#
#
# Elastic Compliance Matrix: (Units=1/GPa)
#
#
# Indices 1 2 3 4 5 6 
#
# 1 0.009843 -0.000942 -0.003289 0.000029 0.002192 0.002861
# 2 -0.000942 0.019618 -0.010677 -0.011811 -0.002147 0.000498
# 3 -0.003289 -0.010677 0.018086 0.006414 0.004069 0.000386
# 4 0.000029 -0.011811 0.006414 0.032465 -0.003479 -0.001004
# 5 0.002192 -0.002147 0.004069 -0.003479 0.020616 0.002246
# 6 0.002861 0.000498 0.000386 -0.001004 0.002246 0.023202
#
#
# Mechanical properties :
#
#
# Convention : Reuss Voigt Hill
#
# Bulk Modulus (GPa) = 56.39509 63.96471 60.17990
# Shear Modulus (GPa) = 31.33701 41.81225 36.57463
#
# Velocity S-wave (km/s) = 3.49487 4.03696 3.77566
# Velocity P-wave (km/s) = 6.18599 6.83087 6.51641
#
# Compressibility (1/GPa) = 0.01773204
#
# Stress axis : x y z
#
# Youngs Moduli (GPa) = 101.59659 50.97289 55.29140
#
# Poissons Ratio (x) = 0.04800 0.18184
# Poissons Ratio (y) = 0.09567 0.59035
# Poissons Ratio (z) = 0.33413 0.54424
#
# Static dielectric constant tensor:
#      x y z
#    x 1.998200 0.049710 -0.063110 
#    y 0.049710 2.105950 0.019740 
#    z -0.063110 0.019740 1.975180 
# 
# From -- ./inp_files/27966.got.cif
#   From: 2010.05.17/outbox.cif.g08.bks.cpg/sg2_14_cif.got.tgz:27966.got - 2010.06.03 11:33:40.
