data_PCOD9065188
_publ_section_title
;
Structure prediction by ZEFSAII (Michael W. Deem and Ramdas Pophale) SiO2 
 PCOD9065188
Probable space group: P -1
;
_chemical_formula_sum "Si O2"
_cell_formula_units_Z 16
_cell_length_a 5.142349
_cell_length_b 9.711035
_cell_length_c 17.727911
_cell_angle_alpha 115.322602
_cell_angle_beta 72.481411
_cell_angle_gamma 118.408849
_cell_volume 698.541901
_symmetry_space_group_name_H-M "P -1"
_symmetry_group_IT_number 2
_symmetry_cell_setting 'triclinic'
loop_
_space_group_symop_operation_xyz
x,y,z
-x,-y,-z
loop_
_atom_site_type_symbol
_atom_site_label
_atom_site_fract_x
_atom_site_fract_y
_atom_site_fract_z
Si Si1 0.933417 0.898991 0.817323
Si Si2 0.289363 0.917447 0.652823
Si Si3 0.839208 0.227570 0.740282
Si Si4 0.440407 0.897683 0.111008
Si Si5 0.744883 0.391272 0.054012
Si Si6 0.226671 0.115734 0.570955
Si Si7 0.818931 0.566032 0.836667
Si Si8 0.339026 0.616375 0.515295
O O1 0.003273 0.898481 0.722171
O O2 0.869753 0.717923 0.812224
O O3 0.231014 0.026973 0.863595
O O4 0.667553 0.957230 0.865468
O O5 0.338794 0.748829 0.609204
O O6 0.557925 0.066624 0.701777
O O7 0.289132 0.979927 0.582928
O O8 0.805210 0.212987 0.830736
O O9 0.817223 0.399225 0.760710
O O10 0.099874 0.203854 0.666160
O O11 0.424573 0.784503 0.014278
O O12 0.503422 0.469747 0.107323
O O13 0.918490 0.380442 0.111668
O O14 0.000000 0.500000 0.000000
O O15 0.485564 0.266949 0.542174
O O16 0.000000 0.000000 0.500000
O O17 0.500000 0.500000 0.500000
O O18 0.000000 0.500000 0.500000
#
# Coordination Sequence:
#
# PCOD9065188 Si02
#       8
#     2   2   2   2   2   2   2   2
#     4  11  26  46  71 109 146 189 241 305 374 429
#     4  11  26  48  74 103 149 195 249 295 367 454
#     4  11  26  45  76 106 141 200 247 301 361 444
#     4  11  24  47  74 101 147 196 241 297 369 438
#     4  12  26  46  74 108 146 193 251 302 355 439
#     4  12  25  50  79 107 144 201 257 294 368 460
#     4  12  28  45  74 111 148 188 246 309 368 428
#     4  12  29  47  73 112 149 187 239 313 373 424
#
# _framework density 22.904855000000001
#
# number of rings (size 3 to 8) (size 9 to 14) (size 15 to 20)
#    0.000    0.500    3.750    3.000    8.750    3.000 
#    0.000    0.000    0.000    0.000    0.000    0.000 
#    0.000    0.000    0.000    0.000    0.000    0.000 
#
# Total GULP energy -89553.808249 kJ/mol
# GULP energy per Si atom -5597.113016 kJ/mol
# Density = 2.285272 g / cm^3
# Si number density = 22.904855 Si / 1000 Ang^3
#
#
#
# Elastic Constant Matrix: (Units=GPa)
#
#
# Indices 1 2 3 4 5 6 
#
# 1 108.5441 23.8276 25.6235 7.2686 0.6063 -8.4371
# 2 23.8276 111.3196 22.6756 13.0050 2.0821 -1.3812
# 3 25.6235 22.6756 77.7565 13.1664 -2.8215 -2.8046
# 4 7.2686 13.0050 13.1664 32.7347 -3.0228 -13.7747
# 5 0.6063 2.0821 -2.8215 -3.0228 39.7648 4.3423
# 6 -8.4371 -1.3812 -2.8046 -13.7747 4.3423 44.5167
#
#
#
# Elastic Compliance Matrix: (Units=1/GPa)
#
#
# Indices 1 2 3 4 5 6 
#
# 1 0.010394 -0.001624 -0.002946 0.000262 -0.000466 0.001860
# 2 -0.001624 0.010120 -0.001904 -0.003429 -0.000781 -0.001098
# 3 -0.002946 -0.001904 0.015255 -0.005209 0.000980 -0.001364
# 4 0.000262 -0.003429 -0.005209 0.038932 0.001508 0.011515
# 5 -0.000466 -0.000781 0.000980 0.001508 0.025607 -0.002082
# 6 0.001860 -0.001098 -0.001364 0.011515 -0.002082 0.026462
#
#
# Mechanical properties :
#
#
# Convention : Reuss Voigt Hill
#
# Bulk Modulus (GPa) = 43.81537 49.09708 46.45623
# Shear Modulus (GPa) = 33.93857 38.43613 36.18735
#
# Velocity S-wave (km/s) = 3.85349 4.10088 3.97911
# Velocity P-wave (km/s) = 6.24259 6.62606 6.43718
#
# Compressibility (1/GPa) = 0.02282304
#
# Stress axis : x y z
#
# Youngs Moduli (GPa) = 96.20583 98.81472 65.55246
#
# Poissons Ratio (x) = 0.16043 0.19312
# Poissons Ratio (y) = 0.15620 0.12478
# Poissons Ratio (z) = 0.28342 0.18810
#
# Static dielectric constant tensor:
#      x y z
#    x 1.787180 -0.028270 -0.114690 
#    y -0.028270 1.856560 -0.053680 
#    z -0.114690 -0.053680 1.813350 
# 
# From -- ./inp_files/548288.got.cif
#   From: 2010.05.17/outbox.cif.g08.bks.cpg/sg2_275_cif.got.tgz:548288.got - 2010.06.03 11:33:40.
