data_PCOD9065224
_publ_section_title
;
Structure prediction by ZEFSAII (Michael W. Deem and Ramdas Pophale) SiO2 
 PCOD9065224
Probable space group: P -1
;
_chemical_formula_sum "Si O2"
_cell_formula_units_Z 14
_cell_length_a 18.754140
_cell_length_b 7.876496
_cell_length_c 9.405488
_cell_angle_alpha 115.436879
_cell_angle_beta 58.859451
_cell_angle_gamma 148.764443
_cell_volume 616.390049
_symmetry_space_group_name_H-M "P -1"
_symmetry_group_IT_number 2
_symmetry_cell_setting 'triclinic'
loop_
_space_group_symop_operation_xyz
x,y,z
-x,-y,-z
loop_
_atom_site_type_symbol
_atom_site_label
_atom_site_fract_x
_atom_site_fract_y
_atom_site_fract_z
Si Si1 0.417395 0.525429 0.157650
Si Si2 0.757893 0.291590 0.496010
Si Si3 0.074296 0.692040 0.845381
Si Si4 0.210540 0.258188 0.502181
Si Si5 0.745808 0.616500 0.999451
Si Si6 0.921251 0.578849 0.707797
Si Si7 0.435202 0.822376 0.706283
O O1 0.304964 0.292052 0.319412
O O2 0.325402 0.445991 0.095563
O O3 0.530344 0.892290 0.227172
O O4 0.500000 0.500000 0.000000
O O5 0.813388 0.257620 0.304148
O O6 0.822731 0.619799 0.517099
O O7 0.815670 0.321197 0.597259
O O8 0.585987 0.000130 0.576910
O O9 0.959452 0.508823 0.770521
O O10 0.000000 0.500000 0.000000
O O11 0.158162 0.041387 0.908871
O O12 0.314057 0.534022 0.616984
O O13 0.070478 0.912091 0.595082
O O14 0.846442 0.623389 0.869350
O O15 0.619483 0.331142 0.136615
#
# Coordination Sequence:
#
# PCOD9065224 Si02
#       7
#     2   2   2   2   2   2   2
#     4  11  26  44  74 111 142 182 239 300 350 422
#     4  11  25  46  73 104 144 188 237 293 357 426
#     4  12  29  45  72 108 141 186 245 305 350 417
#     4  11  24  47  75 102 146 191 235 286 365 431
#     4  12  26  47  71 106 143 192 236 294 360 424
#     4  12  25  50  70 102 144 195 237 291 361 427
#     4  11  25  49  72 101 148 194 233 284 363 430
#
# _framework density 22.712890999999999
#
# number of rings (size 3 to 8) (size 9 to 14) (size 15 to 20)
#    0.000    0.571    4.286    4.286    8.000    1.714 
#    0.000    0.000    0.000    0.000    0.000    0.000 
#    0.000    0.000    0.000    0.000    0.000    0.000 
#
# Total GULP energy -78471.643480 kJ/mol
# GULP energy per Si atom -5605.117391 kJ/mol
# Density = 2.266120 g / cm^3
# Si number density = 22.712891 Si / 1000 Ang^3
#
#
#
# Elastic Constant Matrix: (Units=GPa)
#
#
# Indices 1 2 3 4 5 6 
#
# 1 91.3534 13.6569 51.7360 -9.2690 -2.1963 15.2603
# 2 13.6569 55.6859 18.8399 -2.6691 -1.5467 10.0010
# 3 51.7360 18.8399 182.0745 -11.7391 -26.8410 -6.1710
# 4 -9.2690 -2.6691 -11.7391 34.3403 -0.4475 9.8956
# 5 -2.1963 -1.5467 -26.8410 -0.4475 60.4871 3.2466
# 6 15.2603 10.0010 -6.1710 9.8956 3.2466 24.3659
#
#
#
# Elastic Compliance Matrix: (Units=1/GPa)
#
#
# Indices 1 2 3 4 5 6 
#
# 1 0.016900 0.000548 -0.005011 0.007173 -0.000743 -0.014892
# 2 0.000548 0.020858 -0.002407 0.004184 0.000119 -0.011229
# 3 -0.005011 -0.002407 0.007754 -0.000562 0.002875 0.005935
# 4 0.007173 0.004184 -0.000562 0.037487 0.001565 -0.021785
# 5 -0.000743 0.000119 0.002875 0.001565 0.017896 -0.001875
# 6 -0.014892 -0.011229 0.005935 -0.021785 -0.001875 0.065577
#
#
# Mechanical properties :
#
#
# Convention : Reuss Voigt Hill
#
# Bulk Modulus (GPa) = 31.47370 55.28661 43.38016
# Shear Modulus (GPa) = 26.20493 40.16407 33.18450
#
# Velocity S-wave (km/s) = 3.40037 4.20972 3.82651
# Velocity P-wave (km/s) = 5.41331 6.92989 6.21801
#
# Compressibility (1/GPa) = 0.03177256
#
# Stress axis : x y z
#
# Youngs Moduli (GPa) = 59.17206 47.94218 128.96853
#
# Poissons Ratio (x) = -0.02629 0.64622
# Poissons Ratio (y) = -0.03245 0.31049
# Poissons Ratio (z) = 0.29649 0.11542
#
# Static dielectric constant tensor:
#      x y z
#    x 1.859180 -0.011230 0.016300 
#    y -0.011230 1.836050 0.015410 
#    z 0.016300 0.015410 1.825430 
# 
# From -- ./inp_files/184016.got.cif
#   From: 2010.05.17/outbox.cif.g08.bks.cpg/sg2_93_cif.got.tgz:184016.got - 2010.06.03 11:33:40.
