data_PCOD9065994
_publ_section_title
;
Structure prediction by ZEFSAII (Michael W. Deem and Ramdas Pophale) SiO2 
 PCOD9065994
Probable space group: P -1
;
_chemical_formula_sum "Si O2"
_cell_formula_units_Z 14
_cell_length_a 4.904299
_cell_length_b 8.580333
_cell_length_c 18.707036
_cell_angle_alpha 128.945690
_cell_angle_beta 61.652967
_cell_angle_gamma 119.349934
_cell_volume 517.265282
_symmetry_space_group_name_H-M "P -1"
_symmetry_group_IT_number 2
_symmetry_cell_setting 'triclinic'
loop_
_space_group_symop_operation_xyz
x,y,z
-x,-y,-z
loop_
_atom_site_type_symbol
_atom_site_label
_atom_site_fract_x
_atom_site_fract_y
_atom_site_fract_z
Si Si1 0.373468 0.176435 0.928297
Si Si2 0.868148 0.194077 0.548480
Si Si3 0.766624 0.036357 0.361754
Si Si4 0.073109 0.265435 0.849886
Si Si5 0.372672 0.610206 0.612296
Si Si6 0.527904 0.281848 0.216075
Si Si7 0.759516 0.608873 0.852612
O O1 0.121402 0.186237 0.900890
O O2 0.738315 0.327985 0.911349
O O3 0.419914 0.946742 0.856628
O O4 0.266148 0.238211 0.035741
O O5 0.885574 0.187712 0.458309
O O6 0.059642 0.421040 0.616014
O O7 0.519365 0.135048 0.611224
O O8 0.000000 0.000000 0.500000
O O9 0.658507 0.174216 0.354488
O O10 0.967148 0.906541 0.257255
O O11 0.428252 0.423463 0.841429
O O12 0.500000 0.500000 0.500000
O O13 0.565008 0.658990 0.676504
O O14 0.269756 0.289634 0.191166
O O15 0.889860 0.429747 0.196215
#
# Coordination Sequence:
#
# PCOD9065994 Si02
#       7
#     2   2   2   2   2   2   2
#     4  12  25  48  74 109 145 193 242 301 371 440
#     4  11  25  44  71 100 139 188 248 290 367 426
#     4  11  26  46  69 105 142 194 237 309 357 443
#     4  12  26  44  77 106 149 187 247 298 376 432
#     4  12  26  46  74 104 146 191 243 302 366 436
#     4  12  27  46  74 108 146 193 246 298 372 433
#     4  12  26  48  75 107 149 190 244 306 362 446
#
# _framework density 27.065417
#
# number of rings (size 3 to 8) (size 9 to 14) (size 15 to 20)
#    0.000    0.286    2.857    5.571    6.000    1.143 
#    0.000    0.000    0.000    0.000    0.000    0.000 
#    0.000    0.000    0.000    0.000    0.000    0.000 
#
# Total GULP energy -78516.936627 kJ/mol
# GULP energy per Si atom -5608.352616 kJ/mol
# Density = 2.700381 g / cm^3
# Si number density = 27.065417 Si / 1000 Ang^3
#
#
#
# Elastic Constant Matrix: (Units=GPa)
#
#
# Indices 1 2 3 4 5 6 
#
# 1 127.1744 17.8742 37.5612 -15.9786 16.5882 -3.9496
# 2 17.8742 91.2918 22.9109 -0.6065 19.2542 17.0171
# 3 37.5612 22.9109 219.0452 -25.3856 16.2626 -5.5150
# 4 -15.9786 -0.6065 -25.3856 38.4225 2.9588 7.2889
# 5 16.5882 19.2542 16.2626 2.9588 51.2003 -8.0759
# 6 -3.9496 17.0171 -5.5150 7.2889 -8.0759 58.1832
#
#
#
# Elastic Compliance Matrix: (Units=1/GPa)
#
#
# Indices 1 2 3 4 5 6 
#
# 1 0.009002 -0.001022 -0.000868 0.003328 -0.002437 0.000072
# 2 -0.001022 0.013389 -0.000901 0.000514 -0.005214 -0.004859
# 3 -0.000868 -0.000901 0.005270 0.003174 -0.001216 0.000138
# 4 0.003328 0.000514 0.003174 0.030658 -0.004701 -0.004117
# 5 -0.002437 -0.005214 -0.001216 -0.004701 0.023748 0.005129
# 6 0.000072 -0.004859 0.000138 -0.004117 0.005129 0.019854
#
#
# Mechanical properties :
#
#
# Convention : Reuss Voigt Hill
#
# Bulk Modulus (GPa) = 45.29332 66.02268 55.65800
# Shear Modulus (GPa) = 43.53049 53.50556 48.51802
#
# Velocity S-wave (km/s) = 4.01477 4.45106 4.23853
# Velocity P-wave (km/s) = 6.18565 7.13180 6.67551
#
# Compressibility (1/GPa) = 0.02207831
#
# Stress axis : x y z
#
# Youngs Moduli (GPa) = 111.09239 74.68942 189.75608
#
# Poissons Ratio (x) = 0.07633 0.16476
# Poissons Ratio (y) = 0.11353 0.17093
# Poissons Ratio (z) = 0.09646 0.06728
#
# Static dielectric constant tensor:
#      x y z
#    x 2.138060 0.140860 -0.019110 
#    y 0.140860 2.308840 -0.032410 
#    z -0.019110 -0.032410 2.004230 
# 
# From -- ./inp_files/46863.got.cif
#   From: 2010.05.17/outbox.cif.g08.bks.cpg/sg2_24_cif.got.tgz:46863.got - 2010.06.03 11:33:40.
