data_PCOD9065000
_publ_section_title
;
Structure prediction by ZEFSAII (Michael W. Deem and Ramdas Pophale) SiO2 
 PCOD9065000
Probable space group: P -1
;
_chemical_formula_sum "Si O2"
_cell_formula_units_Z 16
_cell_length_a 19.946489
_cell_length_b 19.588542
_cell_length_c 4.880473
_cell_angle_alpha 74.858681
_cell_angle_beta 83.704024
_cell_angle_gamma 21.512528
_cell_volume 625.275590
_symmetry_space_group_name_H-M "P -1"
_symmetry_group_IT_number 2
_symmetry_cell_setting 'triclinic'
loop_
_space_group_symop_operation_xyz
x,y,z
-x,-y,-z
loop_
_atom_site_type_symbol
_atom_site_label
_atom_site_fract_x
_atom_site_fract_y
_atom_site_fract_z
Si Si1 0.625299 0.086048 0.983490
Si Si2 0.262593 0.872968 0.112609
Si Si3 0.794473 0.664148 0.368085
Si Si4 0.774165 0.481806 0.002778
Si Si5 0.538270 0.386453 0.232007
Si Si6 0.176862 0.661280 0.359954
Si Si7 0.387136 0.041954 0.257291
Si Si8 0.950053 0.703020 0.590041
O O1 0.659387 0.129544 0.789627
O O2 0.432495 0.281396 0.056761
O O3 0.608030 0.033881 0.855771
O O4 0.822054 0.884561 0.289748
O O5 0.297139 0.780721 0.428258
O O6 0.391862 0.730463 0.932649
O O7 0.037718 0.100087 0.879677
O O8 0.000000 0.500000 0.500000
O O9 0.868103 0.514457 0.406372
O O10 0.610154 0.834861 0.475684
O O11 0.694003 0.811183 0.026725
O O12 0.811862 0.376153 0.293080
O O13 0.954944 0.355801 0.123309
O O14 0.775590 0.455257 0.720419
O O15 0.343228 0.551847 0.303649
O O16 0.500000 0.500000 0.000000
O O17 0.217284 0.190680 0.389959
#
# Coordination Sequence:
#
# PCOD9065000 Si02
#       8
#     2   2   2   2   2   2   2   2
#     4  12  24  43  70 104 133 182 236 298 356 420
#     4  12  26  45  76 107 146 187 244 294 356 423
#     4  11  24  47  63  96 139 184 233 296 355 433
#     4  12  26  43  73 107 144 186 236 301 368 414
#     4  12  27  48  74 108 151 195 236 290 351 427
#     4  12  25  47  73 107 148 187 235 297 356 419
#     4  11  26  43  68  96 138 179 241 289 361 429
#     4  12  26  43  70 100 135 186 237 295 366 425
#
# _framework density 25.588716999999999
#
# number of rings (size 3 to 8) (size 9 to 14) (size 15 to 20)
#    0.000    0.250    6.250    2.250    3.500    2.500 
#    0.000    0.000    0.000    0.000    0.000    0.000 
#    0.000    0.000    0.000    0.000    0.000    0.000 
#
# Total GULP energy -89688.551670 kJ/mol
# GULP energy per Si atom -5605.534479 kJ/mol
# Density = 2.553048 g / cm^3
# Si number density = 25.588717 Si / 1000 Ang^3
#
#
#
# Elastic Constant Matrix: (Units=GPa)
#
#
# Indices 1 2 3 4 5 6 
#
# 1 65.2630 29.2604 14.5598 -15.0044 -14.5400 -8.4216
# 2 29.2604 145.4703 41.9023 -34.5122 -0.3533 -15.7239
# 3 14.5598 41.9023 95.8949 -18.8555 -18.5608 2.7706
# 4 -15.0044 -34.5122 -18.8555 45.6143 -3.9579 6.8207
# 5 -14.5400 -0.3533 -18.5608 -3.9579 47.5663 2.3184
# 6 -8.4216 -15.7239 2.7706 6.8207 2.3184 37.1061
#
#
#
# Elastic Compliance Matrix: (Units=1/GPa)
#
#
# Indices 1 2 3 4 5 6 
#
# 1 0.019146 -0.002594 0.000305 0.004709 0.006248 0.001967
# 2 -0.002594 0.009787 -0.003443 0.004505 -0.001840 0.003103
# 3 0.000305 -0.003443 0.014025 0.004362 0.006080 -0.003618
# 4 0.004709 0.004505 0.004362 0.029660 0.005797 -0.003162
# 5 0.006248 -0.001840 0.006080 0.005797 0.025896 -0.002499
# 6 0.001967 0.003103 -0.003618 -0.003162 -0.002499 0.029719
#
#
# Mechanical properties :
#
#
# Convention : Reuss Voigt Hill
#
# Bulk Modulus (GPa) = 31.75076 53.11924 42.43500
# Shear Modulus (GPa) = 33.29014 40.78438 37.03726
#
# Velocity S-wave (km/s) = 3.61081 3.99663 3.80861
# Velocity P-wave (km/s) = 5.46067 6.48855 5.99668
#
# Compressibility (1/GPa) = 0.03149531
#
# Stress axis : x y z
#
# Youngs Moduli (GPa) = 52.22971 102.17175 71.30117
#
# Poissons Ratio (x) = 0.26502 -0.02174
# Poissons Ratio (y) = 0.13547 0.24548
# Poissons Ratio (z) = -0.01593 0.35176
#
# Static dielectric constant tensor:
#      x y z
#    x 2.097980 -0.001810 -0.012860 
#    y -0.001810 2.140570 0.031330 
#    z -0.012860 0.031330 1.983960 
# 
# From -- ./inp_files/120374.got.cif
#   From: 2010.05.17/outbox.cif.g08.bks.cpg/sg2_61_cif.got.tgz:120374.got - 2010.06.03 11:33:40.
