data_PCOD9065950
_publ_section_title
;
Structure prediction by ZEFSAII (Michael W. Deem and Ramdas Pophale) SiO2 
 PCOD9065950
Probable space group: P -1
;
_chemical_formula_sum "Si O2"
_cell_formula_units_Z 16
_cell_length_a 5.742458
_cell_length_b 8.158012
_cell_length_c 18.368560
_cell_angle_alpha 121.051905
_cell_angle_beta 124.006474
_cell_angle_gamma 81.827994
_cell_volume 598.005685
_symmetry_space_group_name_H-M "P -1"
_symmetry_group_IT_number 2
_symmetry_cell_setting 'triclinic'
loop_
_space_group_symop_operation_xyz
x,y,z
-x,-y,-z
loop_
_atom_site_type_symbol
_atom_site_label
_atom_site_fract_x
_atom_site_fract_y
_atom_site_fract_z
Si Si1 0.382189 0.554159 0.914460
Si Si2 0.870983 0.894753 0.092664
Si Si3 0.406603 0.782272 0.210386
Si Si4 0.211593 0.460699 0.392790
Si Si5 0.824798 0.702523 0.811947
Si Si6 0.687997 0.608952 0.337492
Si Si7 0.203387 0.062701 0.477661
Si Si8 0.825764 0.082030 0.285308
O O1 0.430895 0.371773 0.834009
O O2 0.061868 0.591274 0.861234
O O3 0.500000 0.500000 0.000000
O O4 0.591597 0.760660 0.978236
O O5 0.082066 0.751297 0.120449
O O6 0.804802 0.991248 0.180079
O O7 0.030269 0.068861 0.108327
O O8 0.497094 0.753247 0.301287
O O9 0.526622 0.003526 0.255016
O O10 0.500000 0.500000 0.500000
O O11 0.232341 0.355220 0.295852
O O12 0.020058 0.620413 0.376156
O O13 0.968500 0.307775 0.359218
O O14 0.512773 0.602382 0.765483
O O15 0.718690 0.699756 0.444427
O O16 0.028874 0.000625 0.359007
O O17 0.500000 0.000000 0.500000
O O18 0.000000 0.000000 0.500000
#
# Coordination Sequence:
#
# PCOD9065950 Si02
#       8
#     2   2   2   2   2   2   2   2
#     4  12  24  46  75 106 143 193 247 312 379 457
#     4  11  25  46  72 105 147 192 244 317 376 459
#     4  12  24  44  74 105 146 188 252 306 381 449
#     4  11  26  47  74 105 150 197 248 311 380 466
#     4  11  26  47  72 106 152 190 249 304 387 454
#     4  12  26  46  74 107 149 196 252 315 380 461
#     4  12  28  44  75 111 151 198 258 322 386 456
#     4  11  25  44  69 103 145 189 251 300 385 439
#
# _framework density 26.755597999999999
#
# number of rings (size 3 to 8) (size 9 to 14) (size 15 to 20)
#    0.000    0.500    3.750    3.750    5.250    3.000 
#    0.000    1.250    0.000    0.000    0.000    0.000 
#    0.000    0.000    0.000    0.000    0.000    0.000 
#
# Total GULP energy -89381.291235 kJ/mol
# GULP energy per Si atom -5586.330702 kJ/mol
# Density = 2.669470 g / cm^3
# Si number density = 26.755598 Si / 1000 Ang^3
#
#
#
# Elastic Constant Matrix: (Units=GPa)
#
#
# Indices 1 2 3 4 5 6 
#
# 1 67.1566 39.0278 46.2556 -16.0168 29.4686 -16.2009
# 2 39.0278 99.3512 36.0322 -1.0965 14.0558 0.2996
# 3 46.2556 36.0322 158.3188 -4.1168 26.5130 -6.1602
# 4 -16.0168 -1.0965 -4.1168 57.8627 -0.7523 13.0660
# 5 29.4686 14.0558 26.5130 -0.7523 62.3345 -5.2245
# 6 -16.2009 0.2996 -6.1602 13.0660 -5.2245 55.7194
#
#
#
# Elastic Compliance Matrix: (Units=1/GPa)
#
#
# Indices 1 2 3 4 5 6 
#
# 1 0.030745 -0.008845 -0.004914 0.006512 -0.009869 0.005991
# 2 -0.008845 0.013664 -0.000868 -0.001734 0.001263 -0.002216
# 3 -0.004914 -0.000868 0.008075 -0.000712 -0.000962 -0.000455
# 4 0.006512 -0.001734 -0.000712 0.019649 -0.002400 -0.003009
# 5 -0.009869 0.001263 -0.000962 -0.002400 0.020764 -0.000473
# 6 0.005991 -0.002216 -0.000455 -0.003009 -0.000473 0.020312
#
#
# Mechanical properties :
#
#
# Convention : Reuss Voigt Hill
#
# Bulk Modulus (GPa) = 43.05224 63.05086 53.05155
# Shear Modulus (GPa) = 33.28758 48.75073 41.01916
#
# Velocity S-wave (km/s) = 3.53106 4.27321 3.91974
# Velocity P-wave (km/s) = 5.72279 6.92559 6.35272
#
# Compressibility (1/GPa) = 0.02322759
#
# Stress axis : x y z
#
# Youngs Moduli (GPa) = 32.52598 73.18701 123.84315
#
# Poissons Ratio (x) = 0.64734 0.60861
# Poissons Ratio (y) = 0.28769 0.10754
# Poissons Ratio (z) = 0.15984 0.06355
#
# Static dielectric constant tensor:
#      x y z
#    x 2.211910 0.138210 0.082280 
#    y 0.138210 2.305900 0.041980 
#    z 0.082280 0.041980 2.140410 
# 
# From -- ./inp_files/548067.got.cif
#   From: 2010.05.17/outbox.cif.g08.bks.cpg/sg2_275_cif.got.tgz:548067.got - 2010.06.03 11:33:40.
