data_PCOD9065481
_publ_section_title
;
Structure prediction by ZEFSAII (Michael W. Deem and Ramdas Pophale) SiO2 
 PCOD9065481
Probable space group: P -1
;
_chemical_formula_sum "Si O2"
_cell_formula_units_Z 16
_cell_length_a 11.687207
_cell_length_b 9.446563
_cell_length_c 11.497617
_cell_angle_alpha 123.464525
_cell_angle_beta 134.536384
_cell_angle_gamma 50.379803
_cell_volume 684.316776
_symmetry_space_group_name_H-M "P -1"
_symmetry_group_IT_number 2
_symmetry_cell_setting 'triclinic'
loop_
_space_group_symop_operation_xyz
x,y,z
-x,-y,-z
loop_
_atom_site_type_symbol
_atom_site_label
_atom_site_fract_x
_atom_site_fract_y
_atom_site_fract_z
Si Si1 0.375899 0.517313 0.613282
Si Si2 0.122666 0.847171 0.426084
Si Si3 0.743085 0.398525 0.937120
Si Si4 0.203741 0.238616 0.873419
Si Si5 0.907281 0.001973 0.767351
Si Si6 0.352503 0.136064 0.369725
Si Si7 0.477432 0.973723 0.132208
Si Si8 0.300731 0.701671 0.883248
O O1 0.284741 0.689224 0.538210
O O2 0.582875 0.458817 0.757355
O O3 0.342239 0.342471 0.466770
O O4 0.296276 0.579275 0.714449
O O5 0.176473 0.931872 0.390452
O O6 0.984083 0.766236 0.243904
O O7 0.000000 0.000000 0.500000
O O8 0.871947 0.188095 0.898989
O O9 0.824010 0.548897 0.063296
O O10 0.670675 0.390991 0.011608
O O11 0.314074 0.106357 0.784065
O O12 0.348128 0.138672 0.031557
O O13 0.823282 0.881981 0.721635
O O14 0.111389 0.876811 0.834635
O O15 0.500000 0.000000 0.500000
O O16 0.415864 0.047228 0.249266
O O17 0.435476 0.794547 0.996876
#
# Coordination Sequence:
#
# PCOD9065481 Si02
#       8
#     2   2   2   2   2   2   2   2
#     4  12  27  48  74 113 149 199 248 308 373 446
#     4  12  28  50  72 110 157 195 246 309 376 443
#     4  12  27  45  77 111 144 195 253 309 363 449
#     4  11  27  45  78 108 142 202 248 300 364 450
#     4  12  27  47  74 106 152 194 245 308 378 428
#     4  12  28  46  73 112 151 195 246 313 376 436
#     4  11  24  48  76 104 147 196 251 297 369 447
#     4  12  24  49  75 106 152 194 250 303 374 444
#
# _framework density 23.380984999999999
#
# number of rings (size 3 to 8) (size 9 to 14) (size 15 to 20)
#    0.000    0.250    6.250    0.750    8.750    1.500 
#    0.000    0.000    0.000    0.000    0.000    0.000 
#    0.000    0.000    0.000    0.000    0.000    0.000 
#
# Total GULP energy -89665.174205 kJ/mol
# GULP energy per Si atom -5604.073388 kJ/mol
# Density = 2.332777 g / cm^3
# Si number density = 23.380985 Si / 1000 Ang^3
#
#
#
# Elastic Constant Matrix: (Units=GPa)
#
#
# Indices 1 2 3 4 5 6 
#
# 1 69.9678 -9.5614 22.2433 6.7284 -9.7062 2.4367
# 2 -9.5614 93.5897 22.3734 4.4639 -1.3085 6.7876
# 3 22.2433 22.3734 74.7254 0.5785 -11.1125 7.1935
# 4 6.7284 4.4639 0.5785 48.7110 -3.9148 0.0918
# 5 -9.7062 -1.3085 -11.1125 -3.9148 46.7141 -4.7291
# 6 2.4367 6.7876 7.1935 0.0918 -4.7291 43.6753
#
#
#
# Elastic Compliance Matrix: (Units=1/GPa)
#
#
# Indices 1 2 3 4 5 6 
#
# 1 0.017085 0.003277 -0.005715 -0.002427 0.002049 -0.000294
# 2 0.003277 0.012278 -0.004556 -0.001547 -0.000328 -0.001373
# 3 -0.005715 -0.004556 0.016979 0.001223 0.002676 -0.001482
# 4 -0.002427 -0.001547 0.001223 0.021115 0.001543 0.000297
# 5 0.002049 -0.000328 0.002676 0.001543 0.022788 0.001960
# 6 -0.000294 -0.001373 -0.001482 0.000297 0.001960 0.023582
#
#
# Mechanical properties :
#
#
# Convention : Reuss Voigt Hill
#
# Bulk Modulus (GPa) = 30.90822 34.26593 32.58707
# Shear Modulus (GPa) = 36.07536 41.36859 38.72197
#
# Velocity S-wave (km/s) = 3.93228 4.21090 4.07397
# Velocity P-wave (km/s) = 5.81938 6.19108 6.00811
#
# Compressibility (1/GPa) = 0.03235385
#
# Stress axis : x y z
#
# Youngs Moduli (GPa) = 58.53114 81.44800 58.89649
#
# Poissons Ratio (x) = -0.26694 0.33660
# Poissons Ratio (y) = -0.19183 0.26835
# Poissons Ratio (z) = 0.33451 0.37110
#
# Static dielectric constant tensor:
#      x y z
#    x 1.946990 -0.010180 -0.028420 
#    y -0.010180 1.866140 0.000250 
#    z -0.028420 0.000250 1.953820 
# 
# From -- ./inp_files/419807.got.cif
#   From: 2010.05.17/outbox.cif.g08.bks.cpg/sg2_210_cif.got.tgz:419807.got - 2010.06.03 11:33:40.
