data_PCOD9065265
_publ_section_title
;
Structure prediction by ZEFSAII (Michael W. Deem and Ramdas Pophale) SiO2 
 PCOD9065265
Probable space group: P -1
;
_chemical_formula_sum "Si O2"
_cell_formula_units_Z 15
_cell_length_a 11.997642
_cell_length_b 8.595993
_cell_length_c 12.801792
_cell_angle_alpha 81.958522
_cell_angle_beta 127.165036
_cell_angle_gamma 56.675692
_cell_volume 620.397421
_symmetry_space_group_name_H-M "P -1"
_symmetry_group_IT_number 2
_symmetry_cell_setting 'triclinic'
loop_
_space_group_symop_operation_xyz
x,y,z
-x,-y,-z
loop_
_atom_site_type_symbol
_atom_site_label
_atom_site_fract_x
_atom_site_fract_y
_atom_site_fract_z
Si Si1 0.000000 0.000000 0.000000
Si Si2 0.825725 0.597899 0.177881
Si Si3 0.079604 0.259538 0.971000
Si Si4 0.390812 0.129972 0.312360
Si Si5 0.997806 0.733195 0.384475
Si Si6 0.567930 0.282298 0.997167
Si Si7 0.451903 0.485152 0.677852
Si Si8 0.806538 0.949643 0.487893
O O1 0.706033 0.283858 0.791514
O O2 0.955407 0.888709 0.058667
O O3 0.825980 0.709731 0.067139
O O4 0.919996 0.627369 0.319799
O O5 0.581330 0.734898 0.049216
O O6 0.009452 0.287555 0.302013
O O7 0.825166 0.554265 0.830557
O O8 0.259462 0.104705 0.184650
O O9 0.500000 0.000000 0.500000
O O10 0.589220 0.025145 0.361227
O O11 0.939946 0.824146 0.464207
O O12 0.266329 0.525186 0.525401
O O13 0.831679 0.000362 0.201252
O O14 0.501498 0.379850 0.832814
O O15 0.500000 0.500000 0.000000
O O16 0.302530 0.782648 0.573529
#
# Coordination Sequence:
#
# PCOD9065265 Si02
#       8
#     1   2   2   2   2   2   2   2
#     4  12  28  50  74 106 154 198 250 316 380 442
#     4  12  26  46  78 116 153 200 253 316 380 448
#     4  11  26  49  73 108 149 199 251 314 370 452
#     4  11  24  47  77 105 143 199 255 301 376 452
#     4  12  26  47  75 112 152 199 257 313 382 447
#     4  12  25  46  78 111 154 200 248 313 385 450
#     4  12  27  49  72 110 152 204 255 313 380 452
#     4  12  23  46  76 107 154 195 250 313 376 453
#
# _framework density 24.178049999999999
#
# number of rings (size 3 to 8) (size 9 to 14) (size 15 to 20)
#    0.000    0.267    5.333    3.600    1.867    0.000 
#    4.800    3.333    0.000    0.000    0.000    0.000 
#    0.000    0.000    0.000    0.000    0.000    0.000 
#
# Total GULP energy -83693.939129 kJ/mol
# GULP energy per Si atom -5579.595942 kJ/mol
# Density = 2.412302 g / cm^3
# Si number density = 24.178050 Si / 1000 Ang^3
#
#
#
# Elastic Constant Matrix: (Units=GPa)
#
#
# Indices 1 2 3 4 5 6 
#
# 1 128.8008 45.4923 62.6077 5.6525 10.3537 15.1668
# 2 45.4923 67.5467 30.7947 -18.1004 9.5154 14.1221
# 3 62.6077 30.7947 161.4270 -11.3495 15.7930 3.6546
# 4 5.6525 -18.1004 -11.3495 36.6818 1.9651 -3.0659
# 5 10.3537 9.5154 15.7930 1.9651 54.4473 -14.4912
# 6 15.1668 14.1221 3.6546 -3.0659 -14.4912 26.9271
#
#
#
# Elastic Compliance Matrix: (Units=1/GPa)
#
#
# Indices 1 2 3 4 5 6 
#
# 1 0.013588 -0.008489 -0.004045 -0.007825 -0.000686 -0.003912
# 2 -0.008489 0.027887 -0.000065 0.014424 -0.006935 -0.011925
# 3 -0.004045 -0.000065 0.008133 0.003252 -0.001489 0.000777
# 4 -0.007825 0.014424 0.003252 0.036670 -0.003672 -0.001400
# 5 -0.000686 -0.006935 -0.001489 -0.003672 0.024845 0.017178
# 6 -0.003912 -0.011925 0.000777 -0.001400 0.017178 0.054574
#
#
# Mechanical properties :
#
#
# Convention : Reuss Voigt Hill
#
# Bulk Modulus (GPa) = 40.96863 70.61820 55.79342
# Shear Modulus (GPa) = 25.12170 38.20323 31.66246
#
# Velocity S-wave (km/s) = 3.22689 3.97933 3.62270
# Velocity P-wave (km/s) = 5.55564 7.09820 6.37376
#
# Compressibility (1/GPa) = 0.02440892
#
# Stress axis : x y z
#
# Youngs Moduli (GPa) = 73.59627 35.85926 122.96241
#
# Poissons Ratio (x) = 0.30443 0.49736
# Poissons Ratio (y) = 0.62479 0.00797
# Poissons Ratio (z) = 0.29768 0.00232
#
# Static dielectric constant tensor:
#      x y z
#    x 1.865880 -0.002710 0.008830 
#    y -0.002710 1.978490 0.014360 
#    z 0.008830 0.014360 1.939220 
# 
# From -- ./inp_files/514229.got.cif
#   From: 2010.05.17/outbox.cif.g08.bks.cpg/sg2_258_cif.got.tgz:514229.got - 2010.06.03 11:33:40.
