data_PCOD9065289
_publ_section_title
;
Structure prediction by ZEFSAII (Michael W. Deem and Ramdas Pophale) SiO2 
 PCOD9065289
Probable space group: P -1
;
_chemical_formula_sum "Si O2"
_cell_formula_units_Z 16
_cell_length_a 15.402643
_cell_length_b 8.536938
_cell_length_c 14.527415
_cell_angle_alpha 63.907574
_cell_angle_beta 38.254409
_cell_angle_gamma 92.593440
_cell_volume 755.946855
_symmetry_space_group_name_H-M "P -1"
_symmetry_group_IT_number 2
_symmetry_cell_setting 'triclinic'
loop_
_space_group_symop_operation_xyz
x,y,z
-x,-y,-z
loop_
_atom_site_type_symbol
_atom_site_label
_atom_site_fract_x
_atom_site_fract_y
_atom_site_fract_z
Si Si1 0.986703 0.538460 0.263463
Si Si2 0.760187 0.464752 0.640983
Si Si3 0.481464 0.234455 0.388745
Si Si4 0.168002 0.721409 0.871437
Si Si5 0.980636 0.952303 0.421258
Si Si6 0.320959 0.830182 0.054878
Si Si7 0.395774 0.293296 0.898451
Si Si8 0.325828 0.027125 0.372617
O O1 0.847626 0.530540 0.448318
O O2 0.154494 0.626233 0.173502
O O3 0.845086 0.265361 0.413576
O O4 0.085635 0.696652 0.047703
O O5 0.730917 0.258168 0.773129
O O6 0.554459 0.385973 0.821404
O O7 0.917771 0.704225 0.509277
O O8 0.671166 0.293594 0.250154
O O9 0.519624 0.475418 0.293572
O O10 0.443666 0.142242 0.339283
O O11 0.288059 0.993435 0.663670
O O12 0.000000 0.500000 0.000000
O O13 0.187106 0.174843 0.143059
O O14 0.000000 0.000000 0.500000
O O15 0.796139 0.904633 0.555320
O O16 0.515852 0.889131 0.856756
O O17 0.358485 0.068452 0.944556
#
# Coordination Sequence:
#
# PCOD9065289 Si02
#       8
#     2   2   2   2   2   2   2   2
#     4  12  24  44  73 103 137 191 240 289 357 424
#     4  12  26  44  70 103 150 195 235 283 351 430
#     4  11  25  45  74 105 137 183 237 304 360 416
#     4  11  24  47  78 105 136 181 242 301 367 425
#     4  12  27  41  67 105 147 194 243 287 344 416
#     4  12  26  44  71 104 150 194 232 282 354 432
#     4  12  26  46  68 103 150 187 233 296 349 420
#     4  12  24  42  73 103 143 185 242 292 349 424
#
# _framework density 21.165507999999999
#
# number of rings (size 3 to 8) (size 9 to 14) (size 15 to 20)
#    0.000    0.250    6.250    3.000    3.500    1.000 
#    0.000    1.250    0.000    0.000    0.000    0.000 
#    0.000    0.000    0.000    0.000    0.000    0.000 
#
# Total GULP energy -89380.852358 kJ/mol
# GULP energy per Si atom -5586.303272 kJ/mol
# Density = 2.111733 g / cm^3
# Si number density = 21.165508 Si / 1000 Ang^3
#
#
#
# Elastic Constant Matrix: (Units=GPa)
#
#
# Indices 1 2 3 4 5 6 
#
# 1 97.2015 22.8997 48.8350 -2.0956 -11.1130 -1.0780
# 2 22.8997 77.2742 37.7884 -2.0957 5.6188 -5.0140
# 3 48.8350 37.7884 116.2290 6.4721 -6.6266 -8.7518
# 4 -2.0956 -2.0957 6.4721 34.4162 6.9169 2.3053
# 5 -11.1130 5.6188 -6.6266 6.9169 42.9850 0.8992
# 6 -1.0780 -5.0140 -8.7518 2.3053 0.8992 38.0628
#
#
#
# Elastic Compliance Matrix: (Units=1/GPa)
#
#
# Indices 1 2 3 4 5 6 
#
# 1 0.013621 -0.001766 -0.005145 0.001207 0.002789 -0.001169
# 2 -0.001766 0.016216 -0.004811 0.002474 -0.003735 0.000918
# 3 -0.005145 -0.004811 0.012804 -0.003531 0.001792 0.002336
# 4 0.001207 0.002474 -0.003531 0.031204 -0.005531 -0.002211
# 5 0.002789 -0.003735 0.001792 -0.005531 0.025645 -0.000272
# 6 -0.001169 0.000918 0.002336 -0.002211 -0.000272 0.027038
#
#
# Mechanical properties :
#
#
# Convention : Reuss Voigt Hill
#
# Bulk Modulus (GPa) = 52.09598 56.63899 54.36748
# Shear Modulus (GPa) = 31.97519 35.17159 33.57339
#
# Velocity S-wave (km/s) = 3.89102 4.08087 3.98707
# Velocity P-wave (km/s) = 6.69729 7.00163 6.85115
#
# Compressibility (1/GPa) = 0.01919534
#
# Stress axis : x y z
#
# Youngs Moduli (GPa) = 73.41681 61.66933 78.09860
#
# Poissons Ratio (x) = 0.10894 0.40180
# Poissons Ratio (y) = 0.12969 0.37576
# Poissons Ratio (z) = 0.37772 0.29671
#
# Static dielectric constant tensor:
#      x y z
#    x 1.729210 -0.016620 0.018890 
#    y -0.016620 1.812550 0.007090 
#    z 0.018890 0.007090 1.812080 
# 
# From -- ./inp_files/528266.got.cif
#   From: 2010.05.17/outbox.cif.g08.bks.cpg/sg2_265_cif.got.tgz:528266.got - 2010.06.03 11:33:40.
