data_PCOD9065165
_publ_section_title
;
Structure prediction by ZEFSAII (Michael W. Deem and Ramdas Pophale) SiO2 
 PCOD9065165
Probable space group: P -1
;
_chemical_formula_sum "Si O2"
_cell_formula_units_Z 13
_cell_length_a 14.704750
_cell_length_b 9.084706
_cell_length_c 6.137176
_cell_angle_alpha 122.752864
_cell_angle_beta 128.212557
_cell_angle_gamma 55.008580
_cell_volume 505.150964
_symmetry_space_group_name_H-M "P -1"
_symmetry_group_IT_number 2
_symmetry_cell_setting 'triclinic'
loop_
_space_group_symop_operation_xyz
x,y,z
-x,-y,-z
loop_
_atom_site_type_symbol
_atom_site_label
_atom_site_fract_x
_atom_site_fract_y
_atom_site_fract_z
Si Si1 0.539545 0.289050 0.803120
Si Si2 0.291727 0.854682 0.417636
Si Si3 0.325051 0.454078 0.291126
Si Si4 0.000000 0.500000 0.500000
Si Si5 0.373342 0.174593 0.752490
Si Si6 0.060791 0.113056 0.524478
Si Si7 0.840361 0.685327 0.807212
O O1 0.675360 0.201545 0.832375
O O2 0.445826 0.317917 0.484272
O O3 0.499115 0.168451 0.821427
O O4 0.500000 0.500000 0.000000
O O5 0.334443 0.655230 0.439765
O O6 0.367922 0.987692 0.700355
O O7 0.152043 0.969161 0.371935
O O8 0.205957 0.465999 0.264073
O O9 0.321429 0.354225 0.977014
O O10 0.011781 0.698283 0.570219
O O11 0.955786 0.601410 0.751607
O O12 0.271924 0.210381 0.439492
O O13 0.141039 0.185753 0.872076
O O14 0.000000 0.000000 0.500000
#
# Coordination Sequence:
#
# PCOD9065165 Si02
#       7
#     2   2   2   1   2   2   2
#     4  11  25  45  73 109 154 200 244 308 383 451
#     4  12  24  47  73 109 150 195 256 305 377 460
#     4  11  24  47  73 105 155 196 245 313 383 448
#     4  12  24  50  76 100 156 190 252 332 378 432
#     4  11  24  48  72 107 147 199 243 313 374 452
#     4  12  28  50  76 115 149 205 259 317 389 459
#     4  11  24  49  72 104 149 196 250 313 387 444
#
# _framework density 25.734881000000001
#
# number of rings (size 3 to 8) (size 9 to 14) (size 15 to 20)
#    0.000    0.615    4.615    2.308    0.000    3.692 
#    5.538    0.000    0.000    0.000    0.000    0.000 
#    0.000    0.000    0.000    0.000    0.000    0.000 
#
# Total GULP energy -72529.650281 kJ/mol
# GULP energy per Si atom -5579.203868 kJ/mol
# Density = 2.567631 g / cm^3
# Si number density = 25.734881 Si / 1000 Ang^3
#
#
#
# Elastic Constant Matrix: (Units=GPa)
#
#
# Indices 1 2 3 4 5 6 
#
# 1 194.2003 69.9518 27.9439 18.3654 -28.8037 38.3828
# 2 69.9518 154.2748 23.6316 23.2499 -1.0463 44.8614
# 3 27.9439 23.6316 71.3637 11.3226 -3.3580 5.1219
# 4 18.3654 23.2499 11.3226 40.2123 -3.2566 -1.5317
# 5 -28.8037 -1.0463 -3.3580 -3.2566 34.6997 17.8392
# 6 38.3828 44.8614 5.1219 -1.5317 17.8392 60.2670
#
#
#
# Elastic Compliance Matrix: (Units=1/GPa)
#
#
# Indices 1 2 3 4 5 6 
#
# 1 0.009530 -0.001022 -0.001785 -0.002624 0.011968 -0.008766
# 2 -0.001022 0.010233 -0.001484 -0.005098 0.002856 -0.007815
# 3 -0.001785 -0.001484 0.015516 -0.002722 -0.000848 0.001105
# 4 -0.002624 -0.005098 -0.002722 0.029770 -0.003679 0.007543
# 5 0.011968 0.002856 -0.000848 -0.003679 0.051230 -0.024933
# 6 -0.008766 -0.007815 0.001105 0.007543 -0.024933 0.035471
#
#
# Mechanical properties :
#
#
# Convention : Reuss Voigt Hill
#
# Bulk Modulus (GPa) = 37.45760 73.65480 55.55620
# Shear Modulus (GPa) = 29.54548 46.92322 38.23435
#
# Velocity S-wave (km/s) = 3.39200 4.27468 3.85866
# Velocity P-wave (km/s) = 5.47062 7.28331 6.44105
#
# Compressibility (1/GPa) = 0.02669685
#
# Stress axis : x y z
#
# Youngs Moduli (GPa) = 104.93140 97.72386 64.45067
#
# Poissons Ratio (x) = 0.09988 0.11502
# Poissons Ratio (y) = 0.10725 0.09566
# Poissons Ratio (z) = 0.18726 0.14504
#
# Static dielectric constant tensor:
#      x y z
#    x 2.030100 0.040600 -0.026330 
#    y 0.040600 1.964790 0.027120 
#    z -0.026330 0.027120 1.950370 
# 
# From -- ./inp_files/89513.got.cif
#   From: 2010.05.17/outbox.cif.g08.bks.cpg/sg2_45_cif.got.tgz:89513.got - 2010.06.03 11:33:40.
