data_PCOD9065387
_publ_section_title
;
Structure prediction by ZEFSAII (Michael W. Deem and Ramdas Pophale) SiO2 
 PCOD9065387
Probable space group: P -1
;
_chemical_formula_sum "Si O2"
_cell_formula_units_Z 12
_cell_length_a 6.312816
_cell_length_b 13.667089
_cell_length_c 6.174021
_cell_angle_alpha 79.576193
_cell_angle_beta 79.210028
_cell_angle_gamma 94.850317
_cell_volume 510.746624
_symmetry_space_group_name_H-M "P -1"
_symmetry_group_IT_number 2
_symmetry_cell_setting 'triclinic'
loop_
_space_group_symop_operation_xyz
x,y,z
-x,-y,-z
loop_
_atom_site_type_symbol
_atom_site_label
_atom_site_fract_x
_atom_site_fract_y
_atom_site_fract_z
Si Si1 0.078430 0.434220 0.702824
Si Si2 0.600859 0.850030 0.074431
Si Si3 0.040809 0.199610 0.283886
Si Si4 0.228388 0.627883 0.855712
Si Si5 0.628667 0.719829 0.491168
Si Si6 0.336647 0.956040 0.736836
O O1 0.193157 0.514558 0.819875
O O2 0.249004 0.364435 0.610709
O O3 0.000000 0.500000 0.500000
O O4 0.865618 0.375975 0.882347
O O5 0.502275 0.776776 0.312823
O O6 0.696349 0.953568 0.131306
O O7 0.794312 0.799721 0.948458
O O8 0.440809 0.877631 0.905028
O O9 0.185878 0.200842 0.469678
O O10 0.923995 0.299784 0.264383
O O11 0.869364 0.102714 0.318370
O O12 0.471062 0.672954 0.729789
O O13 0.500000 0.000000 0.500000
#
# Coordination Sequence:
#
# PCOD9065387 Si02
#       6
#     2   2   2   2   2   2
#     4  11  24  48  72 105 146 193 238 297 355 427
#     4  11  25  45  72 102 144 193 238 296 362 423
#     4  12  24  45  71 107 145 185 243 297 357 432
#     4  11  25  45  71 107 146 188 245 291 355 431
#     4  12  26  46  75 109 145 192 240 296 362 423
#     4  11  26  48  70 105 144 191 244 293 362 430
#
# _framework density 23.495017000000001
#
# number of rings (size 3 to 8) (size 9 to 14) (size 15 to 20)
#    0.000    0.667    3.333    4.000    0.000   10.000 
#    3.000    0.000    0.000    0.000    0.000    0.000 
#    0.000    0.000    0.000    0.000    0.000    0.000 
#
# Total GULP energy -67186.023918 kJ/mol
# GULP energy per Si atom -5598.835327 kJ/mol
# Density = 2.344154 g / cm^3
# Si number density = 23.495017 Si / 1000 Ang^3
#
#
#
# Elastic Constant Matrix: (Units=GPa)
#
#
# Indices 1 2 3 4 5 6 
#
# 1 88.8698 45.3733 56.7801 -0.4403 -9.3882 6.7345
# 2 45.3733 100.9112 27.8285 21.7501 -10.4287 -2.5906
# 3 56.7801 27.8285 122.8168 -23.0781 -7.9897 0.6870
# 4 -0.4403 21.7501 -23.0781 47.2093 -6.0731 -3.6389
# 5 -9.3882 -10.4287 -7.9897 -6.0731 40.2658 2.3609
# 6 6.7345 -2.5906 0.6870 -3.6389 2.3609 45.8936
#
#
#
# Elastic Compliance Matrix: (Units=1/GPa)
#
#
# Indices 1 2 3 4 5 6 
#
# 1 0.020003 -0.006666 -0.007730 -0.000583 0.001510 -0.003320
# 2 -0.006666 0.015168 -0.001760 -0.007716 0.000790 0.001208
# 3 -0.007730 -0.001760 0.013657 0.007718 0.001536 0.001363
# 4 -0.000583 -0.007716 0.007718 0.029107 0.003690 0.001652
# 5 0.001510 0.000790 0.001536 0.003690 0.026327 -0.001262
# 6 -0.003320 0.001208 0.001363 0.001652 -0.001262 0.022520
#
#
# Mechanical properties :
#
#
# Convention : Reuss Voigt Hill
#
# Bulk Modulus (GPa) = 60.54756 63.61794 62.08275
# Shear Modulus (GPa) = 30.37672 38.84814 34.61243
#
# Velocity S-wave (km/s) = 3.59959 4.07069 3.84237
# Velocity P-wave (km/s) = 6.56524 7.01641 6.79457
#
# Compressibility (1/GPa) = 0.01651594
#
# Stress axis : x y z
#
# Youngs Moduli (GPa) = 49.99352 65.92738 73.22118
#
# Poissons Ratio (x) = 0.43946 0.56599
# Poissons Ratio (y) = 0.33325 0.12890
# Poissons Ratio (z) = 0.38644 0.11606
#
# Static dielectric constant tensor:
#      x y z
#    x 1.860790 0.007510 0.007860 
#    y 0.007510 1.880110 0.008840 
#    z 0.007860 0.008840 1.884400 
# 
# From -- ./inp_files/3367.got.cif
#   From: 2010.05.17/outbox.cif.g08.bks.cpg/sg2_2_cif.got.tgz:3367.got - 2010.06.03 11:33:40.
