data_PCOD9065298
_publ_section_title
;
Structure prediction by ZEFSAII (Michael W. Deem and Ramdas Pophale) SiO2 
 PCOD9065298
Probable space group: P -1
;
_chemical_formula_sum "Si O2"
_cell_formula_units_Z 16
_cell_length_a 14.791829
_cell_length_b 19.605781
_cell_length_c 14.825268
_cell_angle_alpha 33.411259
_cell_angle_beta 159.417718
_cell_angle_gamma 147.177496
_cell_volume 792.824054
_symmetry_space_group_name_H-M "P -1"
_symmetry_group_IT_number 2
_symmetry_cell_setting 'triclinic'
loop_
_space_group_symop_operation_xyz
x,y,z
-x,-y,-z
loop_
_atom_site_type_symbol
_atom_site_label
_atom_site_fract_x
_atom_site_fract_y
_atom_site_fract_z
Si Si1 0.318403 0.803005 0.109561
Si Si2 0.499992 0.104154 0.014093
Si Si3 0.980160 0.940188 0.947936
Si Si4 0.923672 0.058256 0.584577
Si Si5 0.405694 0.861215 0.515641
Si Si6 0.734651 0.755546 0.678853
Si Si7 0.754351 0.401158 0.270911
Si Si8 0.646934 0.462904 0.311185
O O1 0.543052 0.746313 0.423529
O O2 0.407767 0.952676 0.063739
O O3 0.336257 0.813908 0.006362
O O4 0.018227 0.733732 0.941970
O O5 0.690493 0.114123 0.268515
O O6 0.215224 0.129684 0.735673
O O7 0.983106 0.046330 0.758689
O O8 0.686347 0.836938 0.779620
O O9 0.220457 0.875243 0.242998
O O10 0.000000 0.000000 0.000000
O O11 0.824140 0.905779 0.630157
O O12 0.253844 0.748334 0.565797
O O13 0.500000 0.000000 0.500000
O O14 0.551836 0.657898 0.688432
O O15 0.703471 0.432388 0.293747
O O16 0.050961 0.486290 0.423166
O O17 0.512551 0.429918 0.959344
#
# Coordination Sequence:
#
# PCOD9065298 Si02
#       8
#     2   2   2   2   2   2   2   2
#     4   9  17  28  42  62  91 121 158 202 233 274
#     4   9  17  28  42  63  88 123 161 194 237 280
#     4  10  20  32  47  69  94 124 158 199 241 283
#     4  10  18  28  45  64  90 127 164 193 229 291
#     4  10  20  34  51  68  91 128 163 200 246 287
#     4  10  18  28  44  65  90 126 165 194 229 279
#     4  10  20  33  47  66  95 127 166 204 237 279
#     4  10  20  31  46  68  95 130 164 200 236 279
#
# _framework density 20.181021999999999
#
# number of rings (size 3 to 8) (size 9 to 14) (size 15 to 20)
#    0.000    2.250    0.000    3.750    0.000    7.000 
#    0.000    0.000    0.000    0.000    0.000    0.000 
#    0.000    0.000    0.000  315.000    0.000   26.250 
#
# Total GULP energy -89170.996034 kJ/mol
# GULP energy per Si atom -5573.187252 kJ/mol
# Density = 2.013509 g / cm^3
# Si number density = 20.181022 Si / 1000 Ang^3
#
#
#
# Elastic Constant Matrix: (Units=GPa)
#
#
# Indices 1 2 3 4 5 6 
#
# 1 49.7150 26.9831 29.1382 10.6608 -9.7719 23.9758
# 2 26.9831 65.1611 31.8396 11.9275 12.8464 23.0035
# 3 29.1382 31.8396 145.8936 27.1102 -3.9300 12.3445
# 4 10.6608 11.9275 27.1102 28.7302 12.5364 11.6997
# 5 -9.7719 12.8464 -3.9300 12.5364 23.9908 2.3323
# 6 23.9758 23.0035 12.3445 11.6997 2.3323 28.4087
#
#
#
# Elastic Compliance Matrix: (Units=1/GPa)
#
#
# Indices 1 2 3 4 5 6 
#
# 1 0.060375 -0.021501 0.001333 -0.026621 0.052908 -0.027503
# 2 -0.021501 0.037314 -0.008236 0.024518 -0.041423 -0.015186
# 3 0.001333 -0.008236 0.011419 -0.017030 0.015105 0.006355
# 4 -0.026621 0.024518 -0.017030 0.090776 -0.072111 -0.021451
# 5 0.052908 -0.041423 0.015105 -0.072111 0.125402 0.001729
# 6 -0.027503 -0.015186 0.006355 -0.021451 0.001729 0.076640
#
#
# Mechanical properties :
#
#
# Convention : Reuss Voigt Hill
#
# Bulk Modulus (GPa) = 19.12023 48.52128 33.82076
# Shear Modulus (GPa) = 10.50053 27.74652 19.12352
#
# Velocity S-wave (km/s) = 2.28352 3.71196 3.08165
# Velocity P-wave (km/s) = 4.05556 6.51665 5.42745
#
# Compressibility (1/GPa) = 0.05230063
#
# Stress axis : x y z
#
# Youngs Moduli (GPa) = 16.56316 26.79943 87.57293
#
# Poissons Ratio (x) = 0.57622 -0.11676
# Poissons Ratio (y) = 0.35613 0.72125
# Poissons Ratio (z) = -0.02208 0.22072
#
# Static dielectric constant tensor:
#      x y z
#    x 1.864110 -0.024760 0.074500 
#    y -0.024760 1.743690 -0.003070 
#    z 0.074500 -0.003070 1.817870 
# 
# From -- ./inp_files/95546.got.cif
#   From: 2010.05.17/outbox.cif.g08.bks.cpg/sg2_48_cif.got.tgz:95546.got - 2010.06.03 11:33:40.
