data_PCOD9065908
_publ_section_title
;
Structure prediction by ZEFSAII (Michael W. Deem and Ramdas Pophale) SiO2 
 PCOD9065908
Probable space group: P -1
;
_chemical_formula_sum "Si O2"
_cell_formula_units_Z 16
_cell_length_a 17.028780
_cell_length_b 14.046531
_cell_length_c 7.702492
_cell_angle_alpha 137.196738
_cell_angle_beta 129.236691
_cell_angle_gamma 33.846600
_cell_volume 695.952758
_symmetry_space_group_name_H-M "P -1"
_symmetry_group_IT_number 2
_symmetry_cell_setting 'triclinic'
loop_
_space_group_symop_operation_xyz
x,y,z
-x,-y,-z
loop_
_atom_site_type_symbol
_atom_site_label
_atom_site_fract_x
_atom_site_fract_y
_atom_site_fract_z
Si Si1 0.338866 0.615245 0.453282
Si Si2 0.779837 0.588777 0.619767
Si Si3 0.801784 0.965265 0.682169
Si Si4 0.249845 0.387310 0.988562
Si Si5 0.048876 0.316832 0.163976
Si Si6 0.110111 0.049473 0.574509
Si Si7 0.463815 0.958455 0.573994
Si Si8 0.168896 0.768086 0.759530
O O1 0.500000 0.500000 0.500000
O O2 0.296363 0.660451 0.657181
O O3 0.236115 0.821927 0.488474
O O4 0.309333 0.485805 0.177351
O O5 0.862895 0.632527 0.701967
O O6 0.819627 0.394561 0.353085
O O7 0.612415 0.772333 0.613061
O O8 0.810125 0.562837 0.833218
O O9 0.895640 0.795659 0.727843
O O10 0.843776 0.896566 0.450082
O O11 0.641387 0.071617 0.633932
O O12 0.827268 0.105312 0.937918
O O13 0.372568 0.157242 0.822602
O O14 0.117267 0.492180 0.818080
O O15 0.077136 0.171041 0.861695
O O16 0.971154 0.102561 0.383438
O O17 0.500000 0.000000 0.500000
#
# Coordination Sequence:
#
# PCOD9065908 Si02
#       8
#     2   2   2   2   2   2   2   2
#     4  11  25  43  76 109 145 195 242 299 366 437
#     4  11  25  46  77 106 143 195 245 299 368 437
#     4  12  28  45  78 109 145 196 242 303 368 435
#     4  11  26  46  76 106 143 197 249 297 368 435
#     4  12  24  50  80 106 148 190 248 308 357 436
#     4  12  25  48  78 108 147 193 246 302 369 430
#     4  12  28  47  66 108 154 194 237 304 369 437
#     4  11  25  49  73 108 146 188 250 301 364 433
#
# _framework density 22.990065999999999
#
# number of rings (size 3 to 8) (size 9 to 14) (size 15 to 20)
#    0.000    0.500    5.000    3.000    8.750    3.000 
#    0.000    0.000    0.000    0.000    0.000    0.000 
#    0.000    0.000    0.000    0.000    0.000    0.000 
#
# Total GULP energy -89737.451286 kJ/mol
# GULP energy per Si atom -5608.590705 kJ/mol
# Density = 2.293774 g / cm^3
# Si number density = 22.990066 Si / 1000 Ang^3
#
#
#
# Elastic Constant Matrix: (Units=GPa)
#
#
# Indices 1 2 3 4 5 6 
#
# 1 116.0191 20.4600 32.2281 0.8430 19.1116 -2.8226
# 2 20.4600 152.5377 47.0501 5.3385 25.2109 -4.5593
# 3 32.2281 47.0501 120.7959 20.6604 15.3234 -0.7551
# 4 0.8430 5.3385 20.6604 29.6361 -0.5242 9.2921
# 5 19.1116 25.2109 15.3234 -0.5242 27.1264 -5.2980
# 6 -2.8226 -4.5593 -0.7551 9.2921 -5.2980 43.3972
#
#
#
# Elastic Compliance Matrix: (Units=1/GPa)
#
#
# Indices 1 2 3 4 5 6 
#
# 1 0.010205 0.000307 -0.002264 0.001239 -0.006245 -0.000371
# 2 0.000307 0.008377 -0.002533 0.000123 -0.006563 0.000028
# 3 -0.002264 -0.002533 0.011553 -0.007949 -0.002499 0.001185
# 4 0.001239 0.000123 -0.007949 0.042007 0.002612 -0.008720
# 5 -0.006245 -0.006563 -0.002499 0.002612 0.049679 0.004366
# 6 -0.000371 0.000028 0.001185 -0.008720 0.004366 0.025443
#
#
# Mechanical properties :
#
#
# Convention : Reuss Voigt Hill
#
# Bulk Modulus (GPa) = 47.27098 65.42545 56.34822
# Shear Modulus (GPa) = 30.61927 39.33957 34.97942
#
# Velocity S-wave (km/s) = 3.65341 4.14110 3.90487
# Velocity P-wave (km/s) = 6.19699 7.16832 6.70028
#
# Compressibility (1/GPa) = 0.02115463
#
# Stress axis : x y z
#
# Youngs Moduli (GPa) = 97.99398 119.37159 86.55594
#
# Poissons Ratio (x) = -0.03668 0.19599
# Poissons Ratio (y) = -0.03012 0.21927
# Poissons Ratio (z) = 0.22189 0.30240
#
# Static dielectric constant tensor:
#      x y z
#    x 1.848360 0.010450 -0.014320 
#    y 0.010450 1.849650 0.021470 
#    z -0.014320 0.021470 1.868130 
# 
# From -- ./inp_files/335827.got.cif
#   From: 2010.05.17/outbox.cif.g08.bks.cpg/sg2_168_cif.got.tgz:335827.got - 2010.06.03 11:33:40.
