data_PCOD9065679
_publ_section_title
;
Structure prediction by ZEFSAII (Michael W. Deem and Ramdas Pophale) SiO2 
 PCOD9065679
Probable space group: P -1
;
_chemical_formula_sum "Si O2"
_cell_formula_units_Z 10
_cell_length_a 7.525453
_cell_length_b 9.656819
_cell_length_c 9.420515
_cell_angle_alpha 57.149217
_cell_angle_beta 83.851863
_cell_angle_gamma 47.184993
_cell_volume 381.996836
_symmetry_space_group_name_H-M "P -1"
_symmetry_group_IT_number 2
_symmetry_cell_setting 'triclinic'
loop_
_space_group_symop_operation_xyz
x,y,z
-x,-y,-z
loop_
_atom_site_type_symbol
_atom_site_label
_atom_site_fract_x
_atom_site_fract_y
_atom_site_fract_z
Si Si1 0.615772 0.789731 0.455790
Si Si2 0.333336 0.738627 0.693538
Si Si3 0.185577 0.524975 0.652086
Si Si4 0.252226 0.240965 0.046947
Si Si5 0.102811 0.817939 0.965722
O O1 0.680913 0.599524 0.442468
O O2 0.889068 0.653657 0.584427
O O3 0.600046 0.138371 0.459902
O O4 0.492421 0.027720 0.248210
O O5 0.202326 0.694799 0.622437
O O6 0.170270 0.858473 0.787590
O O7 0.625385 0.463235 0.859384
O O8 0.328710 0.309131 0.875604
O O9 0.127418 0.156757 0.052986
O O10 0.000000 0.500000 0.000000
O O11 0.000000 0.000000 0.000000
#
# Coordination Sequence:
#
# PCOD9065679 Si02
#       5
#     2   2   2   2   2
#     4  11  26  47  79 114 153 203 256 319 381 463
#     4  11  24  51  77 112 156 199 260 319 380 463
#     4  11  24  50  77 116 154 198 261 317 386 455
#     4  12  25  51  74 112 156 203 254 318 388 453
#     4  11  25  48  80 112 154 204 254 318 392 454
#
# _framework density 26.178227
#
# number of rings (size 3 to 8) (size 9 to 14) (size 15 to 20)
#    0.000    0.800    4.000    2.400    0.000    1.600 
#    7.200    0.000    0.000    0.000    0.000    0.000 
#    0.000    0.000    0.000    0.000    0.000    0.000 
#
# Total GULP energy -56190.421534 kJ/mol
# GULP energy per Si atom -5619.042153 kJ/mol
# Density = 2.611864 g / cm^3
# Si number density = 26.178227 Si / 1000 Ang^3
#
#
#
# Elastic Constant Matrix: (Units=GPa)
#
#
# Indices 1 2 3 4 5 6 
#
# 1 91.5858 35.8864 30.8754 5.0394 9.6001 9.7347
# 2 35.8864 178.0134 27.2412 38.2052 -4.9657 -2.5824
# 3 30.8754 27.2412 155.7926 -6.3354 3.4012 1.3673
# 4 5.0394 38.2052 -6.3354 37.9902 -4.8804 11.7107
# 5 9.6001 -4.9657 3.4012 -4.8804 40.2925 3.9939
# 6 9.7347 -2.5824 1.3673 11.7107 3.9939 35.8692
#
#
#
# Elastic Compliance Matrix: (Units=1/GPa)
#
#
# Indices 1 2 3 4 5 6 
#
# 1 0.013335 -0.002880 -0.001976 0.001672 -0.002768 -0.003989
# 2 -0.002880 0.008614 -0.001384 -0.009926 0.000199 0.004673
# 3 -0.001976 -0.001384 0.007185 0.003145 0.000162 -0.000882
# 4 0.001672 -0.009926 0.003145 0.042004 0.004740 -0.015529
# 5 -0.002768 0.000199 0.000162 0.004740 0.026433 -0.003731
# 6 -0.003989 0.004673 -0.000882 -0.015529 -0.003731 0.034817
#
#
# Mechanical properties :
#
#
# Convention : Reuss Voigt Hill
#
# Bulk Modulus (GPa) = 60.04807 68.15533 64.10170
# Shear Modulus (GPa) = 33.24061 44.92298 39.08179
#
# Velocity S-wave (km/s) = 3.56726 4.14701 3.86801
# Velocity P-wave (km/s) = 6.32101 7.00156 6.66997
#
# Compressibility (1/GPa) = 0.01665332
#
# Stress axis : x y z
#
# Youngs Moduli (GPa) = 74.98887 116.09465 139.18738
#
# Poissons Ratio (x) = 0.33433 0.27502
# Poissons Ratio (y) = 0.21595 0.19270
# Poissons Ratio (z) = 0.14817 0.16073
#
# Static dielectric constant tensor:
#      x y z
#    x 1.954960 0.031570 0.013800 
#    y 0.031570 2.143860 -0.041810 
#    z 0.013800 -0.041810 2.064820 
# 
# From -- ./inp_files/147611.got.cif
#   From: 2010.05.17/outbox.cif.g08.bks.cpg/sg2_74_cif.got.tgz:147611.got - 2010.06.03 11:33:40.
