data_PCOD9065434
_publ_section_title
;
Structure prediction by ZEFSAII (Michael W. Deem and Ramdas Pophale) SiO2 
 PCOD9065434
Probable space group: P -1
;
_chemical_formula_sum "Si O2"
_cell_formula_units_Z 15
_cell_length_a 9.573287
_cell_length_b 8.802211
_cell_length_c 14.394033
_cell_angle_alpha 63.902795
_cell_angle_beta 51.260521
_cell_angle_gamma 46.783872
_cell_volume 689.344657
_symmetry_space_group_name_H-M "P -1"
_symmetry_group_IT_number 2
_symmetry_cell_setting 'triclinic'
loop_
_space_group_symop_operation_xyz
x,y,z
-x,-y,-z
loop_
_atom_site_type_symbol
_atom_site_label
_atom_site_fract_x
_atom_site_fract_y
_atom_site_fract_z
Si Si1 0.405218 0.689915 0.243745
Si Si2 0.756939 0.896407 0.421278
Si Si3 0.051015 0.781376 0.505864
Si Si4 0.001789 0.923830 0.799571
Si Si5 0.871439 0.530185 0.139330
Si Si6 0.505124 0.378669 0.121913
Si Si7 0.976880 0.495802 0.722079
Si Si8 0.000000 0.000000 0.000000
O O1 0.282229 0.662964 0.386384
O O2 0.609645 0.688893 0.192895
O O3 0.495256 0.505941 0.181290
O O4 0.217006 0.901167 0.213078
O O5 0.866806 0.824715 0.496362
O O6 0.893116 0.697509 0.350311
O O7 0.500000 0.000000 0.500000
O O8 0.808461 0.054616 0.320031
O O9 0.045709 0.647433 0.625428
O O10 0.000000 0.000000 0.500000
O O11 0.070736 0.697219 0.808243
O O12 0.961312 0.972824 0.912125
O O13 0.957703 0.585494 0.177383
O O14 0.000000 0.500000 0.000000
O O15 0.283419 0.390315 0.210835
O O16 0.500000 0.500000 0.000000
O O17 0.731902 0.153573 0.087272
#
# Coordination Sequence:
#
# PCOD9065434 Si02
#       8
#     2   2   2   2   2   2   2   1
#     4  11  24  48  73  97 154 188 241 298 368 429
#     4  11  26  44  74 112 141 185 246 297 364 436
#     4  11  26  49  72 105 145 192 236 305 368 426
#     4  11  25  47  69 106 145 191 240 301 360 428
#     4  12  29  47  72 107 146 195 244 294 368 434
#     4  12  23  46  70 107 143 188 242 302 354 430
#     4  12  26  47  75 109 144 190 245 303 362 436
#     4  12  24  38  80  96 140 196 238 286 370 414
#
# _framework density 21.759796000000001
#
# number of rings (size 3 to 8) (size 9 to 14) (size 15 to 20)
#    0.000    0.533    5.333    2.800    7.467    1.067 
#    2.400    0.000    0.000    0.000    0.000    0.000 
#    0.000    0.000    0.000    0.000    0.000    0.000 
#
# Total GULP energy -83748.240196 kJ/mol
# GULP energy per Si atom -5583.216013 kJ/mol
# Density = 2.171027 g / cm^3
# Si number density = 21.759796 Si / 1000 Ang^3
#
#
#
# Elastic Constant Matrix: (Units=GPa)
#
#
# Indices 1 2 3 4 5 6 
#
# 1 128.9822 30.2901 44.6474 26.9411 -2.2050 -23.9229
# 2 30.2901 58.2487 43.1227 15.8520 -16.9544 -6.6610
# 3 44.6474 43.1227 123.3135 22.3922 -2.2425 -10.6146
# 4 26.9411 15.8520 22.3922 39.8433 -10.5870 -12.0778
# 5 -2.2050 -16.9544 -2.2425 -10.5870 51.1426 13.0587
# 6 -23.9229 -6.6610 -10.6146 -12.0778 13.0587 32.0179
#
#
#
# Elastic Compliance Matrix: (Units=1/GPa)
#
#
# Indices 1 2 3 4 5 6 
#
# 1 0.011256 -0.003907 -0.001432 -0.004054 -0.003505 0.007023
# 2 -0.003907 0.028249 -0.008166 -0.002927 0.009433 -0.004700
# 3 -0.001432 -0.008166 0.012093 -0.003005 -0.003224 0.001421
# 4 -0.004054 -0.002927 -0.003005 0.033721 0.004062 0.006429
# 5 -0.003505 0.009433 -0.003224 0.004062 0.025984 -0.010791
# 6 0.007023 -0.004700 0.001421 0.006429 -0.010791 0.042799
#
#
# Mechanical properties :
#
#
# Convention : Reuss Voigt Hill
#
# Bulk Modulus (GPa) = 40.66965 60.74054 50.70509
# Shear Modulus (GPa) = 26.41206 37.43304 31.92255
#
# Velocity S-wave (km/s) = 3.48774 4.15213 3.83435
# Velocity P-wave (km/s) = 5.91185 7.13874 6.55407
#
# Compressibility (1/GPa) = 0.02458836
#
# Stress axis : x y z
#
# Youngs Moduli (GPa) = 88.84488 35.39918 82.69306
#
# Poissons Ratio (x) = 0.13829 0.11843
# Poissons Ratio (y) = 0.34708 0.67526
# Poissons Ratio (z) = 0.12724 0.28907
#
# Static dielectric constant tensor:
#      x y z
#    x 1.816200 -0.013830 0.039410 
#    y -0.013830 1.795860 -0.031500 
#    z 0.039410 -0.031500 1.781060 
# 
# From -- ./inp_files/492239.got.cif
#   From: 2010.05.17/outbox.cif.g08.bks.cpg/sg2_247_cif.got.tgz:492239.got - 2010.06.03 11:33:40.
