data_PCOD9065071
_publ_section_title
;
Structure prediction by ZEFSAII (Michael W. Deem and Ramdas Pophale) SiO2 
 PCOD9065071
Probable space group: P -1
;
_chemical_formula_sum "Si O2"
_cell_formula_units_Z 12
_cell_length_a 20.586739
_cell_length_b 13.310417
_cell_length_c 7.771933
_cell_angle_alpha 35.294373
_cell_angle_beta 34.759805
_cell_angle_gamma 24.027934
_cell_volume 474.100819
_symmetry_space_group_name_H-M "P -1"
_symmetry_group_IT_number 2
_symmetry_cell_setting 'triclinic'
loop_
_space_group_symop_operation_xyz
x,y,z
-x,-y,-z
loop_
_atom_site_type_symbol
_atom_site_label
_atom_site_fract_x
_atom_site_fract_y
_atom_site_fract_z
Si Si1 0.004986 0.665497 0.149298
Si Si2 0.614421 0.330932 0.745959
Si Si3 0.825186 0.790436 0.020706
Si Si4 0.324149 0.372052 0.320356
Si Si5 0.625567 0.703482 0.086495
Si Si6 0.864644 0.149173 0.742851
O O1 0.000000 0.500000 0.500000
O O2 0.872166 0.788540 0.115062
O O3 0.199167 0.474549 0.940375
O O4 0.935046 0.918029 0.035199
O O5 0.566706 0.569174 0.430233
O O6 0.695203 0.294912 0.802780
O O7 0.467274 0.356600 0.052801
O O8 0.754008 0.051216 0.733755
O O9 0.679573 0.806904 0.319816
O O10 0.000000 0.500000 0.000000
O O11 0.162366 0.651923 0.362223
O O12 0.321679 0.337962 0.170000
O O13 0.500000 0.000000 0.000000
O O14 0.000000 0.000000 0.500000
#
# Coordination Sequence:
#
# PCOD9065071 Si02
#       6
#     2   2   2   2   2   2
#     4  11  24  47  70  99 144 187 242 296 352 418
#     4  11  26  47  72 107 148 188 241 298 357 430
#     4  11  26  45  76 108 139 191 243 300 354 421
#     4  12  26  46  73 110 145 189 237 291 368 430
#     4  12  29  48  71 105 150 192 236 295 360 428
#     4  11  24  48  75 105 139 189 240 302 355 416
#
# _framework density 25.311070000000001
#
# number of rings (size 3 to 8) (size 9 to 14) (size 15 to 20)
#    0.000    0.667    3.333    3.500    4.667    3.333 
#    0.000    0.000    0.000    0.000    0.000    0.000 
#    0.000    0.000    0.000    0.000    0.000    0.000 
#
# Total GULP energy -66997.822762 kJ/mol
# GULP energy per Si atom -5583.151897 kJ/mol
# Density = 2.525346 g / cm^3
# Si number density = 25.311070 Si / 1000 Ang^3
#
#
#
# Elastic Constant Matrix: (Units=GPa)
#
#
# Indices 1 2 3 4 5 6 
#
# 1 69.4821 39.0034 31.5627 5.1468 -7.3189 12.9548
# 2 39.0034 149.4345 66.7841 -29.0267 -8.6799 39.9671
# 3 31.5627 66.7841 154.9818 -37.4941 -40.7029 14.5272
# 4 5.1468 -29.0267 -37.4941 59.7870 -7.5424 -18.3301
# 5 -7.3189 -8.6799 -40.7029 -7.5424 44.7886 8.4691
# 6 12.9548 39.9671 14.5272 -18.3301 8.4691 53.5473
#
#
#
# Elastic Compliance Matrix: (Units=1/GPa)
#
#
# Indices 1 2 3 4 5 6 
#
# 1 0.019450 -0.003955 -0.004442 -0.007522 -0.002372 -0.002748
# 2 -0.003955 0.010941 -0.002688 0.002256 0.000505 -0.005788
# 3 -0.004442 -0.002688 0.014408 0.009947 0.013437 0.000452
# 4 -0.007522 0.002256 0.009947 0.027764 0.011968 0.005049
# 5 -0.002372 0.000505 0.013437 0.011968 0.037255 -0.005244
# 6 -0.002748 -0.005788 0.000452 0.005049 -0.005244 0.026095
#
#
# Mechanical properties :
#
#
# Convention : Reuss Voigt Hill
#
# Bulk Modulus (GPa) = 44.19163 72.06655 58.12909
# Shear Modulus (GPa) = 30.18820 47.39447 38.79133
#
# Velocity S-wave (km/s) = 3.45728 4.33191 3.91907
# Velocity P-wave (km/s) = 5.78224 7.31811 6.59504
#
# Compressibility (1/GPa) = 0.02262872
#
# Stress axis : x y z
#
# Youngs Moduli (GPa) = 51.41411 91.39757 69.40508
#
# Poissons Ratio (x) = 0.36151 0.30828
# Poissons Ratio (y) = 0.20336 0.18657
# Poissons Ratio (z) = 0.22837 0.24569
#
# Static dielectric constant tensor:
#      x y z
#    x 2.114940 0.089960 -0.111730 
#    y 0.089960 2.203930 -0.041820 
#    z -0.111730 -0.041820 2.144520 
# 
# From -- ./inp_files/354485.got.cif
#   From: 2010.05.17/outbox.cif.g08.bks.cpg/sg2_178_cif.got.tgz:354485.got - 2010.06.03 11:33:40.
