data_PCOD9065087
_publ_section_title
;
Structure prediction by ZEFSAII (Michael W. Deem and Ramdas Pophale) SiO2 
 PCOD9065087
Probable space group: P -1
;
_chemical_formula_sum "Si O2"
_cell_formula_units_Z 15
_cell_length_a 8.758340
_cell_length_b 8.825015
_cell_length_c 9.993878
_cell_angle_alpha 63.286034
_cell_angle_beta 88.715181
_cell_angle_gamma 72.869899
_cell_volume 653.895942
_symmetry_space_group_name_H-M "P -1"
_symmetry_group_IT_number 2
_symmetry_cell_setting 'triclinic'
loop_
_space_group_symop_operation_xyz
x,y,z
-x,-y,-z
loop_
_atom_site_type_symbol
_atom_site_label
_atom_site_fract_x
_atom_site_fract_y
_atom_site_fract_z
Si Si1 0.553808 0.905596 0.395698
Si Si2 0.840054 0.283662 0.860601
Si Si3 0.940643 0.930405 0.831839
Si Si4 0.325960 0.685249 0.537293
Si Si5 0.479267 0.436380 0.876991
Si Si6 0.000000 0.000000 0.500000
Si Si7 0.824238 0.555288 0.544113
Si Si8 0.600655 0.882330 0.925455
O O1 0.440421 0.781477 0.423779
O O2 0.734514 0.768033 0.455689
O O3 0.500000 0.000000 0.500000
O O4 0.518295 0.056598 0.223766
O O5 0.653230 0.307084 0.877021
O O6 0.840364 0.472776 0.725153
O O7 0.923990 0.127541 0.814042
O O8 0.933776 0.217846 0.021326
O O9 0.765854 0.911412 0.868465
O O10 0.993198 0.916367 0.684097
O O11 0.417307 0.585678 0.706474
O O12 0.278866 0.545813 0.497776
O O13 0.164768 0.836481 0.524285
O O14 0.500000 0.500000 0.000000
O O15 0.362167 0.318917 0.944736
O O16 0.000000 0.500000 0.500000
O O17 0.500000 0.000000 0.000000
#
# Coordination Sequence:
#
# PCOD9065087 Si02
#       8
#     2   2   2   2   2   1   2   2
#     4  12  27  48  78 110 149 198 255 313 375 457
#     4  11  24  47  71 104 152 187 250 299 386 441
#     4  11  25  45  73 108 143 198 240 318 367 449
#     4  12  26  49  76 103 154 202 246 309 382 450
#     4  12  26  47  72 108 146 195 241 310 379 450
#     4  12  24  48  74 104 144 198 258 296 388 436
#     4  12  28  45  76 112 149 199 259 310 382 458
#     4  12  25  46  74 107 142 189 254 301 374 452
#
# _framework density 22.939430000000002
#
# number of rings (size 3 to 8) (size 9 to 14) (size 15 to 20)
#    0.000    0.267    5.333    2.800    5.600    0.000 
#    0.000    1.333    0.000    0.000    0.000    0.000 
#    0.000    0.000    0.000    0.000    0.000    0.000 
#
# Total GULP energy -83762.511845 kJ/mol
# GULP energy per Si atom -5584.167456 kJ/mol
# Density = 2.288722 g / cm^3
# Si number density = 22.939430 Si / 1000 Ang^3
#
#
#
# Elastic Constant Matrix: (Units=GPa)
#
#
# Indices 1 2 3 4 5 6 
#
# 1 55.2362 19.4978 23.9574 -4.1118 0.1871 -24.2243
# 2 19.4978 44.2781 -6.4782 -3.0913 8.9944 -30.2574
# 3 23.9574 -6.4782 142.7792 -9.1521 6.9456 -19.1767
# 4 -4.1118 -3.0913 -9.1521 44.7024 -13.6019 1.6829
# 5 0.1871 8.9944 6.9456 -13.6019 38.4666 -8.2054
# 6 -24.2243 -30.2574 -19.1767 1.6829 -8.2054 46.0572
#
#
#
# Elastic Compliance Matrix: (Units=1/GPa)
#
#
# Indices 1 2 3 4 5 6 
#
# 1 0.025976 -0.007207 -0.003675 0.002283 0.004771 0.008164
# 2 -0.007207 0.049238 0.007953 0.001434 -0.005842 0.030775
# 3 -0.003675 0.007953 0.009047 0.001334 -0.001568 0.006731
# 4 0.002283 0.001434 0.001334 0.025623 0.009199 0.003401
# 5 0.004771 -0.005842 -0.001568 0.009199 0.031581 0.003309
# 6 0.008164 0.030775 0.006731 0.003401 0.003309 0.049491
#
#
# Mechanical properties :
#
#
# Convention : Reuss Voigt Hill
#
# Bulk Modulus (GPa) = 12.75449 35.13860 23.94654
# Shear Modulus (GPa) = 22.42657 39.53301 30.97979
#
# Velocity S-wave (km/s) = 3.13012 4.15585 3.67891
# Velocity P-wave (km/s) = 4.31691 6.19511 5.33924
#
# Compressibility (1/GPa) = 0.07840378
#
# Stress axis : x y z
#
# Youngs Moduli (GPa) = 38.49670 20.30938 110.53361
#
# Poissons Ratio (x) = 0.14637 0.40619
# Poissons Ratio (y) = 0.27744 -0.87905
# Poissons Ratio (z) = 0.14147 -0.16152
#
# Static dielectric constant tensor:
#      x y z
#    x 1.972720 0.213210 0.036120 
#    y 0.213210 2.115020 0.018230 
#    z 0.036120 0.018230 1.823450 
# 
# From -- ./inp_files/157430.got.cif
#   From: 2010.05.17/outbox.cif.g08.bks.cpg/sg2_79_cif.got.tgz:157430.got - 2010.06.03 11:33:40.
