data_PCOD9065157
_publ_section_title
;
Structure prediction by ZEFSAII (Michael W. Deem and Ramdas Pophale) SiO2 
 PCOD9065157
Probable space group: P -1
;
_chemical_formula_sum "Si O2"
_cell_formula_units_Z 16
_cell_length_a 9.027380
_cell_length_b 19.086754
_cell_length_c 7.950228
_cell_angle_alpha 143.557533
_cell_angle_beta 126.027046
_cell_angle_gamma 67.362113
_cell_volume 646.883122
_symmetry_space_group_name_H-M "P -1"
_symmetry_group_IT_number 2
_symmetry_cell_setting 'triclinic'
loop_
_space_group_symop_operation_xyz
x,y,z
-x,-y,-z
loop_
_atom_site_type_symbol
_atom_site_label
_atom_site_fract_x
_atom_site_fract_y
_atom_site_fract_z
Si Si1 0.526170 0.606531 0.860781
Si Si2 0.826368 0.155356 0.617222
Si Si3 0.436365 0.656152 0.270543
Si Si4 0.948919 0.623558 0.266838
Si Si5 0.482203 0.006047 0.698053
Si Si6 0.133495 0.033776 0.997809
Si Si7 0.349863 0.724031 0.677078
Si Si8 0.871432 0.723438 0.723996
O O1 0.500000 0.500000 0.500000
O O2 0.425422 0.698044 0.862429
O O3 0.438516 0.590208 0.961315
O O4 0.749919 0.647124 0.113301
O O5 0.676619 0.237965 0.634995
O O6 0.715766 0.060450 0.494368
O O7 0.886989 0.073832 0.355840
O O8 0.007909 0.247221 0.974741
O O9 0.362142 0.621725 0.345150
O O10 0.652409 0.691821 0.528400
O O11 0.129843 0.723662 0.538373
O O12 0.935974 0.622499 0.458337
O O13 0.000000 0.500000 0.000000
O O14 0.500000 0.000000 0.500000
O O15 0.532424 0.147213 0.048814
O O16 0.648429 0.946109 0.768132
O O17 0.090114 0.152746 0.114455
O O18 0.000000 0.000000 0.000000
#
# Coordination Sequence:
#
# PCOD9065157 Si02
#       8
#     2   2   2   2   2   2   2   2
#     4  11  25  48  75 102 141 183 237 302 360 419
#     4  12  24  47  69 100 153 190 229 296 351 418
#     4  11  25  46  73 106 144 188 237 292 355 426
#     4  11  24  47  73 103 139 185 234 304 363 415
#     4  12  24  42  70 103 144 193 234 286 358 427
#     4  12  24  41  64 102 140 187 237 284 345 424
#     4  12  25  46  73 103 141 187 241 287 359 429
#     4  11  25  44  70 100 143 187 238 290 353 422
#
# _framework density 24.733989000000001
#
# number of rings (size 3 to 8) (size 9 to 14) (size 15 to 20)
#    0.000    0.500    3.750    5.250    1.750    2.500 
#    2.250    0.625    0.000    0.000    0.000    0.000 
#    0.000    0.000    0.000    0.000    0.000    0.000 
#
# Total GULP energy -89473.352219 kJ/mol
# GULP energy per Si atom -5592.084514 kJ/mol
# Density = 2.467769 g / cm^3
# Si number density = 24.733989 Si / 1000 Ang^3
#
#
#
# Elastic Constant Matrix: (Units=GPa)
#
#
# Indices 1 2 3 4 5 6 
#
# 1 141.2147 16.3121 50.7237 -14.9296 -30.3272 -11.8971
# 2 16.3121 60.5992 34.3416 -12.7586 -1.2793 -9.1036
# 3 50.7237 34.3416 137.9076 -27.0611 -32.5411 -14.8732
# 4 -14.9296 -12.7586 -27.0611 43.4594 -3.0477 -8.8242
# 5 -30.3272 -1.2793 -32.5411 -3.0477 55.0656 3.1276
# 6 -11.8971 -9.1036 -14.8732 -8.8242 3.1276 27.4758
#
#
#
# Elastic Compliance Matrix: (Units=1/GPa)
#
#
# Indices 1 2 3 4 5 6 
#
# 1 0.009151 -0.000433 -0.001179 0.003349 0.004304 0.003766
# 2 -0.000433 0.020713 -0.003934 0.004603 -0.002184 0.006272
# 3 -0.001179 -0.003934 0.012600 0.008152 0.006767 0.006855
# 4 0.003349 0.004603 0.008152 0.034713 0.007687 0.017662
# 5 0.004304 -0.002184 0.006767 0.007687 0.024651 0.004466
# 6 0.003766 0.006272 0.006855 0.017662 0.004466 0.048979
#
#
# Mechanical properties :
#
#
# Convention : Reuss Voigt Hill
#
# Bulk Modulus (GPa) = 31.87630 60.27515 46.07573
# Shear Modulus (GPa) = 29.00944 41.08977 35.04961
#
# Velocity S-wave (km/s) = 3.42842 4.08029 3.76847
# Velocity P-wave (km/s) = 5.34674 6.82793 6.13222
#
# Compressibility (1/GPa) = 0.03137127
#
# Stress axis : x y z
#
# Youngs Moduli (GPa) = 109.28175 48.27813 79.36278
#
# Poissons Ratio (x) = 0.02093 0.09355
# Poissons Ratio (y) = 0.04737 0.31224
# Poissons Ratio (z) = 0.12882 0.18994
#
# Static dielectric constant tensor:
#      x y z
#    x 1.959460 0.026340 -0.014730 
#    y 0.026340 2.003260 0.017260 
#    z -0.014730 0.017260 2.042690 
# 
# From -- ./inp_files/226846.got.cif
#   From: 2010.05.17/outbox.cif.g08.bks.cpg/sg2_114_cif.got.tgz:226846.got - 2010.06.03 11:33:40.
