data_PCOD9065383
_publ_section_title
;
Structure prediction by ZEFSAII (Michael W. Deem and Ramdas Pophale) SiO2 
 PCOD9065383
Probable space group: P -1
;
_chemical_formula_sum "Si O2"
_cell_formula_units_Z 10
_cell_length_a 14.299434
_cell_length_b 5.395356
_cell_length_c 17.942672
_cell_angle_alpha 124.992495
_cell_angle_beta 19.702444
_cell_angle_gamma 127.526943
_cell_volume 370.118098
_symmetry_space_group_name_H-M "P -1"
_symmetry_group_IT_number 2
_symmetry_cell_setting 'triclinic'
loop_
_space_group_symop_operation_xyz
x,y,z
-x,-y,-z
loop_
_atom_site_type_symbol
_atom_site_label
_atom_site_fract_x
_atom_site_fract_y
_atom_site_fract_z
Si Si1 0.333489 0.919904 0.880331
Si Si2 0.145082 0.639779 0.492529
Si Si3 0.299952 0.530756 0.512103
Si Si4 0.365197 0.128571 0.053075
Si Si5 0.831460 0.054782 0.209363
O O1 0.463383 0.664950 0.698571
O O2 0.522882 0.238744 0.756459
O O3 0.411604 0.948165 0.913147
O O4 0.002267 0.897130 0.114087
O O5 0.121592 0.451715 0.555459
O O6 0.000000 0.500000 0.500000
O O7 0.972254 0.901904 0.684859
O O8 0.143354 0.599471 0.716360
O O9 0.503486 0.884191 0.409212
O O10 0.500000 0.500000 0.000000
O O11 0.500000 0.000000 0.000000
O O12 0.000000 0.000000 0.000000
#
# Coordination Sequence:
#
# PCOD9065383 Si02
#       5
#     2   2   2   2   2
#     4  12  26  45  76 106 150 199 248 319 377 455
#     4  12  25  45  73 107 149 192 254 305 381 453
#     4  11  26  45  71 108 144 194 257 305 376 461
#     4  12  28  48  75 111 157 204 254 314 383 459
#     4  11  24  48  72 103 150 192 252 316 379 444
#
# _framework density 27.018405000000001
#
# number of rings (size 3 to 8) (size 9 to 14) (size 15 to 20)
#    0.000    0.400    6.000    1.800    2.800    4.000 
#    0.000    0.000    0.000    0.000    0.000    0.000 
#    0.000    0.000    0.000    0.000    0.000    0.000 
#
# Total GULP energy -55936.248750 kJ/mol
# GULP energy per Si atom -5593.624875 kJ/mol
# Density = 2.695691 g / cm^3
# Si number density = 27.018405 Si / 1000 Ang^3
#
#
#
# Elastic Constant Matrix: (Units=GPa)
#
#
# Indices 1 2 3 4 5 6 
#
# 1 155.8465 40.6603 28.5561 9.4616 12.8098 10.4087
# 2 40.6603 77.7365 31.0178 22.8188 8.4639 6.2648
# 3 28.5561 31.0178 147.8451 31.4794 -0.5828 9.1116
# 4 9.4616 22.8188 31.4794 64.4433 10.2959 7.7911
# 5 12.8098 8.4639 -0.5828 10.2959 61.5797 13.6655
# 6 10.4087 6.2648 9.1116 7.7911 13.6655 42.8973
#
#
#
# Elastic Compliance Matrix: (Units=1/GPa)
#
#
# Indices 1 2 3 4 5 6 
#
# 1 0.007637 -0.003737 -0.000824 0.000884 -0.001015 -0.000969
# 2 -0.003737 0.016961 -0.001899 -0.004386 -0.000814 -0.000111
# 3 -0.000824 -0.001899 0.008080 -0.003230 0.001284 -0.001061
# 4 0.000884 -0.004386 -0.003230 0.019101 -0.002456 -0.001575
# 5 -0.001015 -0.000814 0.001284 -0.002456 0.018148 -0.005243
# 6 -0.000969 -0.000111 -0.001061 -0.001575 -0.005243 0.025745
#
#
# Mechanical properties :
#
#
# Convention : Reuss Voigt Hill
#
# Bulk Modulus (GPa) = 50.60950 64.65518 57.63234
# Shear Modulus (GPa) = 43.41128 52.53031 47.97080
#
# Velocity S-wave (km/s) = 4.01275 4.41414 4.21822
# Velocity P-wave (km/s) = 6.34364 7.06834 6.71577
#
# Compressibility (1/GPa) = 0.01975914
#
# Stress axis : x y z
#
# Youngs Moduli (GPa) = 130.94308 58.95782 123.76820
#
# Poissons Ratio (x) = 0.22030 0.10192
# Poissons Ratio (y) = 0.48928 0.23507
# Poissons Ratio (z) = 0.10783 0.11197
#
# Static dielectric constant tensor:
#      x y z
#    x 2.126270 0.007360 0.046830 
#    y 0.007360 2.304690 -0.097490 
#    z 0.046830 -0.097490 2.150650 
# 
# From -- ./inp_files/1564.got.cif
#   From: 2010.05.17/outbox.cif.g08.bks.cpg/sg2_1_cif.got.tgz:1564.got - 2010.06.03 11:33:40.
