data_PCOD9065732
_publ_section_title
;
Structure prediction by ZEFSAII (Michael W. Deem and Ramdas Pophale) SiO2 
 PCOD9065732
Probable space group: P -1
;
_chemical_formula_sum "Si O2"
_cell_formula_units_Z 15
_cell_length_a 10.149251
_cell_length_b 19.774771
_cell_length_c 19.764489
_cell_angle_alpha 17.793684
_cell_angle_beta 145.994901
_cell_angle_gamma 145.599278
_cell_volume 662.918680
_symmetry_space_group_name_H-M "P -1"
_symmetry_group_IT_number 2
_symmetry_cell_setting 'triclinic'
loop_
_space_group_symop_operation_xyz
x,y,z
-x,-y,-z
loop_
_atom_site_type_symbol
_atom_site_label
_atom_site_fract_x
_atom_site_fract_y
_atom_site_fract_z
Si Si1 0.402336 0.508603 0.524700
Si Si2 0.206069 0.366869 0.234264
Si Si3 0.000000 0.000000 0.000000
Si Si4 0.489742 0.781439 0.036012
Si Si5 0.495494 0.276597 0.317270
Si Si6 0.170791 0.114262 0.595590
Si Si7 0.931270 0.689117 0.133327
Si Si8 0.183402 0.055992 0.278602
O O1 0.500000 0.500000 0.500000
O O2 0.419777 0.293337 0.782435
O O3 0.586184 0.716014 0.439355
O O4 0.133043 0.545389 0.370844
O O5 0.425694 0.557875 0.175653
O O6 0.311194 0.251041 0.326096
O O7 0.112361 0.199439 0.416015
O O8 0.000000 0.500000 0.000000
O O9 0.708228 0.963993 0.925387
O O10 0.936066 0.848987 0.047312
O O11 0.247610 0.874283 0.852309
O O12 0.680095 0.513878 0.180155
O O13 0.346838 0.249570 0.209782
O O14 0.650230 0.080631 0.562831
O O15 0.972105 0.105412 0.577551
O O16 0.978419 0.839322 0.942290
#
# Coordination Sequence:
#
# PCOD9065732 Si02
#       8
#     2   2   1   2   2   2   2   2
#     4  11  25  41  67 100 138 182 229 289 347 407
#     4  11  26  46  74 102 138 182 232 291 347 411
#     4  12  26  44  72 102 138 190 234 284 352 414
#     4  11  25  44  68 102 140 179 235 287 348 411
#     4  11  26  47  71 102 141 183 232 296 344 417
#     4  11  25  46  68 103 141 181 232 290 347 416
#     4  12  26  44  73 102 142 185 235 291 343 413
#     4  11  27  46  72 104 141 188 235 283 356 416
#
# _framework density 22.627209000000001
#
# number of rings (size 3 to 8) (size 9 to 14) (size 15 to 20)
#    0.000    0.800    2.667    2.800    5.600    9.067 
#    0.000    0.000    0.000    0.000    0.000    0.000 
#    0.000    0.000    0.000    0.000    0.000    0.000 
#
# Total GULP energy -83652.984403 kJ/mol
# GULP energy per Si atom -5576.865627 kJ/mol
# Density = 2.257571 g / cm^3
# Si number density = 22.627209 Si / 1000 Ang^3
#
#
#
# Elastic Constant Matrix: (Units=GPa)
#
#
# Indices 1 2 3 4 5 6 
#
# 1 154.9804 34.9607 65.3630 13.8612 15.4457 -9.4647
# 2 34.9607 119.2577 18.2011 -6.0308 -3.7612 -12.4477
# 3 65.3630 18.2011 101.6974 35.3485 -3.6465 -17.6642
# 4 13.8612 -6.0308 35.3485 39.8675 -3.2496 2.2117
# 5 15.4457 -3.7612 -3.6465 -3.2496 14.2138 -3.0795
# 6 -9.4647 -12.4477 -17.6642 2.2117 -3.0795 45.0051
#
#
#
# Elastic Compliance Matrix: (Units=1/GPa)
#
#
# Indices 1 2 3 4 5 6 
#
# 1 0.012324 -0.002916 -0.009384 0.002408 -0.016706 -0.003159
# 2 -0.002916 0.009928 -0.000411 0.003319 0.006943 0.002283
# 3 -0.009384 -0.000411 0.024162 -0.017572 0.014271 0.009236
# 4 0.002408 0.003319 -0.017572 0.040859 0.001496 -0.007378
# 5 -0.016706 0.006943 0.014271 0.001496 0.096634 0.010547
# 6 -0.003159 0.002283 0.009236 -0.007378 0.010547 0.026896
#
#
# Mechanical properties :
#
#
# Convention : Reuss Voigt Hill
#
# Bulk Modulus (GPa) = 47.63614 68.10943 57.87278
# Shear Modulus (GPa) = 20.55738 36.97799 28.76769
#
# Velocity S-wave (km/s) = 3.01744 4.04694 3.56950
# Velocity P-wave (km/s) = 5.76526 7.21131 6.52845
#
# Compressibility (1/GPa) = 0.02099247
#
# Stress axis : x y z
#
# Youngs Moduli (GPa) = 81.13925 100.72701 41.38806
#
# Poissons Ratio (x) = 0.29368 0.38839
# Poissons Ratio (y) = 0.23657 0.01701
# Poissons Ratio (z) = 0.76142 0.04140
#
# Static dielectric constant tensor:
#      x y z
#    x 1.872450 0.012310 0.047710 
#    y 0.012310 1.859940 -0.037770 
#    z 0.047710 -0.037770 1.902230 
# 
# From -- ./inp_files/118803.got.cif
#   From: 2010.05.17/outbox.cif.g08.bks.cpg/sg2_60_cif.got.tgz:118803.got - 2010.06.03 11:33:40.
