data_PCOD9065754
_publ_section_title
;
Structure prediction by ZEFSAII (Michael W. Deem and Ramdas Pophale) SiO2 
 PCOD9065754
Probable space group: P -1
;
_chemical_formula_sum "Si O2"
_cell_formula_units_Z 10
_cell_length_a 10.127104
_cell_length_b 14.181028
_cell_length_c 8.093504
_cell_angle_alpha 105.882742
_cell_angle_beta 70.881444
_cell_angle_gamma 44.361722
_cell_volume 491.115958
_symmetry_space_group_name_H-M "P -1"
_symmetry_group_IT_number 2
_symmetry_cell_setting 'triclinic'
loop_
_space_group_symop_operation_xyz
x,y,z
-x,-y,-z
loop_
_atom_site_type_symbol
_atom_site_label
_atom_site_fract_x
_atom_site_fract_y
_atom_site_fract_z
Si Si1 0.485194 0.479080 0.305048
Si Si2 0.682343 0.219012 0.647234
Si Si3 0.216849 0.463764 0.240104
Si Si4 0.424512 0.145869 0.197366
Si Si5 0.877379 0.984366 0.150629
O O1 0.500000 0.500000 0.500000
O O2 0.333045 0.659842 0.350890
O O3 0.314065 0.483946 0.346604
O O4 0.830090 0.247432 0.000504
O O5 0.670562 0.157504 0.461230
O O6 0.407765 0.370146 0.955325
O O7 0.000000 0.000000 0.500000
O O8 0.317076 0.295384 0.183482
O O9 0.858252 0.692204 0.486258
O O10 0.704442 0.016825 0.119594
O O11 0.500000 0.000000 0.000000
O O12 0.000000 0.000000 0.000000
#
# Coordination Sequence:
#
# PCOD9065754 Si02
#       5
#     2   2   2   2   2
#     4  12  23  41  73 100 134 181 237 276 332 412
#     4  12  25  42  72 103 141 176 231 293 331 398
#     4  11  25  42  66 104 137 180 231 272 350 408
#     4  11  25  45  70  97 144 182 219 286 349 407
#     4  12  23  44  69 101 133 183 234 275 338 410
#
# _framework density 20.361792999999999
#
# number of rings (size 3 to 8) (size 9 to 14) (size 15 to 20)
#    0.000    0.400    6.000    1.800    2.800    2.400 
#    0.000    2.000    0.000    0.000    0.000    0.000 
#    0.000    0.000    0.000    0.000    0.000    0.000 
#
# Total GULP energy -55953.323544 kJ/mol
# GULP energy per Si atom -5595.332354 kJ/mol
# Density = 2.031545 g / cm^3
# Si number density = 20.361793 Si / 1000 Ang^3
#
#
#
# Elastic Constant Matrix: (Units=GPa)
#
#
# Indices 1 2 3 4 5 6 
#
# 1 154.5351 37.2681 44.5759 9.8676 6.4070 12.8470
# 2 37.2681 114.7702 38.9224 19.5313 2.7036 18.4348
# 3 44.5759 38.9224 102.7375 -9.4507 2.5510 13.5421
# 4 9.8676 19.5313 -9.4507 43.0120 -5.1786 3.5804
# 5 6.4070 2.7036 2.5510 -5.1786 42.6566 10.3673
# 6 12.8470 18.4348 13.5421 3.5804 10.3673 29.7509
#
#
#
# Elastic Compliance Matrix: (Units=1/GPa)
#
#
# Indices 1 2 3 4 5 6 
#
# 1 0.007841 -0.000998 -0.003090 -0.002081 -0.000997 -0.000763
# 2 -0.000998 0.012146 -0.004106 -0.005808 0.000023 -0.004535
# 3 -0.003090 -0.004106 0.013619 0.006045 0.001513 -0.003576
# 4 -0.002081 -0.005808 0.006045 0.028517 0.004579 -0.003282
# 5 -0.000997 0.000023 0.001513 0.004579 0.026501 -0.010058
# 6 -0.000763 -0.004535 -0.003576 -0.003282 -0.010058 0.042280
#
#
# Mechanical properties :
#
#
# Convention : Reuss Voigt Hill
#
# Bulk Modulus (GPa) = 58.07494 68.17507 63.12501
# Shear Modulus (GPa) = 32.67327 39.83566 36.25446
#
# Velocity S-wave (km/s) = 4.01014 4.42791 4.22419
# Velocity P-wave (km/s) = 7.07284 7.72635 7.40680
#
# Compressibility (1/GPa) = 0.01721913
#
# Stress axis : x y z
#
# Youngs Moduli (GPa) = 127.54086 82.33314 73.42415
#
# Poissons Ratio (x) = 0.08216 0.22688
# Poissons Ratio (y) = 0.12727 0.30145
# Poissons Ratio (z) = 0.39409 0.33802
#
# Static dielectric constant tensor:
#      x y z
#    x 1.707740 -0.004140 0.010550 
#    y -0.004140 1.712740 0.010270 
#    z 0.010550 0.010270 1.755040 
# 
# From -- ./inp_files/15797.got.cif
#   From: 2010.05.17/outbox.cif.g08.bks.cpg/sg2_8_cif.got.tgz:15797.got - 2010.06.03 11:33:40.
