data_PCOD9065888
_publ_section_title
;
Structure prediction by ZEFSAII (Michael W. Deem and Ramdas Pophale) SiO2 
 PCOD9065888
Probable space group: P -1
;
_chemical_formula_sum "Si O2"
_cell_formula_units_Z 16
_cell_length_a 9.289231
_cell_length_b 9.862493
_cell_length_c 11.710145
_cell_angle_alpha 82.196654
_cell_angle_beta 47.473802
_cell_angle_gamma 76.308858
_cell_volume 767.733178
_symmetry_space_group_name_H-M "P -1"
_symmetry_group_IT_number 2
_symmetry_cell_setting 'triclinic'
loop_
_space_group_symop_operation_xyz
x,y,z
-x,-y,-z
loop_
_atom_site_type_symbol
_atom_site_label
_atom_site_fract_x
_atom_site_fract_y
_atom_site_fract_z
Si Si1 0.040192 0.871229 0.081063
Si Si2 0.483242 0.591918 0.116174
Si Si3 0.775649 0.905384 0.635542
Si Si4 0.208661 0.775457 0.414823
Si Si5 0.171242 0.591064 0.900081
Si Si6 0.404869 0.658640 0.556859
Si Si7 0.675202 0.868502 0.439993
Si Si8 0.545961 0.132716 0.024018
O O1 0.838765 0.864025 0.255930
O O2 0.104919 0.725980 0.997970
O O3 0.222701 0.882229 0.066649
O O4 0.000000 0.000000 0.000000
O O5 0.281713 0.659145 0.290117
O O6 0.634627 0.505033 0.135159
O O7 0.500000 0.500000 0.000000
O O8 0.537173 0.734067 0.024285
O O9 0.777033 0.892821 0.500792
O O10 0.581670 0.857584 0.792825
O O11 0.978678 0.802325 0.574427
O O12 0.769142 0.067720 0.652787
O O13 0.336829 0.732642 0.464832
O O14 0.228494 0.650234 0.741208
O O15 0.000000 0.500000 0.000000
O O16 0.500000 0.500000 0.500000
O O17 0.570255 0.735815 0.512819
O O18 0.500000 0.000000 0.500000
O O19 0.500000 0.000000 0.000000
#
# Coordination Sequence:
#
# PCOD9065888 Si02
#       8
#     2   2   2   2   2   2   2   2
#     4  12  28  46  72 108 147 189 247 304 366 438
#     4  12  26  50  71 101 153 191 243 305 367 441
#     4  11  25  43  73 109 140 189 248 299 362 428
#     4  11  25  46  72 105 148 188 243 302 360 434
#     4  12  28  47  74 107 147 196 244 302 372 435
#     4  12  25  47  73 104 147 192 241 298 365 438
#     4  12  25  46  73 104 145 190 241 300 360 432
#     4  12  26  45  75 104 144 194 244 301 368 432
#
# _framework density 20.840572999999999
#
# number of rings (size 3 to 8) (size 9 to 14) (size 15 to 20)
#    0.000    0.250    5.000    3.750    5.250    0.000 
#    0.000    1.250    0.000    0.000    0.000    0.000 
#    0.000    0.000    0.000    0.000    0.000    0.000 
#
# Total GULP energy -89412.220428 kJ/mol
# GULP energy per Si atom -5588.263777 kJ/mol
# Density = 2.079314 g / cm^3
# Si number density = 20.840573 Si / 1000 Ang^3
#
#
#
# Elastic Constant Matrix: (Units=GPa)
#
#
# Indices 1 2 3 4 5 6 
#
# 1 65.3228 28.0006 14.2771 16.2172 -4.5917 6.3031
# 2 28.0006 135.8767 39.6858 20.6983 -7.4078 10.5458
# 3 14.2771 39.6858 133.6434 6.1943 -7.9667 4.5137
# 4 16.2172 20.6983 6.1943 43.0359 1.2871 -0.7895
# 5 -4.5917 -7.4078 -7.9667 1.2871 37.2830 -0.1167
# 6 6.3031 10.5458 4.5137 -0.7895 -0.1167 42.7625
#
#
#
# Elastic Compliance Matrix: (Units=1/GPa)
#
#
# Indices 1 2 3 4 5 6 
#
# 1 0.018257 -0.002399 -0.000795 -0.005704 0.001792 -0.002116
# 2 -0.002399 0.009191 -0.002193 -0.003268 0.001169 -0.001739
# 3 -0.000795 -0.002193 0.008294 0.000120 0.001234 -0.000212
# 4 -0.005704 -0.003268 0.000120 0.027046 -0.002253 0.002127
# 5 0.001792 0.001169 0.001234 -0.002253 0.027614 -0.000649
# 6 -0.002116 -0.001739 -0.000212 0.002127 -0.000649 0.024185
#
#
# Mechanical properties :
#
#
# Convention : Reuss Voigt Hill
#
# Bulk Modulus (GPa) = 40.05322 55.41888 47.73605
# Shear Modulus (GPa) = 37.40115 41.47492 39.43804
#
# Velocity S-wave (km/s) = 4.24091 4.46590 4.35486
# Velocity P-wave (km/s) = 6.57579 7.29670 6.94560
#
# Compressibility (1/GPa) = 0.02496678
#
# Stress axis : x y z
#
# Youngs Moduli (GPa) = 54.77343 108.80175 120.56982
#
# Poissons Ratio (x) = 0.26104 0.09589
# Poissons Ratio (y) = 0.13141 0.26442
# Poissons Ratio (z) = 0.04356 0.23861
#
# Static dielectric constant tensor:
#      x y z
#    x 1.628690 0.025390 0.076510 
#    y 0.025390 1.703380 0.013600 
#    z 0.076510 0.013600 1.791210 
# 
# From -- ./inp_files/186704.got.cif
#   From: 2010.05.17/outbox.cif.g08.bks.cpg/sg2_94_cif.got.tgz:186704.got - 2010.06.03 11:33:40.
