data_PCOD9065240
_publ_section_title
;
Structure prediction by ZEFSAII (Michael W. Deem and Ramdas Pophale) SiO2 
 PCOD9065240
Probable space group: P -1
;
_chemical_formula_sum "Si O2"
_cell_formula_units_Z 16
_cell_length_a 5.308392
_cell_length_b 15.561694
_cell_length_c 15.720117
_cell_angle_alpha 47.621700
_cell_angle_beta 77.581132
_cell_angle_gamma 82.779162
_cell_volume 936.510357
_symmetry_space_group_name_H-M "P -1"
_symmetry_group_IT_number 2
_symmetry_cell_setting 'triclinic'
loop_
_space_group_symop_operation_xyz
x,y,z
-x,-y,-z
loop_
_atom_site_type_symbol
_atom_site_label
_atom_site_fract_x
_atom_site_fract_y
_atom_site_fract_z
Si Si1 0.172378 0.959209 0.139418
Si Si2 0.059662 0.954409 0.728906
Si Si3 0.806987 0.626168 0.352599
Si Si4 0.287957 0.146897 0.872048
Si Si5 0.771446 0.361959 0.540127
Si Si6 0.702512 0.198635 0.493241
Si Si7 0.756181 0.844817 0.550895
Si Si8 0.596415 0.921008 0.695155
O O1 0.425181 0.879843 0.166593
O O2 0.929538 0.911050 0.134867
O O3 0.064032 0.979350 0.227543
O O4 0.261846 0.081418 0.007472
O O5 0.321362 0.891790 0.775315
O O6 0.838231 0.872472 0.760129
O O7 0.161437 0.043385 0.588048
O O8 0.782802 0.718200 0.216839
O O9 0.851686 0.492169 0.415631
O O10 0.523715 0.631331 0.411944
O O11 0.027095 0.662813 0.381580
O O12 0.763018 0.268513 0.527943
O O13 0.446010 0.232337 0.438343
O O14 0.967451 0.208737 0.414176
O O15 0.644322 0.061304 0.606426
O O16 0.619944 0.885617 0.619081
#
# Coordination Sequence:
#
# PCOD9065240 Si02
#       8
#     2   2   2   2   2   2   2   2
#     4  10  21  33  47  74  90 125 176 190 237 290
#     4  10  18  28  44  63  91 124 153 191 215 296
#     4  10  21  34  49  65 100 126 156 216 238 268
#     4  10  21  34  49  65 100 126 156 216 238 268
#     4  10  21  33  47  74  90 125 176 190 237 290
#     4  10  18  28  44  63  91 124 153 191 215 296
#     4  10  19  29  43  68  96 123 149 191 242 286
#     4  10  19  29  43  68  96 123 149 191 242 286
#
# _framework density 17.084700999999999
#
# number of rings (size 3 to 8) (size 9 to 14) (size 15 to 20)
#    0.000    2.000    0.000    6.000   10.500    0.000 
#    0.000    0.000    0.000    0.000    0.000    0.000 
#    0.000   11.000    0.000    0.000    0.000    0.000 
#
# Total GULP energy -89087.309308 kJ/mol
# GULP energy per Si atom -5567.956832 kJ/mol
# Density = 1.704582 g / cm^3
# Si number density = 17.084701 Si / 1000 Ang^3
#
#
#
# Elastic Constant Matrix: (Units=GPa)
#
#
# Indices 1 2 3 4 5 6 
#
# 1 149.8415 8.2933 5.6676 3.1130 -5.6160 0.2041
# 2 8.2933 47.1220 16.2864 4.4572 2.7374 5.8411
# 3 5.6676 16.2864 37.7197 -6.0138 6.8497 -7.3721
# 4 3.1130 4.4572 -6.0138 20.2120 -7.0336 -1.0926
# 5 -5.6160 2.7374 6.8497 -7.0336 18.0521 3.0092
# 6 0.2041 5.8411 -7.3721 -1.0926 3.0092 25.5096
#
#
#
# Elastic Compliance Matrix: (Units=1/GPa)
#
#
# Indices 1 2 3 4 5 6 
#
# 1 0.006880 -0.000785 -0.001371 -0.000376 0.002735 -0.000610
# 2 -0.000785 0.030020 -0.017017 -0.012652 -0.001238 -0.012181
# 3 -0.001371 -0.017017 0.041780 0.013370 -0.011475 0.017908
# 4 -0.000376 -0.012652 0.013370 0.063783 0.020398 0.007089
# 5 0.002735 -0.001238 -0.011475 0.020398 0.070485 -0.010496
# 6 -0.000610 -0.012181 0.017908 0.007089 -0.010496 0.048712
#
#
# Mechanical properties :
#
#
# Convention : Reuss Voigt Hill
#
# Bulk Modulus (GPa) = 24.79219 32.79756 28.79487
# Shear Modulus (GPa) = 15.95154 26.38382 21.16768
#
# Velocity S-wave (km/s) = 3.05892 3.93401 3.52374
# Velocity P-wave (km/s) = 5.19797 6.31459 5.78329
#
# Compressibility (1/GPa) = 0.04033529
#
# Stress axis : x y z
#
# Youngs Moduli (GPa) = 145.34587 33.31165 23.93480
#
# Poissons Ratio (x) = 0.02614 0.03281
# Poissons Ratio (y) = 0.11407 0.40729
# Poissons Ratio (z) = 0.19923 0.56686
#
# Static dielectric constant tensor:
#      x y z
#    x 1.714320 -0.014510 0.032280 
#    y -0.014510 1.577770 -0.018020 
#    z 0.032280 -0.018020 1.609790 
# 
# From -- ./inp_files/75817.got.cif
#   From: 2010.05.17/outbox.cif.g08.bks.cpg/sg2_38_cif.got.tgz:75817.got - 2010.06.03 11:33:40.
