data_PCOD9065750
_publ_section_title
;
Structure prediction by ZEFSAII (Michael W. Deem and Ramdas Pophale) SiO2 
 PCOD9065750
Probable space group: P -1
;
_chemical_formula_sum "Si O2"
_cell_formula_units_Z 16
_cell_length_a 8.252797
_cell_length_b 14.070761
_cell_length_c 6.675646
_cell_angle_alpha 78.902394
_cell_angle_beta 105.650233
_cell_angle_gamma 69.179959
_cell_volume 660.936050
_symmetry_space_group_name_H-M "P -1"
_symmetry_group_IT_number 2
_symmetry_cell_setting 'triclinic'
loop_
_space_group_symop_operation_xyz
x,y,z
-x,-y,-z
loop_
_atom_site_type_symbol
_atom_site_label
_atom_site_fract_x
_atom_site_fract_y
_atom_site_fract_z
Si Si1 0.908349 0.278627 0.562215
Si Si2 0.641029 0.510115 0.204736
Si Si3 0.049532 0.833910 0.773527
Si Si4 0.252138 0.405067 0.160653
Si Si5 0.039485 0.650866 0.059163
Si Si6 0.369009 0.052100 0.241280
Si Si7 0.398426 0.876139 0.991315
Si Si8 0.456305 0.691722 0.374588
O O1 0.792736 0.395356 0.375437
O O2 0.985566 0.187322 0.459682
O O3 0.032468 0.294235 0.772360
O O4 0.755474 0.257725 0.646194
O O5 0.528304 0.579931 0.325293
O O6 0.500000 0.500000 0.000000
O O7 0.731034 0.572708 0.076447
O O8 0.846698 0.892907 0.782743
O O9 0.137399 0.715326 0.952217
O O10 0.201654 0.881098 0.837902
O O11 0.165664 0.524100 0.179870
O O12 0.433757 0.332932 0.370414
O O13 0.115614 0.348460 0.145634
O O14 0.500000 0.000000 0.500000
O O15 0.370506 0.970316 0.100985
O O16 0.463738 0.122085 0.138392
O O17 0.488071 0.770726 0.201239
#
# Coordination Sequence:
#
# PCOD9065750 Si02
#       8
#     2   2   2   2   2   2   2   2
#     4  12  24  42  70 110 152 202 253 300 370 443
#     4  12  22  38  67 104 152 204 257 299 353 436
#     4  12  27  49  81 113 154 196 251 317 378 460
#     4  11  25  42  65 103 161 206 252 308 353 433
#     4  11  25  44  64 108 157 203 251 303 371 433
#     4  11  30  56  83 112 147 190 252 323 398 458
#     4  11  28  53  81 116 147 193 256 313 388 462
#     4  12  25  42  75 108 149 207 252 303 369 448
#
# _framework density 24.208089999999999
#
# number of rings (size 3 to 8) (size 9 to 14) (size 15 to 20)
#    0.000    0.500    5.000    2.250    5.250    4.000 
#    0.000    0.000    0.000    0.000    0.000    0.000 
#    0.000    0.000    0.000    0.000    0.000    0.000 
#
# Total GULP energy -89503.982623 kJ/mol
# GULP energy per Si atom -5593.998914 kJ/mol
# Density = 2.415299 g / cm^3
# Si number density = 24.208090 Si / 1000 Ang^3
#
#
#
# Elastic Constant Matrix: (Units=GPa)
#
#
# Indices 1 2 3 4 5 6 
#
# 1 131.6842 48.1243 32.0327 10.9028 -5.1209 16.3962
# 2 48.1243 84.6438 29.1210 27.5440 -9.2755 4.0142
# 3 32.0327 29.1210 95.8601 15.3520 -14.8290 12.4232
# 4 10.9028 27.5440 15.3520 43.6986 0.7663 -7.9937
# 5 -5.1209 -9.2755 -14.8290 0.7663 44.1713 4.0879
# 6 16.3962 4.0142 12.4232 -7.9937 4.0879 38.8186
#
#
#
# Elastic Compliance Matrix: (Units=1/GPa)
#
#
# Indices 1 2 3 4 5 6 
#
# 1 0.010271 -0.005467 -0.001543 0.000866 -0.000205 -0.003079
# 2 -0.005467 0.019385 -0.001636 -0.010649 0.003230 -0.001705
# 3 -0.001543 -0.001636 0.013455 -0.004276 0.004517 -0.004842
# 4 0.000866 -0.010649 -0.004276 0.032682 -0.005004 0.009361
# 5 -0.000205 0.003230 0.004517 -0.005004 0.025396 -0.005398
# 6 -0.003079 -0.001705 -0.004842 0.009361 -0.005398 0.031283
#
#
# Mechanical properties :
#
#
# Convention : Reuss Voigt Hill
#
# Bulk Modulus (GPa) = 38.72948 58.97157 48.85053
# Shear Modulus (GPa) = 31.57131 38.86505 35.21818
#
# Velocity S-wave (km/s) = 3.61524 4.01116 3.81834
# Velocity P-wave (km/s) = 5.78445 6.77242 6.29784
#
# Compressibility (1/GPa) = 0.02582013
#
# Stress axis : x y z
#
# Youngs Moduli (GPa) = 97.36318 51.58552 74.31980
#
# Poissons Ratio (x) = 0.28201 0.11465
# Poissons Ratio (y) = 0.53227 0.12160
# Poissons Ratio (z) = 0.15020 0.08440
#
# Static dielectric constant tensor:
#      x y z
#    x 2.055380 0.020910 -0.018610 
#    y 0.020910 1.966360 0.002120 
#    z -0.018610 0.002120 1.925100 
# 
# From -- ./inp_files/38081.got.cif
#   From: 2010.05.17/outbox.cif.g08.bks.cpg/sg2_20_cif.got.tgz:38081.got - 2010.06.03 11:33:40.
