data_PCOD9065721
_publ_section_title
;
Structure prediction by ZEFSAII (Michael W. Deem and Ramdas Pophale) SiO2 
 PCOD9065721
Probable space group: P -1
;
_chemical_formula_sum "Si O2"
_cell_formula_units_Z 16
_cell_length_a 11.041954
_cell_length_b 10.418444
_cell_length_c 11.827793
_cell_angle_alpha 114.515867
_cell_angle_beta 39.427183
_cell_angle_gamma 85.991902
_cell_volume 579.645665
_symmetry_space_group_name_H-M "P -1"
_symmetry_group_IT_number 2
_symmetry_cell_setting 'triclinic'
loop_
_space_group_symop_operation_xyz
x,y,z
-x,-y,-z
loop_
_atom_site_type_symbol
_atom_site_label
_atom_site_fract_x
_atom_site_fract_y
_atom_site_fract_z
Si Si1 0.209149 0.494695 0.637929
Si Si2 0.596021 0.785379 0.931872
Si Si3 0.372342 0.657126 0.918053
Si Si4 0.780968 0.958621 0.401064
Si Si5 0.843019 0.887439 0.931086
Si Si6 0.468288 0.822750 0.565925
Si Si7 0.246654 0.744390 0.386138
Si Si8 0.010388 0.632412 0.389308
O O1 0.419298 0.422450 0.362197
O O2 0.346328 0.402423 0.625379
O O3 0.075933 0.410426 0.673630
O O4 0.992291 0.720718 0.857901
O O5 0.372876 0.803591 0.043370
O O6 0.616970 0.905719 0.045725
O O7 0.760472 0.757154 0.695274
O O8 0.780255 0.574410 0.778477
O O9 0.498557 0.465480 0.829651
O O10 0.084477 0.776954 0.125566
O O11 0.625820 0.890640 0.484434
O O12 0.686831 0.090382 0.405523
O O13 0.713658 0.109097 0.600466
O O14 0.037381 0.822436 0.665512
O O15 0.725020 0.076672 0.151457
O O16 0.130126 0.726634 0.353149
#
# Coordination Sequence:
#
# PCOD9065721 Si02
#       8
#     2   2   2   2   2   2   2   2
#     4   9  18  35  60  85 107 134 171 217 265 313
#     4   7  12  27  53  84 111 131 158 204 265 323
#     4   9  18  35  60  85 107 134 171 217 265 313
#     4  11  25  40  51  70 106 149 186 219 260 311
#     4   9  18  35  60  85 107 134 171 217 265 313
#     4  11  25  40  51  70 106 149 186 219 260 311
#     4   9  18  35  60  85 107 134 171 217 265 313
#     4   7  12  27  53  84 111 131 158 204 265 323
#
# _framework density 27.603072000000001
#
# number of rings (size 3 to 8) (size 9 to 14) (size 15 to 20)
#    0.000    3.000    0.000    3.750    0.000    5.000 
#    0.000   11.250    0.000    4.500    0.000    0.000 
#    0.000    0.000    0.000    0.000    0.000    0.000 
#
# Total GULP energy -89618.419699 kJ/mol
# GULP energy per Si atom -5601.151231 kJ/mol
# Density = 2.754025 g / cm^3
# Si number density = 27.603072 Si / 1000 Ang^3
#
#
#
# Elastic Constant Matrix: (Units=GPa)
#
#
# Indices 1 2 3 4 5 6 
#
# 1 93.8780 31.9151 49.9867 0.8991 -31.8779 18.9374
# 2 31.9151 102.4847 35.0025 7.3114 -20.0638 0.8245
# 3 49.9867 35.0025 75.9315 8.4644 -24.2245 -0.6033
# 4 0.8991 7.3114 8.4644 48.1891 -1.8705 -13.7801
# 5 -31.8779 -20.0638 -24.2245 -1.8705 37.0683 4.1620
# 6 18.9374 0.8245 -0.6033 -13.7801 4.1620 50.1707
#
#
#
# Elastic Compliance Matrix: (Units=1/GPa)
#
#
# Indices 1 2 3 4 5 6 
#
# 1 0.023340 -0.000805 -0.010561 -0.000869 0.013848 -0.010311
# 2 -0.000805 0.012059 -0.003842 -0.001164 0.003325 -0.000536
# 3 -0.010561 -0.003842 0.023305 -0.002194 0.003572 0.003431
# 4 -0.000869 -0.001164 -0.002194 0.023208 -0.002414 0.006896
# 5 0.013848 0.003325 0.003572 -0.002414 0.043971 -0.009550
# 6 -0.010311 -0.000536 0.003431 0.006896 -0.009550 0.026560
#
#
# Mechanical properties :
#
#
# Convention : Reuss Voigt Hill
#
# Bulk Modulus (GPa) = 35.35258 56.23363 45.79310
# Shear Modulus (GPa) = 26.00260 37.44493 31.72377
#
# Velocity S-wave (km/s) = 3.07256 3.68713 3.39379
# Velocity P-wave (km/s) = 5.04210 6.20831 5.65534
#
# Compressibility (1/GPa) = 0.02828648
#
# Stress axis : x y z
#
# Youngs Moduli (GPa) = 42.84523 82.92586 42.90968
#
# Poissons Ratio (x) = 0.06679 0.45316
# Poissons Ratio (y) = 0.03451 0.16488
# Poissons Ratio (z) = 0.45247 0.31864
#
# Static dielectric constant tensor:
#      x y z
#    x 2.136840 -0.023000 0.002810 
#    y -0.023000 2.166100 -0.050100 
#    z 0.002810 -0.050100 2.123750 
# 
# From -- ./inp_files/277535.got.cif
#   From: 2010.05.17/outbox.cif.g08.bks.cpg/sg2_139_cif.got.tgz:277535.got - 2010.06.03 11:33:40.
