data_PCOD9065850
_publ_section_title
;
Structure prediction by ZEFSAII (Michael W. Deem and Ramdas Pophale) SiO2 
 PCOD9065850
Probable space group: P -1
;
_chemical_formula_sum "Si O2"
_cell_formula_units_Z 16
_cell_length_a 5.366153
_cell_length_b 8.780750
_cell_length_c 19.634311
_cell_angle_alpha 118.949780
_cell_angle_beta 52.654407
_cell_angle_gamma 119.672612
_cell_volume 616.014717
_symmetry_space_group_name_H-M "P -1"
_symmetry_group_IT_number 2
_symmetry_cell_setting 'triclinic'
loop_
_space_group_symop_operation_xyz
x,y,z
-x,-y,-z
loop_
_atom_site_type_symbol
_atom_site_label
_atom_site_fract_x
_atom_site_fract_y
_atom_site_fract_z
Si Si1 0.635170 0.548816 0.411335
Si Si2 0.700695 0.120725 0.652509
Si Si3 0.615142 0.156629 0.460396
Si Si4 0.663761 0.817190 0.695131
Si Si5 0.874599 0.105055 0.952500
Si Si6 0.816269 0.186804 0.118305
Si Si7 0.341679 0.510227 0.103360
Si Si8 0.838691 0.713043 0.182717
O O1 0.500000 0.500000 0.500000
O O2 0.392438 0.666422 0.457421
O O3 0.576360 0.358584 0.341955
O O4 0.984887 0.705352 0.377185
O O5 0.387426 0.197220 0.715735
O O6 0.646923 0.939121 0.575483
O O7 0.681954 0.017631 0.706006
O O8 0.970519 0.194128 0.376943
O O9 0.500000 0.000000 0.500000
O O10 0.511226 0.795806 0.790665
O O11 0.917821 0.142128 0.874434
O O12 0.880905 0.248821 0.042658
O O13 0.143069 0.010199 0.913963
O O14 0.500000 0.000000 0.000000
O O15 0.144711 0.316469 0.124967
O O16 0.606400 0.603072 0.136390
O O17 0.057148 0.610364 0.164246
O O18 0.500000 0.500000 0.000000
#
# Coordination Sequence:
#
# PCOD9065850 Si02
#       8
#     2   2   2   2   2   2   2   2
#     4  12  25  49  76 108 147 193 252 309 397 471
#     4  12  27  48  75 113 155 196 252 330 382 466
#     4  12  26  47  80 104 150 202 247 320 398 468
#     4  12  26  47  75 111 151 195 258 322 382 465
#     4  11  25  43  71 103 149 204 247 310 375 467
#     4  11  26  44  71 106 147 196 257 311 383 452
#     4  12  26  49  74 110 150 207 256 321 378 454
#     4  12  28  47  79 108 156 202 260 312 392 452
#
# _framework density 25.973405
#
# number of rings (size 3 to 8) (size 9 to 14) (size 15 to 20)
#    0.000    0.250    5.000    3.375    7.000    2.000 
#    0.000    0.000    0.000    0.000    0.000    0.000 
#    0.000    0.000    0.000    0.000    0.000    0.000 
#
# Total GULP energy -89335.267414 kJ/mol
# GULP energy per Si atom -5583.454213 kJ/mol
# Density = 2.591429 g / cm^3
# Si number density = 25.973405 Si / 1000 Ang^3
#
#
#
# Elastic Constant Matrix: (Units=GPa)
#
#
# Indices 1 2 3 4 5 6 
#
# 1 78.0016 22.0439 22.1380 8.1621 -17.6556 15.1730
# 2 22.0439 129.9219 47.2698 -8.4432 -5.1362 23.3350
# 3 22.1380 47.2698 132.7207 -14.2273 -22.0059 12.0136
# 4 8.1621 -8.4432 -14.2273 46.1121 4.1192 -11.1984
# 5 -17.6556 -5.1362 -22.0059 4.1192 50.2075 1.8635
# 6 15.1730 23.3350 12.0136 -11.1984 1.8635 50.0435
#
#
#
# Elastic Compliance Matrix: (Units=1/GPa)
#
#
# Indices 1 2 3 4 5 6 
#
# 1 0.016546 -0.001455 -0.001387 -0.005454 0.005711 -0.005439
# 2 -0.001455 0.009595 -0.002966 0.000387 -0.000743 -0.003207
# 3 -0.001387 -0.002966 0.009621 0.002358 0.003236 -0.000099
# 4 -0.005454 0.000387 0.002358 0.025361 -0.003174 0.006701
# 5 0.005711 -0.000743 0.003236 -0.003174 0.023668 -0.003754
# 6 -0.005439 -0.003207 -0.000099 0.006701 -0.003754 0.024790
#
#
# Mechanical properties :
#
#
# Convention : Reuss Voigt Hill
#
# Bulk Modulus (GPa) = 41.41507 58.17195 49.79351
# Shear Modulus (GPa) = 38.68646 45.88545 42.28595
#
# Velocity S-wave (km/s) = 3.86354 4.20769 4.03929
# Velocity P-wave (km/s) = 5.99020 6.78613 6.40055
#
# Compressibility (1/GPa) = 0.02414580
#
# Stress axis : x y z
#
# Youngs Moduli (GPa) = 60.43602 104.22573 103.94390
#
# Poissons Ratio (x) = 0.15160 0.14421
# Poissons Ratio (y) = 0.08790 0.30830
# Poissons Ratio (z) = 0.08385 0.30913
#
# Static dielectric constant tensor:
#      x y z
#    x 2.251670 0.161500 0.194530 
#    y 0.161500 2.428600 0.135420 
#    z 0.194530 0.135420 2.219810 
# 
# From -- ./inp_files/49157.got.cif
#   From: 2010.05.17/outbox.cif.g08.bks.cpg/sg2_25_cif.got.tgz:49157.got - 2010.06.03 11:33:40.
