data_PCOD9065668
_publ_section_title
;
Structure prediction by ZEFSAII (Michael W. Deem and Ramdas Pophale) SiO2 
 PCOD9065668
Probable space group: P -1
;
_chemical_formula_sum "Si O2"
_cell_formula_units_Z 14
_cell_length_a 5.098905
_cell_length_b 23.430016
_cell_length_c 16.582081
_cell_angle_alpha 18.448082
_cell_angle_beta 100.500739
_cell_angle_gamma 101.126828
_cell_volume 615.097800
_symmetry_space_group_name_H-M "P -1"
_symmetry_group_IT_number 2
_symmetry_cell_setting 'triclinic'
loop_
_space_group_symop_operation_xyz
x,y,z
-x,-y,-z
loop_
_atom_site_type_symbol
_atom_site_label
_atom_site_fract_x
_atom_site_fract_y
_atom_site_fract_z
Si Si1 0.731124 0.000432 0.817526
Si Si2 0.208450 0.989546 0.454938
Si Si3 0.044041 0.704259 0.691593
Si Si4 0.303320 0.071428 0.826953
Si Si5 0.263499 0.385524 0.884214
Si Si6 0.731378 0.579703 0.346324
Si Si7 0.791922 0.559134 0.718515
O O1 0.763359 0.165684 0.532913
O O2 0.457713 0.021247 0.821632
O O3 0.728890 0.797279 0.056960
O O4 0.990134 0.012830 0.875480
O O5 0.104088 0.822561 0.616624
O O6 0.500000 0.000000 0.500000
O O7 0.000000 0.000000 0.500000
O O8 0.184508 0.174222 0.156539
O O9 0.819117 0.663290 0.665096
O O10 0.000000 0.500000 0.000000
O O11 0.296802 0.284928 0.554211
O O12 0.500000 0.000000 0.000000
O O13 0.281758 0.467133 0.686480
O O14 0.555645 0.406706 0.911775
O O15 0.060059 0.482059 0.802158
O O16 0.500000 0.500000 0.500000
O O17 0.000000 0.500000 0.500000
#
# Coordination Sequence:
#
# PCOD9065668 Si02
#       7
#     2   2   2   2   2   2   2
#     4  11  25  47  69 110 141 190 252 296 362 439
#     4  12  27  47  77 109 143 191 242 299 370 434
#     4  11  24  50  75 106 148 189 239 302 368 431
#     4  11  25  43  72 101 148 190 242 304 361 430
#     4  12  25  49  70 109 150 185 251 304 353 447
#     4  12  27  45  74 104 147 200 243 301 371 429
#     4  11  26  45  75 107 143 196 243 299 369 435
#
# _framework density 22.760608000000001
#
# number of rings (size 3 to 8) (size 9 to 14) (size 15 to 20)
#    0.000    0.571    1.429    6.429    6.000    3.429 
#    0.000    8.571    0.000    0.000    0.000    0.000 
#    0.000    0.000    0.000    0.000    0.000    0.000 
#
# Total GULP energy -77959.481557 kJ/mol
# GULP energy per Si atom -5568.534397 kJ/mol
# Density = 2.270880 g / cm^3
# Si number density = 22.760608 Si / 1000 Ang^3
#
#
#
# Elastic Constant Matrix: (Units=GPa)
#
#
# Indices 1 2 3 4 5 6 
#
# 1 136.9647 56.5482 20.0900 -0.4062 2.2484 -6.6271
# 2 56.5482 151.2363 46.6213 -11.8407 2.6721 18.7793
# 3 20.0900 46.6213 110.2799 -0.9709 -10.8483 0.3316
# 4 -0.4062 -11.8407 -0.9709 48.5556 9.4212 -6.1627
# 5 2.2484 2.6721 -10.8483 9.4212 25.9308 -11.0039
# 6 -6.6271 18.7793 0.3316 -6.1627 -11.0039 16.9247
#
#
#
# Elastic Compliance Matrix: (Units=1/GPa)
#
#
# Indices 1 2 3 4 5 6 
#
# 1 0.010415 -0.006539 0.001546 -0.000917 0.007465 0.015823
# 2 -0.006539 0.015537 -0.007023 0.003249 -0.017946 -0.030147
# 3 0.001546 -0.007023 0.013036 -0.002027 0.013703 0.016314
# 4 -0.000917 0.003249 -0.002027 0.023076 -0.010478 -0.002335
# 5 0.007465 -0.017946 0.013703 -0.010478 0.079083 0.070169
# 6 0.015823 -0.030147 0.016314 -0.002335 0.070169 0.143183
#
#
# Mechanical properties :
#
#
# Convention : Reuss Voigt Hill
#
# Bulk Modulus (GPa) = 66.86646 71.66666 69.26656
# Shear Modulus (GPa) = 15.95671 36.63031 26.29351
#
# Velocity S-wave (km/s) = 2.65064 4.01605 3.40254
# Velocity P-wave (km/s) = 6.22975 7.28426 6.77754
#
# Compressibility (1/GPa) = 0.01495518
#
# Stress axis : x y z
#
# Youngs Moduli (GPa) = 96.01996 64.36192 76.70823
#
# Poissons Ratio (x) = 0.42087 -0.11858
# Poissons Ratio (y) = 0.62788 0.53874
# Poissons Ratio (z) = -0.14844 0.45203
#
# Static dielectric constant tensor:
#      x y z
#    x 1.756790 0.012630 -0.044560 
#    y 0.012630 1.834420 0.037070 
#    z -0.044560 0.037070 1.954920 
# 
# From -- ./inp_files/485635.got.cif
#   From: 2010.05.17/outbox.cif.g08.bks.cpg/sg2_243_cif.got.tgz:485635.got - 2010.06.03 11:33:40.
