data_PCOD9065035
_publ_section_title
;
Structure prediction by ZEFSAII (Michael W. Deem and Ramdas Pophale) SiO2 
 PCOD9065035
Probable space group: P -1
;
_chemical_formula_sum "Si O2"
_cell_formula_units_Z 16
_cell_length_a 11.506794
_cell_length_b 13.778340
_cell_length_c 13.720329
_cell_angle_alpha 66.480983
_cell_angle_beta 137.452084
_cell_angle_gamma 145.082213
_cell_volume 714.136677
_symmetry_space_group_name_H-M "P -1"
_symmetry_group_IT_number 2
_symmetry_cell_setting 'triclinic'
loop_
_space_group_symop_operation_xyz
x,y,z
-x,-y,-z
loop_
_atom_site_type_symbol
_atom_site_label
_atom_site_fract_x
_atom_site_fract_y
_atom_site_fract_z
Si Si1 0.297927 0.432876 0.686369
Si Si2 0.623671 0.466726 0.524430
Si Si3 0.386364 0.213310 0.162087
Si Si4 0.711534 0.138848 0.856843
Si Si5 0.619163 0.391215 0.883464
Si Si6 0.636660 0.224288 0.121427
Si Si7 0.639951 0.831111 0.381061
Si Si8 0.443337 0.900188 0.599441
O O1 0.426321 0.528384 0.620045
O O2 0.500524 0.608964 0.816997
O O3 0.343324 0.331221 0.767276
O O4 0.925070 0.271553 0.527313
O O5 0.500000 0.500000 0.500000
O O6 0.431584 0.262755 0.523722
O O7 0.004063 0.637661 0.705295
O O8 0.562776 0.260364 0.155265
O O9 0.502923 0.197865 0.329227
O O10 0.000000 0.000000 0.000000
O O11 0.440786 0.088194 0.702566
O O12 0.618304 0.004859 0.934636
O O13 0.687904 0.067141 0.767890
O O14 0.047454 0.372703 0.987198
O O15 0.586401 0.342721 0.770219
O O16 0.603677 0.278293 0.984109
O O17 0.000000 0.000000 0.500000
O O18 0.500000 0.000000 0.500000
#
# Coordination Sequence:
#
# PCOD9065035 Si02
#       8
#     2   2   2   2   2   2   2   2
#     4  12  25  46  75 106 146 195 245 299 372 436
#     4  12  24  47  74 104 150 191 245 306 362 436
#     4  11  26  47  71 108 147 189 244 302 372 437
#     4  11  24  47  69 104 148 182 245 302 365 438
#     4  12  27  46  72 108 142 195 246 297 370 438
#     4  11  26  48  73 107 151 192 243 306 372 436
#     4  12  26  44  72 105 144 190 250 304 363 437
#     4  11  26  44  72 107 142 189 247 303 366 436
#
# _framework density 22.404675000000001
#
# number of rings (size 3 to 8) (size 9 to 14) (size 15 to 20)
#    0.000    0.500    5.000    3.750    5.250    3.000 
#    0.000    0.000    0.000    0.000    0.000    0.000 
#    0.000    0.000    0.000    0.000    0.000    0.000 
#
# Total GULP energy -89605.287152 kJ/mol
# GULP energy per Si atom -5600.330447 kJ/mol
# Density = 2.235368 g / cm^3
# Si number density = 22.404675 Si / 1000 Ang^3
#
#
#
# Elastic Constant Matrix: (Units=GPa)
#
#
# Indices 1 2 3 4 5 6 
#
# 1 83.0007 7.9239 10.0070 0.8370 17.2502 -1.1478
# 2 7.9239 123.6023 19.6972 -13.8653 -2.4902 8.5344
# 3 10.0070 19.6972 74.2726 -4.5841 17.6441 7.2654
# 4 0.8370 -13.8653 -4.5841 38.1731 -11.1259 7.3491
# 5 17.2502 -2.4902 17.6441 -11.1259 35.7680 -1.4885
# 6 -1.1478 8.5344 7.2654 7.3491 -1.4885 40.0841
#
#
#
# Elastic Compliance Matrix: (Units=1/GPa)
#
#
# Indices 1 2 3 4 5 6 
#
# 1 0.013853 -0.001501 0.000084 -0.003313 -0.007815 0.001018
# 2 -0.001501 0.009398 -0.002754 0.004752 0.004121 -0.002263
# 3 0.000084 -0.002754 0.016451 -0.001106 -0.008796 -0.002517
# 4 -0.003313 0.004752 -0.001106 0.032712 0.012381 -0.006444
# 5 -0.007815 0.004121 -0.008796 0.012381 0.040192 -0.000284
# 6 0.001018 -0.002263 -0.002517 -0.006444 -0.000284 0.027086
#
#
# Mechanical properties :
#
#
# Convention : Reuss Voigt Hill
#
# Bulk Modulus (GPa) = 31.88869 39.57020 35.72944
# Shear Modulus (GPa) = 31.54846 39.02156 35.28501
#
# Velocity S-wave (km/s) = 3.75656 4.17786 3.97280
# Velocity P-wave (km/s) = 5.75149 6.40098 6.08491
#
# Compressibility (1/GPa) = 0.03135909
#
# Stress axis : x y z
#
# Youngs Moduli (GPa) = 72.18702 106.40546 60.78814
#
# Poissons Ratio (x) = 0.15969 -0.00511
# Poissons Ratio (y) = 0.10834 0.16744
# Poissons Ratio (z) = -0.00607 0.29309
#
# Static dielectric constant tensor:
#      x y z
#    x 1.835180 -0.025170 0.015550 
#    y -0.025170 1.834830 0.009080 
#    z 0.015550 0.009080 1.848460 
# 
# From -- ./inp_files/522370.got.cif
#   From: 2010.05.17/outbox.cif.g08.bks.cpg/sg2_262_cif.got.tgz:522370.got - 2010.06.03 11:33:40.
