data_PCOD9065295
_publ_section_title
;
Structure prediction by ZEFSAII (Michael W. Deem and Ramdas Pophale) SiO2 
 PCOD9065295
Probable space group: P -1
;
_chemical_formula_sum "Si O2"
_cell_formula_units_Z 14
_cell_length_a 9.352764
_cell_length_b 12.451937
_cell_length_c 9.056529
_cell_angle_alpha 104.892835
_cell_angle_beta 120.799551
_cell_angle_gamma 115.728382
_cell_volume 640.748161
_symmetry_space_group_name_H-M "P -1"
_symmetry_group_IT_number 2
_symmetry_cell_setting 'triclinic'
loop_
_space_group_symop_operation_xyz
x,y,z
-x,-y,-z
loop_
_atom_site_type_symbol
_atom_site_label
_atom_site_fract_x
_atom_site_fract_y
_atom_site_fract_z
Si Si1 0.065133 0.061944 0.226846
Si Si2 0.460907 0.424964 0.608833
Si Si3 0.190838 0.669401 0.824175
Si Si4 0.883997 0.138876 0.627677
Si Si5 0.119508 0.388834 0.619234
Si Si6 0.356568 0.027643 0.850389
Si Si7 0.015628 0.378337 0.999016
O O1 0.293817 0.241878 0.429964
O O2 0.086830 0.957957 0.294991
O O3 0.861452 0.035986 0.191954
O O4 0.000000 0.000000 0.000000
O O5 0.500000 0.500000 0.500000
O O6 0.332433 0.453188 0.655878
O O7 0.715687 0.522593 0.836477
O O8 0.126583 0.511042 0.743629
O O9 0.087573 0.682576 0.629859
O O10 0.080666 0.682288 0.908548
O O11 0.461894 0.791500 0.004380
O O12 0.087099 0.273688 0.675715
O O13 0.696566 0.033572 0.366260
O O14 0.864123 0.233039 0.761015
O O15 0.500000 0.000000 0.000000
O O16 0.000000 0.500000 0.000000
#
# Coordination Sequence:
#
# PCOD9065295 Si02
#       7
#     2   2   2   2   2   2   2
#     4  12  30  49  76 114 152 198 251 313 382 443
#     4  12  26  49  77 104 148 198 250 307 372 449
#     4  11  25  47  75 112 149 196 247 315 374 447
#     4  12  27  48  76 111 149 196 256 308 376 449
#     4  11  24  47  78 110 147 198 257 302 376 452
#     4  12  27  50  77 107 152 195 249 310 382 449
#     4  12  28  47  71 111 150 193 253 309 373 443
#
# _framework density 21.849456
#
# number of rings (size 3 to 8) (size 9 to 14) (size 15 to 20)
#    0.000    0.286    5.714    1.286    8.000    2.286 
#    0.000    0.000    0.000    0.000    0.000    0.000 
#    0.000    0.000    0.000    0.000    0.000    0.000 
#
# Total GULP energy -78201.948225 kJ/mol
# GULP energy per Si atom -5585.853445 kJ/mol
# Density = 2.179973 g / cm^3
# Si number density = 21.849456 Si / 1000 Ang^3
#
#
#
# Elastic Constant Matrix: (Units=GPa)
#
#
# Indices 1 2 3 4 5 6 
#
# 1 84.7481 33.8580 41.9536 0.9322 -18.1467 3.1587
# 2 33.8580 141.0617 48.4304 -16.5418 -6.7777 -0.4884
# 3 41.9536 48.4304 129.6030 -13.4109 -24.7884 -1.6353
# 4 0.9322 -16.5418 -13.4109 34.2012 3.4352 4.6626
# 5 -18.1467 -6.7777 -24.7884 3.4352 39.0927 -1.1459
# 6 3.1587 -0.4884 -1.6353 4.6626 -1.1459 41.6819
#
#
#
# Elastic Compliance Matrix: (Units=1/GPa)
#
#
# Indices 1 2 3 4 5 6 
#
# 1 0.015756 -0.002757 -0.003508 -0.003516 0.004896 -0.000836
# 2 -0.002757 0.008914 -0.002362 0.003648 -0.001560 -0.000230
# 3 -0.003508 -0.002362 0.010910 0.002696 0.004658 0.000493
# 4 -0.003516 0.003648 0.002696 0.032837 -0.002273 -0.003321
# 5 0.004896 -0.001560 0.004658 -0.002273 0.030762 0.000893
# 6 -0.000836 -0.000230 0.000493 -0.003321 0.000893 0.024467
#
#
# Mechanical properties :
#
#
# Convention : Reuss Voigt Hill
#
# Bulk Modulus (GPa) = 54.56954 67.09964 60.83459
# Shear Modulus (GPa) = 34.01127 38.40655 36.20891
#
# Velocity S-wave (km/s) = 3.94968 4.19714 4.07529
# Velocity P-wave (km/s) = 6.76974 7.36645 7.07439
#
# Compressibility (1/GPa) = 0.01832524
#
# Stress axis : x y z
#
# Youngs Moduli (GPa) = 63.46757 112.18292 91.65774
#
# Poissons Ratio (x) = 0.30934 0.32153
# Poissons Ratio (y) = 0.17501 0.21650
# Poissons Ratio (z) = 0.22264 0.26499
#
# Static dielectric constant tensor:
#      x y z
#    x 1.821840 0.022000 0.047900 
#    y 0.022000 1.837060 0.035620 
#    z 0.047900 0.035620 1.903080 
# 
# From -- ./inp_files/189575.got.cif
#   From: 2010.05.17/outbox.cif.g08.bks.cpg/sg2_95_cif.got.tgz:189575.got - 2010.06.03 11:33:40.
