data_PCOD9065252
_publ_section_title
;
Structure prediction by ZEFSAII (Michael W. Deem and Ramdas Pophale) SiO2 
 PCOD9065252
Probable space group: P -1
;
_chemical_formula_sum "Si O2"
_cell_formula_units_Z 13
_cell_length_a 12.293751
_cell_length_b 9.537737
_cell_length_c 9.147181
_cell_angle_alpha 46.143807
_cell_angle_beta 136.903646
_cell_angle_gamma 134.166453
_cell_volume 487.158205
_symmetry_space_group_name_H-M "P -1"
_symmetry_group_IT_number 2
_symmetry_cell_setting 'triclinic'
loop_
_space_group_symop_operation_xyz
x,y,z
-x,-y,-z
loop_
_atom_site_type_symbol
_atom_site_label
_atom_site_fract_x
_atom_site_fract_y
_atom_site_fract_z
Si Si1 0.058803 0.864092 0.419818
Si Si2 0.404958 0.961475 0.203500
Si Si3 0.500000 0.500000 0.500000
Si Si4 0.197434 0.753112 0.897792
Si Si5 0.115566 0.305994 0.145630
Si Si6 0.277433 0.748908 0.522704
Si Si7 0.331819 0.367989 0.744721
O O1 0.193215 0.908179 0.655069
O O2 0.101562 0.723098 0.445184
O O3 0.874731 0.743501 0.401843
O O4 0.072778 0.078601 0.200208
O O5 0.278553 0.812365 0.308818
O O6 0.586435 0.050259 0.400919
O O7 0.370157 0.826123 0.116111
O O8 0.373224 0.170569 0.982466
O O9 0.294859 0.366351 0.362669
O O10 0.454034 0.476516 0.650852
O O11 0.045409 0.730967 0.877358
O O12 0.150876 0.526468 0.940714
O O13 0.339238 0.555435 0.726945
#
# Coordination Sequence:
#
# PCOD9065252 Si02
#       7
#     2   2   1   2   2   2   2
#     4  12  26  48  77 113 150 195 253 309 381 453
#     4  11  26  50  73 108 154 203 252 307 379 442
#     4  12  26  44  80 114 148 188 254 320 362 444
#     4  11  24  47  76 109 150 194 253 309 377 442
#     4  11  25  43  72 111 148 189 246 312 371 435
#     4  11  29  48  73 111 156 201 253 307 372 461
#     4  12  26  51  77 110 155 197 250 316 378 447
#
# _framework density 26.685376999999999
#
# number of rings (size 3 to 8) (size 9 to 14) (size 15 to 20)
#    0.000    0.615    3.077    3.231   10.769    2.462 
#    0.000    0.000    0.000    0.000    0.000    0.000 
#    0.000    0.000    0.000    0.000    0.000    0.000 
#
# Total GULP energy -72515.940725 kJ/mol
# GULP energy per Si atom -5578.149287 kJ/mol
# Density = 2.662464 g / cm^3
# Si number density = 26.685377 Si / 1000 Ang^3
#
#
#
# Elastic Constant Matrix: (Units=GPa)
#
#
# Indices 1 2 3 4 5 6 
#
# 1 109.6259 29.9171 23.7735 -13.1884 2.5087 -9.3170
# 2 29.9171 135.8280 32.9733 -22.2767 -0.1267 -16.3102
# 3 23.7735 32.9733 59.8377 -13.8832 -22.6174 -1.8809
# 4 -13.1884 -22.2767 -13.8832 58.7550 -2.6369 16.2716
# 5 2.5087 -0.1267 -22.6174 -2.6369 5.2613 3.4587
# 6 -9.3170 -16.3102 -1.8809 16.2716 3.4587 30.7321
#
#
#
# Elastic Compliance Matrix: (Units=1/GPa)
#
#
# Indices 1 2 3 4 5 6 
#
# 1 0.008948 -0.002530 0.003594 0.002917 0.013558 -0.001480
# 2 -0.002530 0.007978 0.002322 0.003504 0.012939 0.000298
# 3 0.003594 0.002322 -0.011816 -0.007582 -0.064730 0.012898
# 4 0.002917 0.003504 -0.007582 0.017448 -0.022225 -0.004457
# 5 0.013558 0.012939 -0.064730 -0.022225 -0.127249 0.033104
# 6 -0.001480 0.000298 0.012898 -0.004457 0.033104 0.031672
#
#
# Mechanical properties :
#
#
# Convention : Reuss Voigt Hill
#
# Bulk Modulus (GPa) = 84.16081 53.17995 68.67038
# Shear Modulus (GPa) = -65.93840 33.52486 -16.20677
#
# Velocity S-wave (km/s) = -4.97626 3.54828 -2.46708
# Velocity P-wave (km/s) = 1.18784 6.06290 4.20404
#
# Compressibility (1/GPa) = 0.01188201
#
# Stress axis : x y z
#
# Youngs Moduli (GPa) = 111.75952 125.33778 -84.63410
#
# Poissons Ratio (x) = 0.31711 0.30419
# Poissons Ratio (y) = 0.28276 0.19648
# Poissons Ratio (z) = -0.40168 -0.29098
#
# Static dielectric constant tensor:
#      x y z
#    x 2.038610 -0.044680 0.090540 
#    y -0.044680 2.019580 0.079670 
#    z 0.090540 0.079670 2.008790 
# 
# From -- ./inp_files/242332.got.cif
#   From: 2010.05.17/outbox.cif.g08.bks.cpg/sg2_122_cif.got.tgz:242332.got - 2010.06.03 11:33:40.
