data_PCOD9065594
_publ_section_title
;
Structure prediction by ZEFSAII (Michael W. Deem and Ramdas Pophale) SiO2 
 PCOD9065594
Probable space group: P -1
;
_chemical_formula_sum "Si O2"
_cell_formula_units_Z 12
_cell_length_a 8.779963
_cell_length_b 10.209085
_cell_length_c 11.123176
_cell_angle_alpha 55.869005
_cell_angle_beta 132.954962
_cell_angle_gamma 134.946303
_cell_volume 510.320882
_symmetry_space_group_name_H-M "P -1"
_symmetry_group_IT_number 2
_symmetry_cell_setting 'triclinic'
loop_
_space_group_symop_operation_xyz
x,y,z
-x,-y,-z
loop_
_atom_site_type_symbol
_atom_site_label
_atom_site_fract_x
_atom_site_fract_y
_atom_site_fract_z
Si Si1 0.818473 0.768974 0.634377
Si Si2 0.448170 0.662609 0.898495
Si Si3 0.945045 0.393321 0.650348
Si Si4 0.698371 0.208689 0.031094
Si Si5 0.417426 0.653169 0.323603
Si Si6 0.279083 0.018196 0.318433
O O1 0.711102 0.797990 0.435000
O O2 0.632431 0.541869 0.654642
O O3 0.801671 0.891040 0.668592
O O4 0.078306 0.785442 0.782900
O O5 0.444947 0.723578 0.999634
O O6 0.615039 0.837830 0.810724
O O7 0.164984 0.551437 0.765284
O O8 0.500000 0.500000 0.000000
O O9 0.701613 0.351334 0.609467
O O10 0.000000 0.500000 0.500000
O O11 0.922345 0.194375 0.721842
O O12 0.742608 0.305933 0.875825
O O13 0.500000 0.000000 0.000000
O O14 0.500000 0.000000 0.500000
#
# Coordination Sequence:
#
# PCOD9065594 Si02
#       6
#     2   2   2   2   2   2
#     4  11  25  47  77 102 146 198 243 306 375 438
#     4  12  28  49  73 112 153 195 250 312 378 450
#     4  12  25  47  76 105 148 197 250 306 376 448
#     4  12  28  47  73 112 149 193 250 308 376 451
#     4  11  24  49  75 104 149 197 246 308 378 444
#     4  12  25  48  75 111 149 195 252 310 373 449
#
# _framework density 23.514614999999999
#
# number of rings (size 3 to 8) (size 9 to 14) (size 15 to 20)
#    0.000    0.333    5.000    2.500    4.667    2.667 
#    0.000    0.000    0.000    0.000    0.000    0.000 
#    0.000    0.000    0.000    0.000    0.000    0.000 
#
# Total GULP energy -66980.740455 kJ/mol
# GULP energy per Si atom -5581.728371 kJ/mol
# Density = 2.346109 g / cm^3
# Si number density = 23.514615 Si / 1000 Ang^3
#
#
#
# Elastic Constant Matrix: (Units=GPa)
#
#
# Indices 1 2 3 4 5 6 
#
# 1 109.4071 55.2484 37.2760 -19.8326 -6.4930 -40.1545
# 2 55.2484 159.3536 22.1890 -4.8528 -13.9782 -23.8748
# 3 37.2760 22.1890 95.4274 -8.3295 1.3639 2.2154
# 4 -19.8326 -4.8528 -8.3295 44.9165 3.5125 -3.3117
# 5 -6.4930 -13.9782 1.3639 3.5125 34.0742 -6.7386
# 6 -40.1545 -23.8748 2.2154 -3.3117 -6.7386 40.6861
#
#
#
# Elastic Compliance Matrix: (Units=1/GPa)
#
#
# Indices 1 2 3 4 5 6 
#
# 1 0.025950 -0.002602 -0.009337 0.010765 0.008455 0.026869
# 2 -0.002602 0.008006 -0.001004 -0.000538 0.003420 0.002708
# 3 -0.009337 -0.001004 0.014522 -0.002011 -0.004851 -0.011562
# 4 0.010765 -0.000538 -0.002011 0.027410 0.001641 0.012921
# 5 0.008455 0.003420 -0.004851 0.001641 0.035681 0.016659
# 6 0.026869 0.002708 -0.011562 0.012921 0.016659 0.057126
#
#
# Mechanical properties :
#
#
# Convention : Reuss Voigt Hill
#
# Bulk Modulus (GPa) = 44.26054 65.95722 55.10888
# Shear Modulus (GPa) = 24.73887 40.56702 32.65294
#
# Velocity S-wave (km/s) = 3.24707 4.15804 3.73047
# Velocity P-wave (km/s) = 5.73772 7.15281 6.48398
#
# Compressibility (1/GPa) = 0.02259349
#
# Stress axis : x y z
#
# Youngs Moduli (GPa) = 38.53612 124.89866 68.86146
#
# Poissons Ratio (x) = 0.32495 0.64293
# Poissons Ratio (y) = 0.10026 0.06914
# Poissons Ratio (z) = 0.35979 0.12541
#
# Static dielectric constant tensor:
#      x y z
#    x 1.997480 -0.025660 0.087270 
#    y -0.025660 1.948930 -0.023720 
#    z 0.087270 -0.023720 2.040890 
# 
# From -- ./inp_files/378099.got.cif
#   From: 2010.05.17/outbox.cif.g08.bks.cpg/sg2_190_cif.got.tgz:378099.got - 2010.06.03 11:33:40.
