data_PCOD9065813
_publ_section_title
;
Structure prediction by ZEFSAII (Michael W. Deem and Ramdas Pophale) SiO2 
 PCOD9065813
Probable space group: P -1
;
_chemical_formula_sum "Si O2"
_cell_formula_units_Z 16
_cell_length_a 13.547585
_cell_length_b 9.821706
_cell_length_c 6.972629
_cell_angle_alpha 68.874930
_cell_angle_beta 102.533832
_cell_angle_gamma 56.653757
_cell_volume 611.813268
_symmetry_space_group_name_H-M "P -1"
_symmetry_group_IT_number 2
_symmetry_cell_setting 'triclinic'
loop_
_space_group_symop_operation_xyz
x,y,z
-x,-y,-z
loop_
_atom_site_type_symbol
_atom_site_label
_atom_site_fract_x
_atom_site_fract_y
_atom_site_fract_z
Si Si1 0.178373 0.369341 0.559801
Si Si2 0.773879 0.180735 0.811200
Si Si3 0.413116 0.442889 0.948004
Si Si4 0.474022 0.164577 0.773148
Si Si5 0.113287 0.661353 0.702022
Si Si6 0.046414 0.719222 0.079699
Si Si7 0.807690 0.984627 0.302379
Si Si8 0.601306 0.180112 0.475872
O O1 0.321187 0.282707 0.566365
O O2 0.161040 0.473164 0.697892
O O3 0.184395 0.191244 0.673814
O O4 0.969590 0.869667 0.453870
O O5 0.840383 0.275322 0.794375
O O6 0.643406 0.283099 0.564030
O O7 0.745183 0.152264 0.028772
O O8 0.898218 0.947706 0.916233
O O9 0.458096 0.311148 0.227166
O O10 0.500000 0.500000 0.000000
O O11 0.461454 0.308772 0.847288
O O12 0.247874 0.630657 0.768299
O O13 0.583794 0.083004 0.691736
O O14 0.500000 0.000000 0.000000
O O15 0.057877 0.557648 0.281734
O O16 0.080402 0.656208 0.907357
O O17 0.719665 0.056483 0.424430
#
# Coordination Sequence:
#
# PCOD9065813 Si02
#       8
#     2   2   2   2   2   2   2   2
#     4  11  25  46  74 102 147 189 245 306 368 442
#     4  11  26  43  70 107 148 189 244 303 371 441
#     4  11  28  46  74 111 152 198 247 302 372 450
#     4  11  26  50  74 106 148 199 251 304 368 452
#     4  11  25  46  71 109 147 187 240 310 367 436
#     4  11  25  43  68 108 142 193 240 301 376 436
#     4  12  26  47  77 110 142 192 248 311 373 440
#     4  12  26  47  76 106 147 195 244 303 371 445
#
# _framework density 26.151772000000001
#
# number of rings (size 3 to 8) (size 9 to 14) (size 15 to 20)
#    0.000    0.750    2.500    3.375    7.000    6.500 
#    0.000    0.000    0.000    0.000    0.000    0.000 
#    0.000    0.000    0.000    0.000    0.000    0.000 
#
# Total GULP energy -89658.527146 kJ/mol
# GULP energy per Si atom -5603.657947 kJ/mol
# Density = 2.609225 g / cm^3
# Si number density = 26.151772 Si / 1000 Ang^3
#
#
#
# Elastic Constant Matrix: (Units=GPa)
#
#
# Indices 1 2 3 4 5 6 
#
# 1 132.6740 37.7164 36.6403 1.8788 -2.5145 -28.1225
# 2 37.7164 101.3783 32.6606 14.9040 -19.8206 -20.4835
# 3 36.6403 32.6606 94.4081 19.1442 -7.1413 -13.4366
# 4 1.8788 14.9040 19.1442 46.0461 -11.4636 -6.6691
# 5 -2.5145 -19.8206 -7.1413 -11.4636 55.2785 -5.2836
# 6 -28.1225 -20.4835 -13.4366 -6.6691 -5.2836 45.6593
#
#
#
# Elastic Compliance Matrix: (Units=1/GPa)
#
#
# Indices 1 2 3 4 5 6 
#
# 1 0.009886 -0.002088 -0.002881 0.002202 0.000230 0.004652
# 2 -0.002088 0.013434 -0.002594 -0.001444 0.004497 0.004287
# 3 -0.002881 -0.002594 0.013593 -0.004706 -0.000248 0.000346
# 4 0.002202 -0.001444 -0.004706 0.025735 0.004657 0.003621
# 5 0.000230 0.004497 -0.000248 0.004657 0.021145 0.005213
# 6 0.004652 0.004287 0.000346 0.003621 0.005213 0.027924
#
#
# Mechanical properties :
#
#
# Convention : Reuss Voigt Hill
#
# Bulk Modulus (GPa) = 45.90150 60.27722 53.08936
# Shear Modulus (GPa) = 37.28373 44.15966 40.72169
#
# Velocity S-wave (km/s) = 3.77990 4.11371 3.95033
# Velocity P-wave (km/s) = 6.05312 6.75740 6.41493
#
# Compressibility (1/GPa) = 0.02178578
#
# Stress axis : x y z
#
# Youngs Moduli (GPa) = 101.15322 74.43579 73.56945
#
# Poissons Ratio (x) = 0.15545 0.21197
# Poissons Ratio (y) = 0.21125 0.19084
# Poissons Ratio (z) = 0.29144 0.19308
#
# Static dielectric constant tensor:
#      x y z
#    x 2.085300 -0.033560 0.045150 
#    y -0.033560 2.069920 -0.077720 
#    z 0.045150 -0.077720 2.120550 
# 
# From -- ./inp_files/94611.got.cif
#   From: 2010.05.17/outbox.cif.g08.bks.cpg/sg2_48_cif.got.tgz:94611.got - 2010.06.03 11:33:40.
