data_PCOD9065893
_publ_section_title
;
Structure prediction by ZEFSAII (Michael W. Deem and Ramdas Pophale) SiO2 
 PCOD9065893
Probable space group: P -1
;
_chemical_formula_sum "Si O2"
_cell_formula_units_Z 16
_cell_length_a 10.458147
_cell_length_b 11.943985
_cell_length_c 6.514096
_cell_angle_alpha 66.551273
_cell_angle_beta 114.369275
_cell_angle_gamma 93.662207
_cell_volume 675.065472
_symmetry_space_group_name_H-M "P -1"
_symmetry_group_IT_number 2
_symmetry_cell_setting 'triclinic'
loop_
_space_group_symop_operation_xyz
x,y,z
-x,-y,-z
loop_
_atom_site_type_symbol
_atom_site_label
_atom_site_fract_x
_atom_site_fract_y
_atom_site_fract_z
Si Si1 0.792549 0.394523 0.413946
Si Si2 0.451712 0.717359 0.468416
Si Si3 0.363706 0.994946 0.274701
Si Si4 0.024567 0.615289 0.073876
Si Si5 0.120385 0.808370 0.713726
Si Si6 0.807976 0.937568 0.510130
Si Si7 0.370254 0.202241 0.800999
Si Si8 0.274764 0.350976 0.012388
O O1 0.654300 0.376996 0.467804
O O2 0.848226 0.271360 0.413661
O O3 0.750605 0.502903 0.145416
O O4 0.909585 0.423462 0.634602
O O5 0.365067 0.852487 0.332791
O O6 0.511653 0.722267 0.273986
O O7 0.583356 0.692767 0.734456
O O8 0.500000 0.000000 0.500000
O O9 0.227353 0.045230 0.283860
O O10 0.395863 0.080191 0.045120
O O11 0.866778 0.683137 0.949928
O O12 0.000000 0.500000 0.000000
O O13 0.124141 0.707058 0.969372
O O14 0.961517 0.877443 0.581209
O O15 0.213747 0.921565 0.694417
O O16 0.703481 0.851460 0.403346
O O17 0.282337 0.294011 0.831623
#
# Coordination Sequence:
#
# PCOD9065893 Si02
#       8
#     2   2   2   2   2   2   2   2
#     4  12  28  48  76 107 147 192 244 303 362 424
#     4  12  27  46  74 109 148 190 245 301 362 427
#     4  12  23  44  67 105 143 190 240 294 355 435
#     4  12  27  47  77 103 142 194 246 292 363 436
#     4  11  25  46  71 107 146 186 244 302 361 423
#     4  11  25  43  74 105 145 191 241 301 358 432
#     4  12  25  42  75 102 150 190 241 288 373 420
#     4  12  27  49  73 108 147 194 245 297 358 440
#
# _framework density 23.701404
#
# number of rings (size 3 to 8) (size 9 to 14) (size 15 to 20)
#    0.000    0.250    5.000    3.375    5.250    1.500 
#    0.000    3.125    0.000    0.000    0.000    0.000 
#    0.000    0.000    0.000    0.000    0.000    0.000 
#
# Total GULP energy -89449.513718 kJ/mol
# GULP energy per Si atom -5590.594607 kJ/mol
# Density = 2.364746 g / cm^3
# Si number density = 23.701404 Si / 1000 Ang^3
#
#
#
# Elastic Constant Matrix: (Units=GPa)
#
#
# Indices 1 2 3 4 5 6 
#
# 1 117.8909 32.7080 39.8122 1.4945 -26.3133 -4.2930
# 2 32.7080 105.1279 26.4733 -7.3725 -3.7887 -20.5595
# 3 39.8122 26.4733 107.5753 -16.0515 -13.7209 -0.7542
# 4 1.4945 -7.3725 -16.0515 36.5991 4.0411 -12.0484
# 5 -26.3133 -3.7887 -13.7209 4.0411 40.9924 -4.4944
# 6 -4.2930 -20.5595 -0.7542 -12.0484 -4.4944 47.5075
#
#
#
# Elastic Compliance Matrix: (Units=1/GPa)
#
#
# Indices 1 2 3 4 5 6 
#
# 1 0.011929 -0.002971 -0.003369 -0.003456 0.006539 -0.000519
# 2 -0.002971 0.012188 -0.001384 0.004025 -0.000993 0.005911
# 3 -0.003369 -0.001384 0.011812 0.005134 0.001234 0.000703
# 4 -0.003456 0.004025 0.005134 0.034058 -0.002398 0.009922
# 5 0.006539 -0.000993 0.001234 -0.002398 0.029408 0.002355
# 6 -0.000519 0.005911 0.000703 0.009922 0.002355 0.026310
#
#
# Mechanical properties :
#
#
# Convention : Reuss Voigt Hill
#
# Bulk Modulus (GPa) = 48.82991 58.73124 53.78057
# Shear Modulus (GPa) = 33.78854 40.45985 37.12420
#
# Velocity S-wave (km/s) = 3.77980 4.13615 3.96198
# Velocity P-wave (km/s) = 6.30048 6.90244 6.60832
#
# Compressibility (1/GPa) = 0.02047925
#
# Stress axis : x y z
#
# Youngs Moduli (GPa) = 83.83068 82.05024 84.66228
#
# Poissons Ratio (x) = 0.24380 0.28521
# Poissons Ratio (y) = 0.24909 0.11720
# Poissons Ratio (z) = 0.28241 0.11358
#
# Static dielectric constant tensor:
#      x y z
#    x 1.919480 0.005000 -0.034610 
#    y 0.005000 1.913890 -0.057290 
#    z -0.034610 -0.057290 1.926370 
# 
# From -- ./inp_files/69349.got.cif
#   From: 2010.05.17/outbox.cif.g08.bks.cpg/sg2_35_cif.got.tgz:69349.got - 2010.06.03 11:33:40.
