data_PCOD9065501
_publ_section_title
;
Structure prediction by ZEFSAII (Michael W. Deem and Ramdas Pophale) SiO2 
 PCOD9065501
Probable space group: P -1
;
_chemical_formula_sum "Si O2"
_cell_formula_units_Z 12
_cell_length_a 7.920106
_cell_length_b 9.574015
_cell_length_c 8.941286
_cell_angle_alpha 74.122615
_cell_angle_beta 130.330357
_cell_angle_gamma 92.697584
_cell_volume 489.257996
_symmetry_space_group_name_H-M "P -1"
_symmetry_group_IT_number 2
_symmetry_cell_setting 'triclinic'
loop_
_space_group_symop_operation_xyz
x,y,z
-x,-y,-z
loop_
_atom_site_type_symbol
_atom_site_label
_atom_site_fract_x
_atom_site_fract_y
_atom_site_fract_z
Si Si1 0.055230 0.921784 0.213452
Si Si2 0.321114 0.129368 0.436589
Si Si3 0.684418 0.591896 0.863316
Si Si4 0.157814 0.610965 0.246085
Si Si5 0.345268 0.144709 0.802658
Si Si6 0.726416 0.528053 0.349788
O O1 0.886507 0.857579 0.244040
O O2 0.206009 0.768208 0.285414
O O3 0.103369 0.058329 0.299633
O O4 0.000000 0.000000 0.000000
O O5 0.318399 0.274367 0.294222
O O6 0.346240 0.136268 0.626050
O O7 0.500000 0.000000 0.500000
O O8 0.765881 0.441494 0.860333
O O9 0.430822 0.582921 0.773810
O O10 0.887303 0.608599 0.087372
O O11 0.282981 0.494266 0.470064
O O12 0.387408 0.308579 0.811326
O O13 0.500000 0.000000 0.000000
O O14 0.000000 0.500000 0.500000
#
# Coordination Sequence:
#
# PCOD9065501 Si02
#       6
#     2   2   2   2   2   2
#     4  12  25  48  77 108 155 199 253 315 393 459
#     4  12  26  46  76 110 150 202 254 313 388 464
#     4  11  26  46  80 112 150 203 260 318 393 464
#     4  11  24  48  77 114 147 204 259 322 387 464
#     4  12  29  48  72 114 155 204 257 322 386 463
#     4  12  26  48  75 110 152 202 260 322 383 463
#
# _framework density 24.526938000000001
#
# number of rings (size 3 to 8) (size 9 to 14) (size 15 to 20)
#    0.000    0.333    5.000    3.000    4.667    0.667 
#    3.000    0.000    0.000    0.000    0.000    0.000 
#    0.000    0.000    0.000    0.000    0.000    0.000 
#
# Total GULP energy -66945.942264 kJ/mol
# GULP energy per Si atom -5578.828522 kJ/mol
# Density = 2.447111 g / cm^3
# Si number density = 24.526938 Si / 1000 Ang^3
#
#
#
# Elastic Constant Matrix: (Units=GPa)
#
#
# Indices 1 2 3 4 5 6 
#
# 1 97.3682 35.7805 18.5515 7.7787 -11.3511 14.4186
# 2 35.7805 154.4719 48.4913 -22.3060 -3.2738 19.9289
# 3 18.5515 48.4913 133.1552 -7.6492 -7.8784 12.3067
# 4 7.7787 -22.3060 -7.6492 50.9099 3.4864 -0.8562
# 5 -11.3511 -3.2738 -7.8784 3.4864 37.5571 6.4829
# 6 14.4186 19.9289 12.3067 -0.8562 6.4829 54.5957
#
#
#
# Elastic Compliance Matrix: (Units=1/GPa)
#
#
# Indices 1 2 3 4 5 6 
#
# 1 0.012591 -0.002858 -0.000411 -0.003577 0.004277 -0.002753
# 2 -0.002858 0.008663 -0.002414 0.003887 -0.000679 -0.001721
# 3 -0.000411 -0.002414 0.008662 0.000173 0.001666 -0.001158
# 4 -0.003577 0.003887 0.000173 0.022112 -0.002787 0.000165
# 5 0.004277 -0.000679 0.001666 -0.002787 0.029293 -0.004780
# 6 -0.002753 -0.001721 -0.001158 0.000165 -0.004780 0.020503
#
#
# Mechanical properties :
#
#
# Convention : Reuss Voigt Hill
#
# Bulk Modulus (GPa) = 53.91282 65.62687 59.76985
# Shear Modulus (GPa) = 41.88534 47.42401 44.65468
#
# Velocity S-wave (km/s) = 4.13695 4.40198 4.27152
# Velocity P-wave (km/s) = 6.69686 7.25615 6.98211
#
# Compressibility (1/GPa) = 0.01854846
#
# Stress axis : x y z
#
# Youngs Moduli (GPa) = 79.42140 115.43969 115.44602
#
# Poissons Ratio (x) = 0.32993 0.04749
# Poissons Ratio (y) = 0.22699 0.27871
# Poissons Ratio (z) = 0.03267 0.27870
#
# Static dielectric constant tensor:
#      x y z
#    x 2.006110 -0.035270 0.071550 
#    y -0.035270 1.862830 -0.054640 
#    z 0.071550 -0.054640 1.925680 
# 
# From -- ./inp_files/149714.got.cif
#   From: 2010.05.17/outbox.cif.g08.bks.cpg/sg2_75_cif.got.tgz:149714.got - 2010.06.03 11:33:40.
