data_PCOD9065991
_publ_section_title
;
Structure prediction by ZEFSAII (Michael W. Deem and Ramdas Pophale) SiO2 
 PCOD9065991
Probable space group: P -1
;
_chemical_formula_sum "Si O2"
_cell_formula_units_Z 16
_cell_length_a 11.595735
_cell_length_b 11.681505
_cell_length_c 14.508848
_cell_angle_alpha 116.444935
_cell_angle_beta 152.589013
_cell_angle_gamma 79.018729
_cell_volume 702.974557
_symmetry_space_group_name_H-M "P -1"
_symmetry_group_IT_number 2
_symmetry_cell_setting 'triclinic'
loop_
_space_group_symop_operation_xyz
x,y,z
-x,-y,-z
loop_
_atom_site_type_symbol
_atom_site_label
_atom_site_fract_x
_atom_site_fract_y
_atom_site_fract_z
Si Si1 0.687299 0.945386 0.667590
Si Si2 0.320178 0.865075 0.099789
Si Si3 0.078357 0.103532 0.503740
Si Si4 0.774723 0.968303 0.054720
Si Si5 0.791203 0.370715 0.736595
Si Si6 0.227114 0.383124 0.817859
Si Si7 0.829278 0.524775 0.631987
Si Si8 0.666866 0.662011 0.918523
O O1 0.504560 0.769848 0.491638
O O2 0.953172 0.985432 0.803643
O O3 0.500000 0.000000 0.500000
O O4 0.735023 0.036855 0.828870
O O5 0.376868 0.954443 0.076795
O O6 0.046858 0.700423 0.850434
O O7 0.612934 0.855854 0.310151
O O8 0.078666 0.243859 0.596451
O O9 0.859161 0.029341 0.238701
O O10 0.000000 0.000000 0.500000
O O11 0.627880 0.793666 0.898034
O O12 0.732508 0.451062 0.638305
O O13 0.000000 0.500000 0.000000
O O14 0.001983 0.302333 0.843168
O O15 0.020973 0.450788 0.712859
O O16 0.500000 0.500000 0.000000
O O17 0.353470 0.354051 0.991606
O O18 0.565467 0.477292 0.356026
#
# Coordination Sequence:
#
# PCOD9065991 Si02
#       8
#     2   2   2   2   2   2   2   2
#     4  12  23  47  74  99 142 182 230 285 340 411
#     4  12  27  45  72 106 137 184 233 281 346 413
#     4  12  26  47  72 101 138 183 235 283 346 409
#     4  12  27  45  73 103 139 181 232 287 343 411
#     4  11  25  44  70  99 139 182 226 284 347 408
#     4  11  25  47  69  96 137 180 229 287 342 406
#     4  11  27  44  67 101 142 178 228 283 346 414
#     4  11  25  45  67 100 138 181 226 284 348 406
#
# _framework density 22.760425999999999
#
# number of rings (size 3 to 8) (size 9 to 14) (size 15 to 20)
#    0.000    0.500    5.000    1.875    7.000    2.500 
#    0.000    0.000    0.000    0.000    0.000    0.000 
#    0.000    0.000    0.000    0.000    0.000    0.000 
#
# Total GULP energy -89424.126459 kJ/mol
# GULP energy per Si atom -5589.007904 kJ/mol
# Density = 2.270862 g / cm^3
# Si number density = 22.760426 Si / 1000 Ang^3
#
#
#
# Elastic Constant Matrix: (Units=GPa)
#
#
# Indices 1 2 3 4 5 6 
#
# 1 110.1401 28.5312 42.9342 14.9237 -16.0107 13.2148
# 2 28.5312 96.6301 28.2793 17.9701 -1.7980 1.7392
# 3 42.9342 28.2793 97.8999 22.2546 -15.0066 2.2527
# 4 14.9237 17.9701 22.2546 54.8364 -0.9310 -0.6630
# 5 -16.0107 -1.7980 -15.0066 -0.9310 46.1423 -0.1388
# 6 13.2148 1.7392 2.2527 -0.6630 -0.1388 33.3331
#
#
#
# Elastic Compliance Matrix: (Units=1/GPa)
#
#
# Indices 1 2 3 4 5 6 
#
# 1 0.012282 -0.002132 -0.003997 -0.001028 0.002844 -0.004496
# 2 -0.002132 0.012046 -0.002136 -0.002514 -0.001015 0.000307
# 3 -0.003997 -0.002136 0.013885 -0.003788 0.002971 0.000695
# 4 -0.001028 -0.002514 -0.003788 0.020870 -0.001262 0.001205
# 5 0.002844 -0.001015 0.002971 -0.001262 0.023557 -0.001202
# 6 -0.004496 0.000307 0.000695 0.001205 -0.001202 0.031739
#
#
# Mechanical properties :
#
#
# Convention : Reuss Voigt Hill
#
# Bulk Modulus (GPa) = 46.11781 56.01771 51.06776
# Shear Modulus (GPa) = 36.19589 40.52407 38.35998
#
# Velocity S-wave (km/s) = 3.99218 4.22413 4.10979
# Velocity P-wave (km/s) = 6.44642 6.96106 6.70867
#
# Compressibility (1/GPa) = 0.02168360
#
# Stress axis : x y z
#
# Youngs Moduli (GPa) = 81.41999 83.01259 72.01889
#
# Poissons Ratio (x) = 0.17694 0.28790
# Poissons Ratio (y) = 0.17355 0.15383
# Poissons Ratio (z) = 0.32548 0.17731
#
# Static dielectric constant tensor:
#      x y z
#    x 1.868020 -0.032480 0.025270 
#    y -0.032480 1.872470 -0.047430 
#    z 0.025270 -0.047430 1.837320 
# 
# From -- ./inp_files/333224.got.cif
#   From: 2010.05.17/outbox.cif.g08.bks.cpg/sg2_167_cif.got.tgz:333224.got - 2010.06.03 11:33:40.
