data_PCOD9065716
_publ_section_title
;
Structure prediction by ZEFSAII (Michael W. Deem and Ramdas Pophale) SiO2 
 PCOD9065716
Probable space group: P -1
;
_chemical_formula_sum "Si O2"
_cell_formula_units_Z 14
_cell_length_a 17.315787
_cell_length_b 6.558311
_cell_length_c 5.624437
_cell_angle_alpha 100.097389
_cell_angle_beta 107.912187
_cell_angle_gamma 65.257251
_cell_volume 551.166466
_symmetry_space_group_name_H-M "P -1"
_symmetry_group_IT_number 2
_symmetry_cell_setting 'triclinic'
loop_
_space_group_symop_operation_xyz
x,y,z
-x,-y,-z
loop_
_atom_site_type_symbol
_atom_site_label
_atom_site_fract_x
_atom_site_fract_y
_atom_site_fract_z
Si Si1 0.678913 0.572763 0.147008
Si Si2 0.596445 0.351797 0.665755
Si Si3 0.502186 0.877634 0.228396
Si Si4 0.195950 0.209812 0.850923
Si Si5 0.886651 0.029436 0.983265
Si Si6 0.032862 0.650667 0.746374
Si Si7 0.232447 0.816041 0.493740
O O1 0.597960 0.680110 0.270105
O O2 0.719419 0.743761 0.125346
O O3 0.748139 0.365380 0.314825
O O4 0.639328 0.503265 0.865490
O O5 0.500000 0.500000 0.500000
O O6 0.575551 0.210165 0.828433
O O7 0.500000 0.000000 0.500000
O O8 0.671022 0.212848 0.520251
O O9 0.500000 0.000000 0.000000
O O10 0.118631 0.446080 0.877306
O O11 0.182537 0.071401 0.586325
O O12 0.191323 0.044314 0.017438
O O13 0.835508 0.207080 0.767049
O O14 0.929518 0.151160 0.234916
O O15 0.961501 0.800145 0.903583
O O16 0.000000 0.500000 0.500000
#
# Coordination Sequence:
#
# PCOD9065716 Si02
#       7
#     2   2   2   2   2   2   2
#     4  12  29  49  78 112 163 208 270 343 414 487
#     4  12  26  51  75 112 159 214 272 343 409 490
#     4  12  28  49  80 115 153 214 280 343 420 494
#     4  12  26  49  76 120 157 208 265 332 408 487
#     4  11  27  51  84 116 163 209 267 330 407 495
#     4  11  24  53  81 121 158 210 263 332 403 495
#     4  12  26  48  78 114 159 212 269 332 413 485
#
# _framework density 25.400677000000002
#
# number of rings (size 3 to 8) (size 9 to 14) (size 15 to 20)
#    0.000    0.286    2.857    5.143    6.000    2.857 
#   10.286    0.000    0.000    0.000    0.000    0.000 
#    0.000    0.000    0.000    0.000    0.000    0.000 
#
# Total GULP energy -78177.879993 kJ/mol
# GULP energy per Si atom -5584.134285 kJ/mol
# Density = 2.534286 g / cm^3
# Si number density = 25.400677 Si / 1000 Ang^3
#
#
#
# Elastic Constant Matrix: (Units=GPa)
#
#
# Indices 1 2 3 4 5 6 
#
# 1 95.1887 41.7878 25.0606 9.0390 -21.8614 12.5968
# 2 41.7878 126.4572 58.6732 24.1857 -0.3829 2.2873
# 3 25.0606 58.6732 106.9716 13.4680 9.7337 4.8674
# 4 9.0390 24.1857 13.4680 38.8414 8.7740 -2.1827
# 5 -21.8614 -0.3829 9.7337 8.7740 47.9154 7.9201
# 6 12.5968 2.2873 4.8674 -2.1827 7.9201 69.5847
#
#
#
# Elastic Compliance Matrix: (Units=1/GPa)
#
#
# Indices 1 2 3 4 5 6 
#
# 1 0.015212 -0.003534 -0.001877 -0.002783 0.008390 -0.003549
# 2 -0.003534 0.012620 -0.005500 -0.005219 0.000497 0.000389
# 3 -0.001877 -0.005500 0.013115 0.000126 -0.003590 0.000016
# 4 -0.002783 -0.005219 0.000126 0.031437 -0.007508 0.002507
# 5 0.008390 0.000497 -0.003590 -0.007508 0.027576 -0.004658
# 6 -0.003549 0.000389 0.000016 0.002507 -0.004658 0.015608
#
#
# Mechanical properties :
#
#
# Convention : Reuss Voigt Hill
#
# Bulk Modulus (GPa) = 52.28766 64.40675 58.34720
# Shear Modulus (GPa) = 34.77924 44.80803 39.79363
#
# Velocity S-wave (km/s) = 3.70432 4.20461 3.96237
# Velocity P-wave (km/s) = 6.23905 6.99879 6.62981
#
# Compressibility (1/GPa) = 0.01912497
#
# Stress axis : x y z
#
# Youngs Moduli (GPa) = 65.73909 79.23827 76.24988
#
# Poissons Ratio (x) = 0.28003 0.14311
# Poissons Ratio (y) = 0.23232 0.41937
# Poissons Ratio (z) = 0.12338 0.43581
#
# Static dielectric constant tensor:
#      x y z
#    x 8.020240 0.996420 0.767660 
#    y 0.996420 2.212820 0.133520 
#    z 0.767660 0.133520 2.207520 
# 
# From -- ./inp_files/102928.got.cif
#   From: 2010.05.17/outbox.cif.g08.bks.cpg/sg2_52_cif.got.tgz:102928.got - 2010.06.03 11:33:40.
