data_PCOD9065250
_publ_section_title
;
Structure prediction by ZEFSAII (Michael W. Deem and Ramdas Pophale) SiO2 
 PCOD9065250
Probable space group: P -1
;
_chemical_formula_sum "Si O2"
_cell_formula_units_Z 12
_cell_length_a 5.080314
_cell_length_b 9.364097
_cell_length_c 12.813305
_cell_angle_alpha 66.378737
_cell_angle_beta 64.178886
_cell_angle_gamma 104.579700
_cell_volume 430.378911
_symmetry_space_group_name_H-M "P -1"
_symmetry_group_IT_number 2
_symmetry_cell_setting 'triclinic'
loop_
_space_group_symop_operation_xyz
x,y,z
-x,-y,-z
loop_
_atom_site_type_symbol
_atom_site_label
_atom_site_fract_x
_atom_site_fract_y
_atom_site_fract_z
Si Si1 0.045494 0.638570 0.861060
Si Si2 0.986250 0.328377 0.607132
Si Si3 0.660858 0.358482 0.847671
Si Si4 0.998394 0.831905 0.108617
Si Si5 0.722321 0.966125 0.272939
Si Si6 0.682034 0.837725 0.539589
O O1 0.754141 0.520614 0.862031
O O2 0.057410 0.818717 0.847259
O O3 0.000000 0.500000 0.000000
O O4 0.320487 0.804592 0.046331
O O5 0.975507 0.393112 0.708637
O O6 0.620109 0.144430 0.702014
O O7 0.000000 0.500000 0.500000
O O8 0.238259 0.297072 0.500369
O O9 0.349090 0.324801 0.839406
O O10 0.931756 0.871843 0.227567
O O11 0.000000 0.000000 0.000000
O O12 0.620014 0.931032 0.421842
O O13 0.607391 0.273871 0.292451
O O14 0.000000 0.000000 0.500000
#
# Coordination Sequence:
#
# PCOD9065250 Si02
#       6
#     2   2   2   2   2   2
#     4  12  28  48  73 114 160 203 258 327 402 470
#     4  11  25  46  77 110 144 197 268 326 383 464
#     4  11  26  46  74 111 150 199 262 323 387 465
#     4  11  24  47  76 108 153 206 259 321 391 467
#     4  11  25  48  72 109 152 200 260 323 386 472
#     4  12  26  46  81 107 150 205 265 321 396 468
#
# _framework density 27.882404999999999
#
# number of rings (size 3 to 8) (size 9 to 14) (size 15 to 20)
#    0.000    0.667    3.333    3.000    7.000    4.000 
#    0.000    2.500    0.000    0.000    0.000    0.000 
#    0.000    0.000    0.000    0.000    0.000    0.000 
#
# Total GULP energy -67132.168215 kJ/mol
# GULP energy per Si atom -5594.347351 kJ/mol
# Density = 2.781894 g / cm^3
# Si number density = 27.882405 Si / 1000 Ang^3
#
#
#
# Elastic Constant Matrix: (Units=GPa)
#
#
# Indices 1 2 3 4 5 6 
#
# 1 141.5907 45.0264 30.9123 13.1301 8.7702 26.2061
# 2 45.0264 170.6037 40.7218 14.7104 3.0138 17.3113
# 3 30.9123 40.7218 146.2345 24.3206 -8.3286 14.9445
# 4 13.1301 14.7104 24.3206 51.3679 2.7056 0.0373
# 5 8.7702 3.0138 -8.3286 2.7056 34.4675 14.7892
# 6 26.2061 17.3113 14.9445 0.0373 14.7892 58.3666
#
#
#
# Elastic Compliance Matrix: (Units=1/GPa)
#
#
# Indices 1 2 3 4 5 6 
#
# 1 0.008471 -0.001609 -0.000897 -0.001230 -0.000905 -0.002866
# 2 -0.001609 0.006771 -0.001298 -0.000912 -0.000018 -0.000949
# 3 -0.000897 -0.001298 0.008426 -0.003579 0.003641 -0.002290
# 4 -0.001230 -0.000912 -0.003579 0.021909 -0.003290 0.002559
# 5 -0.000905 -0.000018 0.003641 -0.003290 0.034339 -0.009220
# 6 -0.002866 -0.000949 -0.002290 0.002559 -0.009220 0.021622
#
#
# Mechanical properties :
#
#
# Convention : Reuss Voigt Hill
#
# Bulk Modulus (GPa) = 62.26192 76.86108 69.56150
# Shear Modulus (GPa) = 43.66920 51.62498 47.64709
#
# Velocity S-wave (km/s) = 3.96181 4.30760 4.13832
# Velocity P-wave (km/s) = 6.58077 7.23648 6.91640
#
# Compressibility (1/GPa) = 0.01606118
#
# Stress axis : x y z
#
# Youngs Moduli (GPa) = 118.05566 147.68673 118.68179
#
# Poissons Ratio (x) = 0.23758 0.10641
# Poissons Ratio (y) = 0.18991 0.15404
# Poissons Ratio (z) = 0.10585 0.19169
#
# Static dielectric constant tensor:
#      x y z
#    x 2.582110 -0.134050 0.197480 
#    y -0.134050 2.168400 -0.070170 
#    z 0.197480 -0.070170 2.439610 
# 
# From -- ./inp_files/360167.got.cif
#   From: 2010.05.17/outbox.cif.g08.bks.cpg/sg2_181_cif.got.tgz:360167.got - 2010.06.03 11:33:40.
