data_PCOD9065051
_publ_section_title
;
Structure prediction by ZEFSAII (Michael W. Deem and Ramdas Pophale) SiO2 
 PCOD9065051
Probable space group: P -1
;
_chemical_formula_sum "Si O2"
_cell_formula_units_Z 16
_cell_length_a 8.753799
_cell_length_b 9.459635
_cell_length_c 12.883750
_cell_angle_alpha 130.514395
_cell_angle_beta 85.012565
_cell_angle_gamma 89.224202
_cell_volume 804.552129
_symmetry_space_group_name_H-M "P -1"
_symmetry_group_IT_number 2
_symmetry_cell_setting 'triclinic'
loop_
_space_group_symop_operation_xyz
x,y,z
-x,-y,-z
loop_
_atom_site_type_symbol
_atom_site_label
_atom_site_fract_x
_atom_site_fract_y
_atom_site_fract_z
Si Si1 0.081074 0.500517 0.605697
Si Si2 0.098072 0.941108 0.863744
Si Si3 0.430706 0.317210 0.873808
Si Si4 0.580747 0.679312 0.554687
Si Si5 0.463390 0.978844 0.869255
Si Si6 0.430678 0.804166 0.409572
Si Si7 0.935680 0.713326 0.127204
Si Si8 0.072361 0.790139 0.377381
O O1 0.079848 0.721057 0.738624
O O2 0.248235 0.387500 0.525915
O O3 0.000000 0.500000 0.500000
O O4 0.993324 0.375584 0.631561
O O5 0.282484 0.946697 0.863614
O O6 0.045806 0.107311 0.863390
O O7 0.000000 0.000000 0.000000
O O8 0.492353 0.297683 0.743566
O O9 0.247884 0.303675 0.866363
O O10 0.483025 0.157390 0.879526
O O11 0.500000 0.500000 0.000000
O O12 0.500000 0.500000 0.500000
O O13 0.563102 0.815073 0.720798
O O14 0.478899 0.747408 0.494982
O O15 0.500000 0.000000 0.000000
O O16 0.250690 0.796509 0.397437
O O17 0.500000 0.000000 0.500000
O O18 0.025508 0.754770 0.245863
O O19 0.000000 0.500000 0.000000
O O20 0.000000 0.000000 0.500000
#
# Coordination Sequence:
#
# PCOD9065051 Si02
#       8
#     2   2   2   2   2   2   2   2
#     4  12  26  45  71 107 142 185 237 293 360 426
#     4  11  26  46  70 100 144 187 233 295 353 427
#     4  11  25  44  72 103 142 188 238 293 356 427
#     4  12  25  46  74 102 145 189 238 297 357 431
#     4  11  27  46  70 103 141 187 241 291 357 428
#     4  12  25  46  72 102 141 185 239 293 357 429
#     4  11  24  47  70 101 143 183 237 292 355 428
#     4  12  26  42  71 106 140 184 234 294 358 421
#
# _framework density 19.886842000000001
#
# number of rings (size 3 to 8) (size 9 to 14) (size 15 to 20)
#    0.000    0.500    2.500    5.250    5.250    4.000 
#    0.000    0.000    0.000    0.000    0.000    0.000 
#    0.000    0.000    0.000    0.000    0.000    0.000 
#
# Total GULP energy -89195.929065 kJ/mol
# GULP energy per Si atom -5574.745567 kJ/mol
# Density = 1.984158 g / cm^3
# Si number density = 19.886842 Si / 1000 Ang^3
#
#
#
# Elastic Constant Matrix: (Units=GPa)
#
#
# Indices 1 2 3 4 5 6 
#
# 1 129.6270 55.6032 51.3661 -0.7685 4.1594 2.4070
# 2 55.6032 168.7652 64.5160 1.9184 12.5191 5.6967
# 3 51.3661 64.5160 184.3883 7.6828 8.5699 -5.4621
# 4 -0.7685 1.9184 7.6828 46.3599 -2.3358 8.7528
# 5 4.1594 12.5191 8.5699 -2.3358 38.9781 -2.3119
# 6 2.4070 5.6967 -5.4621 8.7528 -2.3119 37.9012
#
#
#
# Elastic Compliance Matrix: (Units=1/GPa)
#
#
# Indices 1 2 3 4 5 6 
#
# 1 0.009498 -0.002418 -0.001856 0.000698 0.000174 -0.000658
# 2 -0.002418 0.007658 -0.001968 0.000146 -0.001845 -0.001427
# 3 -0.001856 -0.001968 0.006768 -0.001420 -0.000643 0.001678
# 4 0.000698 0.000146 -0.001420 0.022909 0.001238 -0.005486
# 5 0.000174 -0.001845 -0.000643 0.001238 0.026534 0.001506
# 6 -0.000658 -0.001427 0.001678 -0.005486 0.001506 0.028241
#
#
# Mechanical properties :
#
#
# Convention : Reuss Voigt Hill
#
# Bulk Modulus (GPa) = 87.42956 91.75012 89.58984
# Shear Modulus (GPa) = 42.40584 45.40084 43.90334
#
# Velocity S-wave (km/s) = 4.62275 4.78322 4.70367
# Velocity P-wave (km/s) = 8.51775 8.76024 8.63985
#
# Compressibility (1/GPa) = 0.01143778
#
# Stress axis : x y z
#
# Youngs Moduli (GPa) = 105.28318 130.58212 147.75381
#
# Poissons Ratio (x) = 0.31579 0.27430
# Poissons Ratio (y) = 0.25461 0.29084
# Poissons Ratio (z) = 0.19546 0.25704
#
# Static dielectric constant tensor:
#      x y z
#    x 1.649630 -0.022500 -0.044660 
#    y -0.022500 1.711420 0.035830 
#    z -0.044660 0.035830 1.680680 
# 
# From -- ./inp_files/383548.got.cif
#   From: 2010.05.17/outbox.cif.g08.bks.cpg/sg2_192_cif.got.tgz:383548.got - 2010.06.03 11:33:40.
