data_PCOD9065905
_publ_section_title
;
Structure prediction by ZEFSAII (Michael W. Deem and Ramdas Pophale) SiO2 
 PCOD9065905
Probable space group: P -1
;
_chemical_formula_sum "Si O2"
_cell_formula_units_Z 14
_cell_length_a 5.078225
_cell_length_b 25.298466
_cell_length_c 15.759858
_cell_angle_alpha 18.812699
_cell_angle_beta 94.185040
_cell_angle_gamma 99.172440
_cell_volume 624.962387
_symmetry_space_group_name_H-M "P -1"
_symmetry_group_IT_number 2
_symmetry_cell_setting 'triclinic'
loop_
_space_group_symop_operation_xyz
x,y,z
-x,-y,-z
loop_
_atom_site_type_symbol
_atom_site_label
_atom_site_fract_x
_atom_site_fract_y
_atom_site_fract_z
Si Si1 0.018229 0.389690 0.770998
Si Si2 0.749677 0.151879 0.737712
Si Si3 0.341712 0.471637 0.812081
Si Si4 0.664729 0.673966 0.783984
Si Si5 0.797973 0.669880 0.403205
Si Si6 0.237752 0.866103 0.434697
Si Si7 0.571378 0.755622 0.101533
O O1 0.102769 0.362870 0.910114
O O2 0.402388 0.274902 0.750907
O O3 0.265475 0.360522 0.765626
O O4 0.730066 0.281739 0.888959
O O5 0.697055 0.341121 0.451694
O O6 0.799201 0.123216 0.683687
O O7 0.012464 0.181214 0.761402
O O8 0.500000 0.000000 0.000000
O O9 0.619597 0.526305 0.680200
O O10 0.356112 0.366474 0.055654
O O11 0.514921 0.813972 0.539193
O O12 0.976947 0.728624 0.676476
O O13 0.500000 0.500000 0.000000
O O14 0.986776 0.581014 0.487057
O O15 0.265382 0.046877 0.204507
#
# Coordination Sequence:
#
# PCOD9065905 Si02
#       7
#     2   2   2   2   2   2   2
#     4  11  25  45  71 106 139 189 238 287 353 421
#     4  11  26  43  71 112 147 178 228 297 366 420
#     4  11  25  45  75 104 138 189 241 291 345 420
#     4  12  26  48  75 101 142 189 242 284 345 426
#     4  11  25  43  76 103 146 185 237 291 356 428
#     4  12  28  47  72 107 143 186 234 291 359 412
#     4  12  26  45  72 103 148 184 232 294 358 419
#
# _framework density 22.401346
#
# number of rings (size 3 to 8) (size 9 to 14) (size 15 to 20)
#    0.000    0.571    2.857    3.857   12.000    1.143 
#    0.000    4.286    0.000    0.000    0.000    0.000 
#    0.000    0.000    0.000    0.000    0.000    0.000 
#
# Total GULP energy -78342.564375 kJ/mol
# GULP energy per Si atom -5595.897455 kJ/mol
# Density = 2.235036 g / cm^3
# Si number density = 22.401346 Si / 1000 Ang^3
#
#
#
# Elastic Constant Matrix: (Units=GPa)
#
#
# Indices 1 2 3 4 5 6 
#
# 1 99.6804 45.4901 10.1156 -3.4583 -20.2474 12.9709
# 2 45.4901 162.5461 53.1897 4.7112 -14.7624 36.7985
# 3 10.1156 53.1897 66.2767 -0.8289 -15.4737 10.6037
# 4 -3.4583 4.7112 -0.8289 36.3798 2.9632 -0.0085
# 5 -20.2474 -14.7624 -15.4737 2.9632 40.3661 -5.7093
# 6 12.9709 36.7985 10.6037 -0.0085 -5.7093 48.1905
#
#
#
# Elastic Compliance Matrix: (Units=1/GPa)
#
#
# Indices 1 2 3 4 5 6 
#
# 1 0.012811 -0.003848 0.002578 0.001298 0.005857 -0.000383
# 2 -0.003848 0.010973 -0.007669 -0.001837 -0.001548 -0.005840
# 3 0.002578 -0.007669 0.022354 0.001167 0.007125 0.001088
# 4 0.001298 -0.001837 0.001167 0.028001 -0.001541 0.000619
# 5 0.005857 -0.001548 0.007125 -0.001541 0.030219 0.001617
# 6 -0.000383 -0.005840 0.001088 0.000619 0.001617 0.025266
#
#
# Mechanical properties :
#
#
# Convention : Reuss Voigt Hill
#
# Bulk Modulus (GPa) = 35.38623 60.67710 48.03166
# Shear Modulus (GPa) = 31.86296 39.63445 35.74870
#
# Velocity S-wave (km/s) = 3.77552 4.21085 3.99912
# Velocity P-wave (km/s) = 5.90227 7.12649 6.54308
#
# Compressibility (1/GPa) = 0.02825958
#
# Stress axis : x y z
#
# Youngs Moduli (GPa) = 78.05748 91.13088 44.73514
#
# Poissons Ratio (x) = 0.35065 -0.11531
# Poissons Ratio (y) = 0.30034 0.34308
# Poissons Ratio (z) = -0.20121 0.69891
#
# Static dielectric constant tensor:
#      x y z
#    x 1.854590 -0.009760 0.026140 
#    y -0.009760 1.846740 -0.017400 
#    z 0.026140 -0.017400 1.812200 
# 
# From -- ./inp_files/67828.got.cif
#   From: 2010.05.17/outbox.cif.g08.bks.cpg/sg2_34_cif.got.tgz:67828.got - 2010.06.03 11:33:40.
