data_PCOD9065932
_publ_section_title
;
Structure prediction by ZEFSAII (Michael W. Deem and Ramdas Pophale) SiO2 
 PCOD9065932
Probable space group: P -1
;
_chemical_formula_sum "Si O2"
_cell_formula_units_Z 16
_cell_length_a 12.855448
_cell_length_b 16.755563
_cell_length_c 9.182579
_cell_angle_alpha 146.955373
_cell_angle_beta 136.953629
_cell_angle_gamma 53.140964
_cell_volume 735.775619
_symmetry_space_group_name_H-M "P -1"
_symmetry_group_IT_number 2
_symmetry_cell_setting 'triclinic'
loop_
_space_group_symop_operation_xyz
x,y,z
-x,-y,-z
loop_
_atom_site_type_symbol
_atom_site_label
_atom_site_fract_x
_atom_site_fract_y
_atom_site_fract_z
Si Si1 0.576656 0.846739 0.384009
Si Si2 0.427696 0.651825 0.705328
Si Si3 0.070284 0.635218 0.369699
Si Si4 0.105900 0.910579 0.364514
Si Si5 0.888139 0.909880 0.637156
Si Si6 0.579307 0.152758 0.267581
Si Si7 0.447576 0.663628 0.215769
Si Si8 0.084668 0.644091 0.747460
O O1 0.747241 0.858077 0.514551
O O2 0.544937 0.795036 0.436583
O O3 0.500000 0.000000 0.500000
O O4 0.496824 0.706683 0.010486
O O5 0.500000 0.500000 0.500000
O O6 0.246990 0.637635 0.514041
O O7 0.457153 0.792441 0.846086
O O8 0.056714 0.638861 0.537618
O O9 0.981816 0.780613 0.463622
O O10 0.000000 0.500000 0.000000
O O11 0.243189 0.861635 0.532643
O O12 0.168009 0.000741 0.424048
O O13 0.023902 0.775049 0.987067
O O14 0.000000 0.000000 0.500000
O O15 0.000000 0.000000 0.000000
O O16 0.533350 0.290503 0.527760
O O17 0.500000 0.000000 0.000000
O O18 0.500000 0.500000 0.000000
O O19 0.268119 0.660947 0.984229
O O20 0.000000 0.500000 0.500000
#
# Coordination Sequence:
#
# PCOD9065932 Si02
#       8
#     2   2   2   2   2   2   2   2
#     4  12  24  45  72 101 140 186 236 292 355 423
#     4  12  25  47  72 103 142 185 238 295 353 428
#     4  12  27  45  72 105 141 187 240 294 358 422
#     4  11  25  47  70 102 141 184 231 291 355 424
#     4  12  25  45  73 105 142 186 243 294 357 426
#     4  11  25  44  68 103 139 178 231 288 352 419
#     4  11  25  44  70 101 139 186 233 289 355 420
#     4  11  26  46  69 102 144 183 236 291 355 426
#
# _framework density 21.745761000000002
#
# number of rings (size 3 to 8) (size 9 to 14) (size 15 to 20)
#    0.000    0.500    2.500    6.000    7.000    2.000 
#    0.000    0.000    0.000    0.000    0.000    0.000 
#    0.000    0.000    0.000    0.000    0.000    0.000 
#
# Total GULP energy -89365.846670 kJ/mol
# GULP energy per Si atom -5585.365417 kJ/mol
# Density = 2.169627 g / cm^3
# Si number density = 21.745761 Si / 1000 Ang^3
#
#
#
# Elastic Constant Matrix: (Units=GPa)
#
#
# Indices 1 2 3 4 5 6 
#
# 1 99.8971 19.7330 28.2447 16.7430 8.5522 -15.3088
# 2 19.7330 71.1012 1.4623 22.8405 -4.0272 -4.2598
# 3 28.2447 1.4623 121.2571 21.0966 -10.9587 -24.0875
# 4 16.7430 22.8405 21.0966 41.7196 -2.2527 -8.6697
# 5 8.5522 -4.0272 -10.9587 -2.2527 49.0420 5.5548
# 6 -15.3088 -4.2598 -24.0875 -8.6697 5.5548 44.7568
#
#
#
# Elastic Compliance Matrix: (Units=1/GPa)
#
#
# Indices 1 2 3 4 5 6 
#
# 1 0.012198 -0.002762 -0.002232 -0.001859 -0.003250 0.002752
# 2 -0.002762 0.018058 0.002295 -0.009860 0.002042 -0.000154
# 3 -0.002232 0.002295 0.010553 -0.004758 0.002272 0.003931
# 4 -0.001859 -0.009860 -0.004758 0.032979 -0.000293 0.002290
# 5 -0.003250 0.002042 0.002272 -0.000293 0.021899 -0.002469
# 6 0.002752 -0.000154 0.003931 0.002290 -0.002469 0.026135
#
#
# Mechanical properties :
#
#
# Convention : Reuss Voigt Hill
#
# Bulk Modulus (GPa) = 28.23924 43.45949 35.84937
# Shear Modulus (GPa) = 35.96512 43.29136 39.62824
#
# Velocity S-wave (km/s) = 4.07122 4.46667 4.27352
# Velocity P-wave (km/s) = 5.92571 6.82863 6.39313
#
# Compressibility (1/GPa) = 0.03541171
#
# Stress axis : x y z
#
# Youngs Moduli (GPa) = 81.97907 55.37847 94.75906
#
# Poissons Ratio (x) = 0.15294 0.21148
# Poissons Ratio (y) = 0.22640 -0.21746
# Poissons Ratio (z) = 0.18296 -0.12709
#
# Static dielectric constant tensor:
#      x y z
#    x 1.692930 -0.058620 -0.078190 
#    y -0.058620 1.773480 -0.020440 
#    z -0.078190 -0.020440 1.715590 
# 
# From -- ./inp_files/280302.got.cif
#   From: 2010.05.17/outbox.cif.g08.bks.cpg/sg2_141_cif.got.tgz:280302.got - 2010.06.03 11:33:40.
