data_PCOD9065269
_publ_section_title
;
Structure prediction by ZEFSAII (Michael W. Deem and Ramdas Pophale) SiO2 
 PCOD9065269
Probable space group: P -1
;
_chemical_formula_sum "Si O2"
_cell_formula_units_Z 16
_cell_length_a 5.489222
_cell_length_b 9.209973
_cell_length_c 17.688426
_cell_angle_alpha 106.150513
_cell_angle_beta 130.492963
_cell_angle_gamma 73.037896
_cell_volume 645.622833
_symmetry_space_group_name_H-M "P -1"
_symmetry_group_IT_number 2
_symmetry_cell_setting 'triclinic'
loop_
_space_group_symop_operation_xyz
x,y,z
-x,-y,-z
loop_
_atom_site_type_symbol
_atom_site_label
_atom_site_fract_x
_atom_site_fract_y
_atom_site_fract_z
Si Si1 0.389294 0.711263 0.737113
Si Si2 0.683048 0.913913 0.598107
Si Si3 0.278596 0.662875 0.475182
Si Si4 0.277864 0.004652 0.118140
Si Si5 0.649549 0.716355 0.097467
Si Si6 0.265948 0.817468 0.236587
Si Si7 0.388799 0.449063 0.083362
Si Si8 0.395074 0.389475 0.623383
O O1 0.632550 0.837700 0.809551
O O2 0.453027 0.634515 0.822617
O O3 0.453846 0.561517 0.676028
O O4 0.034540 0.803057 0.655671
O O5 0.428885 0.805679 0.559611
O O6 0.500000 0.000000 0.500000
O O7 0.741400 0.047822 0.685328
O O8 0.500000 0.500000 0.500000
O O9 0.346516 0.683068 0.399303
O O10 0.979015 0.632688 0.464037
O O11 0.578211 0.897256 0.124073
O O12 0.207687 0.900779 0.158396
O O13 0.000000 0.000000 0.000000
O O14 0.523426 0.604975 0.115392
O O15 0.031523 0.690511 0.175589
O O16 0.517629 0.669806 0.984099
O O17 0.590587 0.708737 0.308713
O O18 0.000000 0.500000 0.000000
#
# Coordination Sequence:
#
# PCOD9065269 Si02
#       8
#     2   2   2   2   2   2   2   2
#     4  12  27  47  80 117 158 209 272 329 414 482
#     4  12  28  50  77 113 160 211 272 335 409 483
#     4  12  28  52  80 115 159 211 272 348 404 476
#     4  12  28  46  75 116 158 202 267 334 414 491
#     4  11  24  47  77 106 160 198 261 326 412 485
#     4  12  28  48  78 111 157 216 265 336 412 492
#     4  11  25  48  77 115 150 206 260 333 402 495
#     4  12  29  50  85 115 159 212 278 335 411 486
#
# _framework density 24.782273
#
# number of rings (size 3 to 8) (size 9 to 14) (size 15 to 20)
#    0.000    0.250    3.750    4.125    8.750    2.500 
#    0.000    0.000    0.000    0.000    0.000    0.000 
#    0.000    0.000    0.000    0.000    0.000    0.000 
#
# Total GULP energy -89144.512320 kJ/mol
# GULP energy per Si atom -5571.532020 kJ/mol
# Density = 2.472587 g / cm^3
# Si number density = 24.782273 Si / 1000 Ang^3
#
#
#
# Elastic Constant Matrix: (Units=GPa)
#
#
# Indices 1 2 3 4 5 6 
#
# 1 65.2591 24.8590 40.7202 6.8144 -10.7742 20.8960
# 2 24.8590 157.5063 65.0080 18.8035 -0.4534 25.1707
# 3 40.7202 65.0080 154.8856 -5.5291 -15.9017 16.3898
# 4 6.8144 18.8035 -5.5291 67.0838 5.5325 1.9386
# 5 -10.7742 -0.4534 -15.9017 5.5325 24.3850 1.7923
# 6 20.8960 25.1707 16.3898 1.9386 1.7923 35.5048
#
#
#
# Elastic Compliance Matrix: (Units=1/GPa)
#
#
# Indices 1 2 3 4 5 6 
#
# 1 0.023742 0.000442 -0.004244 -0.003296 0.009407 -0.012622
# 2 0.000442 0.008775 -0.003499 -0.002576 -0.000995 -0.004675
# 3 -0.004244 -0.003499 0.009462 0.001870 0.003783 0.000317
# 4 -0.003296 -0.002576 0.001870 0.016397 -0.004168 0.002218
# 5 0.009407 -0.000995 0.003783 -0.004168 0.049208 -0.008833
# 6 -0.012622 -0.004675 0.000317 0.002218 -0.008833 0.039087
#
#
# Mechanical properties :
#
#
# Convention : Reuss Voigt Hill
#
# Bulk Modulus (GPa) = 36.52473 70.98059 53.75266
# Shear Modulus (GPa) = 29.34309 41.86565 35.60437
#
# Velocity S-wave (km/s) = 3.44471 4.11462 3.79448
# Velocity P-wave (km/s) = 5.53097 7.16082 6.39800
#
# Compressibility (1/GPa) = 0.02737871
#
# Stress axis : x y z
#
# Youngs Moduli (GPa) = 42.11934 113.96129 105.68523
#
# Poissons Ratio (x) = -0.05038 0.44850
# Poissons Ratio (y) = -0.01862 0.36975
# Poissons Ratio (z) = 0.17874 0.39870
#
# Static dielectric constant tensor:
#      x y z
#    x 2.285990 -0.061400 0.056890 
#    y -0.061400 1.941710 -0.091920 
#    z 0.056890 -0.091920 2.155780 
# 
# From -- ./inp_files/548196.got.cif
#   From: 2010.05.17/outbox.cif.g08.bks.cpg/sg2_275_cif.got.tgz:548196.got - 2010.06.03 11:33:40.
