data_PCOD9065389
_publ_section_title
;
Structure prediction by ZEFSAII (Michael W. Deem and Ramdas Pophale) SiO2 
 PCOD9065389
Probable space group: P -1
;
_chemical_formula_sum "Si O2"
_cell_formula_units_Z 16
_cell_length_a 18.513563
_cell_length_b 9.439376
_cell_length_c 10.855527
_cell_angle_alpha 117.920565
_cell_angle_beta 146.163291
_cell_angle_gamma 87.069690
_cell_volume 678.597871
_symmetry_space_group_name_H-M "P -1"
_symmetry_group_IT_number 2
_symmetry_cell_setting 'triclinic'
loop_
_space_group_symop_operation_xyz
x,y,z
-x,-y,-z
loop_
_atom_site_type_symbol
_atom_site_label
_atom_site_fract_x
_atom_site_fract_y
_atom_site_fract_z
Si Si1 0.620339 0.296101 0.643541
Si Si2 0.868966 0.161523 0.663628
Si Si3 0.015729 0.203590 0.624425
Si Si4 0.322447 0.247052 0.645846
Si Si5 0.157204 0.660808 0.690402
Si Si6 0.852822 0.611009 0.639142
Si Si7 0.556582 0.891824 0.440873
Si Si8 0.379426 0.763071 0.663729
O O1 0.468232 0.192870 0.489967
O O2 0.568094 0.249748 0.405108
O O3 0.666154 0.149197 0.682141
O O4 0.784760 0.553838 0.010692
O O5 0.798911 0.281708 0.625694
O O6 0.967877 0.210082 0.698396
O O7 0.710255 0.897558 0.345009
O O8 0.990092 0.228859 0.978857
O O9 0.873972 0.182471 0.332135
O O10 0.000000 0.000000 0.500000
O O11 0.172146 0.253940 0.423808
O O12 0.349143 0.157305 0.529299
O O13 0.500000 0.500000 0.000000
O O14 0.121158 0.520130 0.463166
O O15 0.000000 0.500000 0.500000
O O16 0.355897 0.771474 0.059039
O O17 0.680637 0.427201 0.406481
O O18 0.500000 0.000000 0.000000
#
# Coordination Sequence:
#
# PCOD9065389 Si02
#       8
#     2   2   2   2   2   2   2   2
#     4  11  24  48  72 105 149 193 241 301 369 439
#     4  12  26  46  72 103 145 194 248 305 361 439
#     4  12  28  49  72 109 150 190 247 310 369 435
#     4  12  26  46  70 109 150 190 250 303 364 440
#     4  12  25  45  77 105 147 199 244 295 375 445
#     4  12  25  45  73 107 144 193 245 305 362 435
#     4  11  25  47  74 109 149 197 243 301 366 446
#     4  12  23  45  73 105 141 191 246 297 371 434
#
# _framework density 23.578029999999998
#
# number of rings (size 3 to 8) (size 9 to 14) (size 15 to 20)
#    0.000    0.250    6.250    3.000    3.500    0.000 
#    4.500    1.250    0.000    0.000    0.000    0.000 
#    0.000    0.000    0.000    0.000    0.000    0.000 
#
# Total GULP energy -89473.597559 kJ/mol
# GULP energy per Si atom -5592.099847 kJ/mol
# Density = 2.352436 g / cm^3
# Si number density = 23.578030 Si / 1000 Ang^3
#
#
#
# Elastic Constant Matrix: (Units=GPa)
#
#
# Indices 1 2 3 4 5 6 
#
# 1 104.9032 34.9548 -2.7294 11.5864 1.4216 16.6235
# 2 34.9548 125.2316 15.4187 12.8400 3.1486 -7.5423
# 3 -2.7294 15.4187 97.2953 9.9925 -4.4514 2.4204
# 4 11.5864 12.8400 9.9925 45.4515 -1.6194 3.9145
# 5 1.4216 3.1486 -4.4514 -1.6194 25.1234 2.0868
# 6 16.6235 -7.5423 2.4204 3.9145 2.0868 43.8276
#
#
#
# Elastic Compliance Matrix: (Units=1/GPa)
#
#
# Indices 1 2 3 4 5 6 
#
# 1 0.011731 -0.003545 0.001215 -0.001817 0.000292 -0.004978
# 2 -0.003545 0.009598 -0.001595 -0.001803 -0.001677 0.003325
# 3 0.001215 -0.001595 0.010902 -0.002076 0.002033 -0.001249
# 4 -0.001817 -0.001803 -0.002076 0.023634 0.001625 -0.001695
# 5 0.000292 -0.001677 0.002033 0.001625 0.040678 -0.002594
# 6 -0.004978 0.003325 -0.001249 -0.001695 -0.002594 0.025621
#
#
# Mechanical properties :
#
#
# Convention : Reuss Voigt Hill
#
# Bulk Modulus (GPa) = 41.01466 46.96870 43.99168
# Shear Modulus (GPa) = 36.19485 41.53289 38.86387
#
# Velocity S-wave (km/s) = 3.92230 4.20159 4.06434
# Velocity P-wave (km/s) = 6.16000 6.59557 6.38150
#
# Compressibility (1/GPa) = 0.02438153
#
# Stress axis : x y z
#
# Youngs Moduli (GPa) = 85.24462 104.18481 91.72578
#
# Poissons Ratio (x) = 0.36931 -0.11141
# Poissons Ratio (y) = 0.30217 0.14628
# Poissons Ratio (z) = -0.10354 0.16615
#
# Static dielectric constant tensor:
#      x y z
#    x 1.844670 0.044410 -0.013600 
#    y 0.044410 1.853660 0.044000 
#    z -0.013600 0.044000 2.033700 
# 
# From -- ./inp_files/469496.got.cif
#   From: 2010.05.17/outbox.cif.g08.bks.cpg/sg2_235_cif.got.tgz:469496.got - 2010.06.03 11:33:40.
