data_PCOD9065448
_publ_section_title
;
Structure prediction by ZEFSAII (Michael W. Deem and Ramdas Pophale) SiO2 
 PCOD9065448
Probable space group: P -1
;
_chemical_formula_sum "Si O2"
_cell_formula_units_Z 16
_cell_length_a 9.125283
_cell_length_b 5.796089
_cell_length_c 20.891620
_cell_angle_alpha 128.964400
_cell_angle_beta 59.217897
_cell_angle_gamma 122.928765
_cell_volume 696.256191
_symmetry_space_group_name_H-M "P -1"
_symmetry_group_IT_number 2
_symmetry_cell_setting 'triclinic'
loop_
_space_group_symop_operation_xyz
x,y,z
-x,-y,-z
loop_
_atom_site_type_symbol
_atom_site_label
_atom_site_fract_x
_atom_site_fract_y
_atom_site_fract_z
Si Si1 0.381584 0.219457 0.555681
Si Si2 0.013763 0.173803 0.410971
Si Si3 0.254834 0.108945 0.227843
Si Si4 0.503964 0.729931 0.098541
Si Si5 0.894527 0.207846 0.092685
Si Si6 0.661482 0.862299 0.599634
Si Si7 0.453259 0.309664 0.769695
Si Si8 0.054921 0.069817 0.829765
O O1 0.512845 0.552192 0.608187
O O2 0.348238 0.209731 0.485633
O O3 0.500000 0.000000 0.500000
O O4 0.183638 0.066307 0.602101
O O5 0.138764 0.186797 0.323909
O O6 0.130459 0.058682 0.415764
O O7 0.000000 0.500000 0.500000
O O8 0.451409 0.366146 0.229717
O O9 0.313661 0.797534 0.158922
O O10 0.132733 0.111536 0.194269
O O11 0.542713 0.628279 0.143851
O O12 0.682125 0.030132 0.097535
O O13 0.500000 0.500000 0.000000
O O14 0.942599 0.560020 0.112499
O O15 0.931559 0.136453 0.146581
O O16 0.000000 0.000000 0.000000
O O17 0.587771 0.126535 0.687758
O O18 0.249207 0.118565 0.761523
#
# Coordination Sequence:
#
# PCOD9065448 Si02
#       8
#     2   2   2   2   2   2   2   2
#     4  11  25  44  72 106 140 189 242 301 367 444
#     4  12  25  45  73 104 144 189 241 301 368 443
#     4  12  27  45  74 106 144 194 244 306 374 444
#     4  11  25  47  74 105 146 193 246 309 372 446
#     4  11  24  48  74 109 148 194 247 316 378 447
#     4  11  25  45  73 102 148 189 241 299 373 437
#     4  11  26  47  69 107 145 196 238 310 371 446
#     4  11  27  45  74 107 150 194 250 307 380 447
#
# _framework density 22.980046999999999
#
# number of rings (size 3 to 8) (size 9 to 14) (size 15 to 20)
#    0.000    0.750    3.750    2.250    5.250    4.500 
#    0.000    0.000    0.000    0.000    0.000    0.000 
#    0.000    0.000    0.000    0.000    0.000    0.000 
#
# Total GULP energy -89197.056247 kJ/mol
# GULP energy per Si atom -5574.816015 kJ/mol
# Density = 2.292774 g / cm^3
# Si number density = 22.980047 Si / 1000 Ang^3
#
#
#
# Elastic Constant Matrix: (Units=GPa)
#
#
# Indices 1 2 3 4 5 6 
#
# 1 105.8180 -9.9549 6.8370 -0.8717 -26.4786 9.4729
# 2 -9.9549 57.1271 11.1691 -0.9116 -13.6024 14.1340
# 3 6.8370 11.1691 103.4598 -0.5578 -31.5072 -2.0156
# 4 -0.8717 -0.9116 -0.5578 27.6828 1.3977 -17.4521
# 5 -26.4786 -13.6024 -31.5072 1.3977 50.1266 -2.4130
# 6 9.4729 14.1340 -2.0156 -17.4521 -2.4130 31.1392
#
#
#
# Elastic Compliance Matrix: (Units=1/GPa)
#
#
# Indices 1 2 3 4 5 6 
#
# 1 0.013010 0.006414 0.000954 -0.005669 0.008923 -0.009293
# 2 0.006414 0.025610 -0.000828 -0.011719 0.009206 -0.019484
# 3 0.000954 -0.000828 0.012179 0.001216 0.008005 0.002176
# 4 -0.005669 -0.011719 0.001216 0.061982 -0.005143 0.041462
# 5 0.008923 0.009206 0.008005 -0.005143 0.032010 -0.006777
# 6 -0.009293 -0.019484 0.002176 0.041462 -0.006777 0.066638
#
#
# Mechanical properties :
#
#
# Convention : Reuss Voigt Hill
#
# Bulk Modulus (GPa) = 15.65474 31.38971 23.52222
# Shear Modulus (GPa) = 22.76431 39.01330 30.88881
#
# Velocity S-wave (km/s) = 3.15081 4.12479 3.67025
# Velocity P-wave (km/s) = 4.47928 6.03112 5.31217
#
# Compressibility (1/GPa) = 0.06387843
#
# Stress axis : x y z
#
# Youngs Moduli (GPa) = 76.86392 39.04719 82.11102
#
# Poissons Ratio (x) = -0.25045 -0.07830
# Poissons Ratio (y) = -0.49301 0.06797
# Poissons Ratio (z) = -0.07329 0.03232
#
# Static dielectric constant tensor:
#      x y z
#    x 1.735400 0.231070 -0.331740 
#    y 0.231070 1.377260 0.638040 
#    z -0.331740 0.638040 0.909720 
# 
# From -- ./inp_files/48804.got.cif
#   From: 2010.05.17/outbox.cif.g08.bks.cpg/sg2_25_cif.got.tgz:48804.got - 2010.06.03 11:33:40.
