data_PCOD9065405
_publ_section_title
;
Structure prediction by ZEFSAII (Michael W. Deem and Ramdas Pophale) SiO2 
 PCOD9065405
Probable space group: P -1
;
_chemical_formula_sum "Si O2"
_cell_formula_units_Z 14
_cell_length_a 5.684510
_cell_length_b 9.102585
_cell_length_c 12.130443
_cell_angle_alpha 82.231408
_cell_angle_beta 104.585902
_cell_angle_gamma 84.003638
_cell_volume 595.558294
_symmetry_space_group_name_H-M "P -1"
_symmetry_group_IT_number 2
_symmetry_cell_setting 'triclinic'
loop_
_space_group_symop_operation_xyz
x,y,z
-x,-y,-z
loop_
_atom_site_type_symbol
_atom_site_label
_atom_site_fract_x
_atom_site_fract_y
_atom_site_fract_z
Si Si1 0.163240 0.128216 0.893414
Si Si2 0.517074 0.679603 0.725929
Si Si3 0.945065 0.854519 0.359681
Si Si4 0.761821 0.416501 0.496568
Si Si5 0.817352 0.409417 0.920186
Si Si6 0.633866 0.185883 0.076575
Si Si7 0.747384 0.889618 0.569506
O O1 0.218328 0.148573 0.767704
O O2 0.951712 0.262642 0.886582
O O3 0.146382 0.949711 0.910953
O O4 0.384896 0.144706 0.999235
O O5 0.301305 0.646578 0.623526
O O6 0.659389 0.526996 0.809389
O O7 0.408956 0.783451 0.803330
O O8 0.693194 0.766873 0.663434
O O9 0.823117 0.826445 0.464481
O O10 0.165667 0.718050 0.395155
O O11 0.057675 0.008407 0.372017
O O12 0.500000 0.500000 0.500000
O O13 0.000000 0.500000 0.500000
O O14 0.669333 0.337597 0.004594
O O15 0.000000 0.500000 0.000000
O O16 0.500000 0.000000 0.500000
#
# Coordination Sequence:
#
# PCOD9065405 Si02
#       7
#     2   2   2   2   2   2   2
#     4  11  26  48  74 110 151 200 254 328 382 479
#     4  12  26  49  81 111 155 202 262 335 384 484
#     4  11  26  44  78 107 154 202 257 327 391 482
#     4  12  28  49  75 118 159 208 263 326 406 476
#     4  12  27  47  75 111 150 204 261 320 397 463
#     4  11  27  49  74 111 148 204 260 318 400 457
#     4  11  24  48  72 115 147 202 262 312 404 463
#
# _framework density 23.507352000000001
#
# number of rings (size 3 to 8) (size 9 to 14) (size 15 to 20)
#    0.000    0.571    2.857    3.429    6.000    4.571 
#    0.000    0.000    0.000    0.000    0.000    0.000 
#    0.000    0.000    0.000    0.000    0.000    0.000 
#
# Total GULP energy -78324.626832 kJ/mol
# GULP energy per Si atom -5594.616202 kJ/mol
# Density = 2.345385 g / cm^3
# Si number density = 23.507352 Si / 1000 Ang^3
#
#
#
# Elastic Constant Matrix: (Units=GPa)
#
#
# Indices 1 2 3 4 5 6 
#
# 1 71.7300 44.9933 34.8501 6.0203 -16.3543 1.9432
# 2 44.9933 136.2673 58.4290 -9.1582 -9.7264 -9.2335
# 3 34.8501 58.4290 154.7345 14.1250 -4.1204 8.1927
# 4 6.0203 -9.1582 14.1250 58.3876 1.9701 2.5886
# 5 -16.3543 -9.7264 -4.1204 1.9701 43.2034 -8.6483
# 6 1.9432 -9.2335 8.1927 2.5886 -8.6483 51.1161
#
#
#
# Elastic Compliance Matrix: (Units=1/GPa)
#
#
# Indices 1 2 3 4 5 6 
#
# 1 0.020011 -0.005494 -0.002013 -0.002637 0.006217 -0.000245
# 2 -0.005494 0.010983 -0.003308 0.002956 0.000474 0.002653
# 3 -0.002013 -0.003308 0.008445 -0.002236 -0.000985 -0.001928
# 4 -0.002637 0.002956 -0.002236 0.018459 -0.001424 -0.000183
# 5 0.006217 0.000474 -0.000985 -0.001424 0.026491 0.004561
# 6 -0.000245 0.002653 -0.001928 -0.000183 0.004561 0.021142
#
#
# Mechanical properties :
#
#
# Convention : Reuss Voigt Hill
#
# Bulk Modulus (GPa) = 56.15022 71.03073 63.59047
# Shear Modulus (GPa) = 37.56658 45.50538 41.53598
#
# Velocity S-wave (km/s) = 4.00193 4.40454 4.20805
# Velocity P-wave (km/s) = 6.72994 7.49324 7.12182
#
# Compressibility (1/GPa) = 0.01780937
#
# Stress axis : x y z
#
# Youngs Moduli (GPa) = 49.97255 91.04903 118.41393
#
# Poissons Ratio (x) = 0.50024 0.23838
# Poissons Ratio (y) = 0.27456 0.39166
# Poissons Ratio (z) = 0.10060 0.30115
#
# Static dielectric constant tensor:
#      x y z
#    x 1.928360 -0.077570 -0.011090 
#    y -0.077570 1.995920 -0.015070 
#    z -0.011090 -0.015070 1.851030 
# 
# From -- ./inp_files/229744.got.cif
#   From: 2010.05.17/outbox.cif.g08.bks.cpg/sg2_115_cif.got.tgz:229744.got - 2010.06.03 11:33:40.
