data_PCOD9065130
_publ_section_title
;
Structure prediction by ZEFSAII (Michael W. Deem and Ramdas Pophale) SiO2 
 PCOD9065130
Probable space group: P -1
;
_chemical_formula_sum "Si O2"
_cell_formula_units_Z 14
_cell_length_a 5.422991
_cell_length_b 7.742347
_cell_length_c 15.905983
_cell_angle_alpha 84.696289
_cell_angle_beta 102.394773
_cell_angle_gamma 117.722772
_cell_volume 577.376819
_symmetry_space_group_name_H-M "P -1"
_symmetry_group_IT_number 2
_symmetry_cell_setting 'triclinic'
loop_
_space_group_symop_operation_xyz
x,y,z
-x,-y,-z
loop_
_atom_site_type_symbol
_atom_site_label
_atom_site_fract_x
_atom_site_fract_y
_atom_site_fract_z
Si Si1 0.217177 0.070192 0.935761
Si Si2 0.869994 0.090982 0.754017
Si Si3 0.238329 0.661755 0.952002
Si Si4 0.506904 0.663384 0.700773
Si Si5 0.430434 0.239833 0.494697
Si Si6 0.054250 0.804981 0.433313
Si Si7 0.945170 0.488017 0.766742
O O1 0.094823 0.107338 0.839470
O O2 0.261739 0.878636 0.932843
O O3 0.469721 0.271666 0.979015
O O4 0.000000 0.000000 0.000000
O O5 0.989406 0.132800 0.665770
O O6 0.775002 0.254217 0.763715
O O7 0.621448 0.872677 0.745036
O O8 0.153435 0.565115 0.858982
O O9 0.000000 0.500000 0.000000
O O10 0.544479 0.702402 0.602726
O O11 0.176643 0.547105 0.705979
O O12 0.720088 0.573876 0.745009
O O13 0.738238 0.294132 0.551739
O O14 0.239747 0.306375 0.534139
O O15 0.245624 0.002694 0.491325
#
# Coordination Sequence:
#
# PCOD9065130 Si02
#       7
#     2   2   2   2   2   2   2
#     4  11  24  47  72 106 139 194 238 298 365 429
#     4  11  25  44  73 102 148 184 242 296 356 425
#     4  11  26  45  73 104 146 186 242 298 361 436
#     4  11  25  47  72 105 145 191 236 303 349 430
#     4   9  18  39  67  94 139 183 234 282 361 409
#     4   9  19  37  64 102 130 187 231 289 347 425
#     4  12  27  45  71 109 142 189 241 289 365 422
#
# _framework density 24.247598
#
# number of rings (size 3 to 8) (size 9 to 14) (size 15 to 20)
#    0.000    1.429    1.429    2.571    2.000    8.000 
#    5.143    4.286    0.000    0.000    0.000    0.000 
#    0.000    0.000    0.000    0.000    0.000    0.000 
#
# Total GULP energy -78313.492737 kJ/mol
# GULP energy per Si atom -5593.820910 kJ/mol
# Density = 2.419241 g / cm^3
# Si number density = 24.247598 Si / 1000 Ang^3
#
#
#
# Elastic Constant Matrix: (Units=GPa)
#
#
# Indices 1 2 3 4 5 6 
#
# 1 112.3644 58.6169 63.0491 6.3981 -0.9467 17.2087
# 2 58.6169 156.4469 3.0869 11.9634 20.0859 0.0847
# 3 63.0491 3.0869 128.4972 -0.5825 23.5025 19.9386
# 4 6.3981 11.9634 -0.5825 29.1455 6.9749 5.3671
# 5 -0.9467 20.0859 23.5025 6.9749 28.8302 -2.6652
# 6 17.2087 0.0847 19.9386 5.3671 -2.6652 34.3229
#
#
#
# Elastic Compliance Matrix: (Units=1/GPa)
#
#
# Indices 1 2 3 4 5 6 
#
# 1 0.024268 -0.011252 -0.015892 -0.006556 0.023170 -0.000084
# 2 -0.011252 0.012409 0.008312 0.001561 -0.016235 -0.000722
# 3 -0.015892 0.008312 0.021510 0.008329 -0.026595 -0.007916
# 4 -0.006556 0.001561 0.008329 0.041587 -0.019035 -0.009537
# 5 0.023170 -0.016235 -0.026595 -0.019035 0.074209 0.012611
# 6 -0.000084 -0.000722 -0.007916 -0.009537 0.012611 0.036248
#
#
# Mechanical properties :
#
#
# Convention : Reuss Voigt Hill
#
# Bulk Modulus (GPa) = 48.72627 71.86825 60.29726
# Shear Modulus (GPa) = 19.62807 36.63009 28.12908
#
# Velocity S-wave (km/s) = 2.84823 3.89095 3.40969
# Velocity P-wave (km/s) = 5.56377 7.06326 6.35787
#
# Compressibility (1/GPa) = 0.02052281
#
# Stress axis : x y z
#
# Youngs Moduli (GPa) = 41.20660 80.58418 46.48922
#
# Poissons Ratio (x) = 0.90677 0.73879
# Poissons Ratio (y) = 0.46367 -0.38640
# Poissons Ratio (z) = 0.65484 -0.66978
#
# Static dielectric constant tensor:
#      x y z
#    x 1.973620 -0.010310 0.011250 
#    y -0.010310 1.922660 -0.034990 
#    z 0.011250 -0.034990 1.914940 
# 
# From -- ./inp_files/480364.got.cif
#   From: 2010.05.17/outbox.cif.g08.bks.cpg/sg2_241_cif.got.tgz:480364.got - 2010.06.03 11:33:40.
