data_PCOD9065866
_publ_section_title
;
Structure prediction by ZEFSAII (Michael W. Deem and Ramdas Pophale) SiO2 
 PCOD9065866
Probable space group: P -1
;
_chemical_formula_sum "Si O2"
_cell_formula_units_Z 15
_cell_length_a 15.400998
_cell_length_b 19.639291
_cell_length_c 5.528168
_cell_angle_alpha 86.584120
_cell_angle_beta 93.937347
_cell_angle_gamma 159.370300
_cell_volume 587.674508
_symmetry_space_group_name_H-M "P -1"
_symmetry_group_IT_number 2
_symmetry_cell_setting 'triclinic'
loop_
_space_group_symop_operation_xyz
x,y,z
-x,-y,-z
loop_
_atom_site_type_symbol
_atom_site_label
_atom_site_fract_x
_atom_site_fract_y
_atom_site_fract_z
Si Si1 0.805850 0.638714 0.468556
Si Si2 0.795734 0.094033 0.859000
Si Si3 0.500000 0.000000 0.000000
Si Si4 0.875696 0.027918 0.243609
Si Si5 0.638523 0.192415 0.514154
Si Si6 0.937881 0.514932 0.805887
Si Si7 0.398713 0.611591 0.156257
Si Si8 0.382934 0.346074 0.133621
O O1 0.788719 0.572368 0.691248
O O2 0.524901 0.449504 0.393521
O O3 0.933675 0.701684 0.243330
O O4 0.977173 0.826165 0.545860
O O5 0.610407 0.963305 0.622784
O O6 0.701930 0.086884 0.002138
O O7 0.789350 0.020582 0.030474
O O8 0.380521 0.873595 0.254325
O O9 0.091480 0.140754 0.142917
O O10 0.629119 0.808367 0.317998
O O11 0.778529 0.362986 0.595602
O O12 0.795304 0.271273 0.306827
O O13 0.770741 0.447553 0.923196
O O14 0.000000 0.500000 0.000000
O O15 0.537085 0.664456 0.982131
O O16 0.500000 0.500000 0.000000
#
# Coordination Sequence:
#
# PCOD9065866 Si02
#       8
#     2   2   1   2   2   2   2   2
#     4  12  26  47  78 107 153 195 257 314 384 454
#     4  12  25  45  72 102 150 196 253 311 386 454
#     4  12  24  42  64 106 140 186 250 304 376 450
#     4  12  27  50  76 109 149 200 250 318 378 465
#     4  11  25  43  72 104 150 200 253 317 380 454
#     4  11  25  48  72 107 156 199 254 315 378 461
#     4  12  27  47  77 113 145 202 255 309 384 457
#     4  12  26  51  75 111 153 197 250 321 384 453
#
# _framework density 25.524332999999999
#
# number of rings (size 3 to 8) (size 9 to 14) (size 15 to 20)
#    0.000    0.267    2.667    6.000    0.000   10.133 
#    0.000    0.000    0.000    0.000    0.000    0.000 
#    0.000    0.000    0.000    0.000    0.000    0.000 
#
# Total GULP energy -83818.350671 kJ/mol
# GULP energy per Si atom -5587.890045 kJ/mol
# Density = 2.546624 g / cm^3
# Si number density = 25.524333 Si / 1000 Ang^3
#
#
#
# Elastic Constant Matrix: (Units=GPa)
#
#
# Indices 1 2 3 4 5 6 
#
# 1 172.6228 36.8338 31.7522 -3.9756 -18.5025 40.4175
# 2 36.8338 115.6154 -4.8713 0.5998 -3.3301 12.7991
# 3 31.7522 -4.8713 75.7754 -10.9922 5.8286 15.1735
# 4 -3.9756 0.5998 -10.9922 49.6758 18.8589 -7.6021
# 5 -18.5025 -3.3301 5.8286 18.8589 27.6969 4.1756
# 6 40.4175 12.7991 15.1735 -7.6021 4.1756 40.7721
#
#
#
# Elastic Compliance Matrix: (Units=1/GPa)
#
#
# Indices 1 2 3 4 5 6 
#
# 1 0.011388 -0.002027 -0.004853 -0.007854 0.015527 -0.011901
# 2 -0.002027 0.009541 0.001816 0.000009 -0.000350 -0.001624
# 3 -0.004853 0.001816 0.017375 0.008214 -0.012359 0.000571
# 4 -0.007854 0.000009 0.008214 0.036589 -0.034156 0.015046
# 5 0.015527 -0.000350 -0.012359 -0.034156 0.076038 -0.024838
# 6 -0.011901 -0.001624 0.000571 0.015046 -0.024838 0.041971
#
#
# Mechanical properties :
#
#
# Convention : Reuss Voigt Hill
#
# Bulk Modulus (GPa) = 35.48991 54.60479 45.04735
# Shear Modulus (GPa) = 23.53814 43.64889 33.59352
#
# Velocity S-wave (km/s) = 3.04004 4.13981 3.63180
# Velocity P-wave (km/s) = 5.12416 6.65510 5.93917
#
# Compressibility (1/GPa) = 0.02817703
#
# Stress axis : x y z
#
# Youngs Moduli (GPa) = 87.81157 104.80691 57.55465
#
# Poissons Ratio (x) = 0.21245 0.27930
# Poissons Ratio (y) = 0.17800 -0.10453
# Poissons Ratio (z) = 0.42613 -0.19036
#
# Static dielectric constant tensor:
#      x y z
#    x 1.976930 0.041230 0.045640 
#    y 0.041230 1.894380 -0.121030 
#    z 0.045640 -0.121030 1.843880 
# 
# From -- ./inp_files/100581.got.cif
#   From: 2010.05.17/outbox.cif.g08.bks.cpg/sg2_51_cif.got.tgz:100581.got - 2010.06.03 11:33:40.
