data_PCOD9065275
_publ_section_title
;
Structure prediction by ZEFSAII (Michael W. Deem and Ramdas Pophale) SiO2 
 PCOD9065275
Probable space group: P -1
;
_chemical_formula_sum "Si O2"
_cell_formula_units_Z 16
_cell_length_a 11.882961
_cell_length_b 11.796971
_cell_length_c 8.724103
_cell_angle_alpha 55.759098
_cell_angle_beta 50.786531
_cell_angle_gamma 48.261211
_cell_volume 685.459021
_symmetry_space_group_name_H-M "P -1"
_symmetry_group_IT_number 2
_symmetry_cell_setting 'triclinic'
loop_
_space_group_symop_operation_xyz
x,y,z
-x,-y,-z
loop_
_atom_site_type_symbol
_atom_site_label
_atom_site_fract_x
_atom_site_fract_y
_atom_site_fract_z
Si Si1 0.989527 0.355017 0.547835
Si Si2 0.664005 0.015939 0.853557
Si Si3 0.027481 0.331902 0.173577
Si Si4 0.412599 0.858830 0.846513
Si Si5 0.307861 0.622541 0.048292
Si Si6 0.690714 0.801658 0.447696
Si Si7 0.302513 0.553295 0.777991
Si Si8 0.520981 0.710322 0.399902
O O1 0.031506 0.341225 0.345109
O O2 0.132773 0.224099 0.626943
O O3 0.000000 0.500000 0.500000
O O4 0.812409 0.367577 0.720043
O O5 0.818537 0.840012 0.869352
O O6 0.633306 0.122908 0.646838
O O7 0.500000 0.000000 0.000000
O O8 0.640732 0.118751 0.947696
O O9 0.857966 0.334721 0.266826
O O10 0.000000 0.500000 0.000000
O O11 0.604588 0.764691 0.696129
O O12 0.380877 0.025271 0.688526
O O13 0.310966 0.785768 0.906156
O O14 0.500000 0.500000 0.000000
O O15 0.249472 0.571131 0.985761
O O16 0.648271 0.718535 0.405898
O O17 0.442603 0.606438 0.610658
O O18 0.378352 0.381874 0.768280
#
# Coordination Sequence:
#
# PCOD9065275 Si02
#       8
#     2   2   2   2   2   2   2   2
#     4  12  28  46  78 108 146 196 249 310 375 449
#     4  12  25  45  75 107 146 197 248 307 371 450
#     4  12  29  50  73 110 151 195 254 317 379 447
#     4  11  25  44  74 105 151 194 246 299 375 442
#     4  12  27  48  74 110 151 195 250 306 376 448
#     4  11  24  49  74 109 150 195 252 304 372 451
#     4  11  26  46  76 106 153 197 243 313 373 447
#     4  11  24  47  77 109 150 197 252 304 376 443
#
# _framework density 23.342023999999999
#
# number of rings (size 3 to 8) (size 9 to 14) (size 15 to 20)
#    0.000    0.500    2.500    4.500   10.500    1.000 
#    0.000    0.000    0.000    0.000    0.000    0.000 
#    0.000    0.000    0.000    0.000    0.000    0.000 
#
# Total GULP energy -89325.580400 kJ/mol
# GULP energy per Si atom -5582.848775 kJ/mol
# Density = 2.328890 g / cm^3
# Si number density = 23.342024 Si / 1000 Ang^3
#
#
#
# Elastic Constant Matrix: (Units=GPa)
#
#
# Indices 1 2 3 4 5 6 
#
# 1 136.0138 51.1626 23.9259 11.2346 11.4201 3.4628
# 2 51.1626 91.1016 26.4041 13.4861 9.0715 5.9499
# 3 23.9259 26.4041 71.3922 8.7376 3.2405 13.6430
# 4 11.2346 13.4861 8.7376 30.6825 6.3634 -0.3258
# 5 11.4201 9.0715 3.2405 6.3634 47.8997 2.4263
# 6 3.4628 5.9499 13.6430 -0.3258 2.4263 38.2575
#
#
#
# Elastic Compliance Matrix: (Units=1/GPa)
#
#
# Indices 1 2 3 4 5 6 
#
# 1 0.009534 -0.004753 -0.001373 -0.000757 -0.001202 0.000436
# 2 -0.004753 0.015355 -0.003438 -0.003830 -0.000998 -0.000701
# 3 -0.001373 -0.003438 0.017140 -0.003029 0.000501 -0.005511
# 4 -0.000757 -0.003830 -0.003029 0.036232 -0.003819 0.002295
# 5 -0.001202 -0.000998 0.000501 -0.003819 0.021893 -0.001336
# 6 0.000436 -0.000701 -0.005511 0.002295 -0.001336 0.028278
#
#
# Mechanical properties :
#
#
# Convention : Reuss Voigt Hill
#
# Bulk Modulus (GPa) = 43.66803 55.72141 49.69472
# Shear Modulus (GPa) = 32.21789 36.50227 34.36008
#
# Velocity S-wave (km/s) = 3.71921 3.95878 3.84086
# Velocity P-wave (km/s) = 6.09851 6.69473 6.40357
#
# Compressibility (1/GPa) = 0.02290005
#
# Stress axis : x y z
#
# Youngs Moduli (GPa) = 104.88824 65.12722 58.34282
#
# Poissons Ratio (x) = 0.30955 0.08013
# Poissons Ratio (y) = 0.49853 0.20058
# Poissons Ratio (z) = 0.14405 0.22390
#
# Static dielectric constant tensor:
#      x y z
#    x 1.807780 0.024980 -0.001590 
#    y 0.024980 1.980880 0.096790 
#    z -0.001590 0.096790 2.003130 
# 
# From -- ./inp_files/261951.got.cif
#   From: 2010.05.17/outbox.cif.g08.bks.cpg/sg2_131_cif.got.tgz:261951.got - 2010.06.03 11:33:40.
