data_PCOD9065919
_publ_section_title
;
Structure prediction by ZEFSAII (Michael W. Deem and Ramdas Pophale) SiO2 
 PCOD9065919
Probable space group: P -1
;
_chemical_formula_sum "Si O2"
_cell_formula_units_Z 12
_cell_length_a 13.829109
_cell_length_b 14.993240
_cell_length_c 9.885054
_cell_angle_alpha 122.040366
_cell_angle_beta 142.230007
_cell_angle_gamma 28.760879
_cell_volume 503.980438
_symmetry_space_group_name_H-M "P -1"
_symmetry_group_IT_number 2
_symmetry_cell_setting 'triclinic'
loop_
_space_group_symop_operation_xyz
x,y,z
-x,-y,-z
loop_
_atom_site_type_symbol
_atom_site_label
_atom_site_fract_x
_atom_site_fract_y
_atom_site_fract_z
Si Si1 0.302595 0.906997 0.976310
Si Si2 0.398979 0.242753 0.377032
Si Si3 0.184949 0.663658 0.065310
Si Si4 0.207887 0.199034 0.498213
Si Si5 0.501441 0.352852 0.798308
Si Si6 0.607905 0.665244 0.848363
O O1 0.606515 0.799184 0.284402
O O2 0.320852 0.784958 0.976197
O O3 0.375533 0.855127 0.856941
O O4 0.984710 0.158487 0.873452
O O5 0.542014 0.228484 0.645305
O O6 0.997486 0.472369 0.134852
O O7 0.559616 0.032959 0.382696
O O8 0.483169 0.251719 0.337285
O O9 0.395549 0.455112 0.212302
O O10 0.913475 0.757555 0.752240
O O11 0.360894 0.629518 0.117466
O O12 0.880329 0.401228 0.390102
#
# Coordination Sequence:
#
# PCOD9065919 Si02
#       6
#     2   2   2   2   2   2
#     4  12  23  41  70  97 124 174 221 260 315 386
#     4  11  25  44  66  97 132 169 217 270 319 382
#     4  12  25  41  68 100 133 166 215 271 323 377
#     4  12  23  41  70  97 124 174 221 260 315 386
#     4  12  25  41  68 100 133 166 215 271 323 377
#     4  11  25  44  66  97 132 169 217 270 319 382
#
# _framework density 23.810448000000001
#
# number of rings (size 3 to 8) (size 9 to 14) (size 15 to 20)
#    0.000    0.333    6.667    3.000    0.000    2.667 
#    0.000    1.667    0.000    0.000    0.000    0.000 
#    0.000    0.000    0.000    0.000    0.000    0.000 
#
# Total GULP energy -67272.778685 kJ/mol
# GULP energy per Si atom -5606.064890 kJ/mol
# Density = 2.375625 g / cm^3
# Si number density = 23.810448 Si / 1000 Ang^3
#
#
#
# Elastic Constant Matrix: (Units=GPa)
#
#
# Indices 1 2 3 4 5 6 
#
# 1 173.5323 54.2657 13.7510 7.9351 -8.8024 -18.1736
# 2 54.2657 124.8617 2.5772 -0.6893 -1.2736 -19.8091
# 3 13.7510 2.5772 35.6917 1.7022 -1.8447 -4.7744
# 4 7.9351 -0.6893 1.7022 16.7273 0.7725 -2.7172
# 5 -8.8024 -1.2736 -1.8447 0.7725 32.4905 7.9590
# 6 -18.1736 -19.8091 -4.7744 -2.7172 7.9590 39.5999
#
#
#
# Elastic Compliance Matrix: (Units=1/GPa)
#
#
# Indices 1 2 3 4 5 6 
#
# 1 0.007180 -0.002911 -0.002184 -0.003204 0.001526 0.001049
# 2 -0.002911 0.009920 0.000773 0.002456 -0.001438 0.004177
# 3 -0.002184 0.000773 0.029262 -0.001490 0.000470 0.002715
# 4 -0.003204 0.002456 -0.001490 0.062455 -0.003458 0.004559
# 5 0.001526 -0.001438 0.000470 -0.003458 0.032914 -0.006814
# 6 0.001049 0.004177 0.002715 0.004559 -0.006814 0.029833
#
#
# Mechanical properties :
#
#
# Convention : Reuss Voigt Hill
#
# Bulk Modulus (GPa) = 26.51360 52.80816 39.66088
# Shear Modulus (GPa) = 25.93625 35.32967 30.63296
#
# Velocity S-wave (km/s) = 3.30400 3.85618 3.59072
# Velocity P-wave (km/s) = 5.07097 6.48487 5.82101
#
# Compressibility (1/GPa) = 0.03771649
#
# Stress axis : x y z
#
# Youngs Moduli (GPa) = 139.28058 100.81071 34.17402
#
# Poissons Ratio (x) = 0.29346 0.07464
# Poissons Ratio (y) = 0.40545 -0.02640
# Poissons Ratio (z) = 0.30418 -0.07788
#
# Static dielectric constant tensor:
#      x y z
#    x 1.885840 -0.004220 0.048350 
#    y -0.004220 1.866980 -0.007600 
#    z 0.048350 -0.007600 1.937190 
# 
# From -- ./inp_files/90844.got.cif
#   From: 2010.05.17/outbox.cif.g08.bks.cpg/sg2_46_cif.got.tgz:90844.got - 2010.06.03 11:33:40.
