data_PCOD9065342
_publ_section_title
;
Structure prediction by ZEFSAII (Michael W. Deem and Ramdas Pophale) SiO2 
 PCOD9065342
Probable space group: P -1
;
_chemical_formula_sum "Si O2"
_cell_formula_units_Z 12
_cell_length_a 12.639563
_cell_length_b 9.379657
_cell_length_c 9.591989
_cell_angle_alpha 78.889625
_cell_angle_beta 56.323160
_cell_angle_gamma 38.160984
_cell_volume 515.114259
_symmetry_space_group_name_H-M "P -1"
_symmetry_group_IT_number 2
_symmetry_cell_setting 'triclinic'
loop_
_space_group_symop_operation_xyz
x,y,z
-x,-y,-z
loop_
_atom_site_type_symbol
_atom_site_label
_atom_site_fract_x
_atom_site_fract_y
_atom_site_fract_z
Si Si1 0.979526 0.404873 0.407771
Si Si2 0.715671 0.422778 0.063468
Si Si3 0.300242 0.220047 0.990891
Si Si4 0.462155 0.905697 0.655372
Si Si5 0.184963 0.907907 0.719480
Si Si6 0.771941 0.126846 0.618631
O O1 0.717767 0.602849 0.554655
O O2 0.000000 0.500000 0.500000
O O3 0.064033 0.397617 0.204094
O O4 0.152159 0.110231 0.366947
O O5 0.790329 0.259161 0.174544
O O6 0.457795 0.621930 0.175241
O O7 0.708165 0.600902 0.067374
O O8 0.914641 0.202376 0.848324
O O9 0.500000 0.000000 0.000000
O O10 0.356807 0.073400 0.840970
O O11 0.304458 0.928587 0.706291
O O12 0.500000 0.000000 0.500000
O O13 0.290821 0.792287 0.512226
O O14 0.000000 0.000000 0.500000
#
# Coordination Sequence:
#
# PCOD9065342 Si02
#       6
#     2   2   2   2   2   2
#     4  12  24  44  72 106 142 181 233 291 348 411
#     4  11  24  48  69  98 143 179 233 286 346 420
#     4  12  24  44  73 105 137 183 232 289 347 411
#     4  12  26  45  72 106 144 186 234 288 349 419
#     4  11  27  46  69 101 142 187 230 286 352 416
#     4  12  26  44  71 101 137 183 232 290 347 416
#
# _framework density 23.295801999999998
#
# number of rings (size 3 to 8) (size 9 to 14) (size 15 to 20)
#    0.000    0.333    3.333    5.500    0.000    8.667 
#    0.000    0.000    0.000    0.000    0.000    0.000 
#    0.000    0.000    0.000    0.000    0.000    0.000 
#
# Total GULP energy -67265.704170 kJ/mol
# GULP energy per Si atom -5605.475347 kJ/mol
# Density = 2.324278 g / cm^3
# Si number density = 23.295802 Si / 1000 Ang^3
#
#
#
# Elastic Constant Matrix: (Units=GPa)
#
#
# Indices 1 2 3 4 5 6 
#
# 1 94.8178 20.5979 55.4853 -0.6092 -5.9495 0.8216
# 2 20.5979 107.0464 24.0028 4.3409 -12.7955 8.8504
# 3 55.4853 24.0028 148.3097 19.8759 -5.9843 -0.7823
# 4 -0.6092 4.3409 19.8759 56.7945 -10.8671 -20.3226
# 5 -5.9495 -12.7955 -5.9843 -10.8671 41.7082 -0.2922
# 6 0.8216 8.8504 -0.7823 -20.3226 -0.2922 31.0563
#
#
#
# Elastic Compliance Matrix: (Units=1/GPa)
#
#
# Indices 1 2 3 4 5 6 
#
# 1 0.014155 -0.001626 -0.005387 0.003206 0.001597 0.002066
# 2 -0.001626 0.010516 -0.000819 -0.001460 0.002469 -0.003907
# 3 -0.005387 -0.000819 0.009411 -0.004206 -0.000780 -0.002147
# 4 0.003206 -0.001460 -0.004206 0.026869 0.006532 0.017870
# 5 0.001597 0.002469 -0.000780 0.006532 0.026578 0.003759
# 6 0.002066 -0.003907 -0.002147 0.017870 0.003759 0.044933
#
#
# Mechanical properties :
#
#
# Convention : Reuss Voigt Hill
#
# Bulk Modulus (GPa) = 54.29248 61.14956 57.72102
# Shear Modulus (GPa) = 32.41187 42.58432 37.49810
#
# Velocity S-wave (km/s) = 3.73408 4.28013 4.01640
# Velocity P-wave (km/s) = 6.47669 7.12265 6.80734
#
# Compressibility (1/GPa) = 0.01841876
#
# Stress axis : x y z
#
# Youngs Moduli (GPa) = 70.64699 95.09768 106.25406
#
# Poissons Ratio (x) = 0.15460 0.57237
# Poissons Ratio (y) = 0.11485 0.08702
# Poissons Ratio (z) = 0.38056 0.07788
#
# Static dielectric constant tensor:
#      x y z
#    x 1.844230 -0.022560 -0.052570 
#    y -0.022560 1.890840 0.005420 
#    z -0.052570 0.005420 1.869450 
# 
# From -- ./inp_files/183704.got.cif
#   From: 2010.05.17/outbox.cif.g08.bks.cpg/sg2_92_cif.got.tgz:183704.got - 2010.06.03 11:33:40.
