data_PCOD9065132
_publ_section_title
;
Structure prediction by ZEFSAII (Michael W. Deem and Ramdas Pophale) SiO2 
 PCOD9065132
Probable space group: P -1
;
_chemical_formula_sum "Si O2"
_cell_formula_units_Z 16
_cell_length_a 13.932166
_cell_length_b 9.445306
_cell_length_c 19.228328
_cell_angle_alpha 49.250933
_cell_angle_beta 158.291349
_cell_angle_gamma 129.834171
_cell_volume 703.766565
_symmetry_space_group_name_H-M "P -1"
_symmetry_group_IT_number 2
_symmetry_cell_setting 'triclinic'
loop_
_space_group_symop_operation_xyz
x,y,z
-x,-y,-z
loop_
_atom_site_type_symbol
_atom_site_label
_atom_site_fract_x
_atom_site_fract_y
_atom_site_fract_z
Si Si1 0.007462 0.707191 0.969592
Si Si2 0.300698 0.928946 0.968936
Si Si3 0.597763 0.309299 0.009375
Si Si4 0.529188 0.303533 0.620756
Si Si5 0.428964 0.790409 0.544491
Si Si6 0.874438 0.559647 0.605841
Si Si7 0.798982 0.061482 0.525620
Si Si8 0.827916 0.409354 0.349133
O O1 0.148300 0.852443 0.960245
O O2 0.706394 0.728987 0.771942
O O3 0.181550 0.716717 0.152764
O O4 0.000000 0.500000 0.000000
O O5 0.505350 0.117593 0.052581
O O6 0.417696 0.762883 0.058225
O O7 0.082203 0.995944 0.747820
O O8 0.412669 0.466425 0.854477
O O9 0.893496 0.394697 0.197591
O O10 0.500000 0.500000 0.500000
O O11 0.348045 0.310517 0.565792
O O12 0.403951 0.125634 0.550403
O O13 0.276342 0.650775 0.431347
O O14 0.246493 0.807244 0.482067
O O15 0.500000 0.000000 0.500000
O O16 0.009610 0.586528 0.613573
O O17 0.756161 0.189787 0.389896
O O18 0.000000 0.500000 0.500000
#
# Coordination Sequence:
#
# PCOD9065132 Si02
#       8
#     2   2   2   2   2   2   2   2
#     4  12  27  45  76 105 143 195 246 293 373 435
#     4  11  24  47  72 106 146 196 240 298 368 438
#     4  11  26  45  75 105 149 193 244 304 365 434
#     4  12  28  50  73 111 147 191 248 307 359 444
#     4  12  25  46  75 106 147 195 241 303 366 436
#     4  12  26  46  77 104 146 194 242 303 361 433
#     4  12  25  47  72 107 152 187 239 309 363 430
#     4  12  26  44  71 111 150 187 241 300 371 426
#
# _framework density 22.734811000000001
#
# number of rings (size 3 to 8) (size 9 to 14) (size 15 to 20)
#    0.000    0.250    6.250    1.875    5.250    2.000 
#    0.000    0.000    0.000    0.000    0.000    0.000 
#    0.000    0.000    0.000    0.000    0.000    0.000 
#
# Total GULP energy -89516.108424 kJ/mol
# GULP energy per Si atom -5594.756777 kJ/mol
# Density = 2.268307 g / cm^3
# Si number density = 22.734811 Si / 1000 Ang^3
#
#
#
# Elastic Constant Matrix: (Units=GPa)
#
#
# Indices 1 2 3 4 5 6 
#
# 1 67.5134 12.2210 -10.2656 -11.3263 7.1425 3.2730
# 2 12.2210 131.2343 38.7471 13.2645 -10.7264 9.9298
# 3 -10.2656 38.7471 103.5477 8.6250 4.6729 -4.6977
# 4 -11.3263 13.2645 8.6250 44.7809 -7.0567 2.0201
# 5 7.1425 -10.7264 4.6729 -7.0567 25.2602 -3.6845
# 6 3.2730 9.9298 -4.6977 2.0201 -3.6845 40.4990
#
#
#
# Elastic Compliance Matrix: (Units=1/GPa)
#
#
# Indices 1 2 3 4 5 6 
#
# 1 0.017128 -0.003209 0.002792 0.003878 -0.005783 -0.000993
# 2 -0.003209 0.009932 -0.004184 -0.002062 0.005016 -0.002102
# 3 0.002792 -0.004184 0.011899 -0.001190 -0.004837 0.001800
# 4 0.003878 -0.002062 -0.001190 0.024992 0.005124 -0.000726
# 5 -0.005783 0.005016 -0.004837 0.005124 0.046060 0.002611
# 6 -0.000993 -0.002102 0.001800 -0.000726 0.002611 0.025770
#
#
# Mechanical properties :
#
#
# Convention : Reuss Voigt Hill
#
# Bulk Modulus (GPa) = 33.60745 42.63338 38.12041
# Shear Modulus (GPa) = 32.27831 39.54755 35.91293
#
# Velocity S-wave (km/s) = 3.77208 4.17527 3.97879
# Velocity P-wave (km/s) = 5.81256 6.48360 6.15723
#
# Compressibility (1/GPa) = 0.02975531
#
# Stress axis : x y z
#
# Youngs Moduli (GPa) = 58.38446 100.68763 84.04067
#
# Poissons Ratio (x) = 0.32309 -0.23461
# Poissons Ratio (y) = 0.18734 0.35167
# Poissons Ratio (z) = -0.16299 0.42132
#
# Static dielectric constant tensor:
#      x y z
#    x 1.822830 0.066390 0.012260 
#    y 0.066390 1.848090 -0.033940 
#    z 0.012260 -0.033940 1.786190 
# 
# From -- ./inp_files/207031.got.cif
#   From: 2010.05.17/outbox.cif.g08.bks.cpg/sg2_104_cif.got.tgz:207031.got - 2010.06.03 11:33:40.
