data_PCOD9065222
_publ_section_title
;
Structure prediction by ZEFSAII (Michael W. Deem and Ramdas Pophale) SiO2 
 PCOD9065222
Probable space group: P -1
;
_chemical_formula_sum "Si O2"
_cell_formula_units_Z 10
_cell_length_a 17.973194
_cell_length_b 5.098863
_cell_length_c 6.677616
_cell_angle_alpha 50.195068
_cell_angle_beta 66.254316
_cell_angle_gamma 87.123189
_cell_volume 411.142483
_symmetry_space_group_name_H-M "P -1"
_symmetry_group_IT_number 2
_symmetry_cell_setting 'triclinic'
loop_
_space_group_symop_operation_xyz
x,y,z
-x,-y,-z
loop_
_atom_site_type_symbol
_atom_site_label
_atom_site_fract_x
_atom_site_fract_y
_atom_site_fract_z
Si Si1 0.751925 0.541589 0.111543
Si Si2 0.980530 0.583223 0.203397
Si Si3 0.486429 0.067235 0.710471
Si Si4 0.642166 0.007822 0.817244
Si Si5 0.143514 0.724098 0.202465
O O1 0.706385 0.271976 0.467545
O O2 0.823946 0.854294 0.994707
O O3 0.788349 0.365800 0.973365
O O4 0.685855 0.722365 0.992279
O O5 0.056309 0.512684 0.286173
O O6 0.886227 0.409863 0.474990
O O7 0.000000 0.500000 0.000000
O O8 0.000000 0.000000 0.000000
O O9 0.500000 0.500000 0.500000
O O10 0.554589 0.920926 0.828568
O O11 0.500000 0.000000 0.500000
O O12 0.393560 0.865220 0.000761
#
# Coordination Sequence:
#
# PCOD9065222 Si02
#       5
#     2   2   2   2   2
#     4  12  28  46  76 108 150 188 236 310 360 420
#     4  11  24  47  74  99 141 194 238 293 352 441
#     4  11  26  50  75 105 143 198 240 294 353 443
#     4  11  28  50  74 109 148 190 244 295 366 426
#     4  11  28  46  70 109 142 188 244 293 364 426
#
# _framework density 24.322469000000002
#
# number of rings (size 3 to 8) (size 9 to 14) (size 15 to 20)
#    0.000    0.800    2.000    2.400   11.200    9.600 
#    0.000    0.000    0.000    0.000    0.000    0.000 
#    0.000    0.000    0.000    0.000    0.000    0.000 
#
# Total GULP energy -55816.304165 kJ/mol
# GULP energy per Si atom -5581.630417 kJ/mol
# Density = 2.426711 g / cm^3
# Si number density = 24.322469 Si / 1000 Ang^3
#
#
#
# Elastic Constant Matrix: (Units=GPa)
#
#
# Indices 1 2 3 4 5 6 
#
# 1 65.8880 12.1155 51.7432 18.7251 7.5652 -3.8729
# 2 12.1155 145.8288 80.5095 53.3503 -14.1344 1.2346
# 3 51.7432 80.5095 213.1163 50.8804 -27.8289 -28.9691
# 4 18.7251 53.3503 50.8804 51.9452 -8.9222 -1.1950
# 5 7.5652 -14.1344 -27.8289 -8.9222 58.8422 5.3566
# 6 -3.8729 1.2346 -28.9691 -1.1950 5.3566 29.3538
#
#
#
# Elastic Compliance Matrix: (Units=1/GPa)
#
#
# Indices 1 2 3 4 5 6 
#
# 1 0.021617 0.003342 -0.006083 -0.006282 -0.005576 -0.002530
# 2 0.003342 0.012435 -0.003552 -0.010652 -0.000378 -0.003953
# 3 -0.006083 -0.003552 0.009783 -0.002976 0.003352 0.008269
# 4 -0.006282 -0.010652 -0.002976 0.035742 0.002472 -0.002313
# 5 -0.005576 -0.000378 0.003352 0.002472 0.019662 -0.000899
# 6 -0.002530 -0.003953 0.008269 -0.002313 -0.000899 0.042130
#
#
# Mechanical properties :
#
#
# Convention : Reuss Voigt Hill
#
# Bulk Modulus (GPa) = 32.00298 79.28549 55.64423
# Shear Modulus (GPa) = 30.41882 46.72589 38.57236
#
# Velocity S-wave (km/s) = 3.54029 4.38779 3.98662
# Velocity P-wave (km/s) = 5.46789 7.63798 6.64216
#
# Compressibility (1/GPa) = 0.03124709
#
# Stress axis : x y z
#
# Youngs Moduli (GPa) = 46.26073 80.42044 102.21565
#
# Poissons Ratio (x) = -0.26873 0.62177
# Poissons Ratio (y) = -0.15458 0.36310
# Poissons Ratio (z) = 0.28140 0.28568
#
# Static dielectric constant tensor:
#      x y z
#    x 5.920990 -0.053950 0.243700 
#    y -0.053950 1.928430 0.028640 
#    z 0.243700 0.028640 2.043190 
# 
# From -- ./inp_files/5805.got.cif
#   From: 2010.05.17/outbox.cif.g08.bks.cpg/sg2_3_cif.got.tgz:5805.got - 2010.06.03 11:33:40.
