data_PCOD9065860
_publ_section_title
;
Structure prediction by ZEFSAII (Michael W. Deem and Ramdas Pophale) SiO2 
 PCOD9065860
Probable space group: P -1
;
_chemical_formula_sum "Si O2"
_cell_formula_units_Z 14
_cell_length_a 5.485786
_cell_length_b 19.196867
_cell_length_c 5.141413
_cell_angle_alpha 98.558818
_cell_angle_beta 90.710270
_cell_angle_gamma 86.759410
_cell_volume 534.551511
_symmetry_space_group_name_H-M "P -1"
_symmetry_group_IT_number 2
_symmetry_cell_setting 'triclinic'
loop_
_space_group_symop_operation_xyz
x,y,z
-x,-y,-z
loop_
_atom_site_type_symbol
_atom_site_label
_atom_site_fract_x
_atom_site_fract_y
_atom_site_fract_z
Si Si1 0.698443 0.964850 0.280432
Si Si2 0.173202 0.269672 0.945305
Si Si3 0.934219 0.149536 0.607608
Si Si4 0.294570 0.555440 0.626485
Si Si5 0.924559 0.398646 0.843661
Si Si6 0.669236 0.299137 0.102280
Si Si7 0.336465 0.891106 0.900677
O O1 0.889251 0.920856 0.437794
O O2 0.500000 0.000000 0.500000
O O3 0.766829 0.030557 0.143151
O O4 0.595568 0.909295 0.039677
O O5 0.098683 0.216085 0.690729
O O6 0.166351 0.351686 0.894768
O O7 0.948018 0.271508 0.149983
O O8 0.440775 0.252116 0.051279
O O9 0.729926 0.152564 0.381996
O O10 0.803727 0.138839 0.874886
O O11 0.500000 0.500000 0.500000
O O12 0.084877 0.567407 0.415900
O O13 0.402920 0.632781 0.690106
O O14 0.177917 0.547585 0.905381
O O15 0.734192 0.335352 0.843716
#
# Coordination Sequence:
#
# PCOD9065860 Si02
#       7
#     2   2   2   2   2   2   2
#     4  11  25  43  71  93 135 163 218 279 346 391
#     4   9  22  45  62  95 128 179 215 274 321 401
#     4  12  26  42  67  93 131 170 228 264 339 408
#     4   9  17  37  65  96 128 171 219 266 325 391
#     4   8  20  36  61  88 133 163 213 267 324 373
#     4   8  21  40  63  90 132 168 215 267 331 369
#     4  11  26  43  64  98 127 167 212 277 341 390
#
# _framework density 26.190180000000002
#
# number of rings (size 3 to 8) (size 9 to 14) (size 15 to 20)
#    1.714    0.286    1.429    1.286    6.000    2.286 
#    7.714    3.571    0.000    0.000    0.000    0.000 
#    0.000    0.000    0.000    0.000    0.000    0.000 
#
# Total GULP energy -78041.813209 kJ/mol
# GULP energy per Si atom -5574.415229 kJ/mol
# Density = 2.613057 g / cm^3
# Si number density = 26.190180 Si / 1000 Ang^3
#
#
#
# Elastic Constant Matrix: (Units=GPa)
#
#
# Indices 1 2 3 4 5 6 
#
# 1 115.0052 22.7571 31.4742 0.3709 22.6677 -5.9122
# 2 22.7571 50.1930 22.6094 11.0626 0.2451 -6.9946
# 3 31.4742 22.6094 139.0608 -12.4074 17.7956 5.0877
# 4 0.3709 11.0626 -12.4074 40.0760 7.8074 8.1608
# 5 22.6677 0.2451 17.7956 7.8074 45.2445 8.6614
# 6 -5.9122 -6.9946 5.0877 8.1608 8.6614 44.6649
#
#
#
# Elastic Compliance Matrix: (Units=1/GPa)
#
#
# Indices 1 2 3 4 5 6 
#
# 1 0.011103 -0.004749 -0.000906 0.001722 -0.005791 0.001637
# 2 -0.004749 0.027695 -0.005310 -0.011362 0.005250 0.005371
# 3 -0.000906 -0.005310 0.009312 0.005547 -0.003695 -0.002309
# 4 0.001722 -0.011362 0.005547 0.032584 -0.007320 -0.006717
# 5 -0.005791 0.005250 -0.003695 -0.007320 0.028399 -0.003693
# 6 0.001637 0.005371 -0.002309 -0.006717 -0.003693 0.025653
#
#
# Mechanical properties :
#
#
# Convention : Reuss Voigt Hill
#
# Bulk Modulus (GPa) = 38.19752 50.88227 44.53990
# Shear Modulus (GPa) = 30.22922 41.15831 35.69377
#
# Velocity S-wave (km/s) = 3.40107 3.96854 3.69571
# Velocity P-wave (km/s) = 5.48082 6.36154 5.93753
#
# Compressibility (1/GPa) = 0.02617971
#
# Stress axis : x y z
#
# Youngs Moduli (GPa) = 90.06537 36.10738 107.39114
#
# Poissons Ratio (x) = 0.17148 0.09729
# Poissons Ratio (y) = 0.42773 0.57025
# Poissons Ratio (z) = 0.08160 0.19173
#
# Static dielectric constant tensor:
#      x y z
#    x 2.082080 0.020130 0.020950 
#    y 0.020130 2.181690 0.042920 
#    z 0.020950 0.042920 2.013990 
# 
# From -- ./inp_files/11413.got.cif
#   From: 2010.05.17/outbox.cif.g08.bks.cpg/sg2_6_cif.got.tgz:11413.got - 2010.06.03 11:33:40.
