data_PCOD9065941
_publ_section_title
;
Structure prediction by ZEFSAII (Michael W. Deem and Ramdas Pophale) SiO2 
 PCOD9065941
Probable space group: P -1
;
_chemical_formula_sum "Si O2"
_cell_formula_units_Z 13
_cell_length_a 14.281468
_cell_length_b 16.548503
_cell_length_c 6.454768
_cell_angle_alpha 72.166862
_cell_angle_beta 72.000927
_cell_angle_gamma 23.399088
_cell_volume 575.141015
_symmetry_space_group_name_H-M "P -1"
_symmetry_group_IT_number 2
_symmetry_cell_setting 'triclinic'
loop_
_space_group_symop_operation_xyz
x,y,z
-x,-y,-z
loop_
_atom_site_type_symbol
_atom_site_label
_atom_site_fract_x
_atom_site_fract_y
_atom_site_fract_z
Si Si1 0.236122 0.927486 0.869875
Si Si2 0.773184 0.552455 0.735769
Si Si3 0.500000 0.500000 0.500000
Si Si4 0.830302 0.813691 0.926989
Si Si5 0.595456 0.867396 0.727142
Si Si6 0.915645 0.301229 0.522194
Si Si7 0.906360 0.121291 0.265366
O O1 0.513218 0.723305 0.838212
O O2 0.179693 0.884709 0.822702
O O3 0.090047 0.114849 0.704995
O O4 0.121569 0.003237 0.111907
O O5 0.742274 0.677890 0.665187
O O6 0.846780 0.445534 0.560083
O O7 0.960050 0.382059 0.916689
O O8 0.683408 0.426313 0.545383
O O9 0.683285 0.351587 0.297753
O O10 0.740737 0.810306 0.835073
O O11 0.936766 0.799505 0.709236
O O12 0.616332 0.003171 0.082983
O O13 0.500000 0.000000 0.500000
O O14 0.000000 0.000000 0.500000
#
# Coordination Sequence:
#
# PCOD9065941 Si02
#       7
#     2   2   1   2   2   2   2
#     4  11  26  44  68 102 146 192 241 297 357 415
#     4  12  26  44  73 108 141 190 234 298 359 435
#     4  12  26  46  72 102 150 194 242 294 358 414
#     4  11  27  47  75 108 140 189 237 297 363 434
#     4  11  26  52  77 106 146 184 234 303 361 436
#     4  12  28  45  71 109 146 191 245 298 353 428
#     4  11  25  44  68  99 143 195 247 296 347 419
#
# _framework density 22.603149999999999
#
# number of rings (size 3 to 8) (size 9 to 14) (size 15 to 20)
#    0.000    0.615    3.077    3.231    6.462    6.769 
#    0.000    0.000    0.000    0.000    0.000    0.000 
#    0.000    0.000    0.000    0.000    0.000    0.000 
#
# Total GULP energy -72484.516330 kJ/mol
# GULP energy per Si atom -5575.732025 kJ/mol
# Density = 2.255170 g / cm^3
# Si number density = 22.603150 Si / 1000 Ang^3
#
#
#
# Elastic Constant Matrix: (Units=GPa)
#
#
# Indices 1 2 3 4 5 6 
#
# 1 103.8783 36.6199 26.7799 2.9208 41.1869 2.0820
# 2 36.6199 86.6546 41.9923 23.9843 10.6844 -2.0557
# 3 26.7799 41.9923 130.3351 18.3107 1.4704 -0.4395
# 4 2.9208 23.9843 18.3107 45.7573 -2.5620 4.7943
# 5 41.1869 10.6844 1.4704 -2.5620 39.5451 7.9499
# 6 2.0820 -2.0557 -0.4395 4.7943 7.9499 50.9627
#
#
#
# Elastic Compliance Matrix: (Units=1/GPa)
#
#
# Indices 1 2 3 4 5 6 
#
# 1 0.019550 -0.005004 -0.002326 0.001031 -0.019235 0.001883
# 2 -0.005004 0.017556 -0.003546 -0.007648 -0.000225 0.001637
# 3 -0.002326 -0.003546 0.009482 -0.001591 0.002982 -0.000282
# 4 0.001031 -0.007648 -0.001591 0.026991 0.003493 -0.003448
# 5 -0.019235 -0.000225 0.002982 0.003493 0.046872 -0.006838
# 6 0.001883 0.001637 -0.000282 -0.003448 -0.006838 0.021000
#
#
# Mechanical properties :
#
#
# Convention : Reuss Voigt Hill
#
# Bulk Modulus (GPa) = 40.26313 59.07245 49.66779
# Shear Modulus (GPa) = 29.15767 41.61809 35.38788
#
# Velocity S-wave (km/s) = 3.59553 4.29564 3.96108
# Velocity P-wave (km/s) = 5.92358 7.12704 6.55300
#
# Compressibility (1/GPa) = 0.02483662
#
# Stress axis : x y z
#
# Youngs Moduli (GPa) = 51.15055 56.96001 105.46486
#
# Poissons Ratio (x) = 0.28500 0.24536
# Poissons Ratio (y) = 0.25594 0.37395
# Poissons Ratio (z) = 0.11900 0.20197
#
# Static dielectric constant tensor:
#      x y z
#    x 1.881960 0.029870 0.006960 
#    y 0.029870 1.823120 0.003930 
#    z 0.006960 0.003930 1.765660 
# 
# From -- ./inp_files/34221.got.cif
#   From: 2010.05.17/outbox.cif.g08.bks.cpg/sg2_18_cif.got.tgz:34221.got - 2010.06.03 11:33:40.
