data_PCOD9065095
_publ_section_title
;
Structure prediction by ZEFSAII (Michael W. Deem and Ramdas Pophale) SiO2 
 PCOD9065095
Probable space group: P -1
;
_chemical_formula_sum "Si O2"
_cell_formula_units_Z 14
_cell_length_a 8.977398
_cell_length_b 7.676732
_cell_length_c 12.564265
_cell_angle_alpha 110.833997
_cell_angle_beta 131.092286
_cell_angle_gamma 62.943851
_cell_volume 579.086832
_symmetry_space_group_name_H-M "P -1"
_symmetry_group_IT_number 2
_symmetry_cell_setting 'triclinic'
loop_
_space_group_symop_operation_xyz
x,y,z
-x,-y,-z
loop_
_atom_site_type_symbol
_atom_site_label
_atom_site_fract_x
_atom_site_fract_y
_atom_site_fract_z
Si Si1 0.685836 0.816056 0.468919
Si Si2 0.484077 0.492988 0.295593
Si Si3 0.603400 0.775608 0.649500
Si Si4 0.912669 0.167567 0.409978
Si Si5 0.748654 0.904027 0.119577
Si Si6 0.075307 0.179054 0.044887
Si Si7 0.309688 0.473838 0.976182
O O1 0.514874 0.705491 0.344327
O O2 0.738550 0.771082 0.607821
O O3 0.904896 0.738551 0.499386
O O4 0.600072 0.047677 0.447233
O O5 0.378929 0.439429 0.341233
O O6 0.708981 0.337005 0.383497
O O7 0.394413 0.442155 0.131627
O O8 0.695037 0.861390 0.809528
O O9 0.842571 0.057299 0.253846
O O10 0.000000 0.000000 0.500000
O O11 0.893494 0.817101 0.065949
O O12 0.746921 0.709836 0.139584
O O13 0.500000 0.000000 0.000000
O O14 0.908022 0.357059 0.066015
O O15 0.000000 0.000000 0.000000
O O16 0.500000 0.500000 0.000000
#
# Coordination Sequence:
#
# PCOD9065095 Si02
#       7
#     2   2   2   2   2   2   2
#     4  11  26  45  72 108 148 193 251 305 381 450
#     4  12  25  48  73 104 149 194 251 310 375 448
#     4  11  24  47  71 107 147 194 247 310 378 447
#     4  12  26  46  73 108 147 201 245 306 382 443
#     4  12  25  48  75 103 154 196 246 311 369 447
#     4  12  25  46  75 108 149 196 252 311 378 448
#     4  12  28  46  76 111 146 197 255 307 384 451
#
# _framework density 24.175992999999998
#
# number of rings (size 3 to 8) (size 9 to 14) (size 15 to 20)
#    0.000    0.286    4.286    3.857    4.000    2.286 
#    0.000    0.000    0.000    0.000    0.000    0.000 
#    0.000    0.000    0.000    0.000    0.000    0.000 
#
# Total GULP energy -78091.267757 kJ/mol
# GULP energy per Si atom -5577.947697 kJ/mol
# Density = 2.412097 g / cm^3
# Si number density = 24.175993 Si / 1000 Ang^3
#
#
#
# Elastic Constant Matrix: (Units=GPa)
#
#
# Indices 1 2 3 4 5 6 
#
# 1 108.1191 19.2369 5.4974 -9.3862 -7.1735 17.4639
# 2 19.2369 86.8330 -3.4056 -1.5405 3.5970 2.5217
# 3 5.4974 -3.4056 70.2119 -6.6837 -9.0772 10.6837
# 4 -9.3862 -1.5405 -6.6837 40.3065 6.8220 7.6655
# 5 -7.1735 3.5970 -9.0772 6.8220 27.1241 2.7852
# 6 17.4639 2.5217 10.6837 7.6655 2.7852 46.7090
#
#
#
# Elastic Compliance Matrix: (Units=1/GPa)
#
#
# Indices 1 2 3 4 5 6 
#
# 1 0.010852 -0.002328 0.000422 0.002878 0.003077 -0.004684
# 2 -0.002328 0.012142 0.000497 0.000337 -0.002162 0.000175
# 3 0.000422 0.000497 0.015853 0.002747 0.005129 -0.004567
# 4 0.002878 0.000337 0.002747 0.027899 -0.004763 -0.006017
# 5 0.003077 -0.002162 0.005129 -0.004763 0.041282 -0.003887
# 6 -0.004684 0.000175 -0.004567 -0.006017 -0.003887 0.025415
#
#
# Mechanical properties :
#
#
# Convention : Reuss Voigt Hill
#
# Bulk Modulus (GPa) = 27.75473 34.20238 30.97856
# Shear Modulus (GPa) = 33.72191 39.08360 36.40275
#
# Velocity S-wave (km/s) = 3.73882 4.02509 3.88460
# Velocity P-wave (km/s) = 5.49032 5.98162 5.74123
#
# Compressibility (1/GPa) = 0.03602989
#
# Stress axis : x y z
#
# Youngs Moduli (GPa) = 92.14474 82.35806 63.07871
#
# Poissons Ratio (x) = 0.19174 -0.02662
# Poissons Ratio (y) = 0.21452 -0.03136
# Poissons Ratio (z) = -0.03888 -0.04095
#
# Static dielectric constant tensor:
#      x y z
#    x 3.007950 -0.702430 0.034390 
#    y -0.702430 2.464180 0.004390 
#    z 0.034390 0.004390 1.923740 
# 
# From -- ./inp_files/383049.got.cif
#   From: 2010.05.17/outbox.cif.g08.bks.cpg/sg2_192_cif.got.tgz:383049.got - 2010.06.03 11:33:40.
