data_PCOD9065456
_publ_section_title
;
Structure prediction by ZEFSAII (Michael W. Deem and Ramdas Pophale) SiO2 
 PCOD9065456
Probable space group: P -1
;
_chemical_formula_sum "Si O2"
_cell_formula_units_Z 12
_cell_length_a 9.216757
_cell_length_b 7.338615
_cell_length_c 9.952220
_cell_angle_alpha 102.864613
_cell_angle_beta 56.551006
_cell_angle_gamma 65.345271
_cell_volume 409.578863
_symmetry_space_group_name_H-M "P -1"
_symmetry_group_IT_number 2
_symmetry_cell_setting 'triclinic'
loop_
_space_group_symop_operation_xyz
x,y,z
-x,-y,-z
loop_
_atom_site_type_symbol
_atom_site_label
_atom_site_fract_x
_atom_site_fract_y
_atom_site_fract_z
Si Si1 0.697597 0.914696 0.707896
Si Si2 0.916364 0.489615 0.340067
Si Si3 0.981651 0.091373 0.805833
Si Si4 0.500000 0.500000 0.500000
Si Si5 0.500000 0.500000 0.000000
Si Si6 0.194601 0.117891 0.945678
Si Si7 0.338898 0.690757 0.349152
O O1 0.824092 0.753041 0.481459
O O2 0.873984 0.727234 0.703326
O O3 0.447787 0.998744 0.841585
O O4 0.640206 0.179128 0.771592
O O5 0.697342 0.502797 0.465241
O O6 0.019104 0.406974 0.125376
O O7 0.175471 0.055657 0.793390
O O8 0.748028 0.358894 0.932389
O O9 0.106198 0.920798 0.581152
O O10 0.901896 0.980744 0.927608
O O11 0.527817 0.574972 0.349839
O O12 0.380324 0.485812 0.200674
#
# Coordination Sequence:
#
# PCOD9065456 Si02
#       7
#     2   2   2   1   1   2   2
#     4  11  28  47  77 113 165 199 262 326 401 448
#     4  11  25  48  78 113 158 211 250 324 395 466
#     4  11  26  44  78 110 158 200 268 313 390 467
#     4  12  26  48  86 106 158 208 266 304 396 460
#     4  12  28  44  80 114 150 204 264 324 384 472
#     4  11  24  48  74 115 153 209 252 321 390 476
#     4  12  28  52  75 118 152 209 260 331 377 475
#
# _framework density 29.298386000000001
#
# number of rings (size 3 to 8) (size 9 to 14) (size 15 to 20)
#    0.000    0.667    1.667    4.000    9.333    5.333 
#    0.000    2.500    0.000    0.000    0.000    0.000 
#    0.000    0.000    0.000    0.000    0.000    0.000 
#
# Total GULP energy -66823.015216 kJ/mol
# GULP energy per Si atom -5568.584601 kJ/mol
# Density = 2.923170 g / cm^3
# Si number density = 29.298386 Si / 1000 Ang^3
#
#
#
# Elastic Constant Matrix: (Units=GPa)
#
#
# Indices 1 2 3 4 5 6 
#
# 1 197.4005 46.6144 50.2845 -4.2276 -21.9086 -29.8806
# 2 46.6144 100.4091 21.6113 -0.2451 -7.2384 -13.0598
# 3 50.2845 21.6113 191.9336 4.3599 32.2149 -31.4996
# 4 -4.2276 -0.2451 4.3599 35.8483 -12.8419 4.0295
# 5 -21.9086 -7.2384 32.2149 -12.8419 49.7989 -5.1913
# 6 -29.8806 -13.0598 -31.4996 4.0295 -5.1913 52.4056
#
#
#
# Elastic Compliance Matrix: (Units=1/GPa)
#
#
# Indices 1 2 3 4 5 6 
#
# 1 0.007130 -0.002141 -0.002132 0.002644 0.005154 0.002558
# 2 -0.002141 0.011384 -0.000753 0.000276 0.001405 0.001282
# 3 -0.002132 -0.000753 0.007500 -0.003843 -0.006604 0.002746
# 4 0.002644 0.000276 -0.003843 0.033225 0.012039 -0.002096
# 5 0.005154 0.001405 -0.006604 0.012039 0.030072 0.001372
# 6 0.002558 0.001282 0.002746 -0.002096 0.001372 0.022807
#
#
# Mechanical properties :
#
#
# Convention : Reuss Voigt Hill
#
# Bulk Modulus (GPa) = 62.64587 80.75150 71.69869
# Shear Modulus (GPa) = 39.21877 52.35942 45.78910
#
# Velocity S-wave (km/s) = 3.66266 4.23201 3.95758
# Velocity P-wave (km/s) = 6.27018 7.17645 6.73857
#
# Compressibility (1/GPa) = 0.01596274
#
# Stress axis : x y z
#
# Youngs Moduli (GPa) = 140.24705 87.84519 133.33438
#
# Poissons Ratio (x) = 0.18804 0.28432
# Poissons Ratio (y) = 0.30021 0.10035
# Poissons Ratio (z) = 0.29906 0.06611
#
# Static dielectric constant tensor:
#      x y z
#    x 1.831060 -0.136960 -0.821100 
#    y -0.136960 2.405520 -0.636680 
#    z -0.821100 -0.636680 1.058350 
# 
# From -- ./inp_files/155130.got.cif
#   From: 2010.05.17/outbox.cif.g08.bks.cpg/sg2_78_cif.got.tgz:155130.got - 2010.06.03 11:33:40.
