data_PCOD9065133
_publ_section_title
;
Structure prediction by ZEFSAII (Michael W. Deem and Ramdas Pophale) SiO2 
 PCOD9065133
Probable space group: P -1
;
_chemical_formula_sum "Si O2"
_cell_formula_units_Z 15
_cell_length_a 8.880286
_cell_length_b 14.355479
_cell_length_c 9.322271
_cell_angle_alpha 65.253372
_cell_angle_beta 135.696384
_cell_angle_gamma 84.595416
_cell_volume 591.001631
_symmetry_space_group_name_H-M "P -1"
_symmetry_group_IT_number 2
_symmetry_cell_setting 'triclinic'
loop_
_space_group_symop_operation_xyz
x,y,z
-x,-y,-z
loop_
_atom_site_type_symbol
_atom_site_label
_atom_site_fract_x
_atom_site_fract_y
_atom_site_fract_z
Si Si1 0.852205 0.532931 0.719371
Si Si2 0.704369 0.209803 0.728805
Si Si3 0.599940 0.104297 0.197734
Si Si4 0.939415 0.284297 0.597916
Si Si5 0.984913 0.285299 0.038121
Si Si6 0.000000 0.500000 0.500000
Si Si7 0.068481 0.805927 0.656535
Si Si8 0.419240 0.906214 0.491198
O O1 0.578455 0.681197 0.455926
O O2 0.985069 0.517292 0.664196
O O3 0.791611 0.428507 0.750401
O O4 0.000000 0.500000 0.000000
O O5 0.713294 0.092443 0.747928
O O6 0.766744 0.263869 0.600069
O O7 0.933937 0.185621 0.007197
O O8 0.700082 0.088806 0.440784
O O9 0.685265 0.188564 0.135338
O O10 0.789160 0.956948 0.362876
O O11 0.274384 0.179550 0.920663
O O12 0.880150 0.260372 0.416297
O O13 0.876221 0.422253 0.480389
O O14 0.966017 0.273196 0.200723
O O15 0.282835 0.235472 0.224858
O O16 0.500000 0.000000 0.500000
#
# Coordination Sequence:
#
# PCOD9065133 Si02
#       8
#     2   2   2   2   2   1   2   2
#     4  12  26  50  77 109 154 201 251 317 383 451
#     4  12  27  47  76 105 149 199 247 311 382 452
#     4  11  24  47  72 106 153 191 259 311 371 461
#     4  12  26  47  74 108 150 198 250 314 377 448
#     4  12  25  48  73 106 150 195 250 316 376 457
#     4  12  28  46  78 114 148 196 260 310 376 458
#     4  11  26  46  74 109 146 202 248 315 384 446
#     4  12  24  46  72 106 148 194 248 307 378 456
#
# _framework density 25.380641000000001
#
# number of rings (size 3 to 8) (size 9 to 14) (size 15 to 20)
#    0.000    0.267    6.667    1.600    1.867    0.533 
#    4.800    2.000    0.000    0.000    0.000    0.000 
#    0.000    0.000    0.000    0.000    0.000    0.000 
#
# Total GULP energy -83589.429066 kJ/mol
# GULP energy per Si atom -5572.628604 kJ/mol
# Density = 2.532287 g / cm^3
# Si number density = 25.380641 Si / 1000 Ang^3
#
#
#
# Elastic Constant Matrix: (Units=GPa)
#
#
# Indices 1 2 3 4 5 6 
#
# 1 134.7069 28.6962 19.3745 7.2920 -34.5202 -11.5368
# 2 28.6962 118.7977 2.6288 20.9584 -15.7653 -0.2823
# 3 19.3745 2.6288 59.2388 13.5872 1.9039 -10.3652
# 4 7.2920 20.9584 13.5872 27.0617 -2.2982 -13.8547
# 5 -34.5202 -15.7653 1.9039 -2.2982 42.8543 9.1944
# 6 -11.5368 -0.2823 -10.3652 -13.8547 9.1944 44.6533
#
#
#
# Elastic Compliance Matrix: (Units=1/GPa)
#
#
# Indices 1 2 3 4 5 6 
#
# 1 0.010280 -0.001592 -0.003740 0.001296 0.007808 0.000572
# 2 -0.001592 0.011038 0.001715 -0.010714 0.002960 -0.003877
# 3 -0.003740 0.001715 0.020801 -0.010337 -0.004188 0.001528
# 4 0.001296 -0.010714 -0.010337 0.058323 -0.002862 0.016553
# 5 0.007808 0.002960 -0.004188 -0.002862 0.032128 -0.006439
# 6 0.000572 -0.003877 0.001528 0.016553 -0.006439 0.029335
#
#
# Mechanical properties :
#
#
# Convention : Reuss Voigt Hill
#
# Bulk Modulus (GPa) = 28.66515 46.01579 37.34047
# Shear Modulus (GPa) = 27.66009 40.38345 34.02177
#
# Velocity S-wave (km/s) = 3.30481 3.99320 3.66520
# Velocity P-wave (km/s) = 5.08733 6.27937 5.71452
#
# Compressibility (1/GPa) = 0.03488556
#
# Stress axis : x y z
#
# Youngs Moduli (GPa) = 97.27348 90.59661 48.07508
#
# Poissons Ratio (x) = 0.14419 0.17979
# Poissons Ratio (y) = 0.15482 -0.08243
# Poissons Ratio (z) = 0.36378 -0.15534
#
# Static dielectric constant tensor:
#      x y z
#    x 2.031080 0.007190 0.031550 
#    y 0.007190 2.087830 0.014600 
#    z 0.031550 0.014600 2.062090 
# 
# From -- ./inp_files/201045.got.cif
#   From: 2010.05.17/outbox.cif.g08.bks.cpg/sg2_101_cif.got.tgz:201045.got - 2010.06.03 11:33:40.
