data_PCOD9065883
_publ_section_title
;
Structure prediction by ZEFSAII (Michael W. Deem and Ramdas Pophale) SiO2 
 PCOD9065883
Probable space group: P -1
;
_chemical_formula_sum "Si O2"
_cell_formula_units_Z 11
_cell_length_a 16.636733
_cell_length_b 8.564861
_cell_length_c 22.497110
_cell_angle_alpha 150.555787
_cell_angle_beta 161.914437
_cell_angle_gamma 40.419528
_cell_volume 440.311813
_symmetry_space_group_name_H-M "P -1"
_symmetry_group_IT_number 2
_symmetry_cell_setting 'triclinic'
loop_
_space_group_symop_operation_xyz
x,y,z
-x,-y,-z
loop_
_atom_site_type_symbol
_atom_site_label
_atom_site_fract_x
_atom_site_fract_y
_atom_site_fract_z
Si Si1 0.532725 0.021046 0.769899
Si Si2 0.299501 0.533656 0.744837
Si Si3 0.064321 0.664162 0.416817
Si Si4 0.000000 0.000000 0.000000
Si Si5 0.512503 0.764083 0.848493
Si Si6 0.224136 0.707326 0.175578
O O1 0.304122 0.165678 0.636762
O O2 0.328318 0.736347 0.579465
O O3 0.693802 0.931507 0.799462
O O4 0.784930 0.350713 0.089509
O O5 0.527207 0.704175 0.908700
O O6 0.000000 0.500000 0.500000
O O7 0.402255 0.824001 0.964979
O O8 0.189998 0.567754 0.532031
O O9 0.000000 0.000000 0.500000
O O10 0.886503 0.131351 0.903133
O O11 0.701336 0.597561 0.898274
O O12 0.500000 0.000000 0.500000
O O13 0.000000 0.500000 0.000000
#
# Coordination Sequence:
#
# PCOD9065883 Si02
#       6
#     2   2   2   1   2   2
#     4  12  27  47  73 109 144 202 248 307 389 455
#     4  11  25  43  73 104 145 194 240 309 382 447
#     4  12  25  45  74 109 149 188 252 318 387 450
#     4  12  28  54  80 110 166 208 264 326 386 470
#     4  11  25  45  69 106 145 190 247 312 374 457
#     4  12  29  51  78 115 154 207 264 316 390 472
#
# _framework density 24.982296000000002
#
# number of rings (size 3 to 8) (size 9 to 14) (size 15 to 20)
#    0.000    0.364    3.636    3.818    7.636    2.909 
#    0.000    0.000    0.000    0.000    0.000    0.000 
#    0.000    0.000    0.000    0.000    0.000    0.000 
#
# Total GULP energy -61257.051489 kJ/mol
# GULP energy per Si atom -5568.822863 kJ/mol
# Density = 2.492544 g / cm^3
# Si number density = 24.982296 Si / 1000 Ang^3
#
#
#
# Elastic Constant Matrix: (Units=GPa)
#
#
# Indices 1 2 3 4 5 6 
#
# 1 199.5204 59.2273 47.1236 -6.7440 24.6585 -10.2508
# 2 59.2273 126.1529 25.2826 -36.2836 -10.2037 -10.8661
# 3 47.1236 25.2826 119.9303 -22.1361 19.7849 -5.2128
# 4 -6.7440 -36.2836 -22.1361 36.0197 7.8481 -7.3044
# 5 24.6585 -10.2037 19.7849 7.8481 32.3123 -11.9954
# 6 -10.2508 -10.8661 -5.2128 -7.3044 -11.9954 51.9406
#
#
#
# Elastic Compliance Matrix: (Units=1/GPa)
#
#
# Indices 1 2 3 4 5 6 
#
# 1 0.007309 -0.004680 -0.001617 -0.003382 -0.005806 -0.001516
# 2 -0.004680 0.015264 0.000427 0.014479 0.006812 0.005922
# 3 -0.001617 0.000427 0.011949 0.009310 -0.008053 0.000419
# 4 -0.003382 0.014479 0.009310 0.050869 -0.007682 0.008675
# 5 -0.005806 0.006812 -0.008053 -0.007682 0.047830 0.009437
# 6 -0.001516 0.005922 0.000419 0.008675 0.009437 0.023634
#
#
# Mechanical properties :
#
#
# Convention : Reuss Voigt Hill
#
# Bulk Modulus (GPa) = 43.89730 78.76341 61.33036
# Shear Modulus (GPa) = 28.37879 44.98586 36.68232
#
# Velocity S-wave (km/s) = 3.37405 4.24808 3.83604
# Velocity P-wave (km/s) = 5.72612 7.46041 6.65004
#
# Compressibility (1/GPa) = 0.02278044
#
# Stress axis : x y z
#
# Youngs Moduli (GPa) = 136.82254 65.51407 83.69077
#
# Poissons Ratio (x) = 0.30662 0.13537
# Poissons Ratio (y) = 0.64036 -0.03575
# Poissons Ratio (z) = 0.22131 -0.02799
#
# Static dielectric constant tensor:
#      x y z
#    x 2.073700 -0.005860 0.073160 
#    y -0.005860 2.101370 0.055310 
#    z 0.073160 0.055310 2.052680 
# 
# From -- ./inp_files/58642.got.cif
#   From: 2010.05.17/outbox.cif.g08.bks.cpg/sg2_30_cif.got.tgz:58642.got - 2010.06.03 11:33:40.
