data_PCOD9065206
_publ_section_title
;
Structure prediction by ZEFSAII (Michael W. Deem and Ramdas Pophale) SiO2 
 PCOD9065206
Probable space group: P -1
;
_chemical_formula_sum "Si O2"
_cell_formula_units_Z 14
_cell_length_a 11.682925
_cell_length_b 5.074468
_cell_length_c 11.289591
_cell_angle_alpha 100.448026
_cell_angle_beta 114.084283
_cell_angle_gamma 109.432751
_cell_volume 535.713022
_symmetry_space_group_name_H-M "P -1"
_symmetry_group_IT_number 2
_symmetry_cell_setting 'triclinic'
loop_
_space_group_symop_operation_xyz
x,y,z
-x,-y,-z
loop_
_atom_site_type_symbol
_atom_site_label
_atom_site_fract_x
_atom_site_fract_y
_atom_site_fract_z
Si Si1 0.708631 0.451747 0.774583
Si Si2 0.450637 0.616407 0.871504
Si Si3 0.704400 0.268576 0.002347
Si Si4 0.625560 0.833312 0.603477
Si Si5 0.977055 0.213706 0.387062
Si Si6 0.010136 0.772227 0.887681
Si Si7 0.747224 0.843760 0.413940
O O1 0.690872 0.473361 0.908672
O O2 0.708124 0.727141 0.724425
O O3 0.862923 0.476432 0.818700
O O4 0.601999 0.109319 0.665596
O O5 0.396863 0.428304 0.713840
O O6 0.570851 0.942911 0.915318
O O7 0.500000 0.500000 0.000000
O O8 0.309905 0.622736 0.864872
O O9 0.849599 0.262439 0.039536
O O10 0.500000 0.500000 0.500000
O O11 0.705113 0.961310 0.523209
O O12 0.985156 0.170170 0.246557
O O13 0.000000 0.500000 0.500000
O O14 0.113743 0.180474 0.486924
O O15 0.812476 0.018066 0.334786
O O16 0.000000 0.000000 0.000000
#
# Coordination Sequence:
#
# PCOD9065206 Si02
#       7
#     2   2   2   2   2   2   2
#     4  12  27  49  77 113 158 201 266 322 410 473
#     4  11  26  48  74 106 149 199 265 323 397 477
#     4  11  27  46  73 109 149 202 260 322 397 476
#     4  12  27  49  76 115 155 207 260 328 400 484
#     4  11  24  47  74 107 150 199 265 324 401 473
#     4  12  26  48  80 115 162 209 266 338 406 482
#     4  11  25  43  76 101 146 195 259 318 393 469
#
# _framework density 26.133396000000001
#
# number of rings (size 3 to 8) (size 9 to 14) (size 15 to 20)
#    0.000    0.571    1.429    5.143    8.000    2.286 
#    0.000    0.000    0.000    0.000    0.000    0.000 
#    0.000    0.000    0.000    0.000    0.000    0.000 
#
# Total GULP energy -78161.780646 kJ/mol
# GULP energy per Si atom -5582.984332 kJ/mol
# Density = 2.607392 g / cm^3
# Si number density = 26.133396 Si / 1000 Ang^3
#
#
#
# Elastic Constant Matrix: (Units=GPa)
#
#
# Indices 1 2 3 4 5 6 
#
# 1 115.8298 9.7689 27.3317 -24.8642 -15.9210 4.6784
# 2 9.7689 78.3838 24.7230 -11.2228 -5.0297 11.2975
# 3 27.3317 24.7230 130.7984 -14.5058 -21.1495 -1.0081
# 4 -24.8642 -11.2228 -14.5058 51.9989 8.3427 -8.6016
# 5 -15.9210 -5.0297 -21.1495 8.3427 51.4261 1.8972
# 6 4.6784 11.2975 -1.0081 -8.6016 1.8972 41.2768
#
#
#
# Elastic Compliance Matrix: (Units=1/GPa)
#
#
# Indices 1 2 3 4 5 6 
#
# 1 0.010110 -0.000074 -0.001339 0.004070 0.001927 -0.000399
# 2 -0.000074 0.014338 -0.002498 0.001730 0.000205 -0.003626
# 3 -0.001339 -0.002498 0.008980 0.001063 0.002820 0.001147
# 4 0.004070 0.001730 0.001063 0.022816 -0.001980 0.003937
# 5 0.001927 0.000205 0.002820 -0.001980 0.021602 -0.001611
# 6 -0.000399 -0.003626 0.001147 0.003937 -0.001611 0.026187
#
#
# Mechanical properties :
#
#
# Convention : Reuss Voigt Hill
#
# Bulk Modulus (GPa) = 39.05124 49.85104 44.45114
# Shear Modulus (GPa) = 41.53184 46.48626 44.00905
#
# Velocity S-wave (km/s) = 3.99083 4.22217 4.10813
# Velocity P-wave (km/s) = 6.01757 6.54873 6.28876
#
# Compressibility (1/GPa) = 0.02560738
#
# Stress axis : x y z
#
# Youngs Moduli (GPa) = 98.91134 69.74390 111.36052
#
# Poissons Ratio (x) = 0.00516 0.14909
# Poissons Ratio (y) = 0.00731 0.27813
# Poissons Ratio (z) = 0.13243 0.17419
#
# Static dielectric constant tensor:
#      x y z
#    x 2.021050 -0.029510 0.212870 
#    y -0.029510 2.255370 -0.037150 
#    z 0.212870 -0.037150 1.670350 
# 
# From -- ./inp_files/409126.got.cif
#   From: 2010.05.17/outbox.cif.g08.bks.cpg/sg2_205_cif.got.tgz:409126.got - 2010.06.03 11:33:40.
