data_PCOD9065887
_publ_section_title
;
Structure prediction by ZEFSAII (Michael W. Deem and Ramdas Pophale) SiO2 
 PCOD9065887
Probable space group: P -1
;
_chemical_formula_sum "Si O2"
_cell_formula_units_Z 16
_cell_length_a 12.041536
_cell_length_b 9.615937
_cell_length_c 8.558121
_cell_angle_alpha 71.147869
_cell_angle_beta 47.272146
_cell_angle_gamma 72.909321
_cell_volume 684.905428
_symmetry_space_group_name_H-M "P -1"
_symmetry_group_IT_number 2
_symmetry_cell_setting 'triclinic'
loop_
_space_group_symop_operation_xyz
x,y,z
-x,-y,-z
loop_
_atom_site_type_symbol
_atom_site_label
_atom_site_fract_x
_atom_site_fract_y
_atom_site_fract_z
Si Si1 0.108319 0.125654 0.665179
Si Si2 0.797603 0.722802 0.000324
Si Si3 0.472980 0.665402 0.806758
Si Si4 0.133017 0.813012 0.602236
Si Si5 0.370710 0.122460 0.640746
Si Si6 0.671248 0.443482 0.305977
Si Si7 0.228738 0.400054 0.275442
Si Si8 0.184769 0.742560 0.214422
O O1 0.206957 0.097726 0.735728
O O2 0.157541 0.276972 0.491141
O O3 0.927596 0.160979 0.830522
O O4 0.148431 0.981706 0.572266
O O5 0.665902 0.839255 0.158262
O O6 0.781485 0.572677 0.168425
O O7 0.767746 0.676015 0.869348
O O8 0.964641 0.775444 0.826071
O O9 0.567468 0.741103 0.557414
O O10 0.354242 0.588257 0.841273
O O11 0.604936 0.587222 0.816040
O O12 0.357354 0.762490 0.995195
O O13 0.256272 0.699160 0.616701
O O14 0.150800 0.791132 0.407311
O O15 0.500000 0.000000 0.500000
O O16 0.500000 0.500000 0.500000
O O17 0.155519 0.569241 0.295107
#
# Coordination Sequence:
#
# PCOD9065887 Si02
#       8
#     2   2   2   2   2   2   2   2
#     4  11  27  48  72 104 151 193 243 301 368 438
#     4  12  27  45  77 105 150 187 251 298 370 431
#     4  11  25  43  73 107 141 189 243 300 362 428
#     4  12  29  47  73 111 150 193 244 304 370 436
#     4  11  27  48  71 104 149 196 243 299 372 438
#     4  12  25  47  74 107 148 191 246 300 366 437
#     4  11  25  47  75 110 146 194 245 305 360 437
#     4  12  25  44  76 107 149 188 248 300 368 434
#
# _framework density 23.360889
#
# number of rings (size 3 to 8) (size 9 to 14) (size 15 to 20)
#    0.000    0.500    3.750    3.000    7.000    0.500 
#    0.000    2.500    0.000    0.000    0.000    0.000 
#    0.000    0.000    0.000    0.000    0.000    0.000 
#
# Total GULP energy -89377.534687 kJ/mol
# GULP energy per Si atom -5586.095918 kJ/mol
# Density = 2.330772 g / cm^3
# Si number density = 23.360889 Si / 1000 Ang^3
#
#
#
# Elastic Constant Matrix: (Units=GPa)
#
#
# Indices 1 2 3 4 5 6 
#
# 1 86.0911 19.4042 1.1769 -0.4157 -10.8041 -7.1120
# 2 19.4042 79.4151 3.8199 7.3778 1.4899 12.5008
# 3 1.1769 3.8199 74.5874 2.6102 -17.9404 8.3424
# 4 -0.4157 7.3778 2.6102 32.6771 6.0893 -3.6117
# 5 -10.8041 1.4899 -17.9404 6.0893 25.6518 9.4766
# 6 -7.1120 12.5008 8.3424 -3.6117 9.4766 38.7499
#
#
#
# Elastic Compliance Matrix: (Units=1/GPa)
#
#
# Indices 1 2 3 4 5 6 
#
# 1 0.013350 -0.003740 0.001193 0.000026 0.005949 0.001947
# 2 -0.003740 0.014855 0.000451 -0.004362 0.001234 -0.006284
# 3 0.001193 0.000451 0.019095 -0.006104 0.018668 -0.009172
# 4 0.000026 -0.004362 -0.006104 0.036236 -0.016338 0.010099
# 5 0.005949 0.001234 0.018668 -0.016338 0.066117 -0.021018
# 6 0.001947 -0.006284 -0.009172 0.010099 -0.021018 0.036247
#
#
# Mechanical properties :
#
#
# Convention : Reuss Voigt Hill
#
# Bulk Modulus (GPa) = 23.19752 32.09949 27.64851
# Shear Modulus (GPa) = 24.45443 33.79527 29.12485
#
# Velocity S-wave (km/s) = 3.23896 3.80762 3.53474
# Velocity P-wave (km/s) = 4.89279 5.75336 5.34044
#
# Compressibility (1/GPa) = 0.04310806
#
# Stress axis : x y z
#
# Youngs Moduli (GPa) = 74.90771 67.31530 52.36982
#
# Poissons Ratio (x) = 0.25174 -0.06248
# Poissons Ratio (y) = 0.28014 -0.02360
# Poissons Ratio (z) = -0.08937 -0.03033
#
# Static dielectric constant tensor:
#      x y z
#    x 1.888580 0.036660 0.012550 
#    y 0.036660 2.026910 0.002540 
#    z 0.012550 0.002540 1.942060 
# 
# From -- ./inp_files/243333.got.cif
#   From: 2010.05.17/outbox.cif.g08.bks.cpg/sg2_122_cif.got.tgz:243333.got - 2010.06.03 11:33:40.
