data_PCOD9065156
_publ_section_title
;
Structure prediction by ZEFSAII (Michael W. Deem and Ramdas Pophale) SiO2 
 PCOD9065156
Probable space group: P -1
;
_chemical_formula_sum "Si O2"
_cell_formula_units_Z 14
_cell_length_a 5.369573
_cell_length_b 12.555030
_cell_length_c 13.946801
_cell_angle_alpha 42.570755
_cell_angle_beta 104.404997
_cell_angle_gamma 106.138097
_cell_volume 609.591364
_symmetry_space_group_name_H-M "P -1"
_symmetry_group_IT_number 2
_symmetry_cell_setting 'triclinic'
loop_
_space_group_symop_operation_xyz
x,y,z
-x,-y,-z
loop_
_atom_site_type_symbol
_atom_site_label
_atom_site_fract_x
_atom_site_fract_y
_atom_site_fract_z
Si Si1 0.270667 0.098068 0.892464
Si Si2 0.814140 0.950641 0.860905
Si Si3 0.573541 0.616929 0.018847
Si Si4 0.661049 0.209939 0.553944
Si Si5 0.542028 0.539790 0.367873
Si Si6 0.112322 0.505873 0.193505
Si Si7 0.930676 0.843913 0.534724
O O1 0.323184 0.281728 0.749092
O O2 0.175819 0.102342 0.991870
O O3 0.121133 0.008932 0.845726
O O4 0.500000 0.000000 0.000000
O O5 0.700221 0.112402 0.719124
O O6 0.664272 0.804759 0.883757
O O7 0.322931 0.591783 0.080931
O O8 0.835795 0.566518 0.123431
O O9 0.500000 0.500000 0.000000
O O10 0.697374 0.400973 0.437095
O O11 0.363138 0.164048 0.524746
O O12 0.863229 0.160278 0.528692
O O13 0.500000 0.500000 0.500000
O O14 0.268416 0.527596 0.293689
O O15 0.063281 0.316543 0.296475
O O16 0.000000 0.000000 0.500000
#
# Coordination Sequence:
#
# PCOD9065156 Si02
#       7
#     2   2   2   2   2   2   2
#     4  11  24  47  73 102 148 194 245 314 374 439
#     4  11  27  43  72 105 145 189 254 304 373 442
#     4  12  27  47  75 106 148 200 244 314 372 446
#     4  11  27  46  72 111 144 191 251 303 364 457
#     4  11  24  47  77 108 152 200 245 313 386 454
#     4  11  25  48  70 111 143 189 256 302 372 447
#     4  11  26  46  76 101 148 194 245 309 370 437
#
# _framework density 22.966203
#
# number of rings (size 3 to 8) (size 9 to 14) (size 15 to 20)
#    0.000    0.857    1.429    4.286   10.000    1.714 
#    2.571    0.000    0.000    0.000    0.000    0.000 
#    0.000    0.000    0.000    0.000    0.000    0.000 
#
# Total GULP energy -78197.287763 kJ/mol
# GULP energy per Si atom -5585.520555 kJ/mol
# Density = 2.291393 g / cm^3
# Si number density = 22.966203 Si / 1000 Ang^3
#
#
#
# Elastic Constant Matrix: (Units=GPa)
#
#
# Indices 1 2 3 4 5 6 
#
# 1 96.6648 26.6009 24.1805 -3.6711 -3.6742 -4.8860
# 2 26.6009 114.0808 23.5554 -18.0702 -15.0364 -1.9158
# 3 24.1805 23.5554 125.3033 -19.4877 -4.0271 4.1044
# 4 -3.6711 -18.0702 -19.4877 33.8009 3.4815 -7.2661
# 5 -3.6742 -15.0364 -4.0271 3.4815 27.1041 0.6504
# 6 -4.8860 -1.9158 4.1044 -7.2661 0.6504 22.4539
#
#
#
# Elastic Compliance Matrix: (Units=1/GPa)
#
#
# Indices 1 2 3 4 5 6 
#
# 1 0.011587 -0.002349 -0.001969 -0.000597 -0.000008 0.002488
# 2 -0.002349 0.010961 -0.000719 0.005126 0.004947 0.002071
# 3 -0.001969 -0.000719 0.009232 0.004559 0.000137 -0.000706
# 4 -0.000597 0.005126 0.004559 0.037571 -0.001666 0.011680
# 5 -0.000008 0.004947 0.000137 -0.001666 0.039904 -0.001300
# 6 0.002488 0.002071 -0.000706 0.011680 -0.001300 0.049200
#
#
# Mechanical properties :
#
#
# Convention : Reuss Voigt Hill
#
# Bulk Modulus (GPa) = 46.07023 53.85807 49.96415
# Shear Modulus (GPa) = 28.44725 34.11925 31.28325
#
# Velocity S-wave (km/s) = 3.52327 3.85857 3.69473
# Velocity P-wave (km/s) = 6.05432 6.58432 6.32488
#
# Compressibility (1/GPa) = 0.02170599
#
# Stress axis : x y z
#
# Youngs Moduli (GPa) = 86.30540 91.23582 108.31578
#
# Poissons Ratio (x) = 0.21432 0.21327
# Poissons Ratio (y) = 0.20273 0.07786
# Poissons Ratio (z) = 0.16993 0.06558
#
# Static dielectric constant tensor:
#      x y z
#    x 1.744160 0.110270 0.013120 
#    y 0.110270 1.882930 -0.028910 
#    z 0.013120 -0.028910 1.837700 
# 
# From -- ./inp_files/106913.got.cif
#   From: 2010.05.17/outbox.cif.g08.bks.cpg/sg2_54_cif.got.tgz:106913.got - 2010.06.03 11:33:40.
