data_PCOD9065317
_publ_section_title
;
Structure prediction by ZEFSAII (Michael W. Deem and Ramdas Pophale) SiO2 
 PCOD9065317
Probable space group: P -1
;
_chemical_formula_sum "Si O2"
_cell_formula_units_Z 10
_cell_length_a 10.902838
_cell_length_b 5.218060
_cell_length_c 13.929209
_cell_angle_alpha 72.943212
_cell_angle_beta 146.691597
_cell_angle_gamma 117.059190
_cell_volume 381.376007
_symmetry_space_group_name_H-M "P -1"
_symmetry_group_IT_number 2
_symmetry_cell_setting 'triclinic'
loop_
_space_group_symop_operation_xyz
x,y,z
-x,-y,-z
loop_
_atom_site_type_symbol
_atom_site_label
_atom_site_fract_x
_atom_site_fract_y
_atom_site_fract_z
Si Si1 0.277930 0.185914 0.369651
Si Si2 0.939881 0.670442 0.527852
Si Si3 0.832310 0.289976 0.996157
Si Si4 0.655637 0.346008 0.065081
Si Si5 0.492795 0.860422 0.669818
O O1 0.500000 0.500000 0.500000
O O2 0.325444 0.073426 0.309122
O O3 0.298953 0.986664 0.491257
O O4 0.015779 0.190301 0.186747
O O5 0.104208 0.629452 0.724125
O O6 0.000000 0.500000 0.500000
O O7 0.656065 0.485453 0.383545
O O8 0.000000 0.000000 0.500000
O O9 0.624007 0.027032 0.832463
O O10 0.728033 0.440639 0.991714
O O11 0.000000 0.500000 0.000000
O O12 0.500000 0.500000 0.000000
O O13 0.500000 0.000000 0.000000
#
# Coordination Sequence:
#
# PCOD9065317 Si02
#       5
#     2   2   2   2   2
#     4  11  24  47  81 122 167 217 272 353 427 510
#     4  12  29  52  83 116 165 227 284 344 418 508
#     4  12  27  50  86 125 170 219 285 352 432 506
#     4  12  30  55  83 121 171 224 286 350 426 514
#     4  11  27  48  80 121 169 216 283 349 430 499
#
# _framework density 26.220842000000001
#
# number of rings (size 3 to 8) (size 9 to 14) (size 15 to 20)
#    0.000    0.400    2.000    4.200   11.200    4.800 
#    0.000    0.000    0.000    0.000    0.000    0.000 
#    0.000    0.000    0.000    0.000    0.000    0.000 
#
# Total GULP energy -56139.760964 kJ/mol
# GULP energy per Si atom -5613.976096 kJ/mol
# Density = 2.616116 g / cm^3
# Si number density = 26.220842 Si / 1000 Ang^3
#
#
#
# Elastic Constant Matrix: (Units=GPa)
#
#
# Indices 1 2 3 4 5 6 
#
# 1 210.7744 53.5461 65.7535 -3.0052 -28.4196 -17.3200
# 2 53.5461 173.4752 66.8093 9.2847 -0.6841 -6.3880
# 3 65.7535 66.8093 235.8778 -4.4325 -15.7399 -15.3536
# 4 -3.0052 9.2847 -4.4325 49.5976 -9.8302 7.6048
# 5 -28.4196 -0.6841 -15.7399 -9.8302 36.9437 7.0943
# 6 -17.3200 -6.3880 -15.3536 7.6048 7.0943 44.7323
#
#
#
# Elastic Compliance Matrix: (Units=1/GPa)
#
#
# Indices 1 2 3 4 5 6 
#
# 1 0.006115 -0.001570 -0.000877 0.001336 0.004483 0.000904
# 2 -0.001570 0.007040 -0.001726 -0.002148 -0.002493 0.000565
# 3 -0.000877 -0.001726 0.005146 0.000926 0.001584 0.000772
# 4 0.001336 -0.002148 0.000926 0.023130 0.008448 -0.004744
# 5 0.004483 -0.002493 0.001584 0.008448 0.034346 -0.004960
# 6 0.000904 0.000565 0.000772 -0.004744 -0.004960 0.024644
#
#
# Mechanical properties :
#
#
# Convention : Reuss Voigt Hill
#
# Bulk Modulus (GPa) = 100.45708 110.26059 105.35884
# Shear Modulus (GPa) = 44.60904 55.18927 49.89916
#
# Velocity S-wave (km/s) = 4.12913 4.59277 4.36711
# Velocity P-wave (km/s) = 7.81845 8.38253 8.10540
#
# Compressibility (1/GPa) = 0.00995450
#
# Stress axis : x y z
#
# Youngs Moduli (GPa) = 163.54196 142.04616 194.32129
#
# Poissons Ratio (x) = 0.22306 0.17035
# Poissons Ratio (y) = 0.25681 0.33543
# Poissons Ratio (z) = 0.14337 0.24520
#
# Static dielectric constant tensor:
#      x y z
#    x 2.027800 -0.025870 -0.016070 
#    y -0.025870 2.164040 0.055240 
#    z -0.016070 0.055240 2.078920 
# 
# From -- ./inp_files/510305.got.cif
#   From: 2010.05.17/outbox.cif.g08.bks.cpg/sg2_256_cif.got.tgz:510305.got - 2010.06.03 11:33:40.
