data_PCOD9065595
_publ_section_title
;
Structure prediction by ZEFSAII (Michael W. Deem and Ramdas Pophale) SiO2 
 PCOD9065595
Probable space group: P -1
;
_chemical_formula_sum "Si O2"
_cell_formula_units_Z 13
_cell_length_a 9.258401
_cell_length_b 9.272348
_cell_length_c 11.922504
_cell_angle_alpha 128.371297
_cell_angle_beta 87.321737
_cell_angle_gamma 126.305599
_cell_volume 557.091433
_symmetry_space_group_name_H-M "P -1"
_symmetry_group_IT_number 2
_symmetry_cell_setting 'triclinic'
loop_
_space_group_symop_operation_xyz
x,y,z
-x,-y,-z
loop_
_atom_site_type_symbol
_atom_site_label
_atom_site_fract_x
_atom_site_fract_y
_atom_site_fract_z
Si Si1 0.816864 0.449921 0.928271
Si Si2 0.256247 0.821062 0.423603
Si Si3 0.421402 0.010859 0.888012
Si Si4 0.715683 0.474763 0.451356
Si Si5 0.000000 0.500000 0.500000
Si Si6 0.784659 0.782658 0.969525
Si Si7 0.573668 0.669566 0.406917
O O1 0.828100 0.381291 0.769503
O O2 0.612600 0.210553 0.891681
O O3 0.820920 0.674167 0.019212
O O4 0.000000 0.500000 0.000000
O O5 0.151528 0.677621 0.472667
O O6 0.500000 0.000000 0.500000
O O7 0.250584 0.031149 0.496460
O O8 0.268139 0.721120 0.693398
O O9 0.308432 0.100667 0.948368
O O10 0.500000 0.000000 0.000000
O O11 0.938474 0.676446 0.596074
O O12 0.669547 0.566220 0.395387
O O13 0.534929 0.342105 0.483689
O O14 0.604656 0.527586 0.773408
O O15 0.000000 0.000000 0.000000
#
# Coordination Sequence:
#
# PCOD9065595 Si02
#       7
#     2   2   2   2   1   2   2
#     4  12  27  47  74 111 153 201 251 324 385 458
#     4  12  24  50  78 108 152 197 254 315 380 447
#     4  12  25  47  72 106 150 200 250 311 388 455
#     4  11  25  44  75 109 145 198 253 310 378 453
#     4  12  26  44  80 112 140 200 256 312 372 456
#     4  12  27  46  75 110 149 200 260 313 387 463
#     4  11  24  49  75 104 155 200 247 318 383 447
#
# _framework density 23.33549
#
# number of rings (size 3 to 8) (size 9 to 14) (size 15 to 20)
#    0.000    0.308    6.154    1.385    6.462    0.615 
#    0.000    0.000    0.000    0.000    0.000    0.000 
#    0.000    0.000    0.000    0.000    0.000    0.000 
#
# Total GULP energy -72540.665100 kJ/mol
# GULP energy per Si atom -5580.051162 kJ/mol
# Density = 2.328238 g / cm^3
# Si number density = 23.335490 Si / 1000 Ang^3
#
#
#
# Elastic Constant Matrix: (Units=GPa)
#
#
# Indices 1 2 3 4 5 6 
#
# 1 195.1906 75.6746 38.0040 3.7935 -11.1618 -28.9044
# 2 75.6746 176.5222 23.3655 -15.5141 -9.3476 -1.4062
# 3 38.0040 23.3655 74.6842 -7.6557 -24.8332 -15.7271
# 4 3.7935 -15.5141 -7.6557 30.6875 -7.5607 1.8395
# 5 -11.1618 -9.3476 -24.8332 -7.5607 34.4101 -0.8482
# 6 -28.9044 -1.4062 -15.7271 1.8395 -0.8482 54.5110
#
#
#
# Elastic Compliance Matrix: (Units=1/GPa)
#
#
# Indices 1 2 3 4 5 6 
#
# 1 0.007369 -0.003145 -0.002946 -0.003750 -0.001338 0.003082
# 2 -0.003145 0.007523 0.000124 0.004844 0.002139 -0.001568
# 3 -0.002946 0.000124 0.022952 0.010295 0.018027 0.004996
# 4 -0.003750 0.004844 0.010295 0.042211 0.016802 -0.000056
# 5 -0.001338 0.002139 0.018027 0.016802 0.046026 0.004696
# 6 0.003082 -0.001568 0.004996 -0.000056 0.004696 0.021455
#
#
# Mechanical properties :
#
#
# Convention : Reuss Voigt Hill
#
# Bulk Modulus (GPa) = 38.59551 80.05392 59.32472
# Shear Modulus (GPa) = 29.74323 44.54524 37.14423
#
# Velocity S-wave (km/s) = 3.57402 4.37384 3.99400
# Velocity P-wave (km/s) = 5.79713 7.73870 6.83719
#
# Compressibility (1/GPa) = 0.02590975
#
# Stress axis : x y z
#
# Youngs Moduli (GPa) = 135.70603 132.92002 43.56998
#
# Poissons Ratio (x) = 0.41803 0.12837
# Poissons Ratio (y) = 0.42679 -0.00541
# Poissons Ratio (z) = 0.39983 -0.01652
#
# Static dielectric constant tensor:
#      x y z
#    x 1.595400 -0.044500 -0.437450 
#    y -0.044500 1.808210 0.080800 
#    z -0.437450 0.080800 1.482780 
# 
# From -- ./inp_files/183924.got.cif
#   From: 2010.05.17/outbox.cif.g08.bks.cpg/sg2_92_cif.got.tgz:183924.got - 2010.06.03 11:33:40.
