data_PCOD9065350
_publ_section_title
;
Structure prediction by ZEFSAII (Michael W. Deem and Ramdas Pophale) SiO2 
 PCOD9065350
Probable space group: P -1
;
_chemical_formula_sum "Si O2"
_cell_formula_units_Z 14
_cell_length_a 17.604628
_cell_length_b 12.001408
_cell_length_c 8.124853
_cell_angle_alpha 49.052037
_cell_angle_beta 147.711175
_cell_angle_gamma 144.370886
_cell_volume 531.397531
_symmetry_space_group_name_H-M "P -1"
_symmetry_group_IT_number 2
_symmetry_cell_setting 'triclinic'
loop_
_space_group_symop_operation_xyz
x,y,z
-x,-y,-z
loop_
_atom_site_type_symbol
_atom_site_label
_atom_site_fract_x
_atom_site_fract_y
_atom_site_fract_z
Si Si1 0.508194 0.149614 0.211322
Si Si2 0.932801 0.358365 0.860350
Si Si3 0.497568 0.561634 0.251334
Si Si4 0.598241 0.786561 0.693523
Si Si5 0.726110 0.251134 0.018281
Si Si6 0.093126 0.178093 0.234237
Si Si7 0.881723 0.098343 0.646356
O O1 0.717054 0.232123 0.546967
O O2 0.437343 0.175836 0.226020
O O3 0.536256 0.289629 0.983888
O O4 0.360261 0.928397 0.096179
O O5 0.076829 0.533376 0.831055
O O6 0.000000 0.500000 0.000000
O O7 0.976369 0.213592 0.098337
O O8 0.500000 0.500000 0.500000
O O9 0.379437 0.374324 0.104339
O O10 0.706269 0.677441 0.460187
O O11 0.769644 0.952860 0.735217
O O12 0.424225 0.722614 0.322480
O O13 0.763666 0.162261 0.321661
O O14 0.088676 0.999771 0.350773
O O15 0.075767 0.243127 0.957133
#
# Coordination Sequence:
#
# PCOD9065350 Si02
#       7
#     2   2   2   2   2   2   2
#     4  12  27  48  74 110 147 197 243 307 375 437
#     4  12  27  48  76 110 151 193 249 307 373 441
#     4  12  24  47  73 104 147 192 244 305 372 441
#     4  12  24  46  75 103 152 190 248 304 372 445
#     4  12  25  46  75 111 147 195 248 305 370 438
#     4  11  24  48  70 106 149 188 250 306 360 447
#     4  11  26  45  76 111 143 199 250 303 374 430
#
# _framework density 26.345627
#
# number of rings (size 3 to 8) (size 9 to 14) (size 15 to 20)
#    0.000    0.286    5.714    2.143    4.000    1.714 
#    0.000    1.429    0.000    0.000    0.000    0.000 
#    0.000    0.000    0.000    0.000    0.000    0.000 
#
# Total GULP energy -78067.939331 kJ/mol
# GULP energy per Si atom -5576.281381 kJ/mol
# Density = 2.628566 g / cm^3
# Si number density = 26.345627 Si / 1000 Ang^3
#
#
#
# Elastic Constant Matrix: (Units=GPa)
#
#
# Indices 1 2 3 4 5 6 
#
# 1 79.6402 36.8454 16.8970 0.4792 10.7871 -14.7391
# 2 36.8454 112.3782 11.2025 -6.7089 1.6650 -13.6227
# 3 16.8970 11.2025 108.0451 -4.3059 7.4649 2.2081
# 4 0.4792 -6.7089 -4.3059 46.7626 2.4258 4.5211
# 5 10.7871 1.6650 7.4649 2.4258 37.2643 -6.3744
# 6 -14.7391 -13.6227 2.2081 4.5211 -6.3744 36.7031
#
#
#
# Elastic Compliance Matrix: (Units=1/GPa)
#
#
# Indices 1 2 3 4 5 6 
#
# 1 0.016440 -0.004663 -0.002006 -0.001295 -0.003281 0.004581
# 2 -0.004663 0.010802 -0.000472 0.001273 0.001260 0.002227
# 3 -0.002006 -0.000472 0.009829 0.001146 -0.001788 -0.002024
# 4 -0.001295 0.001273 0.001146 0.022090 -0.001891 -0.003166
# 5 -0.003281 0.001260 -0.001788 -0.001891 0.028984 0.004525
# 6 0.004581 0.002227 -0.002024 -0.003166 0.004525 0.031209
#
#
# Mechanical properties :
#
#
# Convention : Reuss Voigt Hill
#
# Bulk Modulus (GPa) = 43.88593 47.77258 45.82925
# Shear Modulus (GPa) = 35.40242 39.82059 37.61151
#
# Velocity S-wave (km/s) = 3.66972 3.89198 3.78248
# Velocity P-wave (km/s) = 5.88640 6.19428 6.04230
#
# Compressibility (1/GPa) = 0.02278635
#
# Stress axis : x y z
#
# Youngs Moduli (GPa) = 60.82862 92.57620 101.74315
#
# Poissons Ratio (x) = 0.43172 0.20410
# Poissons Ratio (y) = 0.28367 0.04807
# Poissons Ratio (z) = 0.12202 0.04374
#
# Static dielectric constant tensor:
#      x y z
#    x 2.401290 0.100310 0.008120 
#    y 0.100310 2.210480 0.068030 
#    z 0.008120 0.068030 2.209710 
# 
# From -- ./inp_files/332998.got.cif
#   From: 2010.05.17/outbox.cif.g08.bks.cpg/sg2_167_cif.got.tgz:332998.got - 2010.06.03 11:33:40.
