data_PCOD9065662
_publ_section_title
;
Structure prediction by ZEFSAII (Michael W. Deem and Ramdas Pophale) SiO2 
 PCOD9065662
Probable space group: P -1
;
_chemical_formula_sum "Si O2"
_cell_formula_units_Z 11
_cell_length_a 14.677841
_cell_length_b 6.410951
_cell_length_c 7.494137
_cell_angle_alpha 111.087861
_cell_angle_beta 138.114690
_cell_angle_gamma 85.390252
_cell_volume 418.913024
_symmetry_space_group_name_H-M "P -1"
_symmetry_group_IT_number 2
_symmetry_cell_setting 'triclinic'
loop_
_space_group_symop_operation_xyz
x,y,z
-x,-y,-z
loop_
_atom_site_type_symbol
_atom_site_label
_atom_site_fract_x
_atom_site_fract_y
_atom_site_fract_z
Si Si1 0.031028 0.805479 0.353723
Si Si2 0.233167 0.625173 0.784861
Si Si3 0.641015 0.926309 0.725895
Si Si4 0.726137 0.500726 0.780737
Si Si5 0.707443 0.017096 0.471445
Si Si6 0.500000 0.500000 0.000000
O O1 0.081741 0.603294 0.469504
O O2 0.154387 0.937297 0.436163
O O3 0.000000 0.000000 0.500000
O O4 0.882837 0.661255 0.001175
O O5 0.340134 0.525587 0.801387
O O6 0.251728 0.547683 0.991803
O O7 0.289873 0.909743 0.961177
O O8 0.620553 0.657304 0.647645
O O9 0.742485 0.984702 0.720125
O O10 0.500000 0.000000 0.500000
O O11 0.673462 0.264626 0.518059
O O12 0.572776 0.791105 0.169974
#
# Coordination Sequence:
#
# PCOD9065662 Si02
#       6
#     2   2   2   2   2   1
#     4  12  25  50  77 113 153 201 254 310 381 451
#     4  11  26  47  77 111 149 204 246 318 377 448
#     4  11  24  50  73 113 151 204 247 309 386 451
#     4  11  26  50  76 112 156 197 252 311 381 457
#     4  11  28  46  76 111 149 203 249 316 373 453
#     4  12  26  50  70 114 152 194 264 310 380 438
#
# _framework density 26.258434999999999
#
# number of rings (size 3 to 8) (size 9 to 14) (size 15 to 20)
#    0.000    0.727    3.636    2.182    2.545    5.818 
#    0.000    0.000    0.000    0.000    0.000    0.000 
#    0.000    0.000    0.000    0.000    0.000    0.000 
#
# Total GULP energy -61297.903697 kJ/mol
# GULP energy per Si atom -5572.536700 kJ/mol
# Density = 2.619867 g / cm^3
# Si number density = 26.258435 Si / 1000 Ang^3
#
#
#
# Elastic Constant Matrix: (Units=GPa)
#
#
# Indices 1 2 3 4 5 6 
#
# 1 130.2548 79.6938 27.4493 -18.7067 13.7602 -2.3449
# 2 79.6938 214.3276 64.3594 -1.9303 7.7189 -31.6357
# 3 27.4493 64.3594 86.1414 7.2476 15.2702 -1.3552
# 4 -18.7067 -1.9303 7.2476 58.6720 1.0139 9.5968
# 5 13.7602 7.7189 15.2702 1.0139 26.6581 5.3204
# 6 -2.3449 -31.6357 -1.3552 9.5968 5.3204 43.7201
#
#
#
# Elastic Compliance Matrix: (Units=1/GPa)
#
#
# Indices 1 2 3 4 5 6 
#
# 1 0.011394 -0.004531 0.000107 0.004040 -0.004177 -0.003043
# 2 -0.004531 0.008709 -0.005123 -0.001542 0.001604 0.006043
# 3 0.000107 -0.005123 0.016911 -0.001788 -0.007825 -0.001832
# 4 0.004040 -0.001542 -0.001788 0.019352 -0.000320 -0.005163
# 5 -0.004177 0.001604 -0.007825 -0.000320 0.044630 -0.004667
# 6 -0.003043 0.006043 -0.001832 -0.005163 -0.004667 0.028727
#
#
# Mechanical properties :
#
#
# Convention : Reuss Voigt Hill
#
# Bulk Modulus (GPa) = 55.80105 85.96986 70.88545
# Shear Modulus (GPa) = 32.30210 43.09148 37.69679
#
# Velocity S-wave (km/s) = 3.51117 4.05539 3.79305
# Velocity P-wave (km/s) = 6.14285 7.39859 6.79977
#
# Compressibility (1/GPa) = 0.01792081
#
# Stress axis : x y z
#
# Youngs Moduli (GPa) = 87.76871 114.82165 59.13402
#
# Poissons Ratio (x) = 0.52026 -0.00635
# Poissons Ratio (y) = 0.39768 0.30292
# Poissons Ratio (z) = -0.00942 0.58819
#
# Static dielectric constant tensor:
#      x y z
#    x 2.093160 0.068870 -0.038690 
#    y 0.068870 2.071810 -0.076000 
#    z -0.038690 -0.076000 2.126970 
# 
# From -- ./inp_files/26347.got.cif
#   From: 2010.05.17/outbox.cif.g08.bks.cpg/sg2_14_cif.got.tgz:26347.got - 2010.06.03 11:33:40.
