data_PCOD9065340
_publ_section_title
;
Structure prediction by ZEFSAII (Michael W. Deem and Ramdas Pophale) SiO2 
 PCOD9065340
Probable space group: P -1
;
_chemical_formula_sum "Si O2"
_cell_formula_units_Z 15
_cell_length_a 7.026861
_cell_length_b 5.359143
_cell_length_c 20.992000
_cell_angle_alpha 58.207904
_cell_angle_beta 83.719130
_cell_angle_gamma 94.461750
_cell_volume 659.241211
_symmetry_space_group_name_H-M "P -1"
_symmetry_group_IT_number 2
_symmetry_cell_setting 'triclinic'
loop_
_space_group_symop_operation_xyz
x,y,z
-x,-y,-z
loop_
_atom_site_type_symbol
_atom_site_label
_atom_site_fract_x
_atom_site_fract_y
_atom_site_fract_z
Si Si1 0.213446 0.492749 0.330722
Si Si2 0.608165 0.834199 0.464691
Si Si3 0.907242 0.638281 0.923214
Si Si4 0.659375 0.106969 0.927189
Si Si5 0.886524 0.800207 0.235372
Si Si6 0.000000 0.000000 0.500000
Si Si7 0.550233 0.908453 0.317095
Si Si8 0.464246 0.503255 0.786696
O O1 0.343916 0.700167 0.349297
O O2 0.379192 0.428513 0.284889
O O3 0.069139 0.663253 0.272727
O O4 0.097318 0.212815 0.408480
O O5 0.500000 0.500000 0.500000
O O6 0.824404 0.845495 0.479788
O O7 0.600218 0.998695 0.375501
O O8 0.500000 0.000000 0.500000
O O9 0.816524 0.361811 0.919546
O O10 0.753153 0.837489 0.930241
O O11 0.044432 0.876151 0.841786
O O12 0.000000 0.500000 0.000000
O O13 0.545185 0.267310 0.857887
O O14 0.500000 0.000000 0.000000
O O15 0.737184 0.781063 0.302516
O O16 0.753382 0.611820 0.212593
O O17 0.535072 0.167718 0.231278
#
# Coordination Sequence:
#
# PCOD9065340 Si02
#       8
#     2   2   2   2   2   1   2   2
#     4  11  24  48  69 111 145 200 257 320 387 462
#     4  12  28  50  72 110 150 195 256 322 384 459
#     4  12  27  48  77 113 155 197 255 307 374 461
#     4  12  27  47  77 111 156 199 247 313 376 451
#     4  11  26  45  75 108 147 197 255 313 385 456
#     4  12  26  44  82 100 152 202 260 314 396 458
#     4  11  26  45  74 103 154 199 253 323 389 454
#     4  11  25  46  72 104 153 197 250 318 382 449
#
# _framework density 22.753432
#
# number of rings (size 3 to 8) (size 9 to 14) (size 15 to 20)
#    0.000    0.533    2.667    4.000    9.333    4.800 
#    0.000    0.000    0.000    0.000    0.000    0.000 
#    0.000    0.000    0.000    0.000    0.000    0.000 
#
# Total GULP energy -83601.850646 kJ/mol
# GULP energy per Si atom -5573.456710 kJ/mol
# Density = 2.270164 g / cm^3
# Si number density = 22.753432 Si / 1000 Ang^3
#
#
#
# Elastic Constant Matrix: (Units=GPa)
#
#
# Indices 1 2 3 4 5 6 
#
# 1 128.7287 32.5669 47.8169 -7.0579 14.1242 26.3965
# 2 32.5669 67.0192 6.5110 -0.2927 -5.2490 11.3155
# 3 47.8169 6.5110 145.7618 -7.0225 -4.9229 15.9062
# 4 -7.0579 -0.2927 -7.0225 33.9179 14.8998 -2.3976
# 5 14.1242 -5.2490 -4.9229 14.8998 45.3831 -8.5665
# 6 26.3965 11.3155 15.9062 -2.3976 -8.5665 42.8209
#
#
#
# Elastic Compliance Matrix: (Units=1/GPa)
#
#
# Indices 1 2 3 4 5 6 
#
# 1 0.012822 -0.005397 -0.003278 0.004915 -0.007820 -0.006549
# 2 -0.005397 0.017965 0.001103 -0.002839 0.004608 -0.001067
# 3 -0.003278 0.001103 0.008052 0.000137 0.001807 -0.000893
# 4 0.004915 -0.002839 0.000137 0.036643 -0.014473 -0.003174
# 5 -0.007820 0.004608 0.001807 -0.014473 0.031540 0.008431
# 6 -0.006549 -0.001067 -0.000893 -0.003174 0.008431 0.029513
#
#
# Mechanical properties :
#
#
# Convention : Reuss Voigt Hill
#
# Bulk Modulus (GPa) = 42.20231 57.25549 49.72890
# Shear Modulus (GPa) = 31.33290 41.39871 36.36580
#
# Velocity S-wave (km/s) = 3.71490 4.27013 4.00216
# Velocity P-wave (km/s) = 6.08183 7.03776 6.57718
#
# Compressibility (1/GPa) = 0.02369538
#
# Stress axis : x y z
#
# Youngs Moduli (GPa) = 77.99253 55.66265 124.20005
#
# Poissons Ratio (x) = 0.30043 0.40709
# Poissons Ratio (y) = 0.42095 -0.13704
# Poissons Ratio (z) = 0.25563 -0.06142
#
# Static dielectric constant tensor:
#      x y z
#    x 1.688590 0.010940 -0.140620 
#    y 0.010940 1.904890 0.028390 
#    z -0.140620 0.028390 1.703460 
# 
# From -- ./inp_files/603066.got.cif
#   From: 2010.05.17/outbox.cif.g08.bks.cpg/sg2_302_cif.got.tgz:603066.got - 2010.06.03 11:33:40.
