data_PCOD9065108
_publ_section_title
;
Structure prediction by ZEFSAII (Michael W. Deem and Ramdas Pophale) SiO2 
 PCOD9065108
Probable space group: P -1
;
_chemical_formula_sum "Si O2"
_cell_formula_units_Z 14
_cell_length_a 9.179532
_cell_length_b 5.641373
_cell_length_c 18.975933
_cell_angle_alpha 116.720741
_cell_angle_beta 59.149246
_cell_angle_gamma 135.577899
_cell_volume 584.774665
_symmetry_space_group_name_H-M "P -1"
_symmetry_group_IT_number 2
_symmetry_cell_setting 'triclinic'
loop_
_space_group_symop_operation_xyz
x,y,z
-x,-y,-z
loop_
_atom_site_type_symbol
_atom_site_label
_atom_site_fract_x
_atom_site_fract_y
_atom_site_fract_z
Si Si1 0.860682 0.356431 0.743299
Si Si2 0.569171 0.348204 0.178255
Si Si3 0.623026 0.350901 0.676653
Si Si4 0.403372 0.111777 0.483824
Si Si5 0.945387 0.325814 0.114940
Si Si6 0.023043 0.044027 0.417022
Si Si7 0.650208 0.543023 0.032356
O O1 0.789832 0.495223 0.720038
O O2 0.992820 0.600164 0.808539
O O3 0.629800 0.007903 0.783158
O O4 0.993874 0.251827 0.658161
O O5 0.566208 0.641350 0.250337
O O6 0.801752 0.439037 0.145130
O O7 0.522741 0.315335 0.101975
O O8 0.745768 0.612796 0.617013
O O9 0.580068 0.016286 0.613496
O O10 0.500000 0.500000 0.500000
O O11 0.500000 0.000000 0.500000
O O12 0.163062 0.928783 0.550322
O O13 0.792199 0.929543 0.077983
O O14 0.174545 0.502894 0.042178
O O15 0.000000 0.000000 0.500000
O O16 0.500000 0.500000 0.000000
#
# Coordination Sequence:
#
# PCOD9065108 Si02
#       7
#     2   2   2   2   2   2   2
#     4  11  26  45  72 102 147 193 244 310 373 449
#     4  11  25  45  70 106 144 186 243 302 378 446
#     4  11  25  47  70  98 148 197 242 313 380 448
#     4  12  28  44  73 110 146 196 262 323 380 452
#     4  11  25  44  73 108 140 191 242 301 369 457
#     4  11  24  47  72 100 144 199 252 308 386 448
#     4  11  25  47  74 103 149 188 239 301 376 453
#
# _framework density 23.940844999999999
#
# number of rings (size 3 to 8) (size 9 to 14) (size 15 to 20)
#    0.000    0.857    1.429    4.286    6.000    8.000 
#    0.000    0.000    0.000    0.000    0.000    0.000 
#    0.000    0.000    0.000    0.000    0.000    0.000 
#
# Total GULP energy -78391.716433 kJ/mol
# GULP energy per Si atom -5599.408317 kJ/mol
# Density = 2.388635 g / cm^3
# Si number density = 23.940845 Si / 1000 Ang^3
#
#
#
# Elastic Constant Matrix: (Units=GPa)
#
#
# Indices 1 2 3 4 5 6 
#
# 1 159.7433 10.1648 86.3295 -0.0510 -25.8567 -6.4868
# 2 10.1648 68.2569 50.3889 5.7367 0.9184 -2.8991
# 3 86.3295 50.3889 199.8996 6.3772 -15.1687 -0.5376
# 4 -0.0510 5.7367 6.3772 51.8823 -5.8865 4.1009
# 5 -25.8567 0.9184 -15.1687 -5.8865 60.9142 -2.7472
# 6 -6.4868 -2.8991 -0.5376 4.1009 -2.7472 25.9031
#
#
#
# Elastic Compliance Matrix: (Units=1/GPa)
#
#
# Indices 1 2 3 4 5 6 
#
# 1 0.008929 0.001711 -0.004074 0.000446 0.002909 0.002581
# 2 0.001711 0.018694 -0.005463 -0.001707 -0.000965 0.002575
# 3 -0.004074 -0.005463 0.008166 -0.000260 0.000299 -0.001389
# 4 0.000446 -0.001707 -0.000260 0.019956 0.001942 -0.003038
# 5 0.002909 -0.000965 0.000299 0.001942 0.018029 0.002231
# 6 0.002581 0.002575 -0.001389 -0.003038 0.002231 0.040229
#
#
# Mechanical properties :
#
#
# Convention : Reuss Voigt Hill
#
# Bulk Modulus (GPa) = 49.65953 80.18512 64.92233
# Shear Modulus (GPa) = 36.66582 46.47437 41.57010
#
# Velocity S-wave (km/s) = 3.91771 4.41070 4.17149
# Velocity P-wave (km/s) = 6.42279 7.71394 7.09778
#
# Compressibility (1/GPa) = 0.02013712
#
# Stress axis : x y z
#
# Youngs Moduli (GPa) = 112.00027 53.49173 122.45817
#
# Poissons Ratio (x) = -0.09150 0.49885
# Poissons Ratio (y) = -0.19159 0.66898
# Poissons Ratio (z) = 0.45625 0.29222
#
# Static dielectric constant tensor:
#      x y z
#    x 1.951750 0.045980 -0.033080 
#    y 0.045980 1.999940 -0.017260 
#    z -0.033080 -0.017260 1.953210 
# 
# From -- ./inp_files/138829.got.cif
#   From: 2010.05.17/outbox.cif.g08.bks.cpg/sg2_70_cif.got.tgz:138829.got - 2010.06.03 11:33:40.
