data_PCOD9065061
_publ_section_title
;
Structure prediction by ZEFSAII (Michael W. Deem and Ramdas Pophale) SiO2 
 PCOD9065061
Probable space group: P -1
;
_chemical_formula_sum "Si O2"
_cell_formula_units_Z 10
_cell_length_a 4.824889
_cell_length_b 11.384120
_cell_length_c 7.636687
_cell_angle_alpha 81.913142
_cell_angle_beta 67.747945
_cell_angle_gamma 69.553285
_cell_volume 363.746606
_symmetry_space_group_name_H-M "P -1"
_symmetry_group_IT_number 2
_symmetry_cell_setting 'triclinic'
loop_
_space_group_symop_operation_xyz
x,y,z
-x,-y,-z
loop_
_atom_site_type_symbol
_atom_site_label
_atom_site_fract_x
_atom_site_fract_y
_atom_site_fract_z
Si Si1 0.203393 0.440683 0.595255
Si Si2 0.449994 0.532099 0.804149
Si Si3 0.780471 0.191275 0.105020
Si Si4 0.181643 0.167163 0.671991
Si Si5 0.253424 0.071209 0.297971
O O1 0.500000 0.500000 0.500000
O O2 0.248073 0.448724 0.796133
O O3 0.254258 0.294559 0.586215
O O4 0.816497 0.516115 0.648528
O O5 0.264409 0.679859 0.808067
O O6 0.500000 0.500000 0.000000
O O7 0.455413 0.161681 0.178634
O O8 0.014005 0.083090 0.193480
O O9 0.916888 0.196450 0.878892
O O10 0.099510 0.119065 0.513939
O O11 0.487522 0.062774 0.699817
#
# Coordination Sequence:
#
# PCOD9065061 Si02
#       5
#     2   2   2   2   2
#     4  11  24  47  70 107 144 191 243 303 366 433
#     4  11  26  44  73 105 145 191 244 302 367 436
#     4  12  26  48  75 106 148 190 247 294 368 432
#     4  11  25  45  77 103 149 191 243 300 363 431
#     4  11  27  49  71 112 145 194 240 302 360 438
#
# _framework density 27.491669000000002
#
# number of rings (size 3 to 8) (size 9 to 14) (size 15 to 20)
#    0.000    0.800    2.000    3.600    2.800    8.000 
#    7.200    0.000    0.000    0.000    0.000    0.000 
#    0.000    0.000    0.000    0.000    0.000    0.000 
#
# Total GULP energy -56067.555972 kJ/mol
# GULP energy per Si atom -5606.755597 kJ/mol
# Density = 2.742910 g / cm^3
# Si number density = 27.491669 Si / 1000 Ang^3
#
#
#
# Elastic Constant Matrix: (Units=GPa)
#
#
# Indices 1 2 3 4 5 6 
#
# 1 166.6743 3.3642 45.6648 -4.3109 10.5522 -2.5714
# 2 3.3642 138.9491 12.2967 1.5503 -5.6910 -0.3391
# 3 45.6648 12.2967 211.8248 -5.7567 -14.2511 -4.1917
# 4 -4.3109 1.5503 -5.7567 47.4181 -2.7355 4.9791
# 5 10.5522 -5.6910 -14.2511 -2.7355 42.1522 -3.8645
# 6 -2.5714 -0.3391 -4.1917 4.9791 -3.8645 30.7823
#
#
#
# Elastic Compliance Matrix: (Units=1/GPa)
#
#
# Indices 1 2 3 4 5 6 
#
# 1 0.006571 -0.000114 -0.001547 0.000286 -0.002163 0.000019
# 2 -0.000114 0.007270 -0.000341 -0.000256 0.000894 0.000178
# 3 -0.001547 -0.000341 0.005254 0.000556 0.002225 0.000772
# 4 0.000286 -0.000256 0.000556 0.021600 0.001186 -0.003248
# 5 -0.002163 0.000894 0.002225 0.001186 0.025503 0.003142
# 6 0.000019 0.000178 0.000772 -0.003248 0.003142 0.033515
#
#
# Mechanical properties :
#
#
# Convention : Reuss Voigt Hill
#
# Bulk Modulus (GPa) = 66.26540 71.12219 68.69379
# Shear Modulus (GPa) = 45.97851 54.47869 50.22860
#
# Velocity S-wave (km/s) = 4.09400 4.45640 4.27904
# Velocity P-wave (km/s) = 6.81938 7.23919 7.03242
#
# Compressibility (1/GPa) = 0.01509083
#
# Stress axis : x y z
#
# Youngs Moduli (GPa) = 152.19389 137.55682 190.32220
#
# Poissons Ratio (x) = 0.01567 0.29447
# Poissons Ratio (y) = 0.01733 0.06485
# Poissons Ratio (z) = 0.23548 0.04687
#
# Static dielectric constant tensor:
#      x y z
#    x 1.855310 -0.114130 -0.340010 
#    y -0.114130 2.042800 -0.176030 
#    z -0.340010 -0.176030 1.563100 
# 
# From -- ./inp_files/130704.got.cif
#   From: 2010.05.17/outbox.cif.g08.bks.cpg/sg2_66_cif.got.tgz:130704.got - 2010.06.03 11:33:40.
