data_PCOD9065695
_publ_section_title
;
Structure prediction by ZEFSAII (Michael W. Deem and Ramdas Pophale) SiO2 
 PCOD9065695
Probable space group: P -1
;
_chemical_formula_sum "Si O2"
_cell_formula_units_Z 14
_cell_length_a 31.569304
_cell_length_b 13.108410
_cell_length_c 15.591905
_cell_angle_alpha 151.908606
_cell_angle_beta 162.123860
_cell_angle_gamma 18.950478
_cell_volume 632.698124
_symmetry_space_group_name_H-M "P -1"
_symmetry_group_IT_number 2
_symmetry_cell_setting 'triclinic'
loop_
_space_group_symop_operation_xyz
x,y,z
-x,-y,-z
loop_
_atom_site_type_symbol
_atom_site_label
_atom_site_fract_x
_atom_site_fract_y
_atom_site_fract_z
Si Si1 0.300977 0.720816 0.221226
Si Si2 0.988534 0.564427 0.768135
Si Si3 0.939363 0.320963 0.729551
Si Si4 0.325524 0.338284 0.369663
Si Si5 0.989444 0.730853 0.703934
Si Si6 0.770007 0.409128 0.285748
Si Si7 0.450913 0.613047 0.714970
O O1 0.500000 0.500000 0.500000
O O2 0.377092 0.576878 0.166812
O O3 0.186922 0.081312 0.267403
O O4 0.145109 0.726529 0.963657
O O5 0.034209 0.618854 0.805126
O O6 0.898919 0.428037 0.490682
O O7 0.181266 0.354458 0.045753
O O8 0.814326 0.394063 0.627005
O O9 0.801888 0.452793 0.477011
O O10 0.129650 0.944287 0.796342
O O11 0.000000 0.500000 0.000000
O O12 0.418063 0.415471 0.545084
O O13 0.500000 0.000000 0.500000
O O14 0.000000 0.500000 0.500000
O O15 0.760147 0.078681 0.506954
O O16 0.537834 0.665321 0.996808
#
# Coordination Sequence:
#
# PCOD9065695 Si02
#       7
#     2   2   2   2   2   2   2
#     4  12  25  48  78 103 151 203 252 311 378 447
#     4  12  25  48  75 111 147 200 255 309 380 455
#     4  11  24  51  74 107 150 202 254 308 373 450
#     4  12  27  45  76 108 155 197 251 314 376 448
#     4  12  28  47  73 109 155 195 252 317 374 460
#     4  11  27  44  80 109 148 199 253 311 380 450
#     4  12  27  48  71 115 150 198 256 308 387 449
#
# _framework density 22.127455999999999
#
# number of rings (size 3 to 8) (size 9 to 14) (size 15 to 20)
#    0.000    0.286    4.286    3.857    8.000    2.857 
#    0.000    0.000    0.000    0.000    0.000    0.000 
#    0.000    0.000    0.000    0.000    0.000    0.000 
#
# Total GULP energy -78413.737946 kJ/mol
# GULP energy per Si atom -5600.981282 kJ/mol
# Density = 2.207709 g / cm^3
# Si number density = 22.127456 Si / 1000 Ang^3
#
#
#
# Elastic Constant Matrix: (Units=GPa)
#
#
# Indices 1 2 3 4 5 6 
#
# 1 100.6693 21.1267 30.8198 -3.0930 -3.8965 4.0532
# 2 21.1267 90.4453 38.4086 4.9820 -10.6481 6.9500
# 3 30.8198 38.4086 142.3597 -0.2311 -8.4537 4.4335
# 4 -3.0930 4.9820 -0.2311 41.0806 9.5880 -3.0038
# 5 -3.8965 -10.6481 -8.4537 9.5880 40.4194 -0.6772
# 6 4.0532 6.9500 4.4335 -3.0038 -0.6772 33.6965
#
#
#
# Elastic Compliance Matrix: (Units=1/GPa)
#
#
# Indices 1 2 3 4 5 6 
#
# 1 0.010932 -0.001772 -0.001871 0.000994 -0.000051 -0.000616
# 2 -0.001772 0.013463 -0.002980 -0.002740 0.003363 -0.002348
# 3 -0.001871 -0.002980 0.008285 0.000077 0.000745 -0.000229
# 4 0.000994 -0.002740 0.000077 0.026546 -0.006862 0.002664
# 5 -0.000051 0.003363 0.000745 -0.006862 0.027391 -0.000847
# 6 -0.000616 -0.002348 -0.000229 0.002664 -0.000847 0.030486
#
#
# Mechanical properties :
#
#
# Convention : Reuss Voigt Hill
#
# Bulk Modulus (GPa) = 51.45846 57.13162 54.29504
# Shear Modulus (GPa) = 36.54237 39.24725 37.89481
#
# Velocity S-wave (km/s) = 4.06821 4.21609 4.14281
# Velocity P-wave (km/s) = 6.73596 7.04102 6.89017
#
# Compressibility (1/GPa) = 0.01943315
#
# Stress axis : x y z
#
# Youngs Moduli (GPa) = 91.47826 74.27585 120.69991
#
# Poissons Ratio (x) = 0.13165 0.22578
# Poissons Ratio (y) = 0.16215 0.35972
# Poissons Ratio (z) = 0.17112 0.22136
#
# Static dielectric constant tensor:
#      x y z
#    x 1.673030 0.053540 -0.101990 
#    y 0.053540 1.779260 0.012840 
#    z -0.101990 0.012840 1.809750 
# 
# From -- ./inp_files/544972.got.cif
#   From: 2010.05.17/outbox.cif.g08.bks.cpg/sg2_273_cif.got.tgz:544972.got - 2010.06.03 11:33:40.
