data_PCOD9065146
_publ_section_title
;
Structure prediction by ZEFSAII (Michael W. Deem and Ramdas Pophale) SiO2 
 PCOD9065146
Probable space group: P -1
;
_chemical_formula_sum "Si O2"
_cell_formula_units_Z 16
_cell_length_a 9.171230
_cell_length_b 8.717051
_cell_length_c 8.175403
_cell_angle_alpha 88.841596
_cell_angle_beta 90.571744
_cell_angle_gamma 98.166821
_cell_volume 646.814224
_symmetry_space_group_name_H-M "P -1"
_symmetry_group_IT_number 2
_symmetry_cell_setting 'triclinic'
loop_
_space_group_symop_operation_xyz
x,y,z
-x,-y,-z
loop_
_atom_site_type_symbol
_atom_site_label
_atom_site_fract_x
_atom_site_fract_y
_atom_site_fract_z
Si Si1 0.062623 0.349272 0.430873
Si Si2 0.278367 0.824730 0.094415
Si Si3 0.531859 0.930514 0.323886
Si Si4 0.237426 0.216700 0.195912
Si Si5 0.445900 0.618874 0.871547
Si Si6 0.095261 0.888932 0.344627
Si Si7 0.181781 0.047981 0.864260
Si Si8 0.624530 0.601353 0.395662
O O1 0.119482 0.329817 0.246156
O O2 0.220426 0.345295 0.520023
O O3 0.000000 0.500000 0.500000
O O4 0.950938 0.194535 0.483796
O O5 0.413810 0.939835 0.176940
O O6 0.187778 0.768809 0.256301
O O7 0.354133 0.720988 0.976763
O O8 0.157646 0.900651 0.986785
O O9 0.689461 0.995055 0.250368
O O10 0.549103 0.749416 0.340950
O O11 0.500000 0.000000 0.500000
O O12 0.408728 0.289274 0.217073
O O13 0.188637 0.060323 0.310704
O O14 0.227507 0.176839 0.002769
O O15 0.345731 0.513747 0.745764
O O16 0.500000 0.500000 0.000000
O O17 0.945329 0.904925 0.248422
O O18 0.500000 0.500000 0.500000
#
# Coordination Sequence:
#
# PCOD9065146 Si02
#       8
#     2   2   2   2   2   2   2   2
#     4  12  29  49  74 110 152 199 249 305 384 448
#     4  11  25  44  76 109 143 193 248 302 371 444
#     4  12  27  44  75 111 143 190 251 309 364 439
#     4  11  24  47  78 103 151 196 246 314 365 440
#     4  12  25  46  75 109 153 196 250 308 369 446
#     4  11  27  48  75 110 149 192 253 309 379 441
#     4  11  24  47  72 112 143 189 249 307 377 428
#     4  12  27  48  72 106 150 194 245 304 370 441
#
# _framework density 24.736623000000002
#
# number of rings (size 3 to 8) (size 9 to 14) (size 15 to 20)
#    0.000    0.500    5.000    2.250   10.500    3.000 
#    0.000    1.250    0.000    0.000    0.000    0.000 
#    0.000    0.000    0.000    0.000    0.000    0.000 
#
# Total GULP energy -89331.236825 kJ/mol
# GULP energy per Si atom -5583.202302 kJ/mol
# Density = 2.468032 g / cm^3
# Si number density = 24.736623 Si / 1000 Ang^3
#
#
#
# Elastic Constant Matrix: (Units=GPa)
#
#
# Indices 1 2 3 4 5 6 
#
# 1 86.6080 13.9761 26.0555 15.2901 -21.6238 -14.3130
# 2 13.9761 94.0267 30.0086 17.4032 -10.0120 -8.9259
# 3 26.0555 30.0086 100.8170 41.2016 -31.9393 -3.5066
# 4 15.2901 17.4032 41.2016 58.0620 -8.5953 -12.9121
# 5 -21.6238 -10.0120 -31.9393 -8.5953 59.4783 12.9479
# 6 -14.3130 -8.9259 -3.5066 -12.9121 12.9479 44.1783
#
#
#
# Elastic Compliance Matrix: (Units=1/GPa)
#
#
# Indices 1 2 3 4 5 6 
#
# 1 0.013636 -0.000646 -0.001865 -0.000962 0.003064 0.002960
# 2 -0.000646 0.012019 -0.003123 -0.000869 -0.000415 0.001839
# 3 -0.001865 -0.003123 0.018577 -0.011781 0.008296 -0.005635
# 4 -0.000962 -0.000869 -0.011781 0.027164 -0.004609 0.007868
# 5 0.003064 -0.000415 0.008296 -0.004609 0.023070 -0.006541
# 6 0.002960 0.001839 -0.005635 0.007868 -0.006541 0.027735
#
#
# Mechanical properties :
#
#
# Convention : Reuss Voigt Hill
#
# Bulk Modulus (GPa) = 30.33637 46.83690 38.58664
# Shear Modulus (GPa) = 34.61226 46.43782 40.52504
#
# Velocity S-wave (km/s) = 3.74469 4.33747 4.05193
# Velocity P-wave (km/s) = 5.56662 6.63779 6.12566
#
# Compressibility (1/GPa) = 0.03296374
#
# Stress axis : x y z
#
# Youngs Moduli (GPa) = 73.33761 83.20010 53.82904
#
# Poissons Ratio (x) = 0.05377 0.10039
# Poissons Ratio (y) = 0.04740 0.16810
# Poissons Ratio (z) = 0.13678 0.25982
#
# Static dielectric constant tensor:
#      x y z
#    x 1.958670 0.004420 -0.033120 
#    y 0.004420 2.001880 0.004660 
#    z -0.033120 0.004660 2.066070 
# 
# From -- ./inp_files/158732.got.cif
#   From: 2010.05.17/outbox.cif.g08.bks.cpg/sg2_80_cif.got.tgz:158732.got - 2010.06.03 11:33:40.
