data_PCOD9065999
_publ_section_title
;
Structure prediction by ZEFSAII (Michael W. Deem and Ramdas Pophale) SiO2 
 PCOD9065999
Probable space group: P -1
;
_chemical_formula_sum "Si O2"
_cell_formula_units_Z 14
_cell_length_a 7.975630
_cell_length_b 13.623306
_cell_length_c 9.158109
_cell_angle_alpha 60.159316
_cell_angle_beta 46.508656
_cell_angle_gamma 53.396483
_cell_volume 572.994743
_symmetry_space_group_name_H-M "P -1"
_symmetry_group_IT_number 2
_symmetry_cell_setting 'triclinic'
loop_
_space_group_symop_operation_xyz
x,y,z
-x,-y,-z
loop_
_atom_site_type_symbol
_atom_site_label
_atom_site_fract_x
_atom_site_fract_y
_atom_site_fract_z
Si Si1 0.097046 0.425593 0.754805
Si Si2 0.663365 0.829143 0.116765
Si Si3 0.660643 0.307833 0.583762
Si Si4 0.756940 0.405913 0.744265
Si Si5 0.488107 0.125645 0.482410
Si Si6 0.016490 0.888445 0.677517
Si Si7 0.618707 0.645342 0.809403
O O1 0.388076 0.403986 0.614790
O O2 0.357487 0.237823 0.364259
O O3 0.020725 0.394121 0.663488
O O4 0.864699 0.556363 0.822903
O O5 0.429527 0.798819 0.225256
O O6 0.612170 0.860542 0.298139
O O7 0.896854 0.691969 0.071035
O O8 0.757763 0.909140 0.897290
O O9 0.761864 0.366258 0.606530
O O10 0.869711 0.237207 0.392122
O O11 0.592643 0.550086 0.773539
O O12 0.627488 0.327842 0.965138
O O13 0.768147 0.122017 0.329147
O O14 0.500000 0.000000 0.500000
O O15 0.000000 0.000000 0.500000
#
# Coordination Sequence:
#
# PCOD9065999 Si02
#       7
#     2   2   2   2   2   2   2
#     4   8  18  40  68 102 139 178 222 296 342 419
#     4   9  22  44  68 100 146 174 236 297 343 420
#     4   9  21  41  70 103 139 187 234 284 363 417
#     4   9  18  38  70 107 145 183 226 296 357 412
#     4  11  25  44  71 102 137 190 239 281 351 430
#     4  11  25  45  66  98 146 189 239 296 341 421
#     4   9  20  39  69 105 148 176 235 293 355 418
#
# _framework density 24.433035
#
# number of rings (size 3 to 8) (size 9 to 14) (size 15 to 20)
#    1.714    0.857    0.000    0.857    0.000    7.429 
#    0.000    4.286    0.000    0.000    0.000    0.000 
#    0.000    0.000    0.000    0.000    0.000    0.000 
#
# Total GULP energy -78045.604050 kJ/mol
# GULP energy per Si atom -5574.686004 kJ/mol
# Density = 2.437742 g / cm^3
# Si number density = 24.433035 Si / 1000 Ang^3
#
#
#
# Elastic Constant Matrix: (Units=GPa)
#
#
# Indices 1 2 3 4 5 6 
#
# 1 109.5406 12.9797 17.3227 24.0509 -0.2504 7.8634
# 2 12.9797 72.0287 10.9043 -17.0068 6.7968 5.2097
# 3 17.3227 10.9043 120.7905 -26.8727 -23.8589 7.5833
# 4 24.0509 -17.0068 -26.8727 33.5944 0.9998 0.1310
# 5 -0.2504 6.7968 -23.8589 0.9998 27.1010 11.7225
# 6 7.8634 5.2097 7.5833 0.1310 11.7225 38.4346
#
#
#
# Elastic Compliance Matrix: (Units=1/GPa)
#
#
# Indices 1 2 3 4 5 6 
#
# 1 0.014930 -0.005809 -0.006471 -0.018703 -0.003469 0.000131
# 2 -0.005809 0.018591 0.001960 0.015237 -0.003211 -0.000791
# 3 -0.006471 0.001960 0.017050 0.018786 0.017038 -0.007566
# 4 -0.018703 0.015237 0.018786 0.065541 0.012746 -0.006056
# 5 -0.003469 -0.003211 0.017038 0.012746 0.061262 -0.020945
# 6 0.000131 -0.000791 -0.007566 -0.006056 -0.020945 0.034000
#
#
# Mechanical properties :
#
#
# Convention : Reuss Voigt Hill
#
# Bulk Modulus (GPa) = 33.41034 42.75258 38.08146
# Shear Modulus (GPa) = 20.66202 37.23621 28.94911
#
# Velocity S-wave (km/s) = 2.91118 3.90809 3.44588
# Velocity P-wave (km/s) = 5.00039 6.15631 5.60821
#
# Compressibility (1/GPa) = 0.02993085
#
# Stress axis : x y z
#
# Youngs Moduli (GPa) = 66.98082 53.78915 58.65210
#
# Poissons Ratio (x) = 0.31245 0.37954
# Poissons Ratio (y) = 0.38908 -0.11496
# Poissons Ratio (z) = 0.43343 -0.10542
#
# Static dielectric constant tensor:
#      x y z
#    x 1.974540 -0.081200 -0.009000 
#    y -0.081200 2.083180 -0.017270 
#    z -0.009000 -0.017270 1.956370 
# 
# From -- ./inp_files/192606.got.cif
#   From: 2010.05.17/outbox.cif.g08.bks.cpg/sg2_97_cif.got.tgz:192606.got - 2010.06.03 11:33:40.
