data_PCOD9065572
_publ_section_title
;
Structure prediction by ZEFSAII (Michael W. Deem and Ramdas Pophale) SiO2 
 PCOD9065572
Probable space group: P -1
;
_chemical_formula_sum "Si O2"
_cell_formula_units_Z 15
_cell_length_a 8.941092
_cell_length_b 9.042232
_cell_length_c 9.606558
_cell_angle_alpha 117.610831
_cell_angle_beta 91.032265
_cell_angle_gamma 106.332983
_cell_volume 650.313800
_symmetry_space_group_name_H-M "P -1"
_symmetry_group_IT_number 2
_symmetry_cell_setting 'triclinic'
loop_
_space_group_symop_operation_xyz
x,y,z
-x,-y,-z
loop_
_atom_site_type_symbol
_atom_site_label
_atom_site_fract_x
_atom_site_fract_y
_atom_site_fract_z
Si Si1 0.820218 0.392223 0.407720
Si Si2 0.463151 0.136472 0.954681
Si Si3 0.984530 0.727410 0.136091
Si Si4 0.000000 0.000000 0.500000
Si Si5 0.732253 0.729320 0.561404
Si Si6 0.451149 0.891961 0.592472
Si Si7 0.851621 0.821640 0.915186
Si Si8 0.206106 0.647568 0.919303
O O1 0.721300 0.527294 0.443502
O O2 0.726517 0.248925 0.457873
O O3 0.820132 0.301607 0.217672
O O4 0.000000 0.500000 0.500000
O O5 0.454463 0.043280 0.767629
O O6 0.301042 0.152174 0.008395
O O7 0.608264 0.318084 0.045629
O O8 0.500000 0.000000 0.000000
O O9 0.978702 0.887588 0.300524
O O10 0.908301 0.550526 0.145406
O O11 0.892980 0.695058 0.972675
O O12 0.160377 0.757220 0.091749
O O13 0.851054 0.845547 0.499474
O O14 0.575331 0.787600 0.581745
O O15 0.809248 0.761678 0.731014
O O16 0.500000 0.000000 0.500000
O O17 0.000000 0.000000 0.000000
#
# Coordination Sequence:
#
# PCOD9065572 Si02
#       8
#     2   2   2   1   2   2   2   2
#     4  12  27  46  78 111 152 198 249 313 386 450
#     4  12  24  46  73  97 139 196 241 293 367 444
#     4  11  25  43  74 108 144 190 248 308 367 449
#     4  12  24  42  74 106 144 200 248 306 370 444
#     4  12  26  47  73 106 156 194 253 312 381 447
#     4  12  30  48  76 110 150 198 257 315 378 449
#     4  12  25  43  72 105 140 192 245 294 370 443
#     4  11  24  49  73 103 149 194 244 303 377 441
#
# _framework density 23.065788999999999
#
# number of rings (size 3 to 8) (size 9 to 14) (size 15 to 20)
#    0.000    0.267    5.333    2.800    5.600    3.733 
#    0.000    0.000    0.000    0.000    0.000    0.000 
#    0.000    0.000    0.000    0.000    0.000    0.000 
#
# Total GULP energy -83643.954166 kJ/mol
# GULP energy per Si atom -5576.263611 kJ/mol
# Density = 2.301329 g / cm^3
# Si number density = 23.065789 Si / 1000 Ang^3
#
#
#
# Elastic Constant Matrix: (Units=GPa)
#
#
# Indices 1 2 3 4 5 6 
#
# 1 112.9901 36.8324 35.9043 -2.4707 -6.6784 28.8979
# 2 36.8324 93.4301 25.1026 -18.0304 -2.8198 34.6935
# 3 35.9043 25.1026 136.1375 -14.7554 -24.0445 25.5330
# 4 -2.4707 -18.0304 -14.7554 35.8774 7.4056 -6.6683
# 5 -6.6784 -2.8198 -24.0445 7.4056 32.4520 -2.4769
# 6 28.8979 34.6935 25.5330 -6.6683 -2.4769 42.6464
#
#
#
# Elastic Compliance Matrix: (Units=1/GPa)
#
#
# Indices 1 2 3 4 5 6 
#
# 1 0.011536 -0.002693 -0.001695 -0.002389 0.001053 -0.004923
# 2 -0.002693 0.017151 0.000145 0.006679 -0.001340 -0.011248
# 3 -0.001695 0.000145 0.009862 0.001949 0.006205 -0.004209
# 4 -0.002389 0.006679 0.001949 0.033081 -0.006028 -0.000160
# 5 0.001053 -0.001340 0.006205 -0.006028 0.036724 -0.002149
# 6 -0.004923 -0.011248 -0.004209 -0.000160 -0.002149 0.038305
#
#
# Mechanical properties :
#
#
# Convention : Reuss Voigt Hill
#
# Bulk Modulus (GPa) = 33.26466 59.80403 46.53435
# Shear Modulus (GPa) = 30.27195 38.50972 34.39084
#
# Velocity S-wave (km/s) = 3.62666 4.09046 3.86552
# Velocity P-wave (km/s) = 5.65596 6.94932 6.33573
#
# Compressibility (1/GPa) = 0.03006193
#
# Stress axis : x y z
#
# Youngs Moduli (GPa) = 86.68333 58.30440 101.39438
#
# Poissons Ratio (x) = 0.15704 0.17190
# Poissons Ratio (y) = 0.23347 -0.01467
# Poissons Ratio (z) = 0.14696 -0.00844
#
# Static dielectric constant tensor:
#      x y z
#    x 2.029840 -0.036050 0.106880 
#    y -0.036050 1.862260 -0.036910 
#    z 0.106880 -0.036910 1.884990 
# 
# From -- ./inp_files/159796.got.cif
#   From: 2010.05.17/outbox.cif.g08.bks.cpg/sg2_80_cif.got.tgz:159796.got - 2010.06.03 11:33:40.
