data_PCOD9065625
_publ_section_title
;
Structure prediction by ZEFSAII (Michael W. Deem and Ramdas Pophale) SiO2 
 PCOD9065625
Probable space group: P -1
;
_chemical_formula_sum "Si O2"
_cell_formula_units_Z 14
_cell_length_a 5.367312
_cell_length_b 11.160451
_cell_length_c 12.223220
_cell_angle_alpha 120.310327
_cell_angle_beta 106.705535
_cell_angle_gamma 105.020000
_cell_volume 528.147916
_symmetry_space_group_name_H-M "P -1"
_symmetry_group_IT_number 2
_symmetry_cell_setting 'triclinic'
loop_
_space_group_symop_operation_xyz
x,y,z
-x,-y,-z
loop_
_atom_site_type_symbol
_atom_site_label
_atom_site_fract_x
_atom_site_fract_y
_atom_site_fract_z
Si Si1 0.050444 0.144324 0.289302
Si Si2 0.901155 0.352847 0.764124
Si Si3 0.698105 0.290213 0.940426
Si Si4 0.490265 0.604440 0.674536
Si Si5 0.098688 0.681153 0.497168
Si Si6 0.826838 0.030767 0.590373
Si Si7 0.173071 0.165136 0.980721
O O1 0.218892 0.318908 0.332656
O O2 0.840703 0.155729 0.361392
O O3 0.213933 0.073390 0.354234
O O4 0.944153 0.024016 0.117910
O O5 0.672168 0.302837 0.812740
O O6 0.001691 0.219870 0.720453
O O7 0.803600 0.341734 0.621378
O O8 0.138915 0.531846 0.907152
O O9 0.386902 0.199969 0.919064
O O10 0.913664 0.213354 0.956195
O O11 0.266031 0.425993 0.604615
O O12 0.605029 0.719833 0.845897
O O13 0.270300 0.630782 0.580680
O O14 0.500000 0.000000 0.500000
O O15 0.000000 0.000000 0.500000
#
# Coordination Sequence:
#
# PCOD9065625 Si02
#       7
#     2   2   2   2   2   2   2
#     4  12  27  46  78 113 157 201 258 321 389 453
#     4  11  24  49  78 110 157 197 257 317 381 462
#     4  11  28  48  79 114 153 206 254 314 392 457
#     4  11  27  49  75 113 153 208 261 312 385 464
#     4  11  25  50  78 114 151 206 258 321 385 460
#     4  12  27  45  74 114 154 198 248 316 390 451
#     4  12  28  51  80 114 157 202 261 318 384 460
#
# _framework density 26.507725000000001
#
# number of rings (size 3 to 8) (size 9 to 14) (size 15 to 20)
#    0.000    0.571    4.286    1.714    6.000    6.286 
#    2.571    0.000    0.000    0.000    0.000    0.000 
#    0.000    0.000    0.000    0.000    0.000    0.000 
#
# Total GULP energy -78179.507774 kJ/mol
# GULP energy per Si atom -5584.250555 kJ/mol
# Density = 2.644739 g / cm^3
# Si number density = 26.507725 Si / 1000 Ang^3
#
#
#
# Elastic Constant Matrix: (Units=GPa)
#
#
# Indices 1 2 3 4 5 6 
#
# 1 116.4116 23.3034 64.5659 -0.1799 -25.2995 15.6131
# 2 23.3034 54.1016 9.7868 0.4501 -0.7206 -2.3924
# 3 64.5659 9.7868 182.1061 -9.0578 -25.7956 -14.0518
# 4 -0.1799 0.4501 -9.0578 59.1038 -7.5217 -6.9553
# 5 -25.2995 -0.7206 -25.7956 -7.5217 36.3983 4.2875
# 6 15.6131 -2.3924 -14.0518 -6.9553 4.2875 28.7494
#
#
#
# Elastic Compliance Matrix: (Units=1/GPa)
#
#
# Indices 1 2 3 4 5 6 
#
# 1 0.016819 -0.006746 -0.005456 -0.001226 0.009088 -0.014014
# 2 -0.006746 0.021415 0.001181 0.000257 -0.004165 0.006706
# 3 -0.005456 0.001181 0.008295 0.002338 0.001718 0.007425
# 4 -0.001226 0.000257 0.002338 0.018446 0.003950 0.005704
# 5 0.009088 -0.004165 0.001718 0.003950 0.036799 -0.008975
# 6 -0.014014 0.006706 0.007425 0.005704 -0.008975 0.049299
#
#
# Mechanical properties :
#
#
# Convention : Reuss Voigt Hill
#
# Bulk Modulus (GPa) = 40.83716 60.88130 50.85923
# Shear Modulus (GPa) = 27.58202 41.84784 34.71493
#
# Velocity S-wave (km/s) = 3.22922 3.97760 3.62279
# Velocity P-wave (km/s) = 5.41692 6.64171 6.06034
#
# Compressibility (1/GPa) = 0.02448750
#
# Stress axis : x y z
#
# Youngs Moduli (GPa) = 59.45518 46.69669 120.55763
#
# Poissons Ratio (x) = 0.31502 0.65774
# Poissons Ratio (y) = 0.40110 -0.14241
# Poissons Ratio (z) = 0.32438 -0.05516
#
# Static dielectric constant tensor:
#      x y z
#    x 2.086350 0.117360 0.043230 
#    y 0.117360 2.305090 0.053590 
#    z 0.043230 0.053590 2.090340 
# 
# From -- ./inp_files/365301.got.cif
#   From: 2010.05.17/outbox.cif.g08.bks.cpg/sg2_183_cif.got.tgz:365301.got - 2010.06.03 11:33:40.
