data_PCOD9065580
_publ_section_title
;
Structure prediction by ZEFSAII (Michael W. Deem and Ramdas Pophale) SiO2 
 PCOD9065580
Probable space group: P -1
;
_chemical_formula_sum "Si O2"
_cell_formula_units_Z 14
_cell_length_a 7.242831
_cell_length_b 6.990221
_cell_length_c 15.798764
_cell_angle_alpha 83.579960
_cell_angle_beta 92.272634
_cell_angle_gamma 140.339628
_cell_volume 505.946462
_symmetry_space_group_name_H-M "P -1"
_symmetry_group_IT_number 2
_symmetry_cell_setting 'triclinic'
loop_
_space_group_symop_operation_xyz
x,y,z
-x,-y,-z
loop_
_atom_site_type_symbol
_atom_site_label
_atom_site_fract_x
_atom_site_fract_y
_atom_site_fract_z
Si Si1 0.574946 0.712808 0.678437
Si Si2 0.970643 0.229928 0.374923
Si Si3 0.764608 0.099906 0.953234
Si Si4 0.684342 0.811682 0.195450
Si Si5 0.772271 0.249835 0.755811
Si Si6 0.429912 0.724517 0.490496
Si Si7 0.233644 0.338177 0.077641
O O1 0.345827 0.415189 0.746889
O O2 0.457829 0.649096 0.585093
O O3 0.682698 0.992412 0.712414
O O4 0.842338 0.782939 0.666255
O O5 0.985518 0.431150 0.305452
O O6 0.136026 0.433205 0.452928
O O7 0.507923 0.834089 0.239881
O O8 0.680867 0.893733 0.417570
O O9 0.835991 0.249949 0.855126
O O10 0.694334 0.819521 0.944168
O O11 0.500000 0.000000 0.000000
O O12 0.051848 0.313227 0.006558
O O13 0.512755 0.648119 0.112323
O O14 0.002920 0.127181 0.159765
O O15 0.500000 0.000000 0.500000
#
# Coordination Sequence:
#
# PCOD9065580 Si02
#       7
#     2   2   2   2   2   2   2
#     4  11  25  47  77 108 152 192 249 303 371 444
#     4  11  27  49  73 108 149 194 243 305 367 446
#     4  11  24  50  77 111 150 202 254 312 378 449
#     4  11  26  50  73 110 151 194 253 311 374 446
#     4  11  24  49  73 113 144 202 246 311 374 445
#     4  12  25  48  76 108 148 195 244 300 372 444
#     4  11  26  50  75 108 152 198 253 315 375 449
#
# _framework density 27.670911
#
# number of rings (size 3 to 8) (size 9 to 14) (size 15 to 20)
#    0.000    0.857    4.286    1.286    0.000    9.714 
#    5.143    0.000    0.000    0.000    0.000    0.000 
#    0.000    0.000    0.000    0.000    0.000    0.000 
#
# Total GULP energy -78684.128897 kJ/mol
# GULP energy per Si atom -5620.294921 kJ/mol
# Density = 2.760793 g / cm^3
# Si number density = 27.670911 Si / 1000 Ang^3
#
#
#
# Elastic Constant Matrix: (Units=GPa)
#
#
# Indices 1 2 3 4 5 6 
#
# 1 150.5017 28.3952 51.8202 0.7574 -0.2568 -21.8965
# 2 28.3952 72.6740 35.7155 11.8676 -1.4775 -2.2457
# 3 51.8202 35.7155 266.1985 10.1159 23.4995 -6.0636
# 4 0.7574 11.8676 10.1159 48.8737 -5.8970 -6.7290
# 5 -0.2568 -1.4775 23.4995 -5.8970 46.6487 -8.0340
# 6 -21.8965 -2.2457 -6.0636 -6.7290 -8.0340 53.4976
#
#
#
# Elastic Compliance Matrix: (Units=1/GPa)
#
#
# Indices 1 2 3 4 5 6 
#
# 1 0.008088 -0.002607 -0.001324 0.001425 0.001402 0.003441
# 2 -0.002607 0.016139 -0.001603 -0.003589 0.000693 -0.000919
# 3 -0.001324 -0.001603 0.004473 -0.000903 -0.002528 -0.000596
# 4 0.001425 -0.003589 -0.000903 0.022474 0.003833 0.003732
# 5 0.001402 0.000693 -0.002528 0.003833 0.023982 0.004400
# 6 0.003441 -0.000919 -0.000596 0.003732 0.004400 0.021125
#
#
# Mechanical properties :
#
#
# Convention : Reuss Voigt Hill
#
# Bulk Modulus (GPa) = 56.71994 80.13733 68.42864
# Shear Modulus (GPa) = 44.15888 54.70022 49.42955
#
# Velocity S-wave (km/s) = 3.99915 4.45096 4.23109
# Velocity P-wave (km/s) = 6.47046 7.44570 6.97515
#
# Compressibility (1/GPa) = 0.01763048
#
# Stress axis : x y z
#
# Youngs Moduli (GPa) = 123.63875 61.96316 223.54121
#
# Poissons Ratio (x) = 0.16155 0.29601
# Poissons Ratio (y) = 0.32236 0.35843
# Poissons Ratio (z) = 0.16372 0.09935
#
# Static dielectric constant tensor:
#      x y z
#    x 2.196940 0.027270 0.009300 
#    y 0.027270 2.119500 -0.027900 
#    z 0.009300 -0.027900 2.185260 
# 
# From -- ./inp_files/433969.got.cif
#   From: 2010.05.17/outbox.cif.g08.bks.cpg/sg2_217_cif.got.tgz:433969.got - 2010.06.03 11:33:40.
