data_PCOD9065143
_publ_section_title
;
Structure prediction by ZEFSAII (Michael W. Deem and Ramdas Pophale) SiO2 
 PCOD9065143
Probable space group: P -1
;
_chemical_formula_sum "Si O2"
_cell_formula_units_Z 14
_cell_length_a 5.543261
_cell_length_b 13.446837
_cell_length_c 12.275830
_cell_angle_alpha 134.547724
_cell_angle_beta 56.955873
_cell_angle_gamma 117.347698
_cell_volume 542.089628
_symmetry_space_group_name_H-M "P -1"
_symmetry_group_IT_number 2
_symmetry_cell_setting 'triclinic'
loop_
_space_group_symop_operation_xyz
x,y,z
-x,-y,-z
loop_
_atom_site_type_symbol
_atom_site_label
_atom_site_fract_x
_atom_site_fract_y
_atom_site_fract_z
Si Si1 0.141898 0.661102 0.074522
Si Si2 0.026094 0.115395 0.988514
Si Si3 0.364326 0.348490 0.220688
Si Si4 0.463817 0.164784 0.242946
Si Si5 0.834482 0.233335 0.629973
Si Si6 0.462980 0.675934 0.448041
Si Si7 0.057985 0.045482 0.700230
O O1 0.303916 0.702610 0.180990
O O2 0.965094 0.796716 0.211562
O O3 0.321617 0.658717 0.917769
O O4 0.000000 0.500000 0.000000
O O5 0.169116 0.263273 0.111930
O O6 0.686678 0.124935 0.067415
O O7 0.186760 0.064291 0.804858
O O8 0.000000 0.000000 0.000000
O O9 0.304538 0.273269 0.294270
O O10 0.349580 0.512291 0.359967
O O11 0.636182 0.244358 0.361077
O O12 0.253469 0.042019 0.258312
O O13 0.671782 0.273599 0.591819
O O14 0.180707 0.295187 0.603436
O O15 0.815733 0.062765 0.495570
#
# Coordination Sequence:
#
# PCOD9065143 Si02
#       7
#     2   2   2   2   2   2   2
#     4  12  26  49  78 107 153 201 255 312 374 449
#     4  12  23  40  72 110 148 192 248 308 384 454
#     4  12  26  44  75 113 150 198 249 318 380 451
#     4  11  24  47  72 111 149 193 251 308 390 449
#     4  11  27  52  76 111 153 204 257 306 376 451
#     4  11  27  47  79 111 157 197 250 317 382 449
#     4  11  24  48  76 111 150 197 253 313 378 452
#
# _framework density 25.825989
#
# number of rings (size 3 to 8) (size 9 to 14) (size 15 to 20)
#    0.000    0.571    4.286    3.000    6.000    3.429 
#    0.000    4.286    0.000    0.000    0.000    0.000 
#    0.000    0.000    0.000    0.000    0.000    0.000 
#
# Total GULP energy -78220.900105 kJ/mol
# GULP energy per Si atom -5587.207150 kJ/mol
# Density = 2.576721 g / cm^3
# Si number density = 25.825989 Si / 1000 Ang^3
#
#
#
# Elastic Constant Matrix: (Units=GPa)
#
#
# Indices 1 2 3 4 5 6 
#
# 1 92.6973 61.5786 22.7329 16.8811 24.8365 -8.8535
# 2 61.5786 133.7122 63.1378 28.2186 8.7348 5.2011
# 3 22.7329 63.1378 160.2600 19.7611 40.9835 -4.2969
# 4 16.8811 28.2186 19.7611 58.9673 1.6230 12.1257
# 5 24.8365 8.7348 40.9835 1.6230 44.2406 -6.9053
# 6 -8.8535 5.2011 -4.2969 12.1257 -6.9053 42.3874
#
#
#
# Elastic Compliance Matrix: (Units=1/GPa)
#
#
# Indices 1 2 3 4 5 6 
#
# 1 0.021778 -0.011184 0.005501 -0.003392 -0.014188 0.005138
# 2 -0.011184 0.015717 -0.006798 -0.001674 0.009067 -0.002998
# 3 0.005501 -0.006798 0.011552 -0.002236 -0.012081 0.001826
# 4 -0.003392 -0.001674 -0.002236 0.020690 0.002575 -0.006229
# 5 -0.014188 0.009067 -0.012081 0.002575 0.039949 0.000471
# 6 0.005138 -0.002998 0.001826 -0.006229 0.000471 0.027077
#
#
# Mechanical properties :
#
#
# Convention : Reuss Voigt Hill
#
# Bulk Modulus (GPa) = 41.51983 75.72981 58.62482
# Shear Modulus (GPa) = 29.45437 45.06707 37.26072
#
# Velocity S-wave (km/s) = 3.38078 4.18188 3.80249
# Velocity P-wave (km/s) = 5.59922 7.25977 6.48288
#
# Compressibility (1/GPa) = 0.02408488
#
# Stress axis : x y z
#
# Youngs Moduli (GPa) = 45.91715 63.62409 86.56639
#
# Poissons Ratio (x) = 0.71160 -0.47624
# Poissons Ratio (y) = 0.51356 0.58850
# Poissons Ratio (z) = -0.25261 0.43253
#
# Static dielectric constant tensor:
#      x y z
#    x 1.651850 0.445960 0.385620 
#    y 0.445960 1.661950 -0.399450 
#    z 0.385620 -0.399450 1.640270 
# 
# From -- ./inp_files/69402.got.cif
#   From: 2010.05.17/outbox.cif.g08.bks.cpg/sg2_35_cif.got.tgz:69402.got - 2010.06.03 11:33:40.
