data_PCOD9065318
_publ_section_title
;
Structure prediction by ZEFSAII (Michael W. Deem and Ramdas Pophale) SiO2 
 PCOD9065318
Probable space group: P -1
;
_chemical_formula_sum "Si O2"
_cell_formula_units_Z 12
_cell_length_a 22.428475
_cell_length_b 5.379654
_cell_length_c 5.190266
_cell_angle_alpha 83.198075
_cell_angle_beta 112.222431
_cell_angle_gamma 113.306567
_cell_volume 532.064538
_symmetry_space_group_name_H-M "P -1"
_symmetry_group_IT_number 2
_symmetry_cell_setting 'triclinic'
loop_
_space_group_symop_operation_xyz
x,y,z
-x,-y,-z
loop_
_atom_site_type_symbol
_atom_site_label
_atom_site_fract_x
_atom_site_fract_y
_atom_site_fract_z
Si Si1 0.280314 0.175893 0.680961
Si Si2 0.374374 0.313381 0.317244
Si Si3 0.079944 0.038646 0.597498
Si Si4 0.499994 0.167723 0.727433
Si Si5 0.812179 0.460381 0.459320
Si Si6 0.919636 0.296183 0.879041
O O1 0.234256 0.856270 0.612384
O O2 0.324653 0.303667 0.478435
O O3 0.235997 0.365480 0.617940
O O4 0.324876 0.175856 0.011353
O O5 0.429265 0.217122 0.569844
O O6 0.429290 0.572941 0.224643
O O7 0.088344 0.895653 0.361786
O O8 0.129555 0.352979 0.666049
O O9 0.098336 0.885377 0.877586
O O10 0.000000 0.000000 0.500000
O O11 0.500000 0.000000 0.500000
O O12 0.500000 0.000000 0.000000
O O13 0.866821 0.450612 0.766094
O O14 0.000000 0.500000 0.000000
#
# Coordination Sequence:
#
# PCOD9065318 Si02
#       6
#     2   2   2   2   2   2
#     4  12  30  49  78 108 164 206 248 306 392 456
#     4  11  28  50  73 116 151 204 250 312 367 454
#     4  12  27  48  77 109 146 196 256 325 388 447
#     4  11  24  47  82 113 149 192 262 307 366 433
#     4  12  30  52  75 115 153 204 260 314 383 471
#     4  12  27  48  77 109 146 196 256 325 388 447
#
# _framework density 22.553656
#
# number of rings (size 3 to 8) (size 9 to 14) (size 15 to 20)
#    0.000    0.333    3.333    3.000    9.333    5.333 
#    0.000    0.000    0.000    0.000    0.000    0.000 
#    0.000    0.000    0.000    0.000    0.000    0.000 
#
# Total GULP energy -66957.080732 kJ/mol
# GULP energy per Si atom -5579.756728 kJ/mol
# Density = 2.250232 g / cm^3
# Si number density = 22.553656 Si / 1000 Ang^3
#
#
#
# Elastic Constant Matrix: (Units=GPa)
#
#
# Indices 1 2 3 4 5 6 
#
# 1 134.4082 14.7728 95.5436 7.7651 59.6741 -27.0075
# 2 14.7728 263.5609 1.1212 -0.6336 -57.4659 97.2142
# 3 95.5436 1.1212 235.5132 -43.1501 34.9459 -39.0838
# 4 7.7651 -0.6336 -43.1501 45.0522 -22.1206 17.3034
# 5 59.6741 -57.4659 34.9459 -22.1206 86.7546 -51.6921
# 6 -27.0075 97.2142 -39.0838 17.3034 -51.6921 95.2710
#
#
#
# Elastic Compliance Matrix: (Units=1/GPa)
#
#
# Indices 1 2 3 4 5 6 
#
# 1 0.048631 -0.014274 -0.022029 -0.053520 -0.044892 0.004677
# 2 -0.014274 0.010815 0.005559 0.018211 0.014464 -0.008262
# 3 -0.022029 0.005559 0.015413 0.028387 0.019889 0.000042
# 4 -0.053520 0.018211 0.028387 0.089179 0.055203 -0.008354
# 5 -0.044892 0.014464 0.019889 0.055203 0.059939 0.003170
# 6 0.004677 -0.008262 0.000042 -0.008354 0.003170 0.023507
#
#
# Mechanical properties :
#
#
# Convention : Reuss Voigt Hill
#
# Bulk Modulus (GPa) = 74.79241 95.15083 84.97162
# Shear Modulus (GPa) = 15.95245 80.21854 48.08549
#
# Velocity S-wave (km/s) = 2.66242 5.97035 4.62242
# Velocity P-wave (km/s) = 6.53340 9.47666 8.13917
#
# Compressibility (1/GPa) = 0.01337034
#
# Stress axis : x y z
#
# Youngs Moduli (GPa) = 20.56298 92.46079 64.87896
#
# Poissons Ratio (x) = 1.31977 1.42924
# Poissons Ratio (y) = 0.29351 -0.36063
# Poissons Ratio (z) = 0.45299 -0.51394
#
# Static dielectric constant tensor:
#      x y z
#    x 1.751020 -0.099520 -0.029620 
#    y -0.099520 1.891360 -0.047230 
#    z -0.029620 -0.047230 1.790320 
# 
# From -- ./inp_files/120930.got.cif
#   From: 2010.05.17/outbox.cif.g08.bks.cpg/sg2_61_cif.got.tgz:120930.got - 2010.06.03 11:33:40.
