data_PCOD9065843
_publ_section_title
;
Structure prediction by ZEFSAII (Michael W. Deem and Ramdas Pophale) SiO2 
 PCOD9065843
Probable space group: P -1
;
_chemical_formula_sum "Si O2"
_cell_formula_units_Z 14
_cell_length_a 11.198827
_cell_length_b 13.598215
_cell_length_c 19.118973
_cell_angle_alpha 146.352957
_cell_angle_beta 26.380867
_cell_angle_gamma 145.719142
_cell_volume 677.388530
_symmetry_space_group_name_H-M "P -1"
_symmetry_group_IT_number 2
_symmetry_cell_setting 'triclinic'
loop_
_space_group_symop_operation_xyz
x,y,z
-x,-y,-z
loop_
_atom_site_type_symbol
_atom_site_label
_atom_site_fract_x
_atom_site_fract_y
_atom_site_fract_z
Si Si1 0.705621 0.278653 0.456481
Si Si2 0.223616 0.538211 0.700736
Si Si3 0.235552 0.900381 0.825964
Si Si4 0.142338 0.290588 0.355684
Si Si5 0.845117 0.137770 0.695352
Si Si6 0.234657 0.658987 0.926766
Si Si7 0.947570 0.897934 0.281285
O O1 0.688977 0.156788 0.324271
O O2 0.813180 0.501114 0.515444
O O3 0.386044 0.214710 0.616424
O O4 0.927165 0.252492 0.381152
O O5 0.500000 0.500000 0.500000
O O6 0.156399 0.706633 0.796268
O O7 0.271164 0.596049 0.791658
O O8 0.970129 0.341440 0.715707
O O9 0.513208 0.042508 0.800656
O O10 0.000000 0.000000 0.000000
O O11 0.457390 0.294018 0.172060
O O12 0.013312 0.120350 0.375872
O O13 0.932695 0.153838 0.739981
O O14 0.000000 0.000000 0.500000
O O15 0.000000 0.500000 0.000000
O O16 0.120285 0.835010 0.092630
#
# Coordination Sequence:
#
# PCOD9065843 Si02
#       7
#     2   2   2   2   2   2   2
#     4  11  25  46  66 100 143 181 231 286 346 423
#     4  12  25  48  77 103 139 190 238 287 350 424
#     4  12  29  45  68 105 147 183 236 291 351 418
#     4  11  25  43  70  99 138 185 220 288 360 406
#     4  12  24  44  75 100 135 188 240 288 345 420
#     4  12  24  44  73 105 138 171 238 297 333 409
#     4  12  24  45  72 105 133 179 240 289 346 414
#
# _framework density 20.667608000000001
#
# number of rings (size 3 to 8) (size 9 to 14) (size 15 to 20)
#    0.000    0.286    5.714    2.571    6.000    0.571 
#    0.000    0.000    0.000    0.000    0.000    0.000 
#    0.000    0.000    0.000    0.000    0.000    0.000 
#
# Total GULP energy -78329.100302 kJ/mol
# GULP energy per Si atom -5594.935736 kJ/mol
# Density = 2.062057 g / cm^3
# Si number density = 20.667608 Si / 1000 Ang^3
#
#
#
# Elastic Constant Matrix: (Units=GPa)
#
#
# Indices 1 2 3 4 5 6 
#
# 1 87.6164 44.7895 67.1116 -9.3055 -17.6946 6.0766
# 2 44.7895 166.3246 46.0807 -0.9478 -29.4707 -10.2326
# 3 67.1116 46.0807 113.8919 1.4886 -14.2575 1.1702
# 4 -9.3055 -0.9478 1.4886 26.1853 5.2310 -10.8350
# 5 -17.6946 -29.4707 -14.2575 5.2310 45.6395 1.6485
# 6 6.0766 -10.2326 1.1702 -10.8350 1.6485 37.8716
#
#
#
# Elastic Compliance Matrix: (Units=1/GPa)
#
#
# Indices 1 2 3 4 5 6 
#
# 1 0.024157 -0.002486 -0.012948 0.007809 0.002894 -0.002040
# 2 -0.002486 0.007817 -0.001261 -0.000303 0.003641 0.002305
# 3 -0.012948 -0.001261 0.017023 -0.005842 0.000170 -0.000468
# 4 0.007809 -0.000303 -0.005842 0.047496 -0.004894 0.012648
# 5 0.002894 0.003641 0.000170 -0.004894 0.026071 -0.002021
# 6 -0.002040 0.002305 -0.000468 0.012648 -0.002021 0.031076
#
#
# Mechanical properties :
#
#
# Convention : Reuss Voigt Hill
#
# Bulk Modulus (GPa) = 64.07981 75.97737 70.02859
# Shear Modulus (GPa) = 26.01021 35.92936 30.96979
#
# Velocity S-wave (km/s) = 3.55138 4.17398 3.87521
# Velocity P-wave (km/s) = 6.92017 7.75054 7.34709
#
# Compressibility (1/GPa) = 0.01560554
#
# Stress axis : x y z
#
# Youngs Moduli (GPa) = 41.39550 127.93387 58.74547
#
# Poissons Ratio (x) = 0.31808 0.76062
# Poissons Ratio (y) = 0.10292 0.07411
# Poissons Ratio (z) = 0.53597 0.16139
#
# Static dielectric constant tensor:
#      x y z
#    x 1.746230 0.004400 0.020280 
#    y 0.004400 1.767950 0.035820 
#    z 0.020280 0.035820 1.738160 
# 
# From -- ./inp_files/457799.got.cif
#   From: 2010.05.17/outbox.cif.g08.bks.cpg/sg2_229_cif.got.tgz:457799.got - 2010.06.03 11:33:40.
