data_PCOD9065763
_publ_section_title
;
Structure prediction by ZEFSAII (Michael W. Deem and Ramdas Pophale) SiO2 
 PCOD9065763
Probable space group: P -1
;
_chemical_formula_sum "Si O2"
_cell_formula_units_Z 12
_cell_length_a 10.659754
_cell_length_b 17.136994
_cell_length_c 7.177534
_cell_angle_alpha 63.420407
_cell_angle_beta 125.401746
_cell_angle_gamma 151.004878
_cell_volume 512.198329
_symmetry_space_group_name_H-M "P -1"
_symmetry_group_IT_number 2
_symmetry_cell_setting 'triclinic'
loop_
_space_group_symop_operation_xyz
x,y,z
-x,-y,-z
loop_
_atom_site_type_symbol
_atom_site_label
_atom_site_fract_x
_atom_site_fract_y
_atom_site_fract_z
Si Si1 0.496394 0.436234 0.772115
Si Si2 0.815974 0.709499 0.012354
Si Si3 0.273908 0.810807 0.501485
Si Si4 0.436836 0.159922 0.587644
Si Si5 0.910240 0.355589 0.080141
Si Si6 0.850475 0.805187 0.586124
O O1 0.320686 0.300183 0.927751
O O2 0.808734 0.552475 0.866580
O O3 0.297339 0.335384 0.528367
O O4 0.560361 0.553439 0.822427
O O5 0.009403 0.726920 0.250178
O O6 0.991076 0.843971 0.861584
O O7 0.414720 0.798507 0.520411
O O8 0.500000 0.000000 0.500000
O O9 0.112790 0.969526 0.519023
O O10 0.637164 0.214791 0.861123
O O11 0.390061 0.238770 0.516905
O O12 0.833381 0.276490 0.298169
O O13 0.000000 0.500000 0.000000
#
# Coordination Sequence:
#
# PCOD9065763 Si02
#       6
#     2   2   2   2   2   2
#     4  11  25  42  69 105 137 184 235 291 350 415
#     4  11  26  42  72 104 140 186 234 294 351 420
#     4  12  28  47  73 107 144 188 237 291 354 423
#     4  11  26  46  70 104 140 190 237 288 354 425
#     4  12  27  46  75 105 144 186 235 296 352 418
#     4  11  25  45  72  99 145 187 234 291 355 419
#
# _framework density 23.428422999999999
#
# number of rings (size 3 to 8) (size 9 to 14) (size 15 to 20)
#    0.000    0.667    3.333    2.500   11.667    2.000 
#    0.000    4.167    0.000    0.000    0.000    0.000 
#    0.000    0.000    0.000    0.000    0.000    0.000 
#
# Total GULP energy -66984.229022 kJ/mol
# GULP energy per Si atom -5582.019085 kJ/mol
# Density = 2.337510 g / cm^3
# Si number density = 23.428423 Si / 1000 Ang^3
#
#
#
# Elastic Constant Matrix: (Units=GPa)
#
#
# Indices 1 2 3 4 5 6 
#
# 1 184.5278 43.6340 64.2982 -9.3063 -11.0843 21.0070
# 2 43.6340 83.5437 36.6959 2.5580 -5.8403 5.5148
# 3 64.2982 36.6959 120.3281 -7.4948 -23.4006 -2.8226
# 4 -9.3063 2.5580 -7.4948 39.1387 10.7492 -4.6722
# 5 -11.0843 -5.8403 -23.4006 10.7492 46.7072 -9.6107
# 6 21.0070 5.5148 -2.8226 -4.6722 -9.6107 23.6493
#
#
#
# Elastic Compliance Matrix: (Units=1/GPa)
#
#
# Indices 1 2 3 4 5 6 
#
# 1 0.008268 -0.002045 -0.004394 0.000939 -0.002394 -0.008179
# 2 -0.002045 0.014915 -0.003775 -0.002369 -0.000542 -0.002801
# 3 -0.004394 -0.003775 0.013438 0.000996 0.006922 0.009397
# 4 0.000939 -0.002369 0.000996 0.027970 -0.005356 0.003186
# 5 -0.002394 -0.000542 0.006922 -0.005356 0.028253 0.013503
# 6 -0.008179 -0.002801 0.009397 0.003186 0.013503 0.057441
#
#
# Mechanical properties :
#
#
# Convention : Reuss Voigt Hill
#
# Bulk Modulus (GPa) = 61.74534 75.29506 68.52020
# Shear Modulus (GPa) = 28.39108 38.15048 33.27078
#
# Velocity S-wave (km/s) = 3.48490 4.03970 3.77251
# Velocity P-wave (km/s) = 6.52724 7.34623 6.94881
#
# Compressibility (1/GPa) = 0.01619555
#
# Stress axis : x y z
#
# Youngs Moduli (GPa) = 120.94167 67.04515 74.41480
#
# Poissons Ratio (x) = 0.13710 0.32695
# Poissons Ratio (y) = 0.24731 0.28090
# Poissons Ratio (z) = 0.53137 0.25308
#
# Static dielectric constant tensor:
#      x y z
#    x 1.934750 0.084730 -0.048270 
#    y 0.084730 2.295630 -0.129230 
#    z -0.048270 -0.129230 1.876070 
# 
# From -- ./inp_files/202195.got.cif
#   From: 2010.05.17/outbox.cif.g08.bks.cpg/sg2_102_cif.got.tgz:202195.got - 2010.06.03 11:33:40.
