data_PCOD9065615
_publ_section_title
;
Structure prediction by ZEFSAII (Michael W. Deem and Ramdas Pophale) SiO2 
 PCOD9065615
Probable space group: P -1
;
_chemical_formula_sum "Si O2"
_cell_formula_units_Z 12
_cell_length_a 9.507568
_cell_length_b 8.209096
_cell_length_c 12.447580
_cell_angle_alpha 62.401415
_cell_angle_beta 143.601767
_cell_angle_gamma 101.104475
_cell_volume 479.930053
_symmetry_space_group_name_H-M "P -1"
_symmetry_group_IT_number 2
_symmetry_cell_setting 'triclinic'
loop_
_space_group_symop_operation_xyz
x,y,z
-x,-y,-z
loop_
_atom_site_type_symbol
_atom_site_label
_atom_site_fract_x
_atom_site_fract_y
_atom_site_fract_z
Si Si1 0.945597 0.960859 0.697795
Si Si2 0.771773 0.714027 0.052419
Si Si3 0.669136 0.297973 0.570232
Si Si4 0.437690 0.142755 0.659789
Si Si5 0.765697 0.461409 0.927004
Si Si6 0.802876 0.718825 0.304040
O O1 0.793890 0.892054 0.534566
O O2 0.756810 0.080908 0.637507
O O3 0.064676 0.117591 0.679103
O O4 0.147312 0.769817 0.931407
O O5 0.663222 0.720504 0.104117
O O6 0.073555 0.658451 0.266492
O O7 0.721123 0.566290 0.983312
O O8 0.655646 0.932413 0.868741
O O9 0.533698 0.282654 0.602024
O O10 0.478600 0.434518 0.325974
O O11 0.350007 0.224397 0.698384
O O12 0.000000 0.500000 0.000000
O O13 0.000000 0.500000 0.500000
#
# Coordination Sequence:
#
# PCOD9065615 Si02
#       6
#     2   2   2   2   2   2
#     4  11  24  49  77 112 153 199 255 317 374 450
#     4  11  26  48  74 115 152 203 253 311 376 457
#     4  11  25  49  77 115 158 194 254 317 373 454
#     4  12  22  48  79 109 159 202 251 314 384 452
#     4  12  24  47  81 115 152 199 252 312 387 441
#     4  11  27  51  73 109 155 204 259 312 378 453
#
# _framework density 25.003643
#
# number of rings (size 3 to 8) (size 9 to 14) (size 15 to 20)
#    0.000    0.667    3.333    4.000    0.000    2.000 
#   27.000    1.667    0.000    0.000    0.000    0.000 
#    0.000    0.000    0.000    0.000    0.000    0.000 
#
# Total GULP energy -67395.025300 kJ/mol
# GULP energy per Si atom -5616.252108 kJ/mol
# Density = 2.494673 g / cm^3
# Si number density = 25.003643 Si / 1000 Ang^3
#
#
#
# Elastic Constant Matrix: (Units=GPa)
#
#
# Indices 1 2 3 4 5 6 
#
# 1 172.7938 74.2141 51.1734 10.4625 -19.2137 -16.6738
# 2 74.2141 147.2419 73.8727 -18.2880 -7.6873 -13.2651
# 3 51.1734 73.8727 215.3935 -23.9279 -6.7656 -5.6376
# 4 10.4625 -18.2880 -23.9279 46.7554 -4.9720 -13.4627
# 5 -19.2137 -7.6873 -6.7656 -4.9720 40.2674 1.9612
# 6 -16.6738 -13.2651 -5.6376 -13.4627 1.9612 51.5278
#
#
#
# Elastic Compliance Matrix: (Units=1/GPa)
#
#
# Indices 1 2 3 4 5 6 
#
# 1 0.008315 -0.003981 -0.000895 -0.003434 0.002605 0.000571
# 2 -0.003981 0.010682 -0.002122 0.004715 0.000246 0.002452
# 3 -0.000895 -0.002122 0.005895 0.002568 0.000453 0.000463
# 4 -0.003434 0.004715 0.002568 0.027778 0.002756 0.007536
# 5 0.002605 0.000246 0.000453 0.002756 0.026508 0.000667
# 6 0.000571 0.002452 0.000463 0.007536 0.000667 0.022217
#
#
# Mechanical properties :
#
#
# Convention : Reuss Voigt Hill
#
# Bulk Modulus (GPa) = 91.77729 103.77219 97.77474
# Shear Modulus (GPa) = 42.00860 50.12136 46.06498
#
# Velocity S-wave (km/s) = 4.10335 4.48209 4.29689
# Velocity P-wave (km/s) = 7.69644 8.26913 7.98792
#
# Compressibility (1/GPa) = 0.01089594
#
# Stress axis : x y z
#
# Youngs Moduli (GPa) = 120.26699 93.61376 169.64345
#
# Poissons Ratio (x) = 0.37268 0.15180
# Poissons Ratio (y) = 0.47879 0.36000
# Poissons Ratio (z) = 0.10761 0.19866
#
# Static dielectric constant tensor:
#      x y z
#    x 1.977090 -0.000600 0.017820 
#    y -0.000600 1.972140 -0.000940 
#    z 0.017820 -0.000940 1.950710 
# 
# From -- ./inp_files/375739.got.cif
#   From: 2010.05.17/outbox.cif.g08.bks.cpg/sg2_188_cif.got.tgz:375739.got - 2010.06.03 11:33:40.
