data_PCOD9065046
_publ_section_title
;
Structure prediction by ZEFSAII (Michael W. Deem and Ramdas Pophale) SiO2 
 PCOD9065046
Probable space group: P -1
;
_chemical_formula_sum "Si O2"
_cell_formula_units_Z 16
_cell_length_a 14.633645
_cell_length_b 5.634701
_cell_length_c 14.779970
_cell_angle_alpha 50.686027
_cell_angle_beta 128.919956
_cell_angle_gamma 94.846706
_cell_volume 626.217735
_symmetry_space_group_name_H-M "P -1"
_symmetry_group_IT_number 2
_symmetry_cell_setting 'triclinic'
loop_
_space_group_symop_operation_xyz
x,y,z
-x,-y,-z
loop_
_atom_site_type_symbol
_atom_site_label
_atom_site_fract_x
_atom_site_fract_y
_atom_site_fract_z
Si Si1 0.501685 0.744625 0.143224
Si Si2 0.756233 0.183065 0.937801
Si Si3 0.112519 0.115873 0.288727
Si Si4 0.215844 0.325375 0.051882
Si Si5 0.064819 0.778603 0.185267
Si Si6 0.092885 0.670954 0.527360
Si Si7 0.399120 0.843264 0.791257
Si Si8 0.188252 0.695587 0.760384
O O1 0.351784 0.834586 0.059504
O O2 0.577894 0.339927 0.248372
O O3 0.564398 0.856038 0.238652
O O4 0.500000 0.000000 0.000000
O O5 0.734969 0.567839 0.854161
O O6 0.731828 0.076359 0.849463
O O7 0.921747 0.888861 0.126322
O O8 0.949193 0.421301 0.106590
O O9 0.155670 0.362337 0.311920
O O10 0.150029 0.759890 0.453980
O O11 0.139528 0.951233 0.244311
O O12 0.250080 0.481527 0.943766
O O13 0.000000 0.000000 0.000000
O O14 0.196735 0.510833 0.713988
O O15 0.000000 0.500000 0.500000
O O16 0.973690 0.082138 0.376955
O O17 0.251692 0.940688 0.716208
O O18 0.500000 0.500000 0.000000
#
# Coordination Sequence:
#
# PCOD9065046 Si02
#       8
#     2   2   2   2   2   2   2   2
#     4  10  18  28  43  65  97 134 172 203 256 312
#     4  10  18  30  46  71 101 136 175 210 261 327
#     4   9  20  33  50  74 105 133 181 220 268 322
#     4   9  17  27  46  66  95 135 170 211 244 301
#     4  10  20  35  55  77 105 140 178 231 284 329
#     4  10  23  34  53  75 108 154 191 223 258 320
#     4  10  20  31  45  68  98 138 177 218 256 306
#     4  10  21  32  48  71 104 143 192 216 257 312
#
# _framework density 25.550219999999999
#
# number of rings (size 3 to 8) (size 9 to 14) (size 15 to 20)
#    0.000    2.250    0.000    4.125   12.250    0.000 
#    0.000    0.000    0.000    0.000    0.000    0.000 
#    0.000    6.000    0.000    0.000    0.000    0.000 
#
# Total GULP energy -89145.713702 kJ/mol
# GULP energy per Si atom -5571.607106 kJ/mol
# Density = 2.549207 g / cm^3
# Si number density = 25.550220 Si / 1000 Ang^3
#
#
#
# Elastic Constant Matrix: (Units=GPa)
#
#
# Indices 1 2 3 4 5 6 
#
# 1 94.5119 23.9450 19.8840 -0.9507 9.7235 -3.6304
# 2 23.9450 260.1622 23.9661 22.8631 -10.1746 0.2388
# 3 19.8840 23.9661 44.0205 -5.9749 -1.8991 -6.1110
# 4 -0.9507 22.8631 -5.9749 23.8535 -0.7143 -2.0853
# 5 9.7235 -10.1746 -1.8991 -0.7143 31.4726 1.7050
# 6 -3.6304 0.2388 -6.1110 -2.0853 1.7050 42.0122
#
#
#
# Elastic Compliance Matrix: (Units=1/GPa)
#
#
# Indices 1 2 3 4 5 6 
#
# 1 0.012373 -0.000812 -0.005291 -0.000145 -0.004434 0.000477
# 2 -0.000812 0.004722 -0.002981 -0.005335 0.001523 -0.000857
# 3 -0.005291 -0.002981 0.028810 0.010300 0.002417 0.004163
# 4 -0.000145 -0.005335 0.010300 0.049956 -0.000142 0.004001
# 5 -0.004434 0.001523 0.002417 -0.000142 0.033856 -0.001421
# 6 0.000477 -0.000857 0.004163 0.004001 -0.001421 0.024711
#
#
# Mechanical properties :
#
#
# Convention : Reuss Voigt Hill
#
# Bulk Modulus (GPa) = 36.05528 59.36497 47.71012
# Shear Modulus (GPa) = 27.49644 41.52762 34.51203
#
# Velocity S-wave (km/s) = 3.28407 4.03592 3.67925
# Velocity P-wave (km/s) = 5.34063 6.70844 6.06323
#
# Compressibility (1/GPa) = 0.02773519
#
# Stress axis : x y z
#
# Youngs Moduli (GPa) = 80.82313 211.75849 34.71014
#
# Poissons Ratio (x) = 0.17205 0.18365
# Poissons Ratio (y) = 0.06567 0.10348
# Poissons Ratio (z) = 0.42764 0.63134
#
# Static dielectric constant tensor:
#      x y z
#    x 2.172420 -0.031860 -0.002700 
#    y -0.031860 2.249710 -0.022210 
#    z -0.002700 -0.022210 2.037630 
# 
# From -- ./inp_files/82417.got.cif
#   From: 2010.05.17/outbox.cif.g08.bks.cpg/sg2_42_cif.got.tgz:82417.got - 2010.06.03 11:33:40.
