data_PCOD9065202
_publ_section_title
;
Structure prediction by ZEFSAII (Michael W. Deem and Ramdas Pophale) SiO2 
 PCOD9065202
Probable space group: P -1
;
_chemical_formula_sum "Si O2"
_cell_formula_units_Z 16
_cell_length_a 11.970982
_cell_length_b 15.178047
_cell_length_c 8.820527
_cell_angle_alpha 89.088109
_cell_angle_beta 82.750865
_cell_angle_gamma 150.896225
_cell_volume 746.385352
_symmetry_space_group_name_H-M "P -1"
_symmetry_group_IT_number 2
_symmetry_cell_setting 'triclinic'
loop_
_space_group_symop_operation_xyz
x,y,z
-x,-y,-z
loop_
_atom_site_type_symbol
_atom_site_label
_atom_site_fract_x
_atom_site_fract_y
_atom_site_fract_z
Si Si1 0.107829 0.491675 0.073516
Si Si2 0.492216 0.469090 0.769795
Si Si3 0.052557 0.271455 0.488003
Si Si4 0.200116 0.569580 0.418611
Si Si5 0.683000 0.071026 0.067310
Si Si6 0.551454 0.687689 0.941003
Si Si7 0.577056 0.959510 0.410389
Si Si8 0.070511 0.905277 0.184146
O O1 0.182720 0.554351 0.236254
O O2 0.894938 0.274979 0.096959
O O3 0.340782 0.612084 0.948062
O O4 0.000000 0.500000 0.000000
O O5 0.697230 0.600188 0.605450
O O6 0.547487 0.598884 0.840298
O O7 0.214008 0.281448 0.780623
O O8 0.504179 0.392963 0.882239
O O9 0.125780 0.422990 0.499064
O O10 0.914169 0.128779 0.652672
O O11 0.855461 0.136120 0.392665
O O12 0.429285 0.767203 0.465227
O O13 0.000000 0.500000 0.500000
O O14 0.532263 0.937328 0.240631
O O15 0.806010 0.076864 0.954873
O O16 0.500000 0.000000 0.000000
O O17 0.796623 0.910457 0.870698
O O18 0.500000 0.000000 0.500000
#
# Coordination Sequence:
#
# PCOD9065202 Si02
#       8
#     2   2   2   2   2   2   2   2
#     4  12  24  45  71 107 144 185 241 302 361 430
#     4  11  25  48  75 102 148 191 246 296 360 434
#     4  12  27  47  71 108 148 192 241 300 366 436
#     4  12  25  44  70 100 146 194 234 294 369 430
#     4  12  24  43  71 107 145 187 243 298 357 433
#     4  11  24  47  74 106 141 192 243 300 357 429
#     4  12  24  45  70 101 144 192 241 296 363 435
#     4  12  27  45  73 108 145 187 246 301 360 430
#
# _framework density 21.436648000000002
#
# number of rings (size 3 to 8) (size 9 to 14) (size 15 to 20)
#    0.000    0.250    5.000    3.750    3.500    3.500 
#    0.000    0.000    0.000    0.000    0.000    0.000 
#    0.000    0.000    0.000    0.000    0.000    0.000 
#
# Total GULP energy -89338.350915 kJ/mol
# GULP energy per Si atom -5583.646932 kJ/mol
# Density = 2.138786 g / cm^3
# Si number density = 21.436648 Si / 1000 Ang^3
#
#
#
# Elastic Constant Matrix: (Units=GPa)
#
#
# Indices 1 2 3 4 5 6 
#
# 1 99.1182 26.7347 41.0443 9.9791 -8.4491 2.8283
# 2 26.7347 162.7774 17.9967 -0.8887 -3.3506 -16.7556
# 3 41.0443 17.9967 95.1333 -2.4154 -9.2262 -15.8892
# 4 9.9791 -0.8887 -2.4154 21.1598 3.2470 4.3169
# 5 -8.4491 -3.3506 -9.2262 3.2470 29.2233 -11.9150
# 6 2.8283 -16.7556 -15.8892 4.3169 -11.9150 38.7134
#
#
#
# Elastic Compliance Matrix: (Units=1/GPa)
#
#
# Indices 1 2 3 4 5 6 
#
# 1 0.014158 -0.001977 -0.006340 -0.007006 0.001293 -0.003313
# 2 -0.001977 0.006859 0.000381 0.000197 0.001872 0.003824
# 3 -0.006340 0.000381 0.015279 0.002021 0.006325 0.008620
# 4 -0.007006 0.000197 0.002021 0.054026 -0.010569 -0.007851
# 5 0.001293 0.001872 0.006325 -0.010569 0.045522 0.018501
# 6 -0.003313 0.003824 0.008620 -0.007851 0.018501 0.037835
#
#
# Mechanical properties :
#
#
# Convention : Reuss Voigt Hill
#
# Bulk Modulus (GPa) = 48.96385 58.73115 53.84750
# Shear Modulus (GPa) = 25.46345 35.90285 30.68315
#
# Velocity S-wave (km/s) = 3.45025 4.09691 3.78741
# Velocity P-wave (km/s) = 6.22600 7.05951 6.65581
#
# Compressibility (1/GPa) = 0.02042323
#
# Stress axis : x y z
#
# Youngs Moduli (GPa) = 70.63305 145.78989 65.44777
#
# Poissons Ratio (x) = 0.28822 0.41494
# Poissons Ratio (y) = 0.13964 -0.02491
# Poissons Ratio (z) = 0.44782 -0.05548
#
# Static dielectric constant tensor:
#      x y z
#    x 1.770940 -0.045810 0.054480 
#    y -0.045810 1.870770 -0.075820 
#    z 0.054480 -0.075820 1.858850 
# 
# From -- ./inp_files/273162.got.cif
#   From: 2010.05.17/outbox.cif.g08.bks.cpg/sg2_137_cif.got.tgz:273162.got - 2010.06.03 11:33:40.
