data_PCOD9065213
_publ_section_title
;
Structure prediction by ZEFSAII (Michael W. Deem and Ramdas Pophale) SiO2 
 PCOD9065213
Probable space group: P -1
;
_chemical_formula_sum "Si O2"
_cell_formula_units_Z 13
_cell_length_a 15.736426
_cell_length_b 8.705930
_cell_length_c 5.222853
_cell_angle_alpha 54.201685
_cell_angle_beta 87.041584
_cell_angle_gamma 67.859220
_cell_volume 523.808060
_symmetry_space_group_name_H-M "P -1"
_symmetry_group_IT_number 2
_symmetry_cell_setting 'triclinic'
loop_
_space_group_symop_operation_xyz
x,y,z
-x,-y,-z
loop_
_atom_site_type_symbol
_atom_site_label
_atom_site_fract_x
_atom_site_fract_y
_atom_site_fract_z
Si Si1 0.912503 0.065414 0.646594
Si Si2 0.434596 0.795691 0.102412
Si Si3 0.745674 0.943381 0.813982
Si Si4 0.500000 0.000000 0.500000
Si Si5 0.954042 0.344726 0.711707
Si Si6 0.773949 0.662428 0.588571
Si Si7 0.399680 0.429731 0.326404
O O1 0.814511 0.051923 0.618483
O O2 0.899266 0.283637 0.558698
O O3 0.000000 0.000000 0.500000
O O4 0.960127 0.873931 0.024156
O O5 0.395925 0.659282 0.072286
O O6 0.534533 0.656805 0.350502
O O7 0.360265 0.894142 0.253230
O O8 0.438160 0.990604 0.764917
O O9 0.744882 0.804534 0.707649
O O10 0.778716 0.798467 0.207914
O O11 0.546862 0.741304 0.731982
O O12 0.874998 0.468711 0.810664
O O13 0.000000 0.500000 0.500000
O O14 0.702218 0.562459 0.636939
#
# Coordination Sequence:
#
# PCOD9065213 Si02
#       7
#     2   2   2   1   2   2   2
#     4  11  26  46  78 111 149 197 247 311 371 448
#     4  11  26  46  74 106 149 196 248 309 370 445
#     4  12  27  49  75 111 149 199 251 306 374 444
#     4  12  22  44  72 104 144 190 246 306 366 438
#     4  11  24  47  74 109 149 195 248 308 376 442
#     4  12  27  46  78 107 150 202 249 307 372 445
#     4  11  25  46  71 108 145 197 245 304 372 437
#
# _framework density 24.818252999999999
#
# number of rings (size 3 to 8) (size 9 to 14) (size 15 to 20)
#    0.000    0.615    3.077    3.692    6.462    1.231 
#    0.000    0.000    0.000    0.000    0.000    0.000 
#    0.000    0.000    0.000    0.000    0.000    0.000 
#
# Total GULP energy -72490.491748 kJ/mol
# GULP energy per Si atom -5576.191673 kJ/mol
# Density = 2.476177 g / cm^3
# Si number density = 24.818253 Si / 1000 Ang^3
#
#
#
# Elastic Constant Matrix: (Units=GPa)
#
#
# Indices 1 2 3 4 5 6 
#
# 1 163.8981 32.9795 44.9187 0.0891 -45.8378 7.3988
# 2 32.9795 136.4869 27.1503 -1.8954 -20.7495 16.2667
# 3 44.9187 27.1503 87.4011 7.7915 -26.9398 18.4984
# 4 0.0891 -1.8954 7.7915 34.8296 0.5880 -6.1496
# 5 -45.8378 -20.7495 -26.9398 0.5880 50.0416 -9.7878
# 6 7.3988 16.2667 18.4984 -6.1496 -9.7878 39.7426
#
#
#
# Elastic Compliance Matrix: (Units=1/GPa)
#
#
# Indices 1 2 3 4 5 6 
#
# 1 0.008747 -0.000774 -0.002636 0.000705 0.006585 0.001647
# 2 -0.000774 0.008274 -0.001229 0.000307 0.001621 -0.002223
# 3 -0.002636 -0.001229 0.016396 -0.004908 0.004741 -0.006229
# 4 0.000705 0.000307 -0.004908 0.031004 -0.000944 0.006592
# 5 0.006585 0.001621 0.004741 -0.000944 0.029860 0.003111
# 6 0.001647 -0.002223 -0.006229 0.006592 0.003111 0.030451
#
#
# Mechanical properties :
#
#
# Convention : Reuss Voigt Hill
#
# Bulk Modulus (GPa) = 41.43121 66.43148 53.93135
# Shear Modulus (GPa) = 35.19719 43.77194 39.48456
#
# Velocity S-wave (km/s) = 3.76998 4.20420 3.99300
# Velocity P-wave (km/s) = 5.97331 7.09876 6.56021
#
# Compressibility (1/GPa) = 0.02413639
#
# Stress axis : x y z
#
# Youngs Moduli (GPa) = 114.32876 120.85921 60.99208
#
# Poissons Ratio (x) = 0.09359 0.16079
# Poissons Ratio (y) = 0.08853 0.07498
# Poissons Ratio (z) = 0.30139 0.14859
#
# Static dielectric constant tensor:
#      x y z
#    x 2.022910 -0.047420 0.000110 
#    y -0.047420 1.751990 -0.264530 
#    z 0.000110 -0.264530 1.694850 
# 
# From -- ./inp_files/103028.got.cif
#   From: 2010.05.17/outbox.cif.g08.bks.cpg/sg2_52_cif.got.tgz:103028.got - 2010.06.03 11:33:40.
