data_PCOD9065438
_publ_section_title
;
Structure prediction by ZEFSAII (Michael W. Deem and Ramdas Pophale) SiO2 
 PCOD9065438
Probable space group: P -1
;
_chemical_formula_sum "Si O2"
_cell_formula_units_Z 16
_cell_length_a 13.800870
_cell_length_b 10.595514
_cell_length_c 12.141563
_cell_angle_alpha 37.953896
_cell_angle_beta 44.914302
_cell_angle_gamma 70.889320
_cell_volume 652.826076
_symmetry_space_group_name_H-M "P -1"
_symmetry_group_IT_number 2
_symmetry_cell_setting 'triclinic'
loop_
_space_group_symop_operation_xyz
x,y,z
-x,-y,-z
loop_
_atom_site_type_symbol
_atom_site_label
_atom_site_fract_x
_atom_site_fract_y
_atom_site_fract_z
Si Si1 0.405177 0.502554 0.742296
Si Si2 0.271388 0.723152 0.837123
Si Si3 0.623688 0.328409 0.969836
Si Si4 0.905984 0.388757 0.351299
Si Si5 0.753785 0.703763 0.226636
Si Si6 0.837226 0.946210 0.606865
Si Si7 0.863890 0.238501 0.737472
Si Si8 0.723446 0.840867 0.544467
O O1 0.393007 0.722824 0.650491
O O2 0.589763 0.592400 0.507087
O O3 0.307361 0.385544 0.788301
O O4 0.311769 0.294812 0.052763
O O5 0.266381 0.964312 0.680897
O O6 0.308250 0.661179 0.969259
O O7 0.093758 0.523675 0.076474
O O8 0.688015 0.196194 0.935512
O O9 0.701436 0.601560 0.675676
O O10 0.436952 0.228739 0.207669
O O11 0.851244 0.579092 0.267769
O O12 0.811535 0.167464 0.496275
O O13 0.887273 0.271590 0.566014
O O14 0.854014 0.995935 0.952301
O O15 0.855827 0.932388 0.470913
O O16 0.000000 0.000000 0.500000
O O17 0.000000 0.500000 0.500000
#
# Coordination Sequence:
#
# PCOD9065438 Si02
#       8
#     2   2   2   2   2   2   2   2
#     4  11  24  48  74 103 146 183 231 301 358 412
#     4  12  24  45  74 104 139 184 237 292 349 415
#     4  11  25  47  66 104 138 192 234 286 347 421
#     4  12  27  43  75 106 135 187 236 293 356 421
#     4  11  28  46  71 107 143 186 235 291 357 427
#     4  12  24  46  76 106 142 179 235 305 359 413
#     4  12  27  47  68  99 150 186 231 291 351 416
#     4  11  26  42  75 101 138 184 239 289 351 423
#
# _framework density 24.508824000000001
#
# number of rings (size 3 to 8) (size 9 to 14) (size 15 to 20)
#    0.000    0.500    5.000    1.875    5.250    4.000 
#    0.000    0.000    0.000    0.000    0.000    0.000 
#    0.000    0.000    0.000    0.000    0.000    0.000 
#
# Total GULP energy -89641.738935 kJ/mol
# GULP energy per Si atom -5602.608683 kJ/mol
# Density = 2.445304 g / cm^3
# Si number density = 24.508824 Si / 1000 Ang^3
#
#
#
# Elastic Constant Matrix: (Units=GPa)
#
#
# Indices 1 2 3 4 5 6 
#
# 1 75.3336 16.0087 26.4337 -8.8440 4.4103 -17.5934
# 2 16.0087 107.6598 30.0176 -2.3725 15.1498 -26.8456
# 3 26.4337 30.0176 95.8209 -17.2049 13.2060 -18.1323
# 4 -8.8440 -2.3725 -17.2049 51.5460 -10.0195 5.3276
# 5 4.4103 15.1498 13.2060 -10.0195 30.1252 -3.8555
# 6 -17.5934 -26.8456 -18.1323 5.3276 -3.8555 39.8758
#
#
#
# Elastic Compliance Matrix: (Units=1/GPa)
#
#
# Indices 1 2 3 4 5 6 
#
# 1 0.015762 -0.000156 -0.003118 0.001147 0.000197 0.005297
# 2 -0.000156 0.012314 -0.002138 -0.001862 -0.004954 0.007019
# 3 -0.003118 -0.002138 0.013409 0.002987 -0.003021 0.002591
# 4 0.001147 -0.001862 0.002987 0.021955 0.006545 -0.001690
# 5 0.000197 -0.004954 -0.003021 0.006545 0.038937 -0.001731
# 6 0.005297 0.007019 0.002591 -0.001690 -0.001731 0.033377
#
#
# Mechanical properties :
#
#
# Convention : Reuss Voigt Hill
#
# Bulk Modulus (GPa) = 32.61480 47.08158 39.84819
# Shear Modulus (GPa) = 31.88814 38.06635 34.97724
#
# Velocity S-wave (km/s) = 3.61097 3.94530 3.78183
# Velocity P-wave (km/s) = 5.54272 6.32500 5.94674
#
# Compressibility (1/GPa) = 0.03066093
#
# Stress axis : x y z
#
# Youngs Moduli (GPa) = 63.44474 81.20780 74.57598
#
# Poissons Ratio (x) = 0.01267 0.23253
# Poissons Ratio (y) = 0.00989 0.15944
# Poissons Ratio (z) = 0.19783 0.17362
#
# Static dielectric constant tensor:
#      x y z
#    x 1.921620 -0.009750 -0.023640 
#    y -0.009750 1.937490 -0.045590 
#    z -0.023640 -0.045590 1.992390 
# 
# From -- ./inp_files/532249.got.cif
#   From: 2010.05.17/outbox.cif.g08.bks.cpg/sg2_267_cif.got.tgz:532249.got - 2010.06.03 11:33:40.
