data_PCOD9065791
_publ_section_title
;
Structure prediction by ZEFSAII (Michael W. Deem and Ramdas Pophale) SiO2 
 PCOD9065791
Probable space group: P -1
;
_chemical_formula_sum "Si O2"
_cell_formula_units_Z 15
_cell_length_a 7.119140
_cell_length_b 13.612651
_cell_length_c 9.769501
_cell_angle_alpha 72.780663
_cell_angle_beta 46.757949
_cell_angle_gamma 62.902462
_cell_volume 613.793961
_symmetry_space_group_name_H-M "P -1"
_symmetry_group_IT_number 2
_symmetry_cell_setting 'triclinic'
loop_
_space_group_symop_operation_xyz
x,y,z
-x,-y,-z
loop_
_atom_site_type_symbol
_atom_site_label
_atom_site_fract_x
_atom_site_fract_y
_atom_site_fract_z
Si Si1 0.798219 0.816289 0.814648
Si Si2 0.000000 0.000000 0.500000
Si Si3 0.138097 0.720337 0.021231
Si Si4 0.355005 0.372251 0.687798
Si Si5 0.305999 0.599548 0.739667
Si Si6 0.629125 0.151948 0.748846
Si Si7 0.397259 0.875267 0.736542
Si Si8 0.124111 0.117151 0.687297
O O1 0.588650 0.819345 0.794019
O O2 0.023657 0.695613 0.787852
O O3 0.942121 0.899361 0.661835
O O4 0.589682 0.854187 0.031463
O O5 0.653517 0.074858 0.640371
O O6 0.350172 0.617145 0.871694
O O7 0.174645 0.815890 0.867786
O O8 0.875644 0.682523 0.170871
O O9 0.098616 0.780482 0.163904
O O10 0.281830 0.483027 0.765073
O O11 0.448494 0.392790 0.481948
O O12 0.601972 0.274707 0.677302
O O13 0.955372 0.088997 0.654868
O O14 0.625034 0.855318 0.512279
O O15 0.227877 0.005687 0.768364
#
# Coordination Sequence:
#
# PCOD9065791 Si02
#       8
#     2   1   2   2   2   2   2   2
#     4  12  25  43  70 100 137 179 228 278 339 401
#     4  12  26  40  68 106 130 182 230 274 334 410
#     4  12  24  40  70 101 129 177 227 279 343 408
#     4  11  25  47  72  99 133 178 236 290 335 397
#     4  11  25  47  72  99 133 178 236 290 335 397
#     4  12  25  43  70 100 137 179 228 278 339 401
#     4  11  25  43  64  97 145 181 219 276 345 413
#     4  11  25  43  64  97 145 181 219 276 345 413
#
# _framework density 24.43817
#
# number of rings (size 3 to 8) (size 9 to 14) (size 15 to 20)
#    0.000    0.533    5.333    2.000    3.733    0.000 
#    0.000    2.667    0.000    4.800    0.000    0.000 
#    0.000    0.000    0.000    0.000    0.000    0.000 
#
# Total GULP energy -83574.040575 kJ/mol
# GULP energy per Si atom -5571.602705 kJ/mol
# Density = 2.438255 g / cm^3
# Si number density = 24.438170 Si / 1000 Ang^3
#
#
#
# Elastic Constant Matrix: (Units=GPa)
#
#
# Indices 1 2 3 4 5 6 
#
# 1 62.1892 37.9390 9.9139 -8.1569 2.8017 16.7316
# 2 37.9390 157.4934 45.2854 4.5992 -5.7483 7.8676
# 3 9.9139 45.2854 170.8885 6.0478 -2.2800 21.0257
# 4 -8.1569 4.5992 6.0478 43.8996 19.0669 -0.2588
# 5 2.8017 -5.7483 -2.2800 19.0669 24.1343 -0.9277
# 6 16.7316 7.8676 21.0257 -0.2588 -0.9277 27.9154
#
#
#
# Elastic Compliance Matrix: (Units=1/GPa)
#
#
# Indices 1 2 3 4 5 6 
#
# 1 0.026307 -0.006879 0.001596 0.011460 -0.014187 -0.015396
# 2 -0.006879 0.008820 -0.002100 -0.004754 0.006587 0.003394
# 3 0.001596 -0.002100 0.007036 -0.000582 0.000222 -0.005662
# 4 0.011460 -0.004754 -0.000582 0.040562 -0.034789 -0.005870
# 5 -0.014187 0.006587 0.000222 -0.034789 0.072485 0.008566
# 6 -0.015396 0.003394 -0.005662 -0.005870 0.008566 0.048589
#
#
# Mechanical properties :
#
#
# Convention : Reuss Voigt Hill
#
# Bulk Modulus (GPa) = 36.49996 64.09416 50.29706
# Shear Modulus (GPa) = 21.95902 39.01873 30.48888
#
# Velocity S-wave (km/s) = 3.00084 4.00012 3.53596
# Velocity P-wave (km/s) = 5.19373 6.90063 6.10710
#
# Compressibility (1/GPa) = 0.02739729
#
# Stress axis : x y z
#
# Youngs Moduli (GPa) = 38.01283 113.37679 142.12978
#
# Poissons Ratio (x) = 0.77998 -0.22689
# Poissons Ratio (y) = 0.26151 0.29842
# Poissons Ratio (z) = -0.06068 0.23805
#
# Static dielectric constant tensor:
#      x y z
#    x 2.213830 0.139110 0.137440 
#    y 0.139110 2.101720 0.225250 
#    z 0.137440 0.225250 2.061500 
# 
# From -- ./inp_files/389649.got.cif
#   From: 2010.05.17/outbox.cif.g08.bks.cpg/sg2_195_cif.got.tgz:389649.got - 2010.06.03 11:33:40.
