data_PCOD9065555
_publ_section_title
;
Structure prediction by ZEFSAII (Michael W. Deem and Ramdas Pophale) SiO2 
 PCOD9065555
Probable space group: P -1
;
_chemical_formula_sum "Si O2"
_cell_formula_units_Z 12
_cell_length_a 22.283959
_cell_length_b 7.934726
_cell_length_c 24.647607
_cell_angle_alpha 144.348172
_cell_angle_beta 10.267083
_cell_angle_gamma 143.640645
_cell_volume 452.056779
_symmetry_space_group_name_H-M "P -1"
_symmetry_group_IT_number 2
_symmetry_cell_setting 'triclinic'
loop_
_space_group_symop_operation_xyz
x,y,z
-x,-y,-z
loop_
_atom_site_type_symbol
_atom_site_label
_atom_site_fract_x
_atom_site_fract_y
_atom_site_fract_z
Si Si1 0.360921 0.626690 0.916587
Si Si2 0.139953 0.876309 0.650119
Si Si3 0.038943 0.978112 0.563307
Si Si4 0.755357 0.518437 0.344385
Si Si5 0.821391 0.852546 0.202349
Si Si6 0.124260 0.415238 0.292140
O O1 0.560634 0.341504 0.671743
O O2 0.018212 0.556965 0.169803
O O3 0.613306 0.848930 0.716682
O O4 0.240311 0.788829 0.119761
O O5 0.879669 0.716587 0.798473
O O6 0.049327 0.948885 0.811223
O O7 0.228030 0.186432 0.626216
O O8 0.041251 0.810474 0.575698
O O9 0.955405 0.722827 0.527870
O O10 0.372608 0.444235 0.682292
O O11 0.892073 0.248833 0.118658
O O12 0.500000 0.000000 0.500000
O O13 0.500000 0.500000 0.000000
#
# Coordination Sequence:
#
# PCOD9065555 Si02
#       6
#     2   2   2   2   2   2
#     4  12  26  47  77 109 147 196 244 300 367 438
#     4  12  28  46  79 110 144 202 247 293 377 435
#     4  11  24  49  71 107 150 189 241 314 357 428
#     4  12  26  51  74 107 157 186 248 305 361 434
#     4  12  27  50  76 110 151 194 243 306 364 433
#     4  11  24  50  78 107 149 195 246 303 373 431
#
# _framework density 26.545337
#
# number of rings (size 3 to 8) (size 9 to 14) (size 15 to 20)
#    0.000    0.333    5.000    2.500    0.000    2.667 
#   12.000    0.000    0.000    0.000    0.000    0.000 
#    0.000    0.000    0.000    0.000    0.000    0.000 
#
# Total GULP energy -67359.830110 kJ/mol
# GULP energy per Si atom -5613.319176 kJ/mol
# Density = 2.648492 g / cm^3
# Si number density = 26.545337 Si / 1000 Ang^3
#
#
#
# Elastic Constant Matrix: (Units=GPa)
#
#
# Indices 1 2 3 4 5 6 
#
# 1 91.7617 57.4316 25.3688 -16.8101 -11.4366 18.4510
# 2 57.4316 145.5610 48.4763 15.4239 1.8871 15.4654
# 3 25.3688 48.4763 123.1881 -8.2458 9.1217 1.3217
# 4 -16.8101 15.4239 -8.2458 62.9956 -2.7641 1.5906
# 5 -11.4366 1.8871 9.1217 -2.7641 44.7063 1.1107
# 6 18.4510 15.4654 1.3217 1.5906 1.1107 44.6537
#
#
#
# Elastic Compliance Matrix: (Units=1/GPa)
#
#
# Indices 1 2 3 4 5 6 
#
# 1 0.018983 -0.007433 -0.000883 0.007173 0.005934 -0.005646
# 2 -0.007433 0.011518 -0.003198 -0.005297 -0.002048 -0.000584
# 3 -0.000883 -0.003198 0.009809 0.001713 -0.002016 0.001171
# 4 0.007173 -0.005297 0.001713 0.019488 0.002962 -0.001948
# 5 0.005934 -0.002048 -0.002016 0.002962 0.024627 -0.002401
# 6 -0.005646 -0.000584 0.001171 -0.001948 -0.002401 0.025024
#
#
# Mechanical properties :
#
#
# Convention : Reuss Voigt Hill
#
# Bulk Modulus (GPa) = 57.86476 69.22934 63.54705
# Shear Modulus (GPa) = 36.16960 45.75340 40.96150
#
# Velocity S-wave (km/s) = 3.69529 4.15612 3.93246
# Velocity P-wave (km/s) = 6.32872 7.01195 6.67908
#
# Compressibility (1/GPa) = 0.01728168
#
# Stress axis : x y z
#
# Youngs Moduli (GPa) = 52.67948 86.82422 101.94222
#
# Poissons Ratio (x) = 0.64533 0.09002
# Poissons Ratio (y) = 0.39155 0.32604
# Poissons Ratio (z) = 0.04652 0.27769
#
# Static dielectric constant tensor:
#      x y z
#    x 2.131310 -0.043060 -0.019190 
#    y -0.043060 2.111440 0.018630 
#    z -0.019190 0.018630 2.036730 
# 
# From -- ./inp_files/620926.got.cif
#   From: 2010.05.17/outbox.cif.g08.bks.cpg/sg2_311_cif.got.tgz:620926.got - 2010.06.03 11:33:40.
