data_PCOD9065872
_publ_section_title
;
Structure prediction by ZEFSAII (Michael W. Deem and Ramdas Pophale) SiO2 
 PCOD9065872
Probable space group: P -1
;
_chemical_formula_sum "Si O2"
_cell_formula_units_Z 16
_cell_length_a 11.680754
_cell_length_b 12.394863
_cell_length_c 12.134302
_cell_angle_alpha 25.663217
_cell_angle_beta 67.691151
_cell_angle_gamma 74.397179
_cell_volume 692.053826
_symmetry_space_group_name_H-M "P -1"
_symmetry_group_IT_number 2
_symmetry_cell_setting 'triclinic'
loop_
_space_group_symop_operation_xyz
x,y,z
-x,-y,-z
loop_
_atom_site_type_symbol
_atom_site_label
_atom_site_fract_x
_atom_site_fract_y
_atom_site_fract_z
Si Si1 0.133944 0.917287 0.033374
Si Si2 0.495187 0.236138 0.863351
Si Si3 0.340724 0.287720 0.076272
Si Si4 0.622982 0.158229 0.366758
Si Si5 0.863341 0.310573 0.994956
Si Si6 0.290727 0.400219 0.638398
Si Si7 0.930990 0.875158 0.750801
Si Si8 0.082368 0.678812 0.500071
O O1 0.106272 0.715203 0.327982
O O2 0.159054 0.843543 0.968567
O O3 0.240177 0.139209 0.836246
O O4 0.000000 0.000000 0.000000
O O5 0.395329 0.382269 0.707398
O O6 0.634695 0.400631 0.659255
O O7 0.433130 0.180847 0.054948
O O8 0.500000 0.000000 0.000000
O O9 0.198263 0.302913 0.075927
O O10 0.325718 0.062848 0.379969
O O11 0.403354 0.582565 0.804695
O O12 0.731391 0.281823 0.128535
O O13 0.500000 0.000000 0.500000
O O14 0.963923 0.231327 0.117989
O O15 0.938111 0.579741 0.675945
O O16 0.174160 0.481903 0.668816
O O17 0.880288 0.074463 0.666905
O O18 0.000000 0.000000 0.500000
#
# Coordination Sequence:
#
# PCOD9065872 Si02
#       8
#     2   2   2   2   2   2   2   2
#     4  12  24  44  68 111 145 195 242 320 388 452
#     4  11  26  46  74 111 147 200 255 314 384 465
#     4  12  28  51  81 109 156 202 260 323 388 455
#     4  12  31  54  75 112 153 210 262 316 383 470
#     4  12  27  45  76 106 155 197 261 311 387 464
#     4  11  25  43  72 107 149 190 248 310 391 454
#     4  12  25  45  75 110 147 197 254 317 386 454
#     4  12  24  45  72 111 148 190 253 317 386 463
#
# _framework density 23.119591
#
# number of rings (size 3 to 8) (size 9 to 14) (size 15 to 20)
#    0.000    0.250    3.750    4.500    8.750    2.000 
#    0.000    0.000    0.000    0.000    0.000    0.000 
#    0.000    0.000    0.000    0.000    0.000    0.000 
#
# Total GULP energy -89390.506762 kJ/mol
# GULP energy per Si atom -5586.906673 kJ/mol
# Density = 2.306697 g / cm^3
# Si number density = 23.119591 Si / 1000 Ang^3
#
#
#
# Elastic Constant Matrix: (Units=GPa)
#
#
# Indices 1 2 3 4 5 6 
#
# 1 75.7830 23.2442 37.8271 11.4481 -17.4536 3.7834
# 2 23.2442 87.7516 16.6869 6.2729 -7.1255 -0.3528
# 3 37.8271 16.6869 96.2641 6.2237 -30.1061 2.4111
# 4 11.4481 6.2729 6.2237 46.6997 0.1283 -7.5717
# 5 -17.4536 -7.1255 -30.1061 0.1283 46.0871 -1.7233
# 6 3.7834 -0.3528 2.4111 -7.5717 -1.7233 27.6816
#
#
#
# Elastic Compliance Matrix: (Units=1/GPa)
#
#
# Indices 1 2 3 4 5 6 
#
# 1 0.018279 -0.003327 -0.005422 -0.003795 0.002767 -0.002934
# 2 -0.003327 0.012489 -0.000767 -0.000678 0.000191 0.000507
# 3 -0.005422 -0.000767 0.015104 -0.000648 0.007686 -0.000283
# 4 -0.003795 -0.000678 -0.000648 0.023649 -0.001772 0.006925
# 5 0.002767 0.000191 0.007686 -0.001772 0.027809 0.000201
# 6 -0.002934 0.000507 -0.000283 0.006925 0.000201 0.038464
#
#
# Mechanical properties :
#
#
# Convention : Reuss Voigt Hill
#
# Bulk Modulus (GPa) = 37.25544 46.14610 41.70077
# Shear Modulus (GPa) = 30.53017 36.22970 33.37994
#
# Velocity S-wave (km/s) = 3.63786 3.96290 3.80385
# Velocity P-wave (km/s) = 5.81331 6.39863 6.11298
#
# Compressibility (1/GPa) = 0.02684172
#
# Stress axis : x y z
#
# Youngs Moduli (GPa) = 54.70630 80.07144 66.20606
#
# Poissons Ratio (x) = 0.26638 0.35897
# Poissons Ratio (y) = 0.18199 0.05076
# Poissons Ratio (z) = 0.29662 0.06140
#
# Static dielectric constant tensor:
#      x y z
#    x 1.798330 0.051190 -0.018270 
#    y 0.051190 1.889100 0.025550 
#    z -0.018270 0.025550 1.909110 
# 
# From -- ./inp_files/427210.got.cif
#   From: 2010.05.17/outbox.cif.g08.bks.cpg/sg2_214_cif.got.tgz:427210.got - 2010.06.03 11:33:40.
