data_PCOD9065777
_publ_section_title
;
Structure prediction by ZEFSAII (Michael W. Deem and Ramdas Pophale) SiO2 
 PCOD9065777
Probable space group: P -1
;
_chemical_formula_sum "Si O2"
_cell_formula_units_Z 16
_cell_length_a 14.353597
_cell_length_b 11.961284
_cell_length_c 8.224061
_cell_angle_alpha 91.837501
_cell_angle_beta 59.989513
_cell_angle_gamma 139.067880
_cell_volume 635.049905
_symmetry_space_group_name_H-M "P -1"
_symmetry_group_IT_number 2
_symmetry_cell_setting 'triclinic'
loop_
_space_group_symop_operation_xyz
x,y,z
-x,-y,-z
loop_
_atom_site_type_symbol
_atom_site_label
_atom_site_fract_x
_atom_site_fract_y
_atom_site_fract_z
Si Si1 0.338872 0.585078 0.738788
Si Si2 0.869696 0.451069 0.476961
Si Si3 0.090234 0.890210 0.291221
Si Si4 0.598269 0.534705 0.079651
Si Si5 0.419867 0.104258 0.767684
Si Si6 0.740042 0.695566 0.407253
Si Si7 0.910728 0.299376 0.169561
Si Si8 0.082842 0.929627 0.663704
O O1 0.427424 0.617030 0.834295
O O2 0.482395 0.756918 0.476088
O O3 0.238069 0.381884 0.745045
O O4 0.151456 0.503691 0.921502
O O5 0.621641 0.248494 0.704076
O O6 0.000000 0.500000 0.500000
O O7 0.979277 0.669368 0.377607
O O8 0.880425 0.380054 0.309046
O O9 0.156961 0.984587 0.416382
O O10 0.910204 0.814905 0.396682
O O11 0.273951 0.050651 0.006751
O O12 0.483227 0.501664 0.321864
O O13 0.500000 0.500000 0.000000
O O14 0.844166 0.755968 0.856933
O O15 0.261710 0.868435 0.828305
O O16 0.797694 0.873092 0.323373
O O17 0.891086 0.169333 0.288380
#
# Coordination Sequence:
#
# PCOD9065777 Si02
#       8
#     2   2   2   2   2   2   2   2
#     4  11  26  48  72 110 152 198 248 306 374 445
#     4  12  27  51  80 111 150 188 251 318 382 444
#     4  12  26  48  74 111 150 199 247 312 374 446
#     4  11  25  42  73 103 147 202 246 304 365 431
#     4  12  26  49  79 109 151 196 250 306 382 450
#     4  12  24  45  70 109 152 197 249 301 367 448
#     4  11  25  50  77 108 147 194 249 316 373 449
#     4  11  26  46  72 108 150 195 253 307 370 441
#
# _framework density 25.194870000000002
#
# number of rings (size 3 to 8) (size 9 to 14) (size 15 to 20)
#    0.000    0.500    5.000    1.875    1.750    6.500 
#    2.250    0.000    0.000    0.000    0.000    0.000 
#    0.000    0.000    0.000    0.000    0.000    0.000 
#
# Total GULP energy -89506.581763 kJ/mol
# GULP energy per Si atom -5594.161360 kJ/mol
# Density = 2.513753 g / cm^3
# Si number density = 25.194870 Si / 1000 Ang^3
#
#
#
# Elastic Constant Matrix: (Units=GPa)
#
#
# Indices 1 2 3 4 5 6 
#
# 1 101.4491 20.9267 15.9751 -27.1481 6.7384 18.4077
# 2 20.9267 88.7581 20.8306 -14.0858 -14.5066 11.0895
# 3 15.9751 20.8306 117.5048 -4.7839 -20.5209 8.4402
# 4 -27.1481 -14.0858 -4.7839 31.4348 2.2308 -7.9050
# 5 6.7384 -14.5066 -20.5209 2.2308 53.6462 0.5889
# 6 18.4077 11.0895 8.4402 -7.9050 0.5889 56.9861
#
#
#
# Elastic Compliance Matrix: (Units=1/GPa)
#
#
# Indices 1 2 3 4 5 6 
#
# 1 0.013936 -0.001414 -0.001580 0.010765 -0.003158 -0.002466
# 2 -0.001414 0.013220 -0.001351 0.003925 0.003088 -0.001403
# 3 -0.001580 -0.001351 0.009605 -0.000967 0.003556 -0.000820
# 4 0.010765 0.003925 -0.000967 0.043386 -0.002486 0.001946
# 5 -0.003158 0.003088 0.003556 -0.002486 0.021343 -0.000673
# 6 -0.002466 -0.001403 -0.000820 0.001946 -0.000673 0.019016
#
#
# Mechanical properties :
#
#
# Convention : Reuss Voigt Hill
#
# Bulk Modulus (GPa) = 35.62603 47.01965 41.32284
# Shear Modulus (GPa) = 36.08673 45.07874 40.58274
#
# Velocity S-wave (km/s) = 3.78869 4.23449 4.01777
# Velocity P-wave (km/s) = 5.77146 6.52769 6.16119
#
# Compressibility (1/GPa) = 0.02806936
#
# Stress axis : x y z
#
# Youngs Moduli (GPa) = 71.75815 75.64272 104.10910
#
# Poissons Ratio (x) = 0.10699 0.16448
# Poissons Ratio (y) = 0.10150 0.14070
# Poissons Ratio (z) = 0.11337 0.10223
#
# Static dielectric constant tensor:
#      x y z
#    x 2.015000 0.060940 0.060530 
#    y 0.060940 1.995100 -0.029850 
#    z 0.060530 -0.029850 2.042920 
# 
# From -- ./inp_files/312975.got.cif
#   From: 2010.05.17/outbox.cif.g08.bks.cpg/sg2_157_cif.got.tgz:312975.got - 2010.06.03 11:33:40.
