data_PCOD9065528
_publ_section_title
;
Structure prediction by ZEFSAII (Michael W. Deem and Ramdas Pophale) SiO2 
 PCOD9065528
Probable space group: P -1
;
_chemical_formula_sum "Si O2"
_cell_formula_units_Z 14
_cell_length_a 24.070419
_cell_length_b 12.804038
_cell_length_c 13.570823
_cell_angle_alpha 21.419265
_cell_angle_beta 21.370257
_cell_angle_gamma 22.658397
_cell_volume 505.106663
_symmetry_space_group_name_H-M "P -1"
_symmetry_group_IT_number 2
_symmetry_cell_setting 'triclinic'
loop_
_space_group_symop_operation_xyz
x,y,z
-x,-y,-z
loop_
_atom_site_type_symbol
_atom_site_label
_atom_site_fract_x
_atom_site_fract_y
_atom_site_fract_z
Si Si1 0.194017 0.060426 0.571355
Si Si2 0.989926 0.823134 0.771671
Si Si3 0.725290 0.537869 0.235564
Si Si4 0.440233 0.756484 0.018304
Si Si5 0.412902 0.419721 0.864761
Si Si6 0.736136 0.423585 0.686253
Si Si7 0.011597 0.425925 0.376539
O O1 0.075175 0.138332 0.603360
O O2 0.093336 0.292554 0.622886
O O3 0.263909 0.721891 0.801720
O O4 0.351731 0.141230 0.209940
O O5 0.141588 0.730808 0.678544
O O6 0.000000 0.000000 0.500000
O O7 0.807164 0.042954 0.926578
O O8 0.000000 0.500000 0.000000
O O9 0.584153 0.421583 0.538519
O O10 0.648060 0.881299 0.117006
O O11 0.823671 0.584037 0.939709
O O12 0.575105 0.690928 0.767043
O O13 0.551588 0.552314 0.103256
O O14 0.322936 0.594368 0.312130
O O15 0.894657 0.450127 0.453444
#
# Coordination Sequence:
#
# PCOD9065528 Si02
#       7
#     2   2   2   2   2   2   2
#     4  11  28  53  81 111 165 210 277 333 397 482
#     4  12  26  47  73 119 163 209 256 332 389 484
#     4  12  27  46  83 117 167 204 279 329 411 468
#     4  11  25  51  76 121 158 215 258 331 403 496
#     4  12  25  53  77 113 162 211 260 338 400 478
#     4  11  24  48  82 112 165 209 267 318 411 481
#     4  11  27  51  81 121 153 220 271 337 400 471
#
# _framework density 27.716919999999998
#
# number of rings (size 3 to 8) (size 9 to 14) (size 15 to 20)
#    0.000    0.571    4.286    1.714    4.000    4.571 
#    2.571    2.857    0.000    0.000    0.000    0.000 
#    0.000    0.000    0.000    0.000    0.000    0.000 
#
# Total GULP energy -78354.837696 kJ/mol
# GULP energy per Si atom -5596.774121 kJ/mol
# Density = 2.765384 g / cm^3
# Si number density = 27.716920 Si / 1000 Ang^3
#
#
#
# Elastic Constant Matrix: (Units=GPa)
#
#
# Indices 1 2 3 4 5 6 
#
# 1 231.0914 71.1145 43.3595 -12.1594 -11.5967 -3.9090
# 2 71.1145 159.7464 36.7524 -5.1370 1.6559 9.2029
# 3 43.3595 36.7524 124.5649 1.7202 -6.2169 13.8707
# 4 -12.1594 -5.1370 1.7202 51.9311 -12.2484 7.1420
# 5 -11.5967 1.6559 -6.2169 -12.2484 46.4041 -7.9172
# 6 -3.9090 9.2029 13.8707 7.1420 -7.9172 57.1069
#
#
#
# Elastic Compliance Matrix: (Units=1/GPa)
#
#
# Indices 1 2 3 4 5 6 
#
# 1 0.005415 -0.002149 -0.001303 0.001372 0.001807 0.001113
# 2 -0.002149 0.007634 -0.001429 0.000193 -0.001157 -0.001215
# 3 -0.001303 -0.001429 0.009153 -0.000356 0.000522 -0.001965
# 4 0.001372 0.000193 -0.000356 0.021161 0.005580 -0.001724
# 5 0.001807 -0.001157 0.000522 0.005580 0.024067 0.002822
# 6 0.001113 -0.001215 -0.001965 -0.001724 0.002822 0.018867
#
#
# Mechanical properties :
#
#
# Convention : Reuss Voigt Hill
#
# Bulk Modulus (GPa) = 80.40028 90.87285 85.63657
# Shear Modulus (GPa) = 49.89644 55.36683 52.63164
#
# Velocity S-wave (km/s) = 4.24750 4.47428 4.36236
# Velocity P-wave (km/s) = 7.28873 7.71683 7.50583
#
# Compressibility (1/GPa) = 0.01243777
#
# Stress axis : x y z
#
# Youngs Moduli (GPa) = 184.67295 130.99588 109.25222
#
# Poissons Ratio (x) = 0.28157 0.14239
# Poissons Ratio (y) = 0.39695 0.15615
# Poissons Ratio (z) = 0.24069 0.18723
#
# Static dielectric constant tensor:
#      x y z
#    x 2.132020 0.071700 -0.001010 
#    y 0.071700 2.178230 0.078130 
#    z -0.001010 0.078130 2.253500 
# 
# From -- ./inp_files/544219.got.cif
#   From: 2010.05.17/outbox.cif.g08.bks.cpg/sg2_273_cif.got.tgz:544219.got - 2010.06.03 11:33:40.
