data_PCOD9065702
_publ_section_title
;
Structure prediction by ZEFSAII (Michael W. Deem and Ramdas Pophale) SiO2 
 PCOD9065702
Probable space group: P -1
;
_chemical_formula_sum "Si O2"
_cell_formula_units_Z 12
_cell_length_a 11.849064
_cell_length_b 9.205933
_cell_length_c 9.303391
_cell_angle_alpha 149.918417
_cell_angle_beta 105.428632
_cell_angle_gamma 67.497143
_cell_volume 465.262918
_symmetry_space_group_name_H-M "P -1"
_symmetry_group_IT_number 2
_symmetry_cell_setting 'triclinic'
loop_
_space_group_symop_operation_xyz
x,y,z
-x,-y,-z
loop_
_atom_site_type_symbol
_atom_site_label
_atom_site_fract_x
_atom_site_fract_y
_atom_site_fract_z
Si Si1 0.721210 0.561440 0.383194
Si Si2 0.833658 0.705801 0.022147
Si Si3 0.621434 0.220740 0.833351
Si Si4 0.401322 0.817922 0.777049
Si Si5 0.036536 0.754944 0.928142
Si Si6 0.161559 0.925635 0.401290
O O1 0.689130 0.326423 0.280514
O O2 0.863344 0.525104 0.363474
O O3 0.633036 0.913914 0.667505
O O4 0.693916 0.415205 0.102961
O O5 0.700491 0.954303 0.163518
O O6 0.918085 0.687427 0.895421
O O7 0.890423 0.800722 0.269300
O O8 0.818671 0.381069 0.765854
O O9 0.701852 0.075136 0.598552
O O10 0.500000 0.500000 0.000000
O O11 0.500000 0.500000 0.500000
O O12 0.500000 0.000000 0.000000
O O13 0.085704 0.894555 0.206160
O O14 0.000000 0.000000 0.000000
#
# Coordination Sequence:
#
# PCOD9065702 Si02
#       6
#     2   2   2   2   2   2
#     4  11  25  47  71 109 143 194 257 308 365 452
#     4  12  26  49  76 110 152 203 244 317 376 448
#     4  11  25  44  73 102 149 195 246 308 377 446
#     4  12  27  46  73 108 154 198 254 308 374 455
#     4  11  24  51  77 112 153 198 255 314 380 457
#     4  11  26  46  74 113 148 196 257 306 381 446
#
# _framework density 25.791869999999999
#
# number of rings (size 3 to 8) (size 9 to 14) (size 15 to 20)
#    0.000    0.667    1.667    5.500    7.000    2.667 
#    0.000    8.333    0.000    0.000    0.000    0.000 
#    0.000    0.000    0.000    0.000    0.000    0.000 
#
# Total GULP energy -66918.406628 kJ/mol
# GULP energy per Si atom -5576.533886 kJ/mol
# Density = 2.573317 g / cm^3
# Si number density = 25.791870 Si / 1000 Ang^3
#
#
#
# Elastic Constant Matrix: (Units=GPa)
#
#
# Indices 1 2 3 4 5 6 
#
# 1 74.1703 51.6558 16.0555 -1.9949 -8.4865 17.4886
# 2 51.6558 99.9689 29.8668 22.6536 2.6511 10.0552
# 3 16.0555 29.8668 131.8920 40.9491 13.4944 5.9900
# 4 -1.9949 22.6536 40.9491 38.2401 11.5403 -0.0932
# 5 -8.4865 2.6511 13.4944 11.5403 47.9660 10.2146
# 6 17.4886 10.0552 5.9900 -0.0932 10.2146 39.1248
#
#
#
# Elastic Compliance Matrix: (Units=1/GPa)
#
#
# Indices 1 2 3 4 5 6 
#
# 1 0.028825 -0.015900 -0.004352 0.013766 0.005947 -0.009651
# 2 -0.015900 0.020872 0.001851 -0.014776 -0.001308 0.001766
# 3 -0.004352 0.001851 0.012165 -0.014090 -0.000862 -0.000201
# 4 0.013766 -0.014776 -0.014090 0.052434 -0.005700 0.001415
# 5 0.005947 -0.001308 -0.000862 -0.005700 0.025472 -0.008854
# 6 -0.009651 0.001766 -0.000201 0.001415 -0.008854 0.031765
#
#
# Mechanical properties :
#
#
# Convention : Reuss Voigt Hill
#
# Bulk Modulus (GPa) = 39.90876 55.68749 47.79813
# Shear Modulus (GPa) = 23.07458 38.96304 31.01881
#
# Velocity S-wave (km/s) = 2.99431 3.89095 3.47170
# Velocity P-wave (km/s) = 5.24037 6.46715 5.88581
#
# Compressibility (1/GPa) = 0.02505715
#
# Stress axis : x y z
#
# Youngs Moduli (GPa) = 34.69251 47.91184 82.20537
#
# Poissons Ratio (x) = 0.76181 0.35778
# Poissons Ratio (y) = 0.55162 -0.15213
# Poissons Ratio (z) = 0.15099 -0.08866
#
# Static dielectric constant tensor:
#      x y z
#    x 2.654820 -0.224640 -0.201310 
#    y -0.224640 2.204940 0.068400 
#    z -0.201310 0.068400 2.126370 
# 
# From -- ./inp_files/299928.got.cif
#   From: 2010.05.17/outbox.cif.g08.bks.cpg/sg2_150_cif.got.tgz:299928.got - 2010.06.03 11:33:40.
