data_PCOD9065449
_publ_section_title
;
Structure prediction by ZEFSAII (Michael W. Deem and Ramdas Pophale) SiO2 
 PCOD9065449
Probable space group: P -1
;
_chemical_formula_sum "Si O2"
_cell_formula_units_Z 14
_cell_length_a 12.591857
_cell_length_b 5.093521
_cell_length_c 11.116104
_cell_angle_alpha 63.246408
_cell_angle_beta 72.418311
_cell_angle_gamma 70.356696
_cell_volume 589.871445
_symmetry_space_group_name_H-M "P -1"
_symmetry_group_IT_number 2
_symmetry_cell_setting 'triclinic'
loop_
_space_group_symop_operation_xyz
x,y,z
-x,-y,-z
loop_
_atom_site_type_symbol
_atom_site_label
_atom_site_fract_x
_atom_site_fract_y
_atom_site_fract_z
Si Si1 0.711200 0.391691 0.309683
Si Si2 0.256629 0.297161 0.999341
Si Si3 0.108226 0.847741 0.074005
Si Si4 0.801306 0.550791 0.674882
Si Si5 0.132384 0.838606 0.499922
Si Si6 0.425047 0.302768 0.136764
Si Si7 0.424605 0.073649 0.629902
O O1 0.705525 0.644598 0.158550
O O2 0.833410 0.291476 0.352675
O O3 0.674031 0.107691 0.323236
O O4 0.625846 0.571203 0.403784
O O5 0.197738 0.629480 0.001056
O O6 0.360128 0.165233 0.081476
O O7 0.163553 0.100200 0.063249
O O8 0.098301 0.622928 0.233520
O O9 0.000000 0.000000 0.000000
O O10 0.829172 0.411852 0.563425
O O11 0.681087 0.518382 0.780268
O O12 0.798283 0.903072 0.599617
O O13 0.000000 0.000000 0.500000
O O14 0.502871 0.072925 0.248988
O O15 0.500000 0.500000 0.000000
O O16 0.500000 0.000000 0.500000
#
# Coordination Sequence:
#
# PCOD9065449 Si02
#       7
#     2   2   2   2   2   2   2
#     4  12  26  44  70 104 142 180 252 292 357 440
#     4  11  25  44  69 109 141 186 242 297 353 452
#     4  11  25  43  74  99 143 181 235 310 369 416
#     4  11  26  47  69 109 140 188 252 297 358 452
#     4  12  27  48  74 101 146 197 239 306 370 432
#     4  11  24  48  74 109 151 197 239 301 377 429
#     4  12  26  45  73 104 146 194 241 304 361 430
#
# _framework density 23.733982999999998
#
# number of rings (size 3 to 8) (size 9 to 14) (size 15 to 20)
#    0.000    0.571    1.429    6.429    6.000    4.000 
#    0.000    0.000    0.000    0.000    0.000    0.000 
#    0.000    0.000    0.000    0.000    0.000    0.000 
#
# Total GULP energy -78386.385240 kJ/mol
# GULP energy per Si atom -5599.027517 kJ/mol
# Density = 2.367996 g / cm^3
# Si number density = 23.733983 Si / 1000 Ang^3
#
#
#
# Elastic Constant Matrix: (Units=GPa)
#
#
# Indices 1 2 3 4 5 6 
#
# 1 126.0844 28.2441 34.7032 2.6990 45.8495 -1.1177
# 2 28.2441 65.1291 -1.6971 2.3711 13.4908 3.5631
# 3 34.7032 -1.6971 94.2660 6.1691 36.3881 -2.0908
# 4 2.6990 2.3711 6.1691 26.3974 -2.1686 -0.2228
# 5 45.8495 13.4908 36.3881 -2.1686 57.1502 -4.4028
# 6 -1.1177 3.5631 -2.0908 -0.2228 -4.4028 34.4325
#
#
#
# Elastic Compliance Matrix: (Units=1/GPa)
#
#
# Indices 1 2 3 4 5 6 
#
# 1 0.012038 -0.003515 -0.001302 -0.001277 -0.008075 -0.000365
# 2 -0.003515 0.017928 0.003134 -0.002304 -0.003669 -0.002263
# 3 -0.001302 0.003134 0.015101 -0.004466 -0.009533 -0.000697
# 4 -0.001277 -0.002304 -0.004466 0.039764 0.005994 0.000949
# 5 -0.008075 -0.003669 -0.009533 0.005994 0.031416 0.003595
# 6 -0.000365 -0.002263 -0.000697 0.000949 0.003595 0.029688
#
#
# Mechanical properties :
#
#
# Convention : Reuss Voigt Hill
#
# Bulk Modulus (GPa) = 23.98149 45.33110 34.65630
# Shear Modulus (GPa) = 30.63698 38.54467 34.59082
#
# Velocity S-wave (km/s) = 3.59674 4.03430 3.82178
# Velocity P-wave (km/s) = 5.23210 6.39076 5.84024
#
# Compressibility (1/GPa) = 0.04169882
#
# Stress axis : x y z
#
# Youngs Moduli (GPa) = 83.07372 55.77938 66.22153
#
# Poissons Ratio (x) = 0.19607 0.08624
# Poissons Ratio (y) = 0.29201 -0.20751
# Poissons Ratio (z) = 0.10818 -0.17479
#
# Static dielectric constant tensor:
#      x y z
#    x 1.908270 -0.012690 -0.013100 
#    y -0.012690 1.884830 0.002770 
#    z -0.013100 0.002770 1.939390 
# 
# From -- ./inp_files/408931.got.cif
#   From: 2010.05.17/outbox.cif.g08.bks.cpg/sg2_205_cif.got.tgz:408931.got - 2010.06.03 11:33:40.
