data_PCOD9065445
_publ_section_title
;
Structure prediction by ZEFSAII (Michael W. Deem and Ramdas Pophale) SiO2 
 PCOD9065445
Probable space group: P -1
;
_chemical_formula_sum "Si O2"
_cell_formula_units_Z 10
_cell_length_a 13.597991
_cell_length_b 8.190325
_cell_length_c 12.578124
_cell_angle_alpha 146.881985
_cell_angle_beta 32.066878
_cell_angle_gamma 142.509754
_cell_volume 389.062771
_symmetry_space_group_name_H-M "P -1"
_symmetry_group_IT_number 2
_symmetry_cell_setting 'triclinic'
loop_
_space_group_symop_operation_xyz
x,y,z
-x,-y,-z
loop_
_atom_site_type_symbol
_atom_site_label
_atom_site_fract_x
_atom_site_fract_y
_atom_site_fract_z
Si Si1 0.881513 0.945883 0.855016
Si Si2 0.508901 0.372957 0.539128
Si Si3 0.097037 0.573604 0.710736
Si Si4 0.241562 0.756013 0.441796
Si Si5 0.711934 0.216938 0.955065
O O1 0.764645 0.582152 0.781063
O O2 0.092058 0.915308 0.609851
O O3 0.786112 0.094795 0.929000
O O4 0.902012 0.161913 0.057811
O O5 0.500000 0.500000 0.500000
O O6 0.717232 0.534206 0.484527
O O7 0.452272 0.999236 0.384452
O O8 0.340590 0.459253 0.803898
O O9 0.152324 0.699604 0.611264
O O10 0.894786 0.307985 0.759440
O O11 0.500000 0.000000 0.000000
#
# Coordination Sequence:
#
# PCOD9065445 Si02
#       5
#     2   2   2   2   2
#     4  11  24  48  74 107 147 195 243 301 367 435
#     4  12  25  47  75 108 146 194 244 301 369 441
#     4  12  25  49  78 104 154 193 244 312 359 436
#     4  11  26  46  76 113 146 192 251 300 368 440
#     4  12  27  48  75 110 146 197 249 299 375 435
#
# _framework density 25.702791000000001
#
# number of rings (size 3 to 8) (size 9 to 14) (size 15 to 20)
#    0.000    0.400    4.000    4.200    0.000    7.200 
#    0.000    0.000    0.000    0.000    0.000    0.000 
#    0.000    0.000    0.000    0.000    0.000    0.000 
#
# Total GULP energy -56014.713268 kJ/mol
# GULP energy per Si atom -5601.471327 kJ/mol
# Density = 2.564429 g / cm^3
# Si number density = 25.702791 Si / 1000 Ang^3
#
#
#
# Elastic Constant Matrix: (Units=GPa)
#
#
# Indices 1 2 3 4 5 6 
#
# 1 132.5609 45.3299 45.1858 -16.1562 -1.3963 7.6474
# 2 45.3299 190.9929 33.2276 -15.8030 5.0034 24.6495
# 3 45.1858 33.2276 116.4424 0.1365 -14.2976 5.5771
# 4 -16.1562 -15.8030 0.1365 50.3257 11.6049 -1.8447
# 5 -1.3963 5.0034 -14.2976 11.6049 48.7015 -6.1542
# 6 7.6474 24.6495 5.5771 -1.8447 -6.1542 30.5437
#
#
#
# Elastic Compliance Matrix: (Units=1/GPa)
#
#
# Indices 1 2 3 4 5 6 
#
# 1 0.009564 -0.001270 -0.003488 0.002981 -0.001436 -0.000842
# 2 -0.001270 0.006682 -0.001450 0.002032 -0.002283 -0.005147
# 3 -0.003488 -0.001450 0.010803 -0.002478 0.003900 0.000707
# 4 0.002981 0.002032 -0.002478 0.022914 -0.006547 -0.001869
# 5 -0.001436 -0.002283 0.003900 -0.006547 0.024186 0.005968
# 6 -0.000842 -0.005147 0.000707 -0.001869 0.005968 0.038065
#
#
# Mechanical properties :
#
#
# Convention : Reuss Voigt Hill
#
# Bulk Modulus (GPa) = 68.34337 76.38698 72.36518
# Shear Modulus (GPa) = 38.60774 46.99769 42.80271
#
# Velocity S-wave (km/s) = 3.87988 4.28074 4.08523
# Velocity P-wave (km/s) = 6.83512 7.36321 7.10407
#
# Compressibility (1/GPa) = 0.01463200
#
# Stress axis : x y z
#
# Youngs Moduli (GPa) = 104.56013 149.66249 92.56387
#
# Poissons Ratio (x) = 0.19007 0.32290
# Poissons Ratio (y) = 0.13279 0.13422
# Poissons Ratio (z) = 0.36475 0.21702
#
# Static dielectric constant tensor:
#      x y z
#    x 2.038750 0.064710 0.014720 
#    y 0.064710 2.026530 0.059310 
#    z 0.014720 0.059310 2.075560 
# 
# From -- ./inp_files/143944.got.cif
#   From: 2010.05.17/outbox.cif.g08.bks.cpg/sg2_72_cif.got.tgz:143944.got - 2010.06.03 11:33:40.
