data_PCOD9065513
_publ_section_title
;
Structure prediction by ZEFSAII (Michael W. Deem and Ramdas Pophale) SiO2 
 PCOD9065513
Probable space group: P -1
;
_chemical_formula_sum "Si O2"
_cell_formula_units_Z 15
_cell_length_a 15.605142
_cell_length_b 12.204630
_cell_length_c 9.020324
_cell_angle_alpha 142.619613
_cell_angle_beta 130.842976
_cell_angle_gamma 36.760509
_cell_volume 623.481382
_symmetry_space_group_name_H-M "P -1"
_symmetry_group_IT_number 2
_symmetry_cell_setting 'triclinic'
loop_
_space_group_symop_operation_xyz
x,y,z
-x,-y,-z
loop_
_atom_site_type_symbol
_atom_site_label
_atom_site_fract_x
_atom_site_fract_y
_atom_site_fract_z
Si Si1 0.500000 0.500000 0.500000
Si Si2 0.724220 0.547020 0.856179
Si Si3 0.687026 0.815174 0.367010
Si Si4 0.033489 0.261442 0.388575
Si Si5 0.946645 0.123874 0.859494
Si Si6 0.482148 0.726351 0.179449
Si Si7 0.254482 0.899811 0.847867
Si Si8 0.125699 0.405155 0.160665
O O1 0.568428 0.614321 0.769262
O O2 0.342274 0.697755 0.611499
O O3 0.766657 0.558157 0.751035
O O4 0.844511 0.311820 0.824160
O O5 0.717296 0.738943 0.149544
O O6 0.837989 0.736245 0.516704
O O7 0.619425 0.702346 0.245862
O O8 0.575687 0.087697 0.555545
O O9 0.937683 0.458712 0.611672
O O10 0.102990 0.023318 0.299825
O O11 0.955976 0.244507 0.143317
O O12 0.108215 0.949072 0.792542
O O13 0.500000 0.500000 0.000000
O O14 0.358191 0.840508 0.038934
O O15 0.202401 0.140502 0.983930
O O16 0.000000 0.500000 0.000000
#
# Coordination Sequence:
#
# PCOD9065513 Si02
#       8
#     1   2   2   2   2   2   2   2
#     4  12  30  50  74 108 158 210 266 324 402 488
#     4  12  27  50  77 115 159 217 265 333 402 481
#     4  11  24  48  79 114 155 205 272 323 399 482
#     4  11  25  46  79 120 154 206 266 338 395 474
#     4  11  26  47  82 115 158 211 273 332 402 469
#     4  11  27  50  77 116 163 212 264 339 404 480
#     4  12  26  51  74 113 157 212 269 330 402 482
#     4  12  26  47  78 115 162 207 262 337 401 468
#
# _framework density 24.058457000000001
#
# number of rings (size 3 to 8) (size 9 to 14) (size 15 to 20)
#    0.000    0.533    5.333    0.800    5.600    3.733 
#    9.600    0.000    0.000    0.000    0.000    0.000 
#    0.000    0.000    0.000    0.000    0.000    0.000 
#
# Total GULP energy -83816.799455 kJ/mol
# GULP energy per Si atom -5587.786630 kJ/mol
# Density = 2.400370 g / cm^3
# Si number density = 24.058457 Si / 1000 Ang^3
#
#
#
# Elastic Constant Matrix: (Units=GPa)
#
#
# Indices 1 2 3 4 5 6 
#
# 1 152.9576 54.2613 49.3474 11.6457 8.6160 -9.5403
# 2 54.2613 84.3574 23.4541 7.8481 9.0579 14.9363
# 3 49.3474 23.4541 108.1477 22.2689 -7.9056 3.7749
# 4 11.6457 7.8481 22.2689 42.8626 -6.4330 10.8303
# 5 8.6160 9.0579 -7.9056 -6.4330 59.1704 6.7909
# 6 -9.5403 14.9363 3.7749 10.8303 6.7909 37.7148
#
#
#
# Elastic Compliance Matrix: (Units=1/GPa)
#
#
# Indices 1 2 3 4 5 6 
#
# 1 0.010676 -0.006704 -0.003407 -0.001857 -0.001940 0.006579
# 2 -0.006704 0.017943 -0.000800 0.001090 -0.000737 -0.008902
# 3 -0.003407 -0.000800 0.012114 -0.004772 0.001800 -0.000711
# 4 -0.001857 0.001090 -0.004772 0.029055 0.003708 -0.009435
# 5 -0.001940 -0.000737 0.001800 0.003708 0.018487 -0.004772
# 6 0.006579 -0.008902 -0.000711 -0.009435 -0.004772 0.035344
#
#
# Mechanical properties :
#
#
# Convention : Reuss Voigt Hill
#
# Bulk Modulus (GPa) = 52.87875 66.62093 59.74984
# Shear Modulus (GPa) = 32.95041 42.50955 37.72998
#
# Velocity S-wave (km/s) = 3.70482 4.20804 3.96443
# Velocity P-wave (km/s) = 6.35043 7.16670 6.77088
#
# Compressibility (1/GPa) = 0.01891119
#
# Stress axis : x y z
#
# Youngs Moduli (GPa) = 93.66802 55.73296 82.55241
#
# Poissons Ratio (x) = 0.37362 0.28123
# Poissons Ratio (y) = 0.62793 0.06605
# Poissons Ratio (z) = 0.31910 0.04459
#
# Static dielectric constant tensor:
#      x y z
#    x 1.929290 -0.042540 -0.012180 
#    y -0.042540 1.917960 -0.003230 
#    z -0.012180 -0.003230 1.916600 
# 
# From -- ./inp_files/333949.got.cif
#   From: 2010.05.17/outbox.cif.g08.bks.cpg/sg2_167_cif.got.tgz:333949.got - 2010.06.03 11:33:40.
