data_PCOD9065207
_publ_section_title
;
Structure prediction by ZEFSAII (Michael W. Deem and Ramdas Pophale) SiO2 
 PCOD9065207
Probable space group: P -1
;
_chemical_formula_sum "Si O2"
_cell_formula_units_Z 14
_cell_length_a 10.068258
_cell_length_b 13.626749
_cell_length_c 10.648481
_cell_angle_alpha 43.971105
_cell_angle_beta 68.180604
_cell_angle_gamma 36.842082
_cell_volume 529.946914
_symmetry_space_group_name_H-M "P -1"
_symmetry_group_IT_number 2
_symmetry_cell_setting 'triclinic'
loop_
_space_group_symop_operation_xyz
x,y,z
-x,-y,-z
loop_
_atom_site_type_symbol
_atom_site_label
_atom_site_fract_x
_atom_site_fract_y
_atom_site_fract_z
Si Si1 0.293948 0.139813 0.546187
Si Si2 0.731439 0.644747 0.997074
Si Si3 0.909402 0.706899 0.201854
Si Si4 0.466583 0.222269 0.771238
Si Si5 0.336217 0.610757 0.776914
Si Si6 0.037260 0.056918 0.636564
Si Si7 0.776690 0.337405 0.703698
O O1 0.129036 0.141671 0.554010
O O2 0.138413 0.412816 0.360196
O O3 0.500000 0.000000 0.500000
O O4 0.483895 0.931724 0.778371
O O5 0.665297 0.667196 0.146192
O O6 0.722277 0.501791 0.062381
O O7 0.000000 0.500000 0.000000
O O8 0.696936 0.762855 0.255596
O O9 0.016707 0.725093 0.251697
O O10 0.754795 0.930218 0.950832
O O11 0.414269 0.408990 0.545039
O O12 0.616207 0.399600 0.814590
O O13 0.156867 0.786235 0.556461
O O14 0.735594 0.225531 0.235769
O O15 0.905778 0.127437 0.751212
#
# Coordination Sequence:
#
# PCOD9065207 Si02
#       7
#     2   2   2   2   2   2   2
#     4  12  25  48  75 111 161 206 263 332 385 464
#     4  12  27  49  78 113 154 202 266 327 395 475
#     4  11  25  46  75 119 155 204 265 320 387 457
#     4  11  25  45  77 120 152 208 266 321 391 465
#     4  11  26  50  73 114 153 205 262 324 397 467
#     4  11  24  47  74 107 155 208 255 316 394 462
#     4  12  24  49  82 111 164 208 257 328 393 464
#
# _framework density 26.417743999999999
#
# number of rings (size 3 to 8) (size 9 to 14) (size 15 to 20)
#    0.000    0.571    2.857    4.286    4.000    1.714 
#    7.714    1.429    0.000    0.000    0.000    0.000 
#    0.000    0.000    0.000    0.000    0.000    0.000 
#
# Total GULP energy -78401.965923 kJ/mol
# GULP energy per Si atom -5600.140423 kJ/mol
# Density = 2.635762 g / cm^3
# Si number density = 26.417744 Si / 1000 Ang^3
#
#
#
# Elastic Constant Matrix: (Units=GPa)
#
#
# Indices 1 2 3 4 5 6 
#
# 1 139.9714 100.4956 32.6117 -7.8885 1.0886 4.8843
# 2 100.4956 172.9401 77.1230 -25.3112 -4.5903 28.8437
# 3 32.6117 77.1230 150.7557 -38.6907 1.6422 -6.2034
# 4 -7.8885 -25.3112 -38.6907 40.7513 -4.8892 -2.8984
# 5 1.0886 -4.5903 1.6422 -4.8892 42.9879 -5.0444
# 6 4.8843 28.8437 -6.2034 -2.8984 -5.0444 45.7572
#
#
#
# Elastic Compliance Matrix: (Units=1/GPa)
#
#
# Indices 1 2 3 4 5 6 
#
# 1 0.013388 -0.009632 0.001876 -0.001402 -0.001048 0.004693
# 2 -0.009632 0.015968 -0.006034 0.001792 0.001256 -0.009603
# 3 0.001876 -0.006034 0.011630 0.008121 0.000462 0.005745
# 4 -0.001402 0.001792 0.008121 0.033773 0.004076 0.002710
# 5 -0.001048 0.001256 0.000462 0.004076 0.024139 0.002302
# 6 0.004693 -0.009603 0.005745 0.002710 0.002302 0.028612
#
#
# Mechanical properties :
#
#
# Convention : Reuss Voigt Hill
#
# Bulk Modulus (GPa) = 74.59392 98.23644 86.41518
# Shear Modulus (GPa) = 31.33642 42.79509 37.06576
#
# Velocity S-wave (km/s) = 3.44784 4.02921 3.74981
# Velocity P-wave (km/s) = 6.64438 7.67545 7.17845
#
# Compressibility (1/GPa) = 0.01340592
#
# Stress axis : x y z
#
# Youngs Moduli (GPa) = 74.69204 62.62552 85.98516
#
# Poissons Ratio (x) = 0.60323 -0.16133
# Poissons Ratio (y) = 0.71946 0.51884
# Poissons Ratio (z) = -0.14014 0.37789
#
# Static dielectric constant tensor:
#      x y z
#    x 2.038770 -0.026700 -0.033980 
#    y -0.026700 2.281390 0.180020 
#    z -0.033980 0.180020 2.247060 
# 
# From -- ./inp_files/436493.got.cif
#   From: 2010.05.17/outbox.cif.g08.bks.cpg/sg2_219_cif.got.tgz:436493.got - 2010.06.03 11:33:40.
