data_PCOD9065855
_publ_section_title
;
Structure prediction by ZEFSAII (Michael W. Deem and Ramdas Pophale) SiO2 
 PCOD9065855
Probable space group: P -1
;
_chemical_formula_sum "Si O2"
_cell_formula_units_Z 16
_cell_length_a 13.701995
_cell_length_b 8.327104
_cell_length_c 9.137922
_cell_angle_alpha 107.994328
_cell_angle_beta 40.535488
_cell_angle_gamma 103.801276
_cell_volume 644.460960
_symmetry_space_group_name_H-M "P -1"
_symmetry_group_IT_number 2
_symmetry_cell_setting 'triclinic'
loop_
_space_group_symop_operation_xyz
x,y,z
-x,-y,-z
loop_
_atom_site_type_symbol
_atom_site_label
_atom_site_fract_x
_atom_site_fract_y
_atom_site_fract_z
Si Si1 0.068558 0.680151 0.027909
Si Si2 0.261155 0.082776 0.121799
Si Si3 0.253044 0.743593 0.551626
Si Si4 0.588899 0.814020 0.296389
Si Si5 0.842094 0.963315 0.479780
Si Si6 0.169758 0.470575 0.356879
Si Si7 0.684472 0.441137 0.071621
Si Si8 0.469381 0.143560 0.293218
O O1 0.963137 0.832425 0.244422
O O2 0.173104 0.754068 0.801262
O O3 0.172663 0.632783 0.031384
O O4 0.000000 0.500000 0.000000
O O5 0.157691 0.988354 0.334255
O O6 0.212404 0.275041 0.258172
O O7 0.283732 0.090864 0.920076
O O8 0.421664 0.995643 0.939591
O O9 0.432967 0.765654 0.374773
O O10 0.204942 0.561379 0.493321
O O11 0.181854 0.876537 0.554696
O O12 0.660399 0.632546 0.200562
O O13 0.553387 0.891485 0.517242
O O14 0.686939 0.861985 0.609449
O O15 0.000000 0.500000 0.500000
O O16 0.283531 0.555926 0.135635
O O17 0.546561 0.323737 0.238174
#
# Coordination Sequence:
#
# PCOD9065855 Si02
#       8
#     2   2   2   2   2   2   2   2
#     4  12  26  48  72 103 143 190 235 291 352 422
#     4  11  25  44  72 101 141 185 230 292 350 417
#     4  12  26  47  72 105 144 183 240 287 358 420
#     4  11  25  43  71 107 140 185 231 297 347 415
#     4  12  27  45  72 107 145 187 234 292 354 421
#     4  11  26  47  70 103 142 190 238 292 355 422
#     4  11  25  43  73 104 140 188 237 290 355 417
#     4  12  24  44  70 108 144 180 242 288 357 417
#
# _framework density 24.826951999999999
#
# number of rings (size 3 to 8) (size 9 to 14) (size 15 to 20)
#    0.000    0.500    2.500    5.250    5.250    3.000 
#    0.000    2.500    0.000    0.000    0.000    0.000 
#    0.000    0.000    0.000    0.000    0.000    0.000 
#
# Total GULP energy -89475.333886 kJ/mol
# GULP energy per Si atom -5592.208368 kJ/mol
# Density = 2.477044 g / cm^3
# Si number density = 24.826952 Si / 1000 Ang^3
#
#
#
# Elastic Constant Matrix: (Units=GPa)
#
#
# Indices 1 2 3 4 5 6 
#
# 1 72.3296 20.0453 41.4477 9.5147 2.2560 -3.3578
# 2 20.0453 12.6906 -46.9451 25.1801 26.1308 -46.0405
# 3 41.4477 -46.9451 76.1356 41.1769 27.5607 -43.5869
# 4 9.5147 25.1801 41.1769 49.6774 -13.0487 11.1297
# 5 2.2560 26.1308 27.5607 -13.0487 27.4040 3.3231
# 6 -3.3578 -46.0405 -43.5869 11.1297 3.3231 42.9700
#
#
#
# Elastic Compliance Matrix: (Units=1/GPa)
#
#
# Indices 1 2 3 4 5 6 
#
# 1 0.014926 0.001698 -0.001195 -0.004575 -0.004223 0.003286
# 2 0.001698 0.004142 -0.007239 0.006503 0.006892 -0.004989
# 3 -0.001195 -0.007239 0.004604 0.001969 0.003791 -0.003982
# 4 -0.004575 0.006503 0.001969 0.014587 -0.001459 0.004943
# 5 -0.004223 0.006892 0.003791 -0.001459 0.024623 0.009373
# 6 0.003286 -0.004989 -0.003982 0.004943 0.009373 0.012139
#
#
# Mechanical properties :
#
#
# Convention : Reuss Voigt Hill
#
# Bulk Modulus (GPa) = 98.02249 21.13907 59.58078
# Shear Modulus (GPa) = 54.41155 33.78414 44.09785
#
# Velocity S-wave (km/s) = 4.68657 3.69288 4.21908
# Velocity P-wave (km/s) = 8.29778 5.16878 6.91265
#
# Compressibility (1/GPa) = 0.01020174
#
# Stress axis : x y z
#
# Youngs Moduli (GPa) = 66.99922 241.41004 217.17938
#
# Poissons Ratio (x) = -0.40993 0.25943
# Poissons Ratio (y) = -0.11377 1.57213
# Poissons Ratio (z) = 0.08003 1.74753
#
# Static dielectric constant tensor:
#      x y z
#    x 1.957020 -0.004920 0.002570 
#    y -0.004920 1.898830 0.033100 
#    z 0.002570 0.033100 1.924930 
# 
# From -- ./inp_files/299055.got.cif
#   From: 2010.05.17/outbox.cif.g08.bks.cpg/sg2_150_cif.got.tgz:299055.got - 2010.06.03 11:33:40.
