data_PCOD9065488
_publ_section_title
;
Structure prediction by ZEFSAII (Michael W. Deem and Ramdas Pophale) SiO2 
 PCOD9065488
Probable space group: P -1
;
_chemical_formula_sum "Si O2"
_cell_formula_units_Z 12
_cell_length_a 11.554687
_cell_length_b 14.074761
_cell_length_c 9.600509
_cell_angle_alpha 65.792404
_cell_angle_beta 112.583826
_cell_angle_gamma 160.574739
_cell_volume 473.581774
_symmetry_space_group_name_H-M "P -1"
_symmetry_group_IT_number 2
_symmetry_cell_setting 'triclinic'
loop_
_space_group_symop_operation_xyz
x,y,z
-x,-y,-z
loop_
_atom_site_type_symbol
_atom_site_label
_atom_site_fract_x
_atom_site_fract_y
_atom_site_fract_z
Si Si1 0.891308 0.780930 0.464358
Si Si2 0.940890 0.576455 0.916879
Si Si3 0.791598 0.524174 0.189821
Si Si4 0.275531 0.040224 0.765628
Si Si5 0.330523 0.974987 0.386049
Si Si6 0.868418 0.867863 0.865710
O O1 0.500000 0.500000 0.500000
O O2 0.137058 0.979274 0.594276
O O3 0.004408 0.759293 0.459411
O O4 0.975315 0.928508 0.294358
O O5 0.255653 0.899136 0.834925
O O6 0.648631 0.367948 0.790123
O O7 0.799112 0.498343 0.048898
O O8 0.000000 0.500000 0.000000
O O9 0.543552 0.431881 0.151105
O O10 0.167342 0.834942 0.241716
O O11 0.609104 0.284689 0.327544
O O12 0.009861 0.870597 0.866508
O O13 0.500000 0.000000 0.500000
O O14 0.000000 0.000000 0.000000
#
# Coordination Sequence:
#
# PCOD9065488 Si02
#       6
#     2   2   2   2   2   2
#     4  11  26  47  75 113 153 194 254 308 380 446
#     4  12  28  45  74 106 149 198 250 304 368 447
#     4  11  25  46  72 106 147 185 257 304 367 445
#     4  12  26  47  76 106 150 196 246 311 374 440
#     4  11  26  46  74 105 145 199 242 311 373 449
#     4  11  24  48  76 112 148 193 251 310 378 444
#
# _framework density 25.338812000000001
#
# number of rings (size 3 to 8) (size 9 to 14) (size 15 to 20)
#    0.000    0.667    1.667    4.500    7.000    6.000 
#    0.000    0.000    0.000    0.000    0.000    0.000 
#    0.000    0.000    0.000    0.000    0.000    0.000 
#
# Total GULP energy -67320.581491 kJ/mol
# GULP energy per Si atom -5610.048458 kJ/mol
# Density = 2.528114 g / cm^3
# Si number density = 25.338812 Si / 1000 Ang^3
#
#
#
# Elastic Constant Matrix: (Units=GPa)
#
#
# Indices 1 2 3 4 5 6 
#
# 1 146.8862 22.4456 35.0506 2.6592 14.1554 -7.4154
# 2 22.4456 66.6369 29.1001 19.0471 -9.7044 -5.6793
# 3 35.0506 29.1001 152.1655 21.8188 -15.6269 -2.0082
# 4 2.6592 19.0471 21.8188 54.2752 -0.9187 -3.1346
# 5 14.1554 -9.7044 -15.6269 -0.9187 38.2602 5.4272
# 6 -7.4154 -5.6793 -2.0082 -3.1346 5.4272 31.4541
#
#
#
# Elastic Compliance Matrix: (Units=1/GPa)
#
#
# Indices 1 2 3 4 5 6 
#
# 1 0.008295 -0.002836 -0.002053 0.001464 -0.004919 0.002307
# 2 -0.002836 0.019157 -0.001664 -0.005759 0.004911 0.001263
# 3 -0.002053 -0.001664 0.008102 -0.002577 0.003751 -0.001171
# 4 0.001464 -0.005759 -0.002577 0.021464 -0.002789 0.001761
# 5 -0.004919 0.004911 0.003751 -0.002789 0.031482 -0.005743
# 6 0.002307 0.001263 -0.001171 0.001761 -0.005743 0.033656
#
#
# Mechanical properties :
#
#
# Convention : Reuss Voigt Hill
#
# Bulk Modulus (GPa) = 44.54366 59.87567 52.20967
# Shear Modulus (GPa) = 35.02732 43.40405 39.21568
#
# Velocity S-wave (km/s) = 3.72204 4.14327 3.93829
# Velocity P-wave (km/s) = 6.00740 6.82424 6.42880
#
# Compressibility (1/GPa) = 0.02244988
#
# Stress axis : x y z
#
# Youngs Moduli (GPa) = 120.55082 52.19906 123.42453
#
# Poissons Ratio (x) = 0.14802 0.25340
# Poissons Ratio (y) = 0.34185 0.20533
# Poissons Ratio (z) = 0.24750 0.08684
#
# Static dielectric constant tensor:
#      x y z
#    x 2.071120 -0.044700 0.031400 
#    y -0.044700 1.976470 -0.039540 
#    z 0.031400 -0.039540 1.981230 
# 
# From -- ./inp_files/23460.got.cif
#   From: 2010.05.17/outbox.cif.g08.bks.cpg/sg2_12_cif.got.tgz:23460.got - 2010.06.03 11:33:40.
