data_PCOD9065099
_publ_section_title
;
Structure prediction by ZEFSAII (Michael W. Deem and Ramdas Pophale) SiO2 
 PCOD9065099
Probable space group: P -1
;
_chemical_formula_sum "Si O2"
_cell_formula_units_Z 14
_cell_length_a 5.064185
_cell_length_b 9.500142
_cell_length_c 19.634719
_cell_angle_alpha 42.679944
_cell_angle_beta 83.304255
_cell_angle_gamma 98.447402
_cell_volume 596.837093
_symmetry_space_group_name_H-M "P -1"
_symmetry_group_IT_number 2
_symmetry_cell_setting 'triclinic'
loop_
_space_group_symop_operation_xyz
x,y,z
-x,-y,-z
loop_
_atom_site_type_symbol
_atom_site_label
_atom_site_fract_x
_atom_site_fract_y
_atom_site_fract_z
Si Si1 0.246949 0.236040 0.414424
Si Si2 0.470135 0.020980 0.812769
Si Si3 0.266692 0.191200 0.894272
Si Si4 0.069823 0.651074 0.861193
Si Si5 0.847853 0.364217 0.288508
Si Si6 0.436969 0.340506 0.977653
Si Si7 0.715351 0.469093 0.560299
O O1 0.554062 0.236293 0.382133
O O2 0.256985 0.347538 0.447610
O O3 0.129182 0.377034 0.315512
O O4 0.000000 0.000000 0.500000
O O5 0.368811 0.112120 0.850752
O O6 0.624357 0.231258 0.685834
O O7 0.221240 0.850952 0.835924
O O8 0.631957 0.866043 0.895650
O O9 0.169696 0.395200 0.805556
O O10 0.474973 0.260985 0.928185
O O11 0.000000 0.000000 0.000000
O O12 0.142481 0.732694 0.752224
O O13 0.734573 0.527731 0.920969
O O14 0.206178 0.459598 0.936627
O O15 0.500000 0.500000 0.500000
O O16 0.000000 0.500000 0.500000
#
# Coordination Sequence:
#
# PCOD9065099 Si02
#       7
#     2   2   2   2   2   2   2
#     4  12  27  49  80  97 144 189 253 303 367 424
#     4  12  26  46  78 105 153 197 238 311 372 414
#     4  11  25  45  78 112 153 189 245 296 366 449
#     4  11  26  44  74 108 156 186 245 284 364 450
#     4  11  24  47  71 111 139 194 240 294 362 445
#     4  11  25  48  70 113 149 197 240 289 359 457
#     4  12  31  51  73 112 146 188 253 310 366 428
#
# _framework density 23.456987999999999
#
# number of rings (size 3 to 8) (size 9 to 14) (size 15 to 20)
#    0.000    0.571    1.429    6.000    6.000    3.429 
#    0.000    0.000    0.000    0.000    0.000    0.000 
#    0.000    0.000    0.000    0.000    0.000    0.000 
#
# Total GULP energy -78474.321716 kJ/mol
# GULP energy per Si atom -5605.308694 kJ/mol
# Density = 2.340360 g / cm^3
# Si number density = 23.456988 Si / 1000 Ang^3
#
#
#
# Elastic Constant Matrix: (Units=GPa)
#
#
# Indices 1 2 3 4 5 6 
#
# 1 109.2218 23.0356 45.4265 13.0715 10.9017 -5.2185
# 2 23.0356 156.5610 64.3768 25.9215 10.4687 24.8662
# 3 45.4265 64.3768 170.0838 6.7731 -8.0348 3.2576
# 4 13.0715 25.9215 6.7731 53.0925 8.5390 1.2992
# 5 10.9017 10.4687 -8.0348 8.5390 47.7619 8.3673
# 6 -5.2185 24.8662 3.2576 1.2992 8.3673 32.2252
#
#
#
# Elastic Compliance Matrix: (Units=1/GPa)
#
#
# Indices 1 2 3 4 5 6 
#
# 1 0.011172 -0.000465 -0.002957 -0.001709 -0.003231 0.003375
# 2 -0.000465 0.009548 -0.003237 -0.003864 -0.000651 -0.006791
# 3 -0.002957 -0.003237 0.007966 0.000881 0.002473 0.000536
# 4 -0.001709 -0.003864 0.000881 0.021433 -0.002885 0.002500
# 5 -0.003231 -0.000651 0.002473 -0.002885 0.023862 -0.006350
# 6 0.003375 -0.006791 0.000536 0.002500 -0.006350 0.038312
#
#
# Mechanical properties :
#
#
# Convention : Reuss Voigt Hill
#
# Bulk Modulus (GPa) = 65.06643 77.94938 71.50791
# Shear Modulus (GPa) = 38.24583 46.81776 42.53180
#
# Velocity S-wave (km/s) = 4.04228 4.47239 4.26277
# Velocity P-wave (km/s) = 7.04170 7.74420 7.40129
#
# Compressibility (1/GPa) = 0.01536891
#
# Stress axis : x y z
#
# Youngs Moduli (GPa) = 89.51015 104.72875 125.53579
#
# Poissons Ratio (x) = 0.04867 0.37123
# Poissons Ratio (y) = 0.04160 0.40633
# Poissons Ratio (z) = 0.26469 0.33899
#
# Static dielectric constant tensor:
#      x y z
#    x 3.713050 -0.319450 -0.507390 
#    y -0.319450 1.960030 0.089950 
#    z -0.507390 0.089950 2.123370 
# 
# From -- ./inp_files/546879.got.cif
#   From: 2010.05.17/outbox.cif.g08.bks.cpg/sg2_274_cif.got.tgz:546879.got - 2010.06.03 11:33:40.
