data_PCOD9065104
_publ_section_title
;
Structure prediction by ZEFSAII (Michael W. Deem and Ramdas Pophale) SiO2 
 PCOD9065104
Probable space group: P -1
;
_chemical_formula_sum "Si O2"
_cell_formula_units_Z 16
_cell_length_a 14.141413
_cell_length_b 9.343830
_cell_length_c 14.966353
_cell_angle_alpha 98.883231
_cell_angle_beta 147.639263
_cell_angle_gamma 103.033419
_cell_volume 773.414370
_symmetry_space_group_name_H-M "P -1"
_symmetry_group_IT_number 2
_symmetry_cell_setting 'triclinic'
loop_
_space_group_symop_operation_xyz
x,y,z
-x,-y,-z
loop_
_atom_site_type_symbol
_atom_site_label
_atom_site_fract_x
_atom_site_fract_y
_atom_site_fract_z
Si Si1 0.093162 0.322406 0.321777
Si Si2 0.744663 0.288233 0.791126
Si Si3 0.209775 0.915784 0.525649
Si Si4 0.452398 0.323581 0.701511
Si Si5 0.853735 0.037088 0.941404
Si Si6 0.618890 0.137302 0.022661
Si Si7 0.336112 0.733676 0.480220
Si Si8 0.689160 0.511702 0.096756
O O1 0.329775 0.390603 0.562268
O O2 0.147668 0.507177 0.336979
O O3 0.007014 0.166368 0.161339
O O4 0.874103 0.214889 0.204945
O O5 0.601980 0.305235 0.751101
O O6 0.793644 0.153345 0.852215
O O7 0.631102 0.234248 0.596760
O O8 0.000000 0.500000 0.000000
O O9 0.255753 0.841283 0.468607
O O10 0.952554 0.724872 0.337797
O O11 0.238027 0.100280 0.542891
O O12 0.428588 0.011280 0.778108
O O13 0.612728 0.460968 0.926412
O O14 0.591713 0.833003 0.735273
O O15 0.000000 0.000000 0.000000
O O16 0.668399 0.334774 0.095464
O O17 0.500000 0.000000 0.000000
O O18 0.500000 0.500000 0.000000
#
# Coordination Sequence:
#
# PCOD9065104 Si02
#       8
#     2   2   2   2   2   2   2   2
#     4  12  26  46  66 106 139 175 230 288 336 404
#     4  12  24  44  69  96 140 186 228 277 336 401
#     4  11  24  47  71  98 137 183 223 280 344 408
#     4  11  27  45  69 101 141 181 229 282 337 406
#     4  12  26  43  66 103 139 180 234 279 336 400
#     4  11  26  46  72 101 138 175 225 290 345 402
#     4  12  24  44  71  95 140 184 227 279 338 404
#     4  11  26  47  72 102 134 181 230 278 347 409
#
# _framework density 20.687487999999998
#
# number of rings (size 3 to 8) (size 9 to 14) (size 15 to 20)
#    0.000    0.500    5.000    2.625    7.000    4.500 
#    0.000    0.000    0.000    0.000    0.000    0.000 
#    0.000    0.000    0.000    0.000    0.000    0.000 
#
# Total GULP energy -89483.366557 kJ/mol
# GULP energy per Si atom -5592.710410 kJ/mol
# Density = 2.064040 g / cm^3
# Si number density = 20.687488 Si / 1000 Ang^3
#
#
#
# Elastic Constant Matrix: (Units=GPa)
#
#
# Indices 1 2 3 4 5 6 
#
# 1 94.9207 38.3101 2.6523 3.8009 16.9692 -9.2017
# 2 38.3101 83.1740 29.4943 -3.6600 6.7531 4.5283
# 3 2.6523 29.4943 69.2956 20.3946 16.7247 -0.9300
# 4 3.8009 -3.6600 20.3946 40.0167 4.2791 3.2090
# 5 16.9692 6.7531 16.7247 4.2791 37.8581 -2.6907
# 6 -9.2017 4.5283 -0.9300 3.2090 -2.6907 34.0156
#
#
#
# Elastic Compliance Matrix: (Units=1/GPa)
#
#
# Indices 1 2 3 4 5 6 
#
# 1 0.016718 -0.010311 0.007490 -0.005993 -0.007856 0.006044
# 2 -0.010311 0.021743 -0.012951 0.009568 0.004917 -0.006552
# 3 0.007490 -0.012951 0.026668 -0.014734 -0.010807 0.005014
# 4 -0.005993 0.009568 -0.014734 0.034104 0.003189 -0.006263
# 5 -0.007856 0.004917 -0.010807 0.003189 0.033420 -0.000732
# 6 0.006044 -0.006552 0.005014 -0.006263 -0.000732 0.032575
#
#
# Mechanical properties :
#
#
# Convention : Reuss Voigt Hill
#
# Bulk Modulus (GPa) = 29.77486 43.14486 36.45986
# Shear Modulus (GPa) = 24.04215 34.17364 29.10790
#
# Velocity S-wave (km/s) = 3.41274 4.06877 3.75511
# Velocity P-wave (km/s) = 5.47294 6.55545 6.03850
#
# Compressibility (1/GPa) = 0.03358538
#
# Stress axis : x y z
#
# Youngs Moduli (GPa) = 59.81699 45.99146 37.49760
#
# Poissons Ratio (x) = 0.47422 -0.28085
# Poissons Ratio (y) = 0.61678 0.48562
# Poissons Ratio (z) = -0.44801 0.59562
#
# Static dielectric constant tensor:
#      x y z
#    x 1.724270 0.024690 -0.003200 
#    y 0.024690 1.733410 -0.014190 
#    z -0.003200 -0.014190 1.715600 
# 
# From -- ./inp_files/381965.got.cif
#   From: 2010.05.17/outbox.cif.g08.bks.cpg/sg2_191_cif.got.tgz:381965.got - 2010.06.03 11:33:40.
