data_PCOD9065022
_publ_section_title
;
Structure prediction by ZEFSAII (Michael W. Deem and Ramdas Pophale) SiO2 
 PCOD9065022
Probable space group: P -1
;
_chemical_formula_sum "Si O2"
_cell_formula_units_Z 16
_cell_length_a 8.696323
_cell_length_b 11.009692
_cell_length_c 17.764754
_cell_angle_alpha 147.768898
_cell_angle_beta 133.553406
_cell_angle_gamma 64.285400
_cell_volume 606.643074
_symmetry_space_group_name_H-M "P -1"
_symmetry_group_IT_number 2
_symmetry_cell_setting 'triclinic'
loop_
_space_group_symop_operation_xyz
x,y,z
-x,-y,-z
loop_
_atom_site_type_symbol
_atom_site_label
_atom_site_fract_x
_atom_site_fract_y
_atom_site_fract_z
Si Si1 0.865226 0.351519 0.166013
Si Si2 0.844310 0.453633 0.497831
Si Si3 0.586962 0.879383 0.897204
Si Si4 0.117601 0.404815 0.121611
Si Si5 0.352596 0.313210 0.936881
Si Si6 0.393312 0.155275 0.704145
Si Si7 0.144244 0.928643 0.352349
Si Si8 0.712172 0.910743 0.671378
O O1 0.999493 0.540890 0.375586
O O2 0.016617 0.414398 0.175719
O O3 0.604211 0.327155 0.051145
O O4 0.811534 0.080456 0.040105
O O5 0.383302 0.783677 0.718072
O O6 0.000000 0.500000 0.500000
O O7 0.756645 0.677206 0.592463
O O8 0.652923 0.653815 0.827836
O O9 0.500000 0.000000 0.000000
O O10 0.148096 0.657695 0.223450
O O11 0.927808 0.158651 0.893920
O O12 0.309839 0.244731 0.798140
O O13 0.115574 0.123267 0.790227
O O14 0.387593 0.595565 0.112544
O O15 0.488217 0.944907 0.645563
O O16 0.221060 0.066132 0.530004
O O17 0.308013 0.083060 0.422556
#
# Coordination Sequence:
#
# PCOD9065022 Si02
#       8
#     2   2   2   2   2   2   2   2
#     4  12  27  47  78 104 155 195 242 315 358 444
#     4  12  28  49  75 114 143 191 251 304 369 443
#     4  12  27  48  78 108 145 196 244 306 374 434
#     4  12  25  50  74 108 151 197 248 300 379 432
#     4  11  25  44  72 104 149 188 248 300 363 431
#     4  11  24  47  68 108 144 193 242 304 365 433
#     4  12  27  44  78 107 147 199 244 301 365 441
#     4  12  25  48  74 104 154 189 246 302 367 442
#
# _framework density 26.374651
#
# number of rings (size 3 to 8) (size 9 to 14) (size 15 to 20)
#    0.000    0.250    5.000    3.000    5.250    1.500 
#    0.000    0.000    0.000    0.000    0.000    0.000 
#    0.000    0.000    0.000    0.000    0.000    0.000 
#
# Total GULP energy -89738.398952 kJ/mol
# GULP energy per Si atom -5608.649934 kJ/mol
# Density = 2.631462 g / cm^3
# Si number density = 26.374651 Si / 1000 Ang^3
#
#
#
# Elastic Constant Matrix: (Units=GPa)
#
#
# Indices 1 2 3 4 5 6 
#
# 1 93.2207 29.9651 43.1952 -8.9797 -11.2919 -4.7107
# 2 29.9651 128.2478 36.8866 4.1433 -13.5369 -31.2232
# 3 43.1952 36.8866 157.9570 -32.3347 4.4715 -12.3948
# 4 -8.9797 4.1433 -32.3347 52.8080 3.7578 -3.4037
# 5 -11.2919 -13.5369 4.4715 3.7578 39.0885 -4.3369
# 6 -4.7107 -31.2232 -12.3948 -3.4037 -4.3369 45.5911
#
#
#
# Elastic Compliance Matrix: (Units=1/GPa)
#
#
# Indices 1 2 3 4 5 6 
#
# 1 0.013278 -0.001908 -0.003301 0.000106 0.003488 -0.000493
# 2 -0.001908 0.011150 -0.002140 -0.002376 0.004573 0.007115
# 3 -0.003301 -0.002140 0.008981 0.005378 -0.003157 0.000736
# 4 0.000106 -0.002376 0.005378 0.022759 -0.003460 0.001216
# 5 0.003488 0.004573 -0.003157 -0.003460 0.029442 0.005176
# 6 -0.000493 0.007115 0.000736 0.001216 0.005176 0.027539
#
#
# Mechanical properties :
#
#
# Convention : Reuss Voigt Hill
#
# Bulk Modulus (GPa) = 53.44185 66.61326 60.02755
# Shear Modulus (GPa) = 37.28983 45.45611 41.37297
#
# Velocity S-wave (km/s) = 3.76420 4.15598 3.96493
# Velocity P-wave (km/s) = 6.26090 6.95277 6.61588
#
# Compressibility (1/GPa) = 0.01871193
#
# Stress axis : x y z
#
# Youngs Moduli (GPa) = 75.31257 89.68346 111.34289
#
# Poissons Ratio (x) = 0.17113 0.36755
# Poissons Ratio (y) = 0.14371 0.23823
# Poissons Ratio (z) = 0.24861 0.19189
#
# Static dielectric constant tensor:
#      x y z
#    x 2.041040 -0.018070 0.006330 
#    y -0.018070 2.121580 0.013380 
#    z 0.006330 0.013380 2.035650 
# 
# From -- ./inp_files/560211.got.cif
#   From: 2010.05.17/outbox.cif.g08.bks.cpg/sg2_281_cif.got.tgz:560211.got - 2010.06.03 11:33:40.
