data_PCOD9065122
_publ_section_title
;
Structure prediction by ZEFSAII (Michael W. Deem and Ramdas Pophale) SiO2 
 PCOD9065122
Probable space group: P -1
;
_chemical_formula_sum "Si O2"
_cell_formula_units_Z 14
_cell_length_a 5.699366
_cell_length_b 10.614584
_cell_length_c 17.742079
_cell_angle_alpha 148.452241
_cell_angle_beta 77.228885
_cell_angle_gamma 98.010322
_cell_volume 545.149511
_symmetry_space_group_name_H-M "P -1"
_symmetry_group_IT_number 2
_symmetry_cell_setting 'triclinic'
loop_
_space_group_symop_operation_xyz
x,y,z
-x,-y,-z
loop_
_atom_site_type_symbol
_atom_site_label
_atom_site_fract_x
_atom_site_fract_y
_atom_site_fract_z
Si Si1 0.090763 0.924405 0.731219
Si Si2 0.605156 0.703686 0.148076
Si Si3 0.003277 0.837563 0.519373
Si Si4 0.717769 0.141995 0.087578
Si Si5 0.319467 0.537425 0.603600
Si Si6 0.785868 0.320965 0.720282
Si Si7 0.911804 0.375806 0.061156
O O1 0.086990 0.680056 0.652857
O O2 0.059783 0.868312 0.618073
O O3 0.337546 0.062732 0.783724
O O4 0.915673 0.127482 0.888399
O O5 0.440651 0.761835 0.262042
O O6 0.843116 0.580677 0.109478
O O7 0.500000 0.500000 0.000000
O O8 0.759429 0.699345 0.470233
O O9 0.189820 0.677996 0.370536
O O10 0.986547 0.106498 0.623030
O O11 0.634206 0.267505 0.236155
O O12 0.734794 0.352751 0.131606
O O13 0.500000 0.000000 0.000000
O O14 0.000000 0.000000 0.000000
O O15 0.500000 0.500000 0.500000
O O16 0.846735 0.564835 0.882046
#
# Coordination Sequence:
#
# PCOD9065122 Si02
#       7
#     2   2   2   2   2   2   2
#     4  12  25  45  72 106 149 196 257 318 394 461
#     4  12  25  41  74 109 144 189 255 323 386 457
#     4  11  25  47  69 102 153 195 247 313 394 476
#     4  12  30  53  81 117 160 210 272 326 390 474
#     4  12  28  47  73 111 155 206 255 323 397 477
#     4  11  24  47  72 104 148 189 252 315 387 463
#     4  12  25  47  77 106 146 199 256 326 386 459
#
# _framework density 25.681027
#
# number of rings (size 3 to 8) (size 9 to 14) (size 15 to 20)
#    0.000    0.286    5.714    2.571    6.000    2.857 
#    0.000    0.000    0.000    0.000    0.000    0.000 
#    0.000    0.000    0.000    0.000    0.000    0.000 
#
# Total GULP energy -78130.626176 kJ/mol
# GULP energy per Si atom -5580.759013 kJ/mol
# Density = 2.562258 g / cm^3
# Si number density = 25.681027 Si / 1000 Ang^3
#
#
#
# Elastic Constant Matrix: (Units=GPa)
#
#
# Indices 1 2 3 4 5 6 
#
# 1 40.4755 -3.3660 43.6958 -12.2647 3.7230 11.2208
# 2 -3.3660 104.0251 39.9756 -20.1913 -4.0950 10.8610
# 3 43.6958 39.9756 181.1773 -44.6208 13.2679 1.9816
# 4 -12.2647 -20.1913 -44.6208 65.6991 6.6057 -4.8325
# 5 3.7230 -4.0950 13.2679 6.6057 39.1575 -8.0602
# 6 11.2208 10.8610 1.9816 -4.8325 -8.0602 43.6358
#
#
#
# Elastic Compliance Matrix: (Units=1/GPa)
#
#
# Indices 1 2 3 4 5 6 
#
# 1 0.040843 0.006924 -0.010606 0.001905 -0.002350 -0.011968
# 2 0.006924 0.012191 -0.003865 0.002029 0.000702 -0.004285
# 3 -0.010606 -0.003865 0.010156 0.004255 -0.002904 0.003163
# 4 0.001905 0.002029 0.004255 0.019569 -0.004689 0.000113
# 5 -0.002350 0.000702 -0.002904 -0.004689 0.028710 0.005345
# 6 -0.011968 -0.004285 0.003163 0.000113 0.005345 0.027917
#
#
# Mechanical properties :
#
#
# Convention : Reuss Voigt Hill
#
# Bulk Modulus (GPa) = 20.79123 54.03207 37.41165
# Shear Modulus (GPa) = 29.32347 46.05665 37.69006
#
# Velocity S-wave (km/s) = 3.38277 4.23946 3.83511
# Velocity P-wave (km/s) = 4.83436 6.71189 5.84895
#
# Compressibility (1/GPa) = 0.04809720
#
# Stress axis : x y z
#
# Youngs Moduli (GPa) = 24.48393 82.02715 98.46448
#
# Poissons Ratio (x) = -0.56797 1.04431
# Poissons Ratio (y) = -0.16953 0.38054
# Poissons Ratio (z) = 0.25967 0.31701
#
# Static dielectric constant tensor:
#      x y z
#    x 2.174000 -0.041100 -0.069620 
#    y -0.041100 2.018510 0.015790 
#    z -0.069620 0.015790 2.121750 
# 
# From -- ./inp_files/71317.got.cif
#   From: 2010.05.17/outbox.cif.g08.bks.cpg/sg2_36_cif.got.tgz:71317.got - 2010.06.03 11:33:40.
