data_PCOD9065874
_publ_section_title
;
Structure prediction by ZEFSAII (Michael W. Deem and Ramdas Pophale) SiO2 
 PCOD9065874
Probable space group: P -1
;
_chemical_formula_sum "Si O2"
_cell_formula_units_Z 10
_cell_length_a 14.631718
_cell_length_b 14.736066
_cell_length_c 8.795918
_cell_angle_alpha 139.514289
_cell_angle_beta 41.410261
_cell_angle_gamma 161.186598
_cell_volume 392.975729
_symmetry_space_group_name_H-M "P -1"
_symmetry_group_IT_number 2
_symmetry_cell_setting 'triclinic'
loop_
_space_group_symop_operation_xyz
x,y,z
-x,-y,-z
loop_
_atom_site_type_symbol
_atom_site_label
_atom_site_fract_x
_atom_site_fract_y
_atom_site_fract_z
Si Si1 0.161443 0.069294 0.117441
Si Si2 0.757539 0.622978 0.788154
Si Si3 0.853218 0.399543 0.392275
Si Si4 0.394967 0.834718 0.073091
Si Si5 0.680884 0.538115 0.246133
O O1 0.980773 0.860047 0.221763
O O2 0.015770 0.868010 0.898287
O O3 0.137629 0.213732 0.292733
O O4 0.491906 0.331977 0.070209
O O5 0.683299 0.395082 0.587570
O O6 0.500000 0.500000 0.000000
O O7 0.000000 0.500000 0.500000
O O8 0.106461 0.636961 0.255901
O O9 0.645455 0.089846 0.207696
O O10 0.326164 0.611293 0.844571
O O11 0.500000 0.000000 0.000000
O O12 0.500000 0.500000 0.500000
#
# Coordination Sequence:
#
# PCOD9065874 Si02
#       5
#     2   2   2   2   2
#     4  11  25  43  72 109 141 178 249 298 360 417
#     4  11  25  44  79 108 145 183 247 307 357 433
#     4  12  28  48  79 107 153 196 246 305 377 439
#     4  12  29  49  74 110 154 195 246 305 378 440
#     4  12  26  46  74 100 146 193 244 292 360 443
#
# _framework density 25.446863
#
# number of rings (size 3 to 8) (size 9 to 14) (size 15 to 20)
#    0.000    0.400    2.000    5.400   11.200    0.000 
#    0.000    0.000    0.000    0.000    0.000    0.000 
#    0.000    0.000    0.000    0.000    0.000    0.000 
#
# Total GULP energy -56022.789011 kJ/mol
# GULP energy per Si atom -5602.278901 kJ/mol
# Density = 2.538895 g / cm^3
# Si number density = 25.446863 Si / 1000 Ang^3
#
#
#
# Elastic Constant Matrix: (Units=GPa)
#
#
# Indices 1 2 3 4 5 6 
#
# 1 103.9646 27.7312 46.6287 4.9414 -22.0090 -38.8169
# 2 27.7312 137.2451 43.7148 -5.4880 -8.7587 -14.1614
# 3 46.6287 43.7148 118.7469 -2.5869 -28.4417 -25.3474
# 4 4.9414 -5.4880 -2.5869 46.4735 4.4416 0.9921
# 5 -22.0090 -8.7587 -28.4417 4.4416 36.3622 18.8460
# 6 -38.8169 -14.1614 -25.3474 0.9921 18.8460 63.0621
#
#
#
# Elastic Compliance Matrix: (Units=1/GPa)
#
#
# Indices 1 2 3 4 5 6 
#
# 1 0.014549 -0.001132 -0.003259 -0.002275 0.002855 0.006574
# 2 -0.001132 0.008426 -0.002839 0.001065 -0.001214 0.000400
# 3 -0.003259 -0.002839 0.012473 0.000036 0.006942 0.000295
# 4 -0.002275 0.001065 0.000036 0.022239 -0.003589 -0.000424
# 5 0.002855 -0.001214 0.006942 -0.003589 0.038528 -0.007182
# 6 0.006574 0.000400 0.000295 -0.000424 -0.007182 0.022265
#
#
# Mechanical properties :
#
#
# Convention : Reuss Voigt Hill
#
# Bulk Modulus (GPa) = 47.64853 66.23402 56.94127
# Shear Modulus (GPa) = 35.73038 45.30499 40.51769
#
# Velocity S-wave (km/s) = 3.75122 4.22403 3.99463
# Velocity P-wave (km/s) = 6.12598 7.06221 6.61069
#
# Compressibility (1/GPa) = 0.02098701
#
# Stress axis : x y z
#
# Youngs Moduli (GPa) = 68.73148 118.68322 80.17551
#
# Poissons Ratio (x) = 0.13438 0.26127
# Poissons Ratio (y) = 0.07782 0.22765
# Poissons Ratio (z) = 0.22397 0.33699
#
# Static dielectric constant tensor:
#      x y z
#    x 2.090100 -0.021360 0.039220 
#    y -0.021360 1.975190 0.007170 
#    z 0.039220 0.007170 2.011210 
# 
# From -- ./inp_files/143758.got.cif
#   From: 2010.05.17/outbox.cif.g08.bks.cpg/sg2_72_cif.got.tgz:143758.got - 2010.06.03 11:33:40.
