data_PCOD9065740
_publ_section_title
;
Structure prediction by ZEFSAII (Michael W. Deem and Ramdas Pophale) SiO2 
 PCOD9065740
Probable space group: P -1
;
_chemical_formula_sum "Si O2"
_cell_formula_units_Z 16
_cell_length_a 6.476123
_cell_length_b 13.854678
_cell_length_c 22.334640
_cell_angle_alpha 159.306088
_cell_angle_beta 88.941554
_cell_angle_gamma 88.468274
_cell_volume 702.517151
_symmetry_space_group_name_H-M "P -1"
_symmetry_group_IT_number 2
_symmetry_cell_setting 'triclinic'
loop_
_space_group_symop_operation_xyz
x,y,z
-x,-y,-z
loop_
_atom_site_type_symbol
_atom_site_label
_atom_site_fract_x
_atom_site_fract_y
_atom_site_fract_z
Si Si1 0.960919 0.508608 0.656256
Si Si2 0.599040 0.696143 0.841000
Si Si3 0.903617 0.012416 0.304478
Si Si4 0.705169 0.743463 0.397789
Si Si5 0.122123 0.048854 0.923826
Si Si6 0.671591 0.829121 0.312894
Si Si7 0.213339 0.770106 0.069196
Si Si8 0.553082 0.175520 0.304903
O O1 0.718850 0.547570 0.697961
O O2 0.987010 0.309447 0.483293
O O3 0.104149 0.358841 0.620234
O O4 0.024463 0.811538 0.822344
O O5 0.429314 0.512397 0.758038
O O6 0.500000 0.000000 0.000000
O O7 0.779168 0.735796 0.910417
O O8 0.700825 0.054294 0.288020
O O9 0.829535 0.930892 0.322940
O O10 0.079078 0.801689 0.149296
O O11 0.759040 0.830520 0.381107
O O12 0.549572 0.981694 0.569670
O O13 0.311933 0.892622 0.794684
O O14 0.952073 0.189272 0.960407
O O15 0.650894 0.521405 0.111749
O O16 0.353340 0.016079 0.209853
O O17 0.500000 0.500000 0.500000
#
# Coordination Sequence:
#
# PCOD9065740 Si02
#       8
#     2   2   2   2   2   2   2   2
#     4  12  25  44  71 104 142 178 231 286 352 411
#     4  12  25  42  72 105 141 179 229 287 352 412
#     4  11  26  45  68 103 134 189 233 285 342 407
#     4  11  26  47  70 105 137 190 225 288 351 403
#     4  11  25  41  70 106 136 176 225 291 349 413
#     4  11  25  49  69  97 144 183 239 280 338 418
#     4  11  25  47  71 102 139 184 233 283 348 408
#     4  11  25  44  72 101 137 177 230 292 352 404
#
# _framework density 22.775244000000001
#
# number of rings (size 3 to 8) (size 9 to 14) (size 15 to 20)
#    0.000    0.750    2.500    3.750    8.750    3.000 
#    9.000    0.000    0.000    0.000    0.000    0.000 
#    0.000    0.000    0.000    0.000    0.000    0.000 
#
# Total GULP energy -89608.331969 kJ/mol
# GULP energy per Si atom -5600.520748 kJ/mol
# Density = 2.272341 g / cm^3
# Si number density = 22.775244 Si / 1000 Ang^3
#
#
#
# Elastic Constant Matrix: (Units=GPa)
#
#
# Indices 1 2 3 4 5 6 
#
# 1 72.5433 24.4929 29.1714 -5.2041 -3.7279 2.9531
# 2 24.4929 74.0866 9.0545 -5.9787 -14.5111 16.0726
# 3 29.1714 9.0545 140.8352 -2.7270 -16.2964 3.1487
# 4 -5.2041 -5.9787 -2.7270 28.7210 -0.1466 1.4321
# 5 -3.7279 -14.5111 -16.2964 -0.1466 47.5642 -8.4398
# 6 2.9531 16.0726 3.1487 1.4321 -8.4398 27.3682
#
#
#
# Elastic Compliance Matrix: (Units=1/GPa)
#
#
# Indices 1 2 3 4 5 6 
#
# 1 0.017009 -0.005647 -0.003309 0.001516 -0.001272 0.001390
# 2 -0.005647 0.018284 0.000699 0.003328 0.003748 -0.009227
# 3 -0.003309 0.000699 0.008062 0.000334 0.002687 -0.000170
# 4 0.001516 0.003328 0.000334 0.036012 0.000680 -0.003831
# 5 -0.001272 0.003748 0.002687 0.000680 0.023869 0.004952
# 6 0.001390 -0.009227 -0.000170 -0.003831 0.004952 0.043555
#
#
# Mechanical properties :
#
#
# Convention : Reuss Voigt Hill
#
# Bulk Modulus (GPa) = 37.25801 45.87808 41.56804
# Shear Modulus (GPa) = 29.02727 35.71375 32.37051
#
# Velocity S-wave (km/s) = 3.57390 3.96421 3.77411
# Velocity P-wave (km/s) = 5.78142 6.41412 6.10597
#
# Compressibility (1/GPa) = 0.02683987
#
# Stress axis : x y z
#
# Youngs Moduli (GPa) = 58.79260 54.69373 124.03664
#
# Poissons Ratio (x) = 0.30886 0.41043
# Poissons Ratio (y) = 0.33201 -0.08665
# Poissons Ratio (z) = 0.19454 -0.03821
#
# Static dielectric constant tensor:
#      x y z
#    x 1.805820 0.014980 -0.000990 
#    y 0.014980 1.870400 -0.002780 
#    z -0.000990 -0.002780 1.871940 
# 
# From -- ./inp_files/71672.got.cif
#   From: 2010.05.17/outbox.cif.g08.bks.cpg/sg2_36_cif.got.tgz:71672.got - 2010.06.03 11:33:40.
