data_PCOD9065019
_publ_section_title
;
Structure prediction by ZEFSAII (Michael W. Deem and Ramdas Pophale) SiO2 
 PCOD9065019
Probable space group: P -1
;
_chemical_formula_sum "Si O2"
_cell_formula_units_Z 14
_cell_length_a 26.854544
_cell_length_b 9.183347
_cell_length_c 5.293767
_cell_angle_alpha 61.499969
_cell_angle_beta 61.631774
_cell_angle_gamma 32.024393
_cell_volume 601.377330
_symmetry_space_group_name_H-M "P -1"
_symmetry_group_IT_number 2
_symmetry_cell_setting 'triclinic'
loop_
_space_group_symop_operation_xyz
x,y,z
-x,-y,-z
loop_
_atom_site_type_symbol
_atom_site_label
_atom_site_fract_x
_atom_site_fract_y
_atom_site_fract_z
Si Si1 0.444552 0.184270 0.725330
Si Si2 0.254435 0.593479 0.051880
Si Si3 0.104861 0.826208 0.852340
Si Si4 0.802974 0.920302 0.232968
Si Si5 0.518837 0.353304 0.324284
Si Si6 0.733913 0.738969 0.345781
Si Si7 0.098675 0.208980 0.386536
O O1 0.446121 0.375707 0.525169
O O2 0.500000 0.000000 0.500000
O O3 0.337941 0.368342 0.835443
O O4 0.500000 0.000000 0.000000
O O5 0.275121 0.413540 0.363546
O O6 0.152354 0.788688 0.021769
O O7 0.261234 0.771250 0.955829
O O8 0.178278 0.510385 0.846813
O O9 0.101608 0.000617 0.542576
O O10 0.000000 0.000000 0.000000
O O11 0.764719 0.825342 0.368911
O O12 0.827977 0.900827 0.480863
O O13 0.884759 0.750571 0.962055
O O14 0.500000 0.500000 0.500000
O O15 0.626582 0.036567 0.286578
O O16 0.500000 0.500000 0.000000
O O17 0.000000 0.500000 0.500000
#
# Coordination Sequence:
#
# PCOD9065019 Si02
#       7
#     2   2   2   2   2   2   2
#     4  12  25  47  76 106 148 198 248 314 388 456
#     4  11  26  48  73 108 151 200 256 311 384 456
#     4  11  26  46  75 111 151 204 258 312 373 452
#     4  11  26  44  71 103 144 194 245 305 373 444
#     4  12  28  48  76 117 152 195 259 318 387 463
#     4  12  26  47  79 106 156 203 252 318 380 454
#     4  11  24  47  68 105 147 192 250 314 370 438
#
# _framework density 23.279890999999999
#
# number of rings (size 3 to 8) (size 9 to 14) (size 15 to 20)
#    0.000    0.571    2.857    3.857    6.000    4.000 
#    0.000    0.000    0.000    0.000    0.000    0.000 
#    0.000    0.000    0.000    0.000    0.000    0.000 
#
# Total GULP energy -78218.024816 kJ/mol
# GULP energy per Si atom -5587.001773 kJ/mol
# Density = 2.322690 g / cm^3
# Si number density = 23.279891 Si / 1000 Ang^3
#
#
#
# Elastic Constant Matrix: (Units=GPa)
#
#
# Indices 1 2 3 4 5 6 
#
# 1 94.2025 33.3635 26.6030 3.5327 -6.7266 8.1139
# 2 33.3635 144.1788 33.4368 8.8316 -4.7742 -0.5206
# 3 26.6030 33.4368 102.6823 5.1892 10.9307 -4.1892
# 4 3.5327 8.8316 5.1892 48.8551 2.4833 -5.1641
# 5 -6.7266 -4.7742 10.9307 2.4833 28.3802 4.8198
# 6 8.1139 -0.5206 -4.1892 -5.1641 4.8198 51.1370
#
#
#
# Elastic Compliance Matrix: (Units=1/GPa)
#
#
# Indices 1 2 3 4 5 6 
#
# 1 0.012837 -0.002041 -0.003216 -0.000743 0.004482 -0.002819
# 2 -0.002041 0.008059 -0.002236 -0.001173 0.001848 -0.000070
# 3 -0.003216 -0.002236 0.012040 -0.000116 -0.006111 0.002038
# 4 -0.000743 -0.001173 -0.000116 0.021141 -0.002599 0.002476
# 5 0.004482 0.001848 -0.006111 -0.002599 0.040079 -0.005233
# 6 -0.002819 -0.000070 0.002038 0.002476 -0.005233 0.020912
#
#
# Mechanical properties :
#
#
# Convention : Reuss Voigt Hill
#
# Bulk Modulus (GPa) = 55.70767 58.65225 57.17996
# Shear Modulus (GPa) = 36.75480 42.18512 39.46996
#
# Velocity S-wave (km/s) = 3.97775 4.26148 4.12205
# Velocity P-wave (km/s) = 6.71402 7.03297 6.87535
#
# Compressibility (1/GPa) = 0.01795085
#
# Stress axis : x y z
#
# Youngs Moduli (GPa) = 77.89940 124.07785 83.05949
#
# Poissons Ratio (x) = 0.25325 0.26709
# Poissons Ratio (y) = 0.15899 0.18571
# Poissons Ratio (z) = 0.25050 0.27742
#
# Static dielectric constant tensor:
#      x y z
#    x 3.526900 0.944590 0.159830 
#    y 0.944590 2.357320 0.057490 
#    z 0.159830 0.057490 1.877230 
# 
# From -- ./inp_files/37725.got.cif
#   From: 2010.05.17/outbox.cif.g08.bks.cpg/sg2_19_cif.got.tgz:37725.got - 2010.06.03 11:33:40.
