data_PCOD9065404
_publ_section_title
;
Structure prediction by ZEFSAII (Michael W. Deem and Ramdas Pophale) SiO2 
 PCOD9065404
Probable space group: P -1
;
_chemical_formula_sum "Si O2"
_cell_formula_units_Z 12
_cell_length_a 5.113284
_cell_length_b 7.159688
_cell_length_c 15.003726
_cell_angle_alpha 93.210530
_cell_angle_beta 64.843866
_cell_angle_gamma 109.494099
_cell_volume 466.302759
_symmetry_space_group_name_H-M "P -1"
_symmetry_group_IT_number 2
_symmetry_cell_setting 'triclinic'
loop_
_space_group_symop_operation_xyz
x,y,z
-x,-y,-z
loop_
_atom_site_type_symbol
_atom_site_label
_atom_site_fract_x
_atom_site_fract_y
_atom_site_fract_z
Si Si1 0.691435 0.358944 0.941480
Si Si2 0.154320 0.255687 0.718616
Si Si3 0.793507 0.932083 0.116562
Si Si4 0.649895 0.297299 0.140036
Si Si5 0.195031 0.470774 0.308396
Si Si6 0.860246 0.060444 0.434260
O O1 0.512372 0.236086 0.880105
O O2 0.500000 0.500000 0.000000
O O3 0.634044 0.232574 0.037416
O O4 0.057247 0.158248 0.828954
O O5 0.521421 0.366592 0.678255
O O6 0.017230 0.419281 0.704149
O O7 0.080002 0.072596 0.657530
O O8 0.702513 0.112254 0.176191
O O9 0.000000 0.000000 0.000000
O O10 0.039788 0.512042 0.890332
O O11 0.368323 0.361981 0.213819
O O12 0.997381 0.706955 0.604270
O O13 0.000000 0.000000 0.500000
O O14 0.500000 0.000000 0.500000
#
# Coordination Sequence:
#
# PCOD9065404 Si02
#       6
#     2   2   2   2   2   2
#     4  11  24  48  72 114 164 223 294 337 402 474
#     4  12  32  53  85 128 170 219 282 338 423 503
#     4  12  28  47  81 121 169 229 281 336 402 485
#     4  11  28  46  78 114 168 227 279 347 401 488
#     4  12  31  53  88 123 172 217 274 352 427 499
#     4  12  30  59  93 127 162 210 278 354 433 510
#
# _framework density 25.734349999999999
#
# number of rings (size 3 to 8) (size 9 to 14) (size 15 to 20)
#    0.000    0.333    1.667    3.500   16.333    4.000 
#    0.000    0.000    0.000    0.000    0.000    0.000 
#    0.000    0.000    0.000    0.000    0.000    0.000 
#
# Total GULP energy -67316.337681 kJ/mol
# GULP energy per Si atom -5609.694807 kJ/mol
# Density = 2.567578 g / cm^3
# Si number density = 25.734350 Si / 1000 Ang^3
#
#
#
# Elastic Constant Matrix: (Units=GPa)
#
#
# Indices 1 2 3 4 5 6 
#
# 1 143.7661 61.6649 34.9947 -30.9708 0.5582 -19.9934
# 2 61.6649 207.5901 40.7314 -9.6725 3.1718 -26.5292
# 3 34.9947 40.7314 75.8157 -13.1812 19.8876 -2.1550
# 4 -30.9708 -9.6725 -13.1812 53.2317 2.7737 -3.6818
# 5 0.5582 3.1718 19.8876 2.7737 53.1388 -0.9432
# 6 -19.9934 -26.5292 -2.1550 -3.6818 -0.9432 60.9559
#
#
#
# Elastic Compliance Matrix: (Units=1/GPa)
#
#
# Indices 1 2 3 4 5 6 
#
# 1 0.009835 -0.001806 -0.002888 0.004816 0.000881 0.002642
# 2 -0.001806 0.006089 -0.002656 -0.000505 0.000711 0.001944
# 3 -0.002888 -0.002656 0.018131 0.002581 -0.006757 -0.001411
# 4 0.004816 -0.000505 0.002581 0.022437 -0.002108 0.002774
# 5 0.000881 0.000711 -0.006757 -0.002108 0.021416 0.000563
# 6 0.002642 0.001944 -0.001411 0.002774 0.000563 0.018244
#
#
# Mechanical properties :
#
#
# Convention : Reuss Voigt Hill
#
# Bulk Modulus (GPa) = 51.66966 77.99485 64.83226
# Shear Modulus (GPa) = 42.62428 52.78402 47.70415
#
# Velocity S-wave (km/s) = 4.07420 4.53383 4.31015
# Velocity P-wave (km/s) = 6.50030 7.60138 7.07230
#
# Compressibility (1/GPa) = 0.01935372
#
# Stress axis : x y z
#
# Youngs Moduli (GPa) = 101.67935 164.22928 55.15420
#
# Poissons Ratio (x) = 0.29664 0.15928
# Poissons Ratio (y) = 0.18366 0.14652
# Poissons Ratio (z) = 0.29363 0.43627
#
# Static dielectric constant tensor:
#      x y z
#    x 2.006560 -0.049480 -0.025140 
#    y -0.049480 2.128670 -0.042780 
#    z -0.025140 -0.042780 2.141130 
# 
# From -- ./inp_files/407066.got.cif
#   From: 2010.05.17/outbox.cif.g08.bks.cpg/sg2_204_cif.got.tgz:407066.got - 2010.06.03 11:33:40.
