data_PCOD9065773
_publ_section_title
;
Structure prediction by ZEFSAII (Michael W. Deem and Ramdas Pophale) SiO2 
 PCOD9065773
Probable space group: P -1
;
_chemical_formula_sum "Si O2"
_cell_formula_units_Z 16
_cell_length_a 15.027433
_cell_length_b 8.475611
_cell_length_c 8.362127
_cell_angle_alpha 87.132453
_cell_angle_beta 133.660455
_cell_angle_gamma 102.485863
_cell_volume 744.824334
_symmetry_space_group_name_H-M "P -1"
_symmetry_group_IT_number 2
_symmetry_cell_setting 'triclinic'
loop_
_space_group_symop_operation_xyz
x,y,z
-x,-y,-z
loop_
_atom_site_type_symbol
_atom_site_label
_atom_site_fract_x
_atom_site_fract_y
_atom_site_fract_z
Si Si1 0.325225 0.537622 0.195131
Si Si2 0.513215 0.633245 0.146933
Si Si3 0.963662 0.067365 0.284857
Si Si4 0.469441 0.834867 0.576122
Si Si5 0.339688 0.825840 0.758553
Si Si6 0.739855 0.829521 0.828985
Si Si7 0.241616 0.115425 0.507476
Si Si8 0.125989 0.628974 0.704711
O O1 0.446859 0.550245 0.229480
O O2 0.377247 0.687605 0.371428
O O3 0.270542 0.360035 0.211442
O O4 0.213785 0.561332 0.939326
O O5 0.660838 0.713532 0.346161
O O6 0.500000 0.500000 0.000000
O O7 0.442240 0.777595 0.008332
O O8 0.908213 0.220078 0.253718
O O9 0.096008 0.114656 0.351006
O O10 0.000000 0.000000 0.500000
O O11 0.860951 0.928053 0.071799
O O12 0.404924 0.833678 0.667273
O O13 0.612695 0.817475 0.773493
O O14 0.500000 0.000000 0.500000
O O15 0.212711 0.688943 0.652886
O O16 0.287903 0.988686 0.687630
O O17 0.738581 0.919597 0.653188
O O18 0.000000 0.500000 0.500000
#
# Coordination Sequence:
#
# PCOD9065773 Si02
#       8
#     2   2   2   2   2   2   2   2
#     4  11  25  44  70 104 142 180 229 292 353 412
#     4  11  25  42  71 106 139 180 232 292 349 412
#     4  12  27  46  73  98 135 191 235 285 347 420
#     4  12  23  43  72 106 142 181 229 289 357 414
#     4  11  25  43  72 100 141 178 238 283 352 405
#     4  12  26  46  70 103 145 180 234 286 353 426
#     4  12  26  46  70 101 143 183 236 284 352 420
#     4  11  26  48  70 102 139 180 239 288 348 420
#
# _framework density 21.481577000000001
#
# number of rings (size 3 to 8) (size 9 to 14) (size 15 to 20)
#    0.000    0.500    3.750    3.375    8.750    2.000 
#    0.000    1.250    0.000    0.000    0.000    0.000 
#    0.000    0.000    0.000    0.000    0.000    0.000 
#
# Total GULP energy -89417.967178 kJ/mol
# GULP energy per Si atom -5588.622949 kJ/mol
# Density = 2.143268 g / cm^3
# Si number density = 21.481577 Si / 1000 Ang^3
#
#
#
# Elastic Constant Matrix: (Units=GPa)
#
#
# Indices 1 2 3 4 5 6 
#
# 1 106.5704 15.8764 20.9484 13.9538 20.3825 23.5171
# 2 15.8764 103.5224 57.0559 10.4828 12.3973 16.2231
# 3 20.9484 57.0559 123.2122 41.6339 20.1316 18.3567
# 4 13.9538 10.4828 41.6339 48.8916 6.8125 1.8295
# 5 20.3825 12.3973 20.1316 6.8125 37.7493 4.7417
# 6 23.5171 16.2231 18.3567 1.8295 4.7417 30.6260
#
#
#
# Elastic Compliance Matrix: (Units=1/GPa)
#
#
# Indices 1 2 3 4 5 6 
#
# 1 0.012820 -0.000274 0.001598 -0.003796 -0.005802 -0.009532
# 2 -0.000274 0.013691 -0.006745 0.003131 -0.000934 -0.003041
# 3 0.001598 -0.006745 0.016890 -0.012515 -0.004603 -0.006317
# 4 -0.003796 0.003131 -0.012515 0.031099 0.001241 0.006708
# 5 -0.005802 -0.000934 -0.004603 0.001241 0.031821 0.002708
# 6 -0.009532 -0.003041 -0.006317 0.006708 0.002708 0.044549
#
#
# Mechanical properties :
#
#
# Convention : Reuss Voigt Hill
#
# Bulk Modulus (GPa) = 30.71401 57.89625 44.30513
# Shear Modulus (GPa) = 28.97449 39.41500 34.19475
#
# Velocity S-wave (km/s) = 3.67659 4.28814 3.99409
# Velocity P-wave (km/s) = 5.68788 7.17827 6.47609
#
# Compressibility (1/GPa) = 0.03255844
#
# Stress axis : x y z
#
# Youngs Moduli (GPa) = 78.00106 73.04108 59.20628
#
# Poissons Ratio (x) = 0.02000 -0.09460
# Poissons Ratio (y) = 0.02136 0.39938
# Poissons Ratio (z) = -0.12463 0.49270
#
# Static dielectric constant tensor:
#      x y z
#    x 1.801600 -0.046330 0.017340 
#    y -0.046330 1.837850 -0.055470 
#    z 0.017340 -0.055470 1.767750 
# 
# From -- ./inp_files/216444.got.cif
#   From: 2010.05.17/outbox.cif.g08.bks.cpg/sg2_109_cif.got.tgz:216444.got - 2010.06.03 11:33:40.
