data_PCOD9065230
_publ_section_title
;
Structure prediction by ZEFSAII (Michael W. Deem and Ramdas Pophale) SiO2 
 PCOD9065230
Probable space group: P -1
;
_chemical_formula_sum "Si O2"
_cell_formula_units_Z 15
_cell_length_a 19.547416
_cell_length_b 19.061180
_cell_length_c 12.579210
_cell_angle_alpha 29.138768
_cell_angle_beta 154.039703
_cell_angle_gamma 159.749267
_cell_volume 696.173040
_symmetry_space_group_name_H-M "P -1"
_symmetry_group_IT_number 2
_symmetry_cell_setting 'triclinic'
loop_
_space_group_symop_operation_xyz
x,y,z
-x,-y,-z
loop_
_atom_site_type_symbol
_atom_site_label
_atom_site_fract_x
_atom_site_fract_y
_atom_site_fract_z
Si Si1 0.987607 0.002336 0.657411
Si Si2 0.354727 0.137817 0.133077
Si Si3 0.575517 0.065722 0.221204
Si Si4 0.500000 0.500000 0.000000
Si Si5 0.573847 0.737060 0.583944
Si Si6 0.789324 0.267875 0.474077
Si Si7 0.061748 0.813421 0.839736
Si Si8 0.212923 0.596530 0.099187
O O1 0.808494 0.871142 0.674275
O O2 0.969156 0.863154 0.730203
O O3 0.948346 0.120276 0.378720
O O4 0.231800 0.145692 0.858838
O O5 0.403335 0.280313 0.107173
O O6 0.581811 0.211679 0.314189
O O7 0.200560 0.894813 0.264600
O O8 0.733734 0.222733 0.330634
O O9 0.579117 0.897027 0.435495
O O10 0.658172 0.189684 0.062247
O O11 0.319000 0.941813 0.050825
O O12 0.475914 0.419325 0.194149
O O13 0.384285 0.625192 0.376003
O O14 0.000000 0.500000 0.500000
O O15 0.895100 0.570179 0.923726
O O16 0.000000 0.500000 0.000000
#
# Coordination Sequence:
#
# PCOD9065230 Si02
#       8
#     2   2   2   1   2   2   2   2
#     4  11  25  46  73 106 155 183 243 317 378 439
#     4  11  26  49  71 107 149 195 248 310 368 449
#     4  12  24  49  78 106 144 197 255 301 374 457
#     4  12  28  46  74 104 158 196 252 306 384 442
#     4  12  26  47  72 111 150 198 248 306 375 448
#     4  11  27  47  78 105 143 199 258 303 362 450
#     4  11  24  47  75 109 146 194 239 313 377 452
#     4  12  25  42  77 106 144 190 250 307 367 437
#
# _framework density 21.546368000000001
#
# number of rings (size 3 to 8) (size 9 to 14) (size 15 to 20)
#    0.000    0.533    5.333    2.000    3.733    3.200 
#    0.000    0.000    0.000    0.000    0.000    0.000 
#    0.000    0.000    0.000    0.000    0.000    0.000 
#
# Total GULP energy -83622.948761 kJ/mol
# GULP energy per Si atom -5574.863251 kJ/mol
# Density = 2.149733 g / cm^3
# Si number density = 21.546368 Si / 1000 Ang^3
#
#
#
# Elastic Constant Matrix: (Units=GPa)
#
#
# Indices 1 2 3 4 5 6 
#
# 1 -15.8885 12.4026 32.3550 -17.4510 0.1216 -42.9300
# 2 12.4026 108.9780 47.5112 -12.6451 6.6247 -25.7536
# 3 32.3550 47.5112 101.2513 -11.7677 -10.3373 12.0971
# 4 -17.4510 -12.6451 -11.7677 35.7048 1.9886 -11.7364
# 5 0.1216 6.6247 -10.3373 1.9886 39.7270 -2.2420
# 6 -42.9300 -25.7536 12.0971 -11.7364 -2.2420 23.6389
#
#
#
# Elastic Compliance Matrix: (Units=1/GPa)
#
#
# Indices 1 2 3 4 5 6 
#
# 1 -0.001791 -0.007318 0.005433 -0.007565 0.002027 -0.017569
# 2 -0.007318 0.012824 -0.004263 0.000689 -0.003095 0.002911
# 3 0.005433 -0.004263 0.010791 0.005403 0.003384 0.002704
# 4 -0.007565 0.000689 0.005403 0.025287 -0.000133 -0.003209
# 5 0.002027 -0.003095 0.003384 -0.000133 0.026627 0.001036
# 6 -0.017569 0.002911 0.002704 -0.003209 0.001036 0.010689
#
#
# Mechanical properties :
#
#
# Convention : Reuss Voigt Hill
#
# Bulk Modulus (GPa) = 104.94982 42.09763 73.52372
# Shear Modulus (GPa) = 50.05118 26.61894 38.33506
#
# Velocity S-wave (km/s) = 4.82493 3.51868 4.22262
# Velocity P-wave (km/s) = 8.93613 6.00739 7.61391
#
# Compressibility (1/GPa) = 0.00952836
#
# Stress axis : x y z
#
# Youngs Moduli (GPa) = -558.22368 77.98136 92.67094
#
# Poissons Ratio (x) = 0.57064 -0.50349
# Poissons Ratio (y) = -4.08491 0.39503
# Poissons Ratio (z) = 3.03286 0.33241
#
# Static dielectric constant tensor:
#      x y z
#    x 1.788290 -0.028770 -0.007260 
#    y -0.028770 1.563630 -0.004330 
#    z -0.007260 -0.004330 1.793560 
# 
# From -- ./inp_files/466571.got.cif
#   From: 2010.05.17/outbox.cif.g08.bks.cpg/sg2_234_cif.got.tgz:466571.got - 2010.06.03 11:33:40.
