data_PCOD9065048
_publ_section_title
;
Structure prediction by ZEFSAII (Michael W. Deem and Ramdas Pophale) SiO2 
 PCOD9065048
Probable space group: P -1
;
_chemical_formula_sum "Si O2"
_cell_formula_units_Z 16
_cell_length_a 13.581648
_cell_length_b 9.567766
_cell_length_c 11.755002
_cell_angle_alpha 113.951901
_cell_angle_beta 135.219863
_cell_angle_gamma 45.738670
_cell_volume 758.360485
_symmetry_space_group_name_H-M "P -1"
_symmetry_group_IT_number 2
_symmetry_cell_setting 'triclinic'
loop_
_space_group_symop_operation_xyz
x,y,z
-x,-y,-z
loop_
_atom_site_type_symbol
_atom_site_label
_atom_site_fract_x
_atom_site_fract_y
_atom_site_fract_z
Si Si1 0.034032 0.635115 0.184428
Si Si2 0.211249 0.459093 0.039425
Si Si3 0.846603 0.236504 0.468503
Si Si4 0.603121 0.142668 0.187224
Si Si5 0.072754 0.660194 0.666073
Si Si6 0.850234 0.184561 0.015607
Si Si7 0.277655 0.214553 0.688917
Si Si8 0.334855 0.945199 0.054609
O O1 0.180492 0.499843 0.162426
O O2 0.109083 0.694233 0.361999
O O3 0.856218 0.832163 0.041264
O O4 0.957427 0.528252 0.134023
O O5 0.397962 0.250763 0.088753
O O6 0.216109 0.621940 0.042393
O O7 0.667315 0.256892 0.333219
O O8 0.852828 0.336182 0.393957
O O9 0.000000 0.000000 0.500000
O O10 0.626497 0.138684 0.070145
O O11 0.717652 0.919564 0.254999
O O12 0.870350 0.738115 0.507757
O O13 0.072018 0.801483 0.798250
O O14 0.201934 0.432174 0.737681
O O15 0.699344 0.168972 0.924636
O O16 0.000000 0.000000 0.000000
O O17 0.483056 0.092206 0.774359
#
# Coordination Sequence:
#
# PCOD9065048 Si02
#       8
#     2   2   2   2   2   2   2   2
#     4  11  24  47  70 100 134 181 228 270 339 409
#     4  11  27  44  71 100 138 182 223 276 338 408
#     4  12  23  41  71  99 136 176 220 285 332 398
#     4  12  24  41  70 106 133 176 229 282 330 400
#     4  11  25  44  64 105 136 178 221 282 347 394
#     4  12  26  45  68  97 142 183 218 276 347 405
#     4  11  25  40  71 100 136 171 227 286 332 393
#     4  12  23  43  68 101 133 174 234 273 328 404
#
# _framework density 21.098146
#
# number of rings (size 3 to 8) (size 9 to 14) (size 15 to 20)
#    0.000    0.500    6.250    1.125    8.750    1.500 
#    0.000    0.625    0.000    0.000    0.000    0.000 
#    0.000    0.000    0.000    0.000    0.000    0.000 
#
# Total GULP energy -89491.568831 kJ/mol
# GULP energy per Si atom -5593.223052 kJ/mol
# Density = 2.105013 g / cm^3
# Si number density = 21.098146 Si / 1000 Ang^3
#
#
#
# Elastic Constant Matrix: (Units=GPa)
#
#
# Indices 1 2 3 4 5 6 
#
# 1 132.5604 32.7464 29.2941 1.5370 7.1389 17.3737
# 2 32.7464 79.0118 18.0860 0.7372 -10.6093 11.0186
# 3 29.2941 18.0860 81.3790 13.8465 10.5253 -0.1830
# 4 1.5370 0.7372 13.8465 37.4655 0.4112 -3.5165
# 5 7.1389 -10.6093 10.5253 0.4112 30.7094 6.4705
# 6 17.3737 11.0186 -0.1830 -3.5165 6.4705 43.8576
#
#
#
# Elastic Compliance Matrix: (Units=1/GPa)
#
#
# Indices 1 2 3 4 5 6 
#
# 1 0.009314 -0.003189 -0.002470 0.000371 -0.001879 -0.002592
# 2 -0.003189 0.016571 -0.003782 0.000720 0.008623 -0.004130
# 3 -0.002470 -0.003782 0.015788 -0.005348 -0.006607 0.002540
# 4 0.000371 0.000720 -0.005348 0.028792 0.001236 0.001776
# 5 -0.001879 0.008623 -0.006607 0.001236 0.039747 -0.007215
# 6 -0.002592 -0.004130 0.002540 0.001776 -0.007215 0.026083
#
#
# Mechanical properties :
#
#
# Convention : Reuss Voigt Hill
#
# Bulk Modulus (GPa) = 43.87682 50.35599 47.11640
# Shear Modulus (GPa) = 30.71760 36.59482 33.65621
#
# Velocity S-wave (km/s) = 3.81982 4.16926 3.99835
# Velocity P-wave (km/s) = 6.34794 6.86267 6.61032
#
# Compressibility (1/GPa) = 0.02279108
#
# Stress axis : x y z
#
# Youngs Moduli (GPa) = 107.36594 60.34695 63.33925
#
# Poissons Ratio (x) = 0.19246 0.15644
# Poissons Ratio (y) = 0.34241 0.23954
# Poissons Ratio (z) = 0.26518 0.22822
#
# Static dielectric constant tensor:
#      x y z
#    x 1.760600 0.028880 0.015300 
#    y 0.028880 1.792310 -0.018460 
#    z 0.015300 -0.018460 1.789070 
# 
# From -- ./inp_files/419619.got.cif
#   From: 2010.05.17/outbox.cif.g08.bks.cpg/sg2_210_cif.got.tgz:419619.got - 2010.06.03 11:33:40.
