data_PCOD9065305
_publ_section_title
;
Structure prediction by ZEFSAII (Michael W. Deem and Ramdas Pophale) SiO2 
 PCOD9065305
Probable space group: P -1
;
_chemical_formula_sum "Si O2"
_cell_formula_units_Z 14
_cell_length_a 8.954912
_cell_length_b 9.177889
_cell_length_c 21.460829
_cell_angle_alpha 147.303135
_cell_angle_beta 132.056764
_cell_angle_gamma 72.288125
_cell_volume 539.430202
_symmetry_space_group_name_H-M "P -1"
_symmetry_group_IT_number 2
_symmetry_cell_setting 'triclinic'
loop_
_space_group_symop_operation_xyz
x,y,z
-x,-y,-z
loop_
_atom_site_type_symbol
_atom_site_label
_atom_site_fract_x
_atom_site_fract_y
_atom_site_fract_z
Si Si1 0.200876 0.889165 0.725392
Si Si2 0.807957 0.822671 0.297302
Si Si3 0.747891 0.825516 0.031029
Si Si4 0.647428 0.884350 0.886854
Si Si5 0.777419 0.917686 0.798193
Si Si6 0.330125 0.766308 0.537042
Si Si7 0.629101 0.916622 0.456594
O O1 0.471604 0.981193 0.851989
O O2 0.000000 0.500000 0.500000
O O3 0.236363 0.149359 0.777457
O O4 0.107506 0.918290 0.776347
O O5 0.544302 0.495468 0.141070
O O6 0.869481 0.172465 0.471238
O O7 0.053741 0.831714 0.370549
O O8 0.734524 0.986011 0.020225
O O9 0.951932 0.770415 0.047823
O O10 0.816657 0.982889 0.906670
O O11 0.463972 0.461607 0.688519
O O12 0.525863 0.862053 0.682728
O O13 0.730682 0.565984 0.636329
O O14 0.472252 0.058640 0.627853
O O15 0.500000 0.000000 0.500000
#
# Coordination Sequence:
#
# PCOD9065305 Si02
#       7
#     2   2   2   2   2   2   2
#     4  12  26  50  80 107 152 202 263 308 376 468
#     4  12  26  49  77 114 155 202 251 316 390 447
#     4  12  29  47  74 119 157 199 249 321 386 448
#     4  12  25  50  74 113 152 204 255 316 379 442
#     4  11  26  47  78 113 154 206 259 306 375 453
#     4  11  24  47  79 111 150 207 258 307 372 456
#     4  12  26  46  80 112 152 198 260 318 380 454
#
# _framework density 25.953315
#
# number of rings (size 3 to 8) (size 9 to 14) (size 15 to 20)
#    0.000    0.286    5.714    2.571    4.000    1.714 
#    2.571    0.000    0.000    0.000    0.000    0.000 
#    0.000    0.000    0.000    0.000    0.000    0.000 
#
# Total GULP energy -78243.788716 kJ/mol
# GULP energy per Si atom -5588.842051 kJ/mol
# Density = 2.589424 g / cm^3
# Si number density = 25.953315 Si / 1000 Ang^3
#
#
#
# Elastic Constant Matrix: (Units=GPa)
#
#
# Indices 1 2 3 4 5 6 
#
# 1 190.0473 76.4639 39.4663 -9.0853 3.1447 36.2880
# 2 76.4639 139.8066 45.7525 -33.9538 -12.1336 24.5715
# 3 39.4663 45.7525 95.6762 -10.0937 10.2658 7.2379
# 4 -9.0853 -33.9538 -10.0937 46.9996 6.9642 -8.3232
# 5 3.1447 -12.1336 10.2658 6.9642 36.3000 -12.9505
# 6 36.2880 24.5715 7.2379 -8.3232 -12.9505 58.9112
#
#
#
# Elastic Compliance Matrix: (Units=1/GPa)
#
#
# Indices 1 2 3 4 5 6 
#
# 1 0.007731 -0.003930 -0.000913 -0.001818 -0.002759 -0.003874
# 2 -0.003930 0.012805 -0.004205 0.006862 0.004321 -0.000484
# 3 -0.000913 -0.004205 0.013495 0.000399 -0.005387 -0.000470
# 4 -0.001818 0.006862 0.000399 0.026559 -0.002233 0.001470
# 5 -0.002759 0.004321 -0.005387 -0.002233 0.033931 0.007703
# 6 -0.003874 -0.000484 -0.000470 0.001470 0.007703 0.021522
#
#
# Mechanical properties :
#
#
# Convention : Reuss Voigt Hill
#
# Bulk Modulus (GPa) = 62.75227 83.21061 72.98144
# Shear Modulus (GPa) = 35.85521 46.03199 40.94360
#
# Velocity S-wave (km/s) = 3.72092 4.21604 3.97619
# Velocity P-wave (km/s) = 6.53389 7.47203 7.01865
#
# Compressibility (1/GPa) = 0.01593568
#
# Stress axis : x y z
#
# Youngs Moduli (GPa) = 129.35172 78.09653 74.10155
#
# Poissons Ratio (x) = 0.30688 0.06762
# Poissons Ratio (y) = 0.50829 0.31162
# Poissons Ratio (z) = 0.11804 0.32842
#
# Static dielectric constant tensor:
#      x y z
#    x 2.071250 -0.008860 -0.049030 
#    y -0.008860 1.991000 0.018910 
#    z -0.049030 0.018910 2.211620 
# 
# From -- ./inp_files/588239.got.cif
#   From: 2010.05.17/outbox.cif.g08.bks.cpg/sg2_295_cif.got.tgz:588239.got - 2010.06.03 11:33:40.
