data_PCOD9065401
_publ_section_title
;
Structure prediction by ZEFSAII (Michael W. Deem and Ramdas Pophale) SiO2 
 PCOD9065401
Probable space group: P -1
;
_chemical_formula_sum "Si O2"
_cell_formula_units_Z 13
_cell_length_a 11.765367
_cell_length_b 9.962615
_cell_length_c 9.907016
_cell_angle_alpha 125.304961
_cell_angle_beta 105.270815
_cell_angle_gamma 37.446197
_cell_volume 529.617106
_symmetry_space_group_name_H-M "P -1"
_symmetry_group_IT_number 2
_symmetry_cell_setting 'triclinic'
loop_
_space_group_symop_operation_xyz
x,y,z
-x,-y,-z
loop_
_atom_site_type_symbol
_atom_site_label
_atom_site_fract_x
_atom_site_fract_y
_atom_site_fract_z
Si Si1 0.761081 0.934456 0.902440
Si Si2 0.055142 0.545678 0.170718
Si Si3 0.419868 0.366922 0.254062
Si Si4 0.000000 0.000000 0.000000
Si Si5 0.198164 0.602568 0.588064
Si Si6 0.192488 0.952967 0.451278
Si Si7 0.665163 0.897849 0.586826
O O1 0.931547 0.602839 0.791829
O O2 0.614254 0.029699 0.795624
O O3 0.636523 0.092785 0.094486
O O4 0.869657 0.978633 0.920377
O O5 0.267879 0.401434 0.163934
O O6 0.886309 0.874985 0.336113
O O7 0.000000 0.500000 0.000000
O O8 0.390248 0.395267 0.423951
O O9 0.338650 0.635157 0.334258
O O10 0.822982 0.265197 0.208469
O O11 0.186444 0.424012 0.520841
O O12 0.011510 0.869032 0.588392
O O13 0.275646 0.007119 0.420347
O O14 0.500000 0.000000 0.500000
#
# Coordination Sequence:
#
# PCOD9065401 Si02
#       7
#     2   2   2   1   2   2   2
#     4  12  27  50  76 112 153 202 252 318 378 456
#     4  11  25  44  78 108 148 201 254 307 382 456
#     4  11  27  47  77 113 156 186 260 321 375 445
#     4  12  28  44  80 102 150 200 250 300 396 444
#     4  11  24  50  73 106 152 203 246 312 378 454
#     4  11  24  48  72 109 152 199 252 311 371 460
#     4  12  27  46  75 105 156 203 254 304 381 452
#
# _framework density 24.546036000000001
#
# number of rings (size 3 to 8) (size 9 to 14) (size 15 to 20)
#    0.000    0.615    4.615    3.692    8.615    2.462 
#    0.000    0.000    0.000    0.000    0.000    0.000 
#    0.000    0.000    0.000    0.000    0.000    0.000 
#
# Total GULP energy -72453.062460 kJ/mol
# GULP energy per Si atom -5573.312497 kJ/mol
# Density = 2.449017 g / cm^3
# Si number density = 24.546036 Si / 1000 Ang^3
#
#
#
# Elastic Constant Matrix: (Units=GPa)
#
#
# Indices 1 2 3 4 5 6 
#
# 1 99.4681 30.2250 66.3913 -4.8568 5.8849 12.6249
# 2 30.2250 77.6805 43.4295 -1.7359 17.9044 16.9431
# 3 66.3913 43.4295 148.5855 -4.8786 15.6060 10.2931
# 4 -4.8568 -1.7359 -4.8786 35.6098 2.3271 8.4254
# 5 5.8849 17.9044 15.6060 2.3271 50.4927 0.3840
# 6 12.6249 16.9431 10.2931 8.4254 0.3840 33.4134
#
#
#
# Elastic Compliance Matrix: (Units=1/GPa)
#
#
# Indices 1 2 3 4 5 6 
#
# 1 0.015097 -0.001924 -0.005960 0.001903 0.000703 -0.003380
# 2 -0.001924 0.018589 -0.003357 0.002483 -0.005382 -0.008229
# 3 -0.005960 -0.003357 0.010488 0.000399 -0.001380 0.000638
# 4 0.001903 0.002483 0.000399 0.031027 -0.002580 -0.009895
# 5 0.000703 -0.005382 -0.001380 -0.002580 0.022152 0.003284
# 6 -0.003380 -0.008229 0.000638 -0.009895 0.003284 0.037639
#
#
# Mechanical properties :
#
#
# Convention : Reuss Voigt Hill
#
# Bulk Modulus (GPa) = 46.09990 67.31398 56.70694
# Shear Modulus (GPa) = 30.35715 36.28237 33.31976
#
# Velocity S-wave (km/s) = 3.52055 3.84882 3.68834
# Velocity P-wave (km/s) = 5.94537 6.87273 6.42580
#
# Compressibility (1/GPa) = 0.02169202
#
# Stress axis : x y z
#
# Youngs Moduli (GPa) = 66.23910 53.79383 95.34330
#
# Poissons Ratio (x) = 0.10350 0.56829
# Poissons Ratio (y) = 0.12744 0.32006
# Poissons Ratio (z) = 0.39482 0.18058
#
# Static dielectric constant tensor:
#      x y z
#    x 1.958530 -0.018870 -0.054580 
#    y -0.018870 1.969210 -0.041820 
#    z -0.054580 -0.041820 1.964980 
# 
# From -- ./inp_files/156159.got.cif
#   From: 2010.05.17/outbox.cif.g08.bks.cpg/sg2_79_cif.got.tgz:156159.got - 2010.06.03 11:33:40.
