data_PCOD9065562
_publ_section_title
;
Structure prediction by ZEFSAII (Michael W. Deem and Ramdas Pophale) SiO2 
 PCOD9065562
Probable space group: P -1
;
_chemical_formula_sum "Si O2"
_cell_formula_units_Z 14
_cell_length_a 18.707888
_cell_length_b 14.080367
_cell_length_c 10.919380
_cell_angle_alpha 131.397899
_cell_angle_beta 24.573148
_cell_angle_gamma 145.911729
_cell_volume 616.101217
_symmetry_space_group_name_H-M "P -1"
_symmetry_group_IT_number 2
_symmetry_cell_setting 'triclinic'
loop_
_space_group_symop_operation_xyz
x,y,z
-x,-y,-z
loop_
_atom_site_type_symbol
_atom_site_label
_atom_site_fract_x
_atom_site_fract_y
_atom_site_fract_z
Si Si1 0.794445 0.842387 0.088997
Si Si2 0.611691 0.925248 0.243584
Si Si3 0.063258 0.773283 0.464248
Si Si4 0.930240 0.464876 0.224313
Si Si5 0.770306 0.959872 0.779203
Si Si6 0.619960 0.433646 0.303684
Si Si7 0.287772 0.685306 0.173396
O O1 0.781723 0.945197 0.094045
O O2 0.540785 0.694436 0.437245
O O3 0.859689 0.742332 0.836500
O O4 0.000000 0.000000 0.000000
O O5 0.364888 0.704979 0.441605
O O6 0.500000 0.000000 0.500000
O O7 0.747512 0.028916 0.993896
O O8 0.257662 0.815937 0.293761
O O9 0.000373 0.625115 0.338400
O O10 0.171540 0.938624 0.349185
O O11 0.000000 0.500000 0.000000
O O12 0.087408 0.427827 0.999543
O O13 0.488063 0.757972 0.027061
O O14 0.000000 0.000000 0.500000
O O15 0.500000 0.500000 0.500000
O O16 0.607901 0.332850 0.121714
O O17 0.000000 0.500000 0.500000
#
# Coordination Sequence:
#
# PCOD9065562 Si02
#       7
#     2   2   2   2   2   2   2
#     4  12  27  47  70 108 146 191 243 296 366 435
#     4  12  28  46  72 105 147 191 237 304 371 436
#     4  11  25  47  75 105 146 195 242 304 363 446
#     4  11  24  49  72 106 142 191 242 299 373 426
#     4  12  25  45  70 108 141 186 246 303 365 428
#     4  11  25  43  72 102 140 187 237 298 358 436
#     4  11  25  47  73 103 144 195 245 300 370 437
#
# _framework density 22.723538999999999
#
# number of rings (size 3 to 8) (size 9 to 14) (size 15 to 20)
#    0.000    0.571    2.857    4.714    6.000    1.714 
#    2.571    0.000    0.000    0.000    0.000    0.000 
#    0.000    0.000    0.000    0.000    0.000    0.000 
#
# Total GULP energy -77986.801618 kJ/mol
# GULP energy per Si atom -5570.485830 kJ/mol
# Density = 2.267182 g / cm^3
# Si number density = 22.723539 Si / 1000 Ang^3
#
#
#
# Elastic Constant Matrix: (Units=GPa)
#
#
# Indices 1 2 3 4 5 6 
#
# 1 127.6451 15.7375 47.4714 5.2068 -18.6474 2.5529
# 2 15.7375 46.7001 24.5878 9.1449 -12.1126 6.1015
# 3 47.4714 24.5878 145.7987 30.0862 2.5107 3.9604
# 4 5.2068 9.1449 30.0862 47.8829 4.1615 1.4561
# 5 -18.6474 -12.1126 2.5107 4.1615 65.0777 -2.8951
# 6 2.5529 6.1015 3.9604 1.4561 -2.8951 29.2714
#
#
#
# Elastic Compliance Matrix: (Units=1/GPa)
#
#
# Indices 1 2 3 4 5 6 
#
# 1 0.009471 -0.001052 -0.003141 0.000920 0.002582 0.000028
# 2 -0.001052 0.025888 -0.003372 -0.002986 0.004649 -0.004240
# 3 -0.003141 -0.003372 0.009479 -0.004825 -0.001595 -0.000223
# 4 0.000920 -0.002986 -0.004825 0.024539 -0.001684 -0.000192
# 5 0.002582 0.004649 -0.001595 -0.001684 0.017176 0.000804
# 6 0.000028 -0.004240 -0.000223 -0.000192 0.000804 0.035164
#
#
# Mechanical properties :
#
#
# Convention : Reuss Voigt Hill
#
# Bulk Modulus (GPa) = 33.66087 55.08193 44.37140
# Shear Modulus (GPa) = 34.07148 43.93621 39.00384
#
# Velocity S-wave (km/s) = 3.87640 4.40194 4.14750
# Velocity P-wave (km/s) = 5.90599 7.08017 6.51956
#
# Compressibility (1/GPa) = 0.02970809
#
# Stress axis : x y z
#
# Youngs Moduli (GPa) = 105.58215 38.62836 105.49094
#
# Poissons Ratio (x) = 0.04063 0.33139
# Poissons Ratio (y) = 0.11106 0.35571
# Poissons Ratio (z) = 0.33168 0.13025
#
# Static dielectric constant tensor:
#      x y z
#    x 1.978060 0.188940 -0.075190 
#    y 0.188940 2.110070 -0.109460 
#    z -0.075190 -0.109460 1.827000 
# 
# From -- ./inp_files/343630.got.cif
#   From: 2010.05.17/outbox.cif.g08.bks.cpg/sg2_172_cif.got.tgz:343630.got - 2010.06.03 11:33:40.
