data_PCOD9065118
_publ_section_title
;
Structure prediction by ZEFSAII (Michael W. Deem and Ramdas Pophale) SiO2 
 PCOD9065118
Probable space group: P -1
;
_chemical_formula_sum "Si O2"
_cell_formula_units_Z 16
_cell_length_a 12.040112
_cell_length_b 21.934984
_cell_length_c 9.443932
_cell_angle_alpha 145.686985
_cell_angle_beta 42.826470
_cell_angle_gamma 149.952040
_cell_volume 702.503559
_symmetry_space_group_name_H-M "P -1"
_symmetry_group_IT_number 2
_symmetry_cell_setting 'triclinic'
loop_
_space_group_symop_operation_xyz
x,y,z
-x,-y,-z
loop_
_atom_site_type_symbol
_atom_site_label
_atom_site_fract_x
_atom_site_fract_y
_atom_site_fract_z
Si Si1 0.293233 0.660265 0.958608
Si Si2 0.294605 0.439798 0.676612
Si Si3 0.996828 0.102636 0.805040
Si Si4 0.820775 0.424034 0.397333
Si Si5 0.805158 0.151923 0.580563
Si Si6 0.388520 0.432849 0.123180
Si Si7 0.301444 0.868250 0.027834
Si Si8 0.787319 0.947680 0.007404
O O1 0.238204 0.534129 0.861198
O O2 0.134827 0.586083 0.826475
O O3 0.253658 0.757418 0.252186
O O4 0.557756 0.775493 0.889266
O O5 0.500000 0.500000 0.500000
O O6 0.404752 0.490118 0.820952
O O7 0.074801 0.268550 0.553504
O O8 0.903364 0.162571 0.916362
O O9 0.862323 0.010458 0.897319
O O10 0.000000 0.000000 0.500000
O O11 0.230952 0.256963 0.936157
O O12 0.732931 0.506841 0.621186
O O13 0.678246 0.252544 0.237867
O O14 0.000000 0.500000 0.500000
O O15 0.724486 0.025693 0.306087
O O16 0.714164 0.108631 0.745342
O O17 0.500000 0.500000 0.000000
O O18 0.500000 0.000000 0.000000
O O19 0.000000 0.000000 0.000000
#
# Coordination Sequence:
#
# PCOD9065118 Si02
#       8
#     2   2   2   2   2   2   2   2
#     4  11  25  45  74 107 145 195 243 308 366 444
#     4  12  24  46  75 107 147 193 246 303 372 442
#     4  12  26  45  70 104 142 194 249 304 369 441
#     4  11  24  47  72 103 149 192 248 305 375 441
#     4  11  25  47  72 107 149 191 246 302 373 443
#     4  12  27  44  71 106 146 193 249 308 373 441
#     4  11  25  47  73 106 143 194 244 306 368 445
#     4  12  26  47  72 106 150 195 246 306 370 444
#
# _framework density 22.775687000000001
#
# number of rings (size 3 to 8) (size 9 to 14) (size 15 to 20)
#    0.000    0.500    2.500    6.000    5.250    0.000 
#    2.250    0.000    0.000    0.000    0.000    0.000 
#    0.000    0.000    0.000    0.000    0.000    0.000 
#
# Total GULP energy -89321.850391 kJ/mol
# GULP energy per Si atom -5582.615649 kJ/mol
# Density = 2.272385 g / cm^3
# Si number density = 22.775687 Si / 1000 Ang^3
#
#
#
# Elastic Constant Matrix: (Units=GPa)
#
#
# Indices 1 2 3 4 5 6 
#
# 1 109.3914 7.3667 11.8775 16.4606 17.4568 -13.3125
# 2 7.3667 150.8529 47.1670 5.6453 22.2436 -11.5928
# 3 11.8775 47.1670 126.0739 12.6056 6.7085 -14.2232
# 4 16.4606 5.6453 12.6056 32.0987 -2.4801 3.8187
# 5 17.4568 22.2436 6.7085 -2.4801 42.4598 -1.2091
# 6 -13.3125 -11.5928 -14.2232 3.8187 -1.2091 40.8290
#
#
#
# Elastic Compliance Matrix: (Units=1/GPa)
#
#
# Indices 1 2 3 4 5 6 
#
# 1 0.011570 0.000823 0.000116 -0.007089 -0.005491 0.004547
# 2 0.000823 0.008210 -0.002593 -0.001379 -0.004262 0.001699
# 3 0.000116 -0.002593 0.009624 -0.003766 -0.000345 0.002996
# 4 -0.007089 -0.001379 -0.003766 0.037869 0.006234 -0.007372
# 5 -0.005491 -0.004262 -0.000345 0.006234 0.028379 -0.002863
# 6 0.004547 0.001699 0.002996 -0.007372 -0.002863 0.028106
#
#
# Mechanical properties :
#
#
# Convention : Reuss Voigt Hill
#
# Bulk Modulus (GPa) = 38.31978 57.68228 48.00103
# Shear Modulus (GPa) = 36.82868 44.40462 40.61665
#
# Velocity S-wave (km/s) = 4.02558 4.42027 4.22754
# Velocity P-wave (km/s) = 6.20229 7.17168 6.70453
#
# Compressibility (1/GPa) = 0.02609618
#
# Stress axis : x y z
#
# Youngs Moduli (GPa) = 86.43289 121.80150 103.90869
#
# Poissons Ratio (x) = -0.10025 -0.01205
# Poissons Ratio (y) = -0.07114 0.26941
# Poissons Ratio (z) = -0.01002 0.31580
#
# Static dielectric constant tensor:
#      x y z
#    x 1.864200 0.099650 0.080270 
#    y 0.099650 1.883450 -0.108300 
#    z 0.080270 -0.108300 1.430770 
# 
# From -- ./inp_files/158722.got.cif
#   From: 2010.05.17/outbox.cif.g08.bks.cpg/sg2_80_cif.got.tgz:158722.got - 2010.06.03 11:33:40.
