data_PCOD9065899
_publ_section_title
;
Structure prediction by ZEFSAII (Michael W. Deem and Ramdas Pophale) SiO2 
 PCOD9065899
Probable space group: P -1
;
_chemical_formula_sum "Si O2"
_cell_formula_units_Z 12
_cell_length_a 23.195434
_cell_length_b 23.415980
_cell_length_c 10.019652
_cell_angle_alpha 154.683236
_cell_angle_beta 25.148772
_cell_angle_gamma 167.760781
_cell_volume 478.873548
_symmetry_space_group_name_H-M "P -1"
_symmetry_group_IT_number 2
_symmetry_cell_setting 'triclinic'
loop_
_space_group_symop_operation_xyz
x,y,z
-x,-y,-z
loop_
_atom_site_type_symbol
_atom_site_label
_atom_site_fract_x
_atom_site_fract_y
_atom_site_fract_z
Si Si1 0.191746 0.789428 0.245621
Si Si2 0.911013 0.117088 0.584545
Si Si3 0.484983 0.201984 0.860507
Si Si4 0.062632 0.264716 0.097178
Si Si5 0.497244 0.464932 0.775633
Si Si6 0.192220 0.754778 0.734433
O O1 0.124778 0.860900 0.444193
O O2 0.082656 0.746440 0.529046
O O3 0.000000 0.500000 0.000000
O O4 0.500000 0.000000 0.000000
O O5 0.175645 0.251714 0.344091
O O6 0.633600 0.794847 0.518479
O O7 0.965668 0.296713 0.934543
O O8 0.751698 0.527405 0.980309
O O9 0.607682 0.180071 0.475303
O O10 0.375217 0.023865 0.841053
O O11 0.214508 0.041535 0.029116
O O12 0.289301 0.382925 0.959810
O O13 0.500000 0.500000 0.000000
O O14 0.000000 0.500000 0.500000
#
# Coordination Sequence:
#
# PCOD9065899 Si02
#       6
#     2   2   2   2   2   2
#     4  12  25  40  69 106 141 174 234 300 361 423
#     4  12  27  45  73 105 141 189 246 282 362 430
#     4  11  25  43  75 101 144 181 236 295 366 414
#     4  12  24  45  69 103 143 188 235 297 355 419
#     4  12  27  48  71 102 147 198 232 290 351 432
#     4  11  25  48  77 105 145 187 236 300 370 415
#
# _framework density 25.058807999999999
#
# number of rings (size 3 to 8) (size 9 to 14) (size 15 to 20)
#    0.000    0.333    3.333    5.500    7.000    0.000 
#    0.000    5.000    0.000    0.000    0.000    0.000 
#    0.000    0.000    0.000    0.000    0.000    0.000 
#
# Total GULP energy -66972.656399 kJ/mol
# GULP energy per Si atom -5581.054700 kJ/mol
# Density = 2.500177 g / cm^3
# Si number density = 25.058808 Si / 1000 Ang^3
#
#
#
# Elastic Constant Matrix: (Units=GPa)
#
#
# Indices 1 2 3 4 5 6 
#
# 1 54.0518 29.7935 -0.7413 -8.0300 -27.6470 12.9668
# 2 29.7935 178.4060 9.5693 -13.4580 -8.4767 5.2581
# 3 -0.7413 9.5693 34.5825 -6.8149 -2.9751 15.9403
# 4 -8.0300 -13.4580 -6.8149 42.0751 13.0175 -10.7365
# 5 -27.6470 -8.4767 -2.9751 13.0175 45.2031 -9.9167
# 6 12.9668 5.2581 15.9403 -10.7365 -9.9167 36.8145
#
#
#
# Elastic Compliance Matrix: (Units=1/GPa)
#
#
# Indices 1 2 3 4 5 6 
#
# 1 0.032515 -0.004864 0.007723 -0.002176 0.017937 -0.009905
# 2 -0.004864 0.006544 -0.002598 0.001859 -0.002038 0.001897
# 3 0.007723 -0.002598 0.038594 0.001574 0.002383 -0.017959
# 4 -0.002176 0.001859 0.001574 0.028090 -0.007664 0.005947
# 5 0.017937 -0.002038 0.002383 -0.007664 0.035110 0.000164
# 6 -0.009905 0.001897 -0.017959 0.005947 0.000164 0.039936
#
#
# Mechanical properties :
#
#
# Convention : Reuss Voigt Hill
#
# Bulk Modulus (GPa) = 12.79213 38.25371 25.52292
# Shear Modulus (GPa) = 24.23338 40.04647 32.13992
#
# Velocity S-wave (km/s) = 3.11313 4.00196 3.58520
# Velocity P-wave (km/s) = 4.24712 6.05417 5.22929
#
# Compressibility (1/GPa) = 0.07817308
#
# Stress axis : x y z
#
# Youngs Moduli (GPa) = 30.75491 152.80351 25.91086
#
# Poissons Ratio (x) = 0.74327 -0.20010
# Poissons Ratio (y) = 0.14960 0.06733
# Poissons Ratio (z) = -0.23751 0.39706
#
# Static dielectric constant tensor:
#      x y z
#    x 2.169480 0.036750 -0.329880 
#    y 0.036750 1.992120 -0.273640 
#    z -0.329880 -0.273640 4.041290 
# 
# From -- ./inp_files/365883.got.cif
#   From: 2010.05.17/outbox.cif.g08.bks.cpg/sg2_183_cif.got.tgz:365883.got - 2010.06.03 11:33:40.
