data_PCOD9065221
_publ_section_title
;
Structure prediction by ZEFSAII (Michael W. Deem and Ramdas Pophale) SiO2 
 PCOD9065221
Probable space group: P -1
;
_chemical_formula_sum "Si O2"
_cell_formula_units_Z 16
_cell_length_a 6.712915
_cell_length_b 14.373700
_cell_length_c 12.356118
_cell_angle_alpha 74.324887
_cell_angle_beta 48.251021
_cell_angle_gamma 96.321406
_cell_volume 783.508064
_symmetry_space_group_name_H-M "P -1"
_symmetry_group_IT_number 2
_symmetry_cell_setting 'triclinic'
loop_
_space_group_symop_operation_xyz
x,y,z
-x,-y,-z
loop_
_atom_site_type_symbol
_atom_site_label
_atom_site_fract_x
_atom_site_fract_y
_atom_site_fract_z
Si Si1 0.769416 0.290868 0.134491
Si Si2 0.709139 0.241560 0.820288
Si Si3 0.716142 0.255333 0.409764
Si Si4 0.422239 0.395159 0.837846
Si Si5 0.209374 0.883849 0.984975
Si Si6 0.370771 0.377159 0.606703
Si Si7 0.565633 0.881028 0.253053
Si Si8 0.373876 0.411452 0.167685
O O1 0.660074 0.240967 0.307001
O O2 0.789646 0.202225 0.075508
O O3 0.580481 0.350893 0.137110
O O4 0.100322 0.377066 0.998434
O O5 0.520272 0.310387 0.886327
O O6 0.645675 0.197846 0.735350
O O7 0.039597 0.318717 0.704458
O O8 0.642796 0.142360 0.954868
O O9 0.557759 0.326706 0.490910
O O10 0.581101 0.151885 0.566305
O O11 0.058721 0.322383 0.283217
O O12 0.400401 0.369656 0.727058
O O13 0.632622 0.515339 0.751209
O O14 0.371399 0.000421 0.842175
O O15 0.879721 0.871447 0.137087
O O16 0.500000 0.500000 0.500000
O O17 0.500000 0.500000 0.000000
#
# Coordination Sequence:
#
# PCOD9065221 Si02
#       8
#     2   2   2   2   2   2   2   2
#     4  12  25  44  67  98 139 180 221 274 334 406
#     4  12  21  44  72 100 132 172 229 278 334 398
#     4  12  26  44  63 103 139 175 222 280 334 398
#     4  12  24  43  67 100 135 181 226 267 335 407
#     4  11  24  47  74  97 129 176 230 283 344 395
#     4  12  26  40  67 101 138 178 222 279 335 393
#     4  11  25  46  72 101 129 174 229 290 338 388
#     4  12  27  41  69  97 138 185 222 267 334 408
#
# _framework density 20.420978000000002
#
# number of rings (size 3 to 8) (size 9 to 14) (size 15 to 20)
#    0.000    0.250    6.250    3.000    5.250    1.500 
#    0.000    0.625    0.000    0.000    0.000    0.000 
#    0.000    0.000    0.000    0.000    0.000    0.000 
#
# Total GULP energy -89483.296612 kJ/mol
# GULP energy per Si atom -5592.706038 kJ/mol
# Density = 2.037450 g / cm^3
# Si number density = 20.420978 Si / 1000 Ang^3
#
#
#
# Elastic Constant Matrix: (Units=GPa)
#
#
# Indices 1 2 3 4 5 6 
#
# 1 122.7983 32.2262 55.5033 -1.3082 3.6823 -23.3206
# 2 32.2262 77.8155 29.4461 -12.6149 4.0571 -16.6601
# 3 55.5033 29.4461 110.4928 -10.2957 19.9004 -24.0289
# 4 -1.3082 -12.6149 -10.2957 40.0508 0.7446 7.6221
# 5 3.6823 4.0571 19.9004 0.7446 37.1854 5.4059
# 6 -23.3206 -16.6601 -24.0289 7.6221 5.4059 35.3703
#
#
#
# Elastic Compliance Matrix: (Units=1/GPa)
#
#
# Indices 1 2 3 4 5 6 
#
# 1 0.011621 -0.002707 -0.004822 -0.002389 0.001274 0.003431
# 2 -0.002707 0.016106 -0.001391 0.003845 -0.001439 0.004248
# 3 -0.004822 -0.001391 0.015185 0.002069 -0.008607 0.007351
# 4 -0.002389 0.003845 0.002069 0.027433 -0.001246 -0.004080
# 5 0.001274 -0.001439 -0.008607 -0.001246 0.033077 -0.010472
# 6 0.003431 0.004248 0.007351 -0.004080 -0.010472 0.040009
#
#
# Mechanical properties :
#
#
# Convention : Reuss Voigt Hill
#
# Bulk Modulus (GPa) = 39.88557 60.60643 50.24600
# Shear Modulus (GPa) = 29.47590 35.45002 32.46296
#
# Velocity S-wave (km/s) = 3.80335 4.17101 3.99141
# Velocity P-wave (km/s) = 6.23389 7.27594 6.77498
#
# Compressibility (1/GPa) = 0.02507173
#
# Stress axis : x y z
#
# Youngs Moduli (GPa) = 86.04772 62.08731 65.85429
#
# Poissons Ratio (x) = 0.16809 0.31756
# Poissons Ratio (y) = 0.23295 0.09161
# Poissons Ratio (z) = 0.41494 0.08637
#
# Static dielectric constant tensor:
#      x y z
#    x 1.747560 0.011390 0.030740 
#    y 0.011390 1.710800 -0.006360 
#    z 0.030740 -0.006360 1.747230 
# 
# From -- ./inp_files/48213.got.cif
#   From: 2010.05.17/outbox.cif.g08.bks.cpg/sg2_25_cif.got.tgz:48213.got - 2010.06.03 11:33:40.
