data_PCOD9065499
_publ_section_title
;
Structure prediction by ZEFSAII (Michael W. Deem and Ramdas Pophale) SiO2 
 PCOD9065499
Probable space group: P -1
;
_chemical_formula_sum "Si O2"
_cell_formula_units_Z 12
_cell_length_a 7.063712
_cell_length_b 16.074079
_cell_length_c 5.052010
_cell_angle_alpha 106.261264
_cell_angle_beta 109.155811
_cell_angle_gamma 56.154026
_cell_volume 446.561636
_symmetry_space_group_name_H-M "P -1"
_symmetry_group_IT_number 2
_symmetry_cell_setting 'triclinic'
loop_
_space_group_symop_operation_xyz
x,y,z
-x,-y,-z
loop_
_atom_site_type_symbol
_atom_site_label
_atom_site_fract_x
_atom_site_fract_y
_atom_site_fract_z
Si Si1 0.415391 0.614994 0.478640
Si Si2 0.081614 0.272336 0.380314
Si Si3 0.099921 0.427769 0.225872
Si Si4 0.774880 0.106581 0.238546
Si Si5 0.548459 0.250629 0.765561
Si Si6 0.276071 0.042532 0.247944
O O1 0.500000 0.500000 0.500000
O O2 0.622294 0.626262 0.710420
O O3 0.427128 0.653137 0.219922
O O4 0.155570 0.684205 0.527057
O O5 0.033498 0.343911 0.170457
O O6 0.279444 0.279085 0.648113
O O7 0.188820 0.157735 0.240922
O O8 0.000000 0.500000 0.500000
O O9 0.000000 0.500000 0.000000
O O10 0.671731 0.169986 0.511359
O O11 0.693693 0.028189 0.049838
O O12 0.055165 0.050357 0.311941
O O13 0.679554 0.186594 0.024223
O O14 0.500000 0.000000 0.500000
#
# Coordination Sequence:
#
# PCOD9065499 Si02
#       6
#     2   2   2   2   2   2
#     4  11  24  48  77 112 152 199 255 316 383 457
#     4  11  24  49  74 114 150 205 250 316 384 456
#     4  11  26  49  74 109 149 196 249 313 376 454
#     4  11  26  51  76 113 157 201 257 324 376 466
#     4  11  26  50  75 113 156 199 257 318 383 460
#     4  11  24  50  77 115 153 208 257 317 390 457
#
# _framework density 26.871991000000001
#
# number of rings (size 3 to 8) (size 9 to 14) (size 15 to 20)
#    0.000    1.000    5.000    0.000    0.000   10.667 
#    6.000    0.000    0.000    0.000    0.000    0.000 
#    0.000    0.000    0.000    0.000    0.000    0.000 
#
# Total GULP energy -67378.886667 kJ/mol
# GULP energy per Si atom -5614.907222 kJ/mol
# Density = 2.681083 g / cm^3
# Si number density = 26.871991 Si / 1000 Ang^3
#
#
#
# Elastic Constant Matrix: (Units=GPa)
#
#
# Indices 1 2 3 4 5 6 
#
# 1 194.9347 50.4474 60.7004 -10.1496 14.6681 -14.4577
# 2 50.4474 217.7113 55.2765 -18.4714 -9.0291 17.2190
# 3 60.7004 55.2765 149.3701 -18.1530 -5.2604 -12.4374
# 4 -10.1496 -18.4714 -18.1530 46.8845 3.5681 -4.2319
# 5 14.6681 -9.0291 -5.2604 3.5681 52.0463 -3.0456
# 6 -14.4577 17.2190 -12.4374 -4.2319 -3.0456 68.1747
#
#
#
# Elastic Compliance Matrix: (Units=1/GPa)
#
#
# Indices 1 2 3 4 5 6 
#
# 1 0.006333 -0.001080 -0.002104 0.000399 -0.002144 0.001161
# 2 -0.001080 0.005521 -0.001589 0.001093 0.000921 -0.001804
# 3 -0.002104 -0.001589 0.008603 0.002318 0.001128 0.001719
# 4 0.000399 0.001093 0.002318 0.022978 -0.001170 0.001606
# 5 -0.002144 0.000921 0.001128 -0.001170 0.020192 0.000348
# 6 0.001161 -0.001804 0.001719 0.001606 0.000348 0.015799
#
#
# Mechanical properties :
#
#
# Convention : Reuss Voigt Hill
#
# Bulk Modulus (GPa) = 91.66457 99.42941 95.54699
# Shear Modulus (GPa) = 53.99107 59.79390 56.89248
#
# Velocity S-wave (km/s) = 4.48727 4.72225 4.60626
# Velocity P-wave (km/s) = 7.81236 8.17401 7.99523
#
# Compressibility (1/GPa) = 0.01090934
#
# Stress axis : x y z
#
# Youngs Moduli (GPa) = 157.90612 181.13985 116.24454
#
# Poissons Ratio (x) = 0.19565 0.24460
# Poissons Ratio (y) = 0.17055 0.18471
# Poissons Ratio (z) = 0.33227 0.28783
#
# Static dielectric constant tensor:
#      x y z
#    x 2.103080 0.035950 -0.020950 
#    y 0.035950 2.118560 0.024340 
#    z -0.020950 0.024340 2.195300 
# 
# From -- ./inp_files/6554.got.cif
#   From: 2010.05.17/outbox.cif.g08.bks.cpg/sg2_4_cif.got.tgz:6554.got - 2010.06.03 11:33:40.
