data_PCOD9065945
_publ_section_title
;
Structure prediction by ZEFSAII (Michael W. Deem and Ramdas Pophale) SiO2 
 PCOD9065945
Probable space group: P -1
;
_chemical_formula_sum "Si O2"
_cell_formula_units_Z 12
_cell_length_a 16.344206
_cell_length_b 7.828052
_cell_length_c 5.061281
_cell_angle_alpha 118.671404
_cell_angle_beta 67.711358
_cell_angle_gamma 116.376145
_cell_volume 497.513195
_symmetry_space_group_name_H-M "P -1"
_symmetry_group_IT_number 2
_symmetry_cell_setting 'triclinic'
loop_
_space_group_symop_operation_xyz
x,y,z
-x,-y,-z
loop_
_atom_site_type_symbol
_atom_site_label
_atom_site_fract_x
_atom_site_fract_y
_atom_site_fract_z
Si Si1 0.327458 0.674491 0.888998
Si Si2 0.414958 0.415922 0.836463
Si Si3 0.196107 0.872276 0.046786
Si Si4 0.771346 0.656596 0.639772
Si Si5 0.110221 0.604731 0.464518
Si Si6 0.565355 0.000154 0.666939
O O1 0.413355 0.580867 0.733143
O O2 0.253514 0.473507 0.697550
O O3 0.301035 0.852985 0.891535
O O4 0.346812 0.794861 0.236568
O O5 0.404210 0.199138 0.554777
O O6 0.500000 0.500000 0.000000
O O7 0.321684 0.386755 0.101481
O O8 0.150772 0.721478 0.232042
O O9 0.195452 0.100488 0.267862
O O10 0.139961 0.776139 0.783743
O O11 0.842778 0.567628 0.641166
O O12 0.000000 0.500000 0.500000
O O13 0.500000 0.000000 0.500000
O O14 0.500000 0.000000 0.000000
#
# Coordination Sequence:
#
# PCOD9065945 Si02
#       6
#     2   2   2   2   2   2
#     4  11  25  44  69 101 152 189 260 308 376 437
#     4  12  25  44  72 102 151 205 259 315 374 440
#     4  11  26  45  79 110 154 196 250 312 384 455
#     4  11  27  46  77 111 152 204 257 315 381 456
#     4  11  26  50  78 116 155 192 246 316 386 465
#     4  12  28  43  66 100 140 194 257 312 368 433
#
# _framework density 24.119962999999998
#
# number of rings (size 3 to 8) (size 9 to 14) (size 15 to 20)
#    0.000    0.667    3.333    2.500    9.333    2.667 
#    0.000    0.000    0.000    0.000    0.000    0.000 
#    0.000    0.000    0.000    0.000    0.000    0.000 
#
# Total GULP energy -67048.962645 kJ/mol
# GULP energy per Si atom -5587.413554 kJ/mol
# Density = 2.406507 g / cm^3
# Si number density = 24.119963 Si / 1000 Ang^3
#
#
#
# Elastic Constant Matrix: (Units=GPa)
#
#
# Indices 1 2 3 4 5 6 
#
# 1 164.4941 55.0519 68.8198 12.3975 -6.3692 3.7442
# 2 55.0519 134.0217 82.1545 36.0318 -24.5036 -18.9929
# 3 68.8198 82.1545 207.5525 34.1603 15.0587 -7.3603
# 4 12.3975 36.0318 34.1603 68.8190 -15.1563 -14.2001
# 5 -6.3692 -24.5036 15.0587 -15.1563 32.5093 6.7177
# 6 3.7442 -18.9929 -7.3603 -14.2001 6.7177 35.3367
#
#
#
# Elastic Compliance Matrix: (Units=1/GPa)
#
#
# Indices 1 2 3 4 5 6 
#
# 1 0.007712 -0.002153 -0.002002 0.000574 0.001593 -0.002463
# 2 -0.002153 0.015023 -0.005798 -0.001009 0.012215 0.004368
# 3 -0.002002 -0.005798 0.009109 -0.003534 -0.010542 -0.000423
# 4 0.000574 -0.001009 -0.003534 0.019733 0.009188 0.004844
# 5 0.001593 0.012215 -0.010542 0.009188 0.049770 -0.001569
# 6 -0.002463 0.004368 -0.000423 0.004844 -0.001569 0.033064
#
#
# Mechanical properties :
#
#
# Convention : Reuss Voigt Hill
#
# Bulk Modulus (GPa) = 83.77105 102.01341 92.89223
# Shear Modulus (GPa) = 31.58617 47.33579 39.46098
#
# Velocity S-wave (km/s) = 3.62269 4.43483 4.04917
# Velocity P-wave (km/s) = 7.23221 8.28310 7.77543
#
# Compressibility (1/GPa) = 0.01193730
#
# Stress axis : x y z
#
# Youngs Moduli (GPa) = 129.66991 66.56264 109.78614
#
# Poissons Ratio (x) = 0.14328 0.21985
# Poissons Ratio (y) = 0.27912 0.63657
# Poissons Ratio (z) = 0.25966 0.38595
#
# Static dielectric constant tensor:
#      x y z
#    x 2.004840 0.082160 -0.066800 
#    y 0.082160 2.175410 -0.111490 
#    z -0.066800 -0.111490 1.934080 
# 
# From -- ./inp_files/88131.got.cif
#   From: 2010.05.17/outbox.cif.g08.bks.cpg/sg2_45_cif.got.tgz:88131.got - 2010.06.03 11:33:40.
