data_PCOD9065826
_publ_section_title
;
Structure prediction by ZEFSAII (Michael W. Deem and Ramdas Pophale) SiO2 
 PCOD9065826
Probable space group: P -1
;
_chemical_formula_sum "Si O2"
_cell_formula_units_Z 14
_cell_length_a 5.088143
_cell_length_b 27.045115
_cell_length_c 5.265892
_cell_angle_alpha 57.667944
_cell_angle_beta 98.373458
_cell_angle_gamma 105.816747
_cell_volume 589.108343
_symmetry_space_group_name_H-M "P -1"
_symmetry_group_IT_number 2
_symmetry_cell_setting 'triclinic'
loop_
_space_group_symop_operation_xyz
x,y,z
-x,-y,-z
loop_
_atom_site_type_symbol
_atom_site_label
_atom_site_fract_x
_atom_site_fract_y
_atom_site_fract_z
Si Si1 0.527306 0.796162 0.516072
Si Si2 0.944210 0.564766 0.774235
Si Si3 0.334181 0.435650 0.760155
Si Si4 0.115308 0.876298 0.330791
Si Si5 0.275457 0.309501 0.889299
Si Si6 0.280320 0.690931 0.416704
Si Si7 0.206074 0.956855 0.623100
O O1 0.331003 0.834286 0.507610
O O2 0.337298 0.752153 0.412027
O O3 0.804300 0.839966 0.332354
O O4 0.644291 0.748639 0.828600
O O5 0.923956 0.570078 0.451643
O O6 0.143472 0.627884 0.704728
O O7 0.699927 0.561948 0.950162
O O8 0.000000 0.500000 0.000000
O O9 0.500000 0.500000 0.500000
O O10 0.405922 0.372701 0.871400
O O11 0.121474 0.913243 0.489967
O O12 0.206698 0.919111 0.984285
O O13 0.427021 0.315454 0.624461
O O14 0.951520 0.302154 0.839967
O O15 0.500000 0.000000 0.500000
O O16 0.000000 0.000000 0.500000
#
# Coordination Sequence:
#
# PCOD9065826 Si02
#       7
#     2   2   2   2   2   2   2
#     4  12  28  45  76 108 163 198 258 304 374 454
#     4  11  25  43  70 102 139 187 254 320 389 457
#     4  11  25  43  70 102 139 187 254 320 389 457
#     4  12  28  47  80 120 152 208 247 302 365 444
#     4  11  27  46  72 104 148 200 253 317 386 450
#     4  11  27  46  72 104 148 200 253 317 386 450
#     4  12  26  52  82 116 159 196 249 304 361 428
#
# _framework density 23.764726
#
# number of rings (size 3 to 8) (size 9 to 14) (size 15 to 20)
#    0.000    0.571    0.000    6.000   18.000    0.000 
#    0.000    0.000    0.000    0.000    0.000    0.000 
#    0.000    0.000    0.000    0.000    0.000    0.000 
#
# Total GULP energy -78218.047063 kJ/mol
# GULP energy per Si atom -5587.003362 kJ/mol
# Density = 2.371064 g / cm^3
# Si number density = 23.764726 Si / 1000 Ang^3
#
#
#
# Elastic Constant Matrix: (Units=GPa)
#
#
# Indices 1 2 3 4 5 6 
#
# 1 93.5210 36.8840 17.2208 -23.3830 9.5451 -2.6508
# 2 36.8840 119.1746 29.6320 -25.5441 18.8761 -26.1480
# 3 17.2208 29.6320 99.9972 -18.7539 17.3410 -17.1595
# 4 -23.3830 -25.5441 -18.7539 40.8549 0.9313 4.8776
# 5 9.5451 18.8761 17.3410 0.9313 44.9487 -1.6785
# 6 -2.6508 -26.1480 -17.1595 4.8776 -1.6785 44.0964
#
#
#
# Elastic Compliance Matrix: (Units=1/GPa)
#
#
# Indices 1 2 3 4 5 6 
#
# 1 0.013541 -0.002943 -0.000348 0.006003 -0.001697 -0.001795
# 2 -0.002943 0.012659 -0.000363 0.005398 -0.004423 0.006423
# 3 -0.000348 -0.000363 0.012570 0.004979 -0.004580 0.003930
# 4 0.006003 0.005398 0.004979 0.033527 -0.006099 0.001559
# 5 -0.001697 -0.004423 -0.004580 -0.006099 0.026253 -0.002833
# 6 -0.001795 0.006423 0.003930 0.001559 -0.002833 0.027627
#
#
# Mechanical properties :
#
#
# Convention : Reuss Voigt Hill
#
# Bulk Modulus (GPa) = 31.78283 53.35181 42.56732
# Shear Modulus (GPa) = 34.72928 41.24374 37.98651
#
# Velocity S-wave (km/s) = 3.82695 4.17046 4.00239
# Velocity P-wave (km/s) = 5.73850 6.75936 6.26974
#
# Compressibility (1/GPa) = 0.03146353
#
# Stress axis : x y z
#
# Youngs Moduli (GPa) = 73.85143 78.99621 79.55333
#
# Poissons Ratio (x) = 0.23245 0.02766
# Poissons Ratio (y) = 0.21731 0.02887
# Poissons Ratio (z) = 0.02568 0.02866
#
# Static dielectric constant tensor:
#      x y z
#    x 1.909130 0.028920 0.012910 
#    y 0.028920 1.902650 0.043540 
#    z 0.012910 0.043540 1.941440 
# 
# From -- ./inp_files/12664.got.cif
#   From: 2010.05.17/outbox.cif.g08.bks.cpg/sg2_7_cif.got.tgz:12664.got - 2010.06.03 11:33:40.
