data_PCOD9065209
_publ_section_title
;
Structure prediction by ZEFSAII (Michael W. Deem and Ramdas Pophale) SiO2 
 PCOD9065209
Probable space group: P -1
;
_chemical_formula_sum "Si O2"
_cell_formula_units_Z 16
_cell_length_a 8.850121
_cell_length_b 24.051112
_cell_length_c 9.617097
_cell_angle_alpha 37.327697
_cell_angle_beta 83.141230
_cell_angle_gamma 56.042978
_cell_volume 786.214545
_symmetry_space_group_name_H-M "P -1"
_symmetry_group_IT_number 2
_symmetry_cell_setting 'triclinic'
loop_
_space_group_symop_operation_xyz
x,y,z
-x,-y,-z
loop_
_atom_site_type_symbol
_atom_site_label
_atom_site_fract_x
_atom_site_fract_y
_atom_site_fract_z
Si Si1 0.009171 0.070283 0.238917
Si Si2 0.229381 0.623005 0.335063
Si Si3 0.526374 0.907246 0.565329
Si Si4 0.785276 0.089432 0.951857
Si Si5 0.727975 0.598683 0.691434
Si Si6 0.716522 0.909493 0.264944
Si Si7 0.930426 0.385556 0.334540
Si Si8 0.971572 0.602306 0.206327
O O1 0.856647 0.232955 0.944992
O O2 0.899782 0.070061 0.119825
O O3 0.000000 0.000000 0.500000
O O4 0.278860 0.983000 0.384346
O O5 0.500000 0.500000 0.500000
O O6 0.183478 0.595991 0.544368
O O7 0.075216 0.638691 0.209005
O O8 0.665505 0.878826 0.472243
O O9 0.500000 0.000000 0.500000
O O10 0.692742 0.750072 0.919412
O O11 0.545543 0.256260 0.607858
O O12 0.726604 0.009560 0.111647
O O13 0.000000 0.000000 0.000000
O O14 0.857815 0.637484 0.620170
O O15 0.878811 0.481305 0.784772
O O16 0.755823 0.522184 0.977597
O O17 0.949843 0.758099 0.467305
O O18 0.500000 0.000000 0.000000
O O19 0.000000 0.500000 0.500000
#
# Coordination Sequence:
#
# PCOD9065209 Si02
#       8
#     2   2   2   2   2   2   2   2
#     4  12  29  46  70 107 148 194 245 308 375 436
#     4  12  27  48  72 107 153 192 240 309 378 442
#     4  12  26  48  76 107 142 195 257 305 367 445
#     4  12  27  46  70 106 148 191 241 305 371 434
#     4  11  25  45  74 108 145 192 249 302 366 442
#     4  12  24  45  76 104 141 195 247 308 366 438
#     4  11  24  47  74 108 143 193 251 302 366 445
#     4  12  26  46  76 109 142 193 247 306 367 441
#
# _framework density 20.350677999999998
#
# number of rings (size 3 to 8) (size 9 to 14) (size 15 to 20)
#    0.000    0.250    5.000    3.750    5.250    1.000 
#    0.000    1.875    0.000    0.000    0.000    0.000 
#    0.000    0.000    0.000    0.000    0.000    0.000 
#
# Total GULP energy -89481.952957 kJ/mol
# GULP energy per Si atom -5592.622060 kJ/mol
# Density = 2.030436 g / cm^3
# Si number density = 20.350678 Si / 1000 Ang^3
#
#
#
# Elastic Constant Matrix: (Units=GPa)
#
#
# Indices 1 2 3 4 5 6 
#
# 1 102.4599 31.8674 60.1269 -8.6276 9.6180 27.7939
# 2 31.8674 101.9625 67.7624 -10.4906 8.9928 12.6713
# 3 60.1269 67.7624 181.3816 -10.8876 10.3676 3.2041
# 4 -8.6276 -10.4906 -10.8876 33.0532 -2.5287 2.5918
# 5 9.6180 8.9928 10.3676 -2.5287 43.3873 0.2276
# 6 27.7939 12.6713 3.2041 2.5918 0.2276 45.9713
#
#
#
# Elastic Compliance Matrix: (Units=1/GPa)
#
#
# Indices 1 2 3 4 5 6 
#
# 1 0.015429 -0.000135 -0.004603 0.003026 -0.002068 -0.009131
# 2 -0.000135 0.013950 -0.004839 0.002964 -0.001514 -0.003586
# 3 -0.004603 -0.004839 0.008783 -0.000127 -0.000101 0.003512
# 4 0.003026 0.002964 -0.000127 0.032343 0.000654 -0.004464
# 5 -0.002068 -0.001514 -0.000101 0.000654 0.023875 0.001520
# 6 -0.009131 -0.003586 0.003512 -0.004464 0.001520 0.028261
#
#
# Mechanical properties :
#
#
# Convention : Reuss Voigt Hill
#
# Bulk Modulus (GPa) = 52.60952 78.36859 65.48906
# Shear Modulus (GPa) = 33.75430 39.55217 36.65324
#
# Velocity S-wave (km/s) = 4.07705 4.41333 4.24852
# Velocity P-wave (km/s) = 6.93330 8.03509 7.50445
#
# Compressibility (1/GPa) = 0.01900797
#
# Stress axis : x y z
#
# Youngs Moduli (GPa) = 64.81387 71.68669 113.85531
#
# Poissons Ratio (x) = 0.00964 0.52409
# Poissons Ratio (y) = 0.00872 0.55095
# Poissons Ratio (z) = 0.29835 0.34690
#
# Static dielectric constant tensor:
#      x y z
#    x 1.750600 0.019360 -0.040630 
#    y 0.019360 1.680590 0.053270 
#    z -0.040630 0.053270 1.612650 
# 
# From -- ./inp_files/190906.got.cif
#   From: 2010.05.17/outbox.cif.g08.bks.cpg/sg2_96_cif.got.tgz:190906.got - 2010.06.03 11:33:40.
