data_PCOD9065976
_publ_section_title
;
Structure prediction by ZEFSAII (Michael W. Deem and Ramdas Pophale) SiO2 
 PCOD9065976
Probable space group: P -1
;
_chemical_formula_sum "Si O2"
_cell_formula_units_Z 16
_cell_length_a 13.155642
_cell_length_b 21.942007
_cell_length_c 8.777185
_cell_angle_alpha 40.191863
_cell_angle_beta 51.351206
_cell_angle_gamma 28.037250
_cell_volume 758.177551
_symmetry_space_group_name_H-M "P -1"
_symmetry_group_IT_number 2
_symmetry_cell_setting 'triclinic'
loop_
_space_group_symop_operation_xyz
x,y,z
-x,-y,-z
loop_
_atom_site_type_symbol
_atom_site_label
_atom_site_fract_x
_atom_site_fract_y
_atom_site_fract_z
Si Si1 0.832905 0.184563 0.652448
Si Si2 0.612138 0.310134 0.310343
Si Si3 0.278246 0.901835 0.600809
Si Si4 0.845158 0.350630 0.869332
Si Si5 0.296394 0.104093 0.103433
Si Si6 0.677169 0.822958 0.740761
Si Si7 0.511381 0.711399 0.032069
Si Si8 0.881449 0.350022 0.474658
O O1 0.667316 0.306827 0.437081
O O2 0.714179 0.175051 0.882272
O O3 0.879571 0.249159 0.587329
O O4 0.047667 0.025834 0.665017
O O5 0.706997 0.154007 0.471304
O O6 0.350488 0.466007 0.244366
O O7 0.739236 0.310707 0.084299
O O8 0.318953 0.988643 0.381200
O O9 0.455385 0.748098 0.836205
O O10 0.883487 0.337559 0.678546
O O11 0.067907 0.236676 0.971822
O O12 0.300667 0.174974 0.102739
O O13 0.500000 0.000000 0.000000
O O14 0.905975 0.717125 0.651288
O O15 0.500000 0.000000 0.500000
O O16 0.608873 0.755835 0.899376
O O17 0.671697 0.532864 0.267927
#
# Coordination Sequence:
#
# PCOD9065976 Si02
#       8
#     2   2   2   2   2   2   2   2
#     4  12  24  48  71 107 141 184 239 293 352 416
#     4  11  25  44  70 106 145 179 237 295 358 416
#     4  12  26  44  68 105 138 185 233 295 350 419
#     4  11  25  45  72 103 141 190 228 296 356 418
#     4  12  27  46  72  99 142 190 235 287 359 422
#     4  12  25  50  70 103 143 185 237 290 350 422
#     4  12  27  43  73 105 139 186 236 290 353 423
#     4  12  25  47  73 105 142 185 237 289 356 417
#
# _framework density 21.103238000000001
#
# number of rings (size 3 to 8) (size 9 to 14) (size 15 to 20)
#    0.000    0.250    5.000    3.000    7.000    1.000 
#    0.000    1.250    0.000    0.000    0.000    0.000 
#    0.000    0.000    0.000    0.000    0.000    0.000 
#
# Total GULP energy -89553.681329 kJ/mol
# GULP energy per Si atom -5597.105083 kJ/mol
# Density = 2.105521 g / cm^3
# Si number density = 21.103238 Si / 1000 Ang^3
#
#
#
# Elastic Constant Matrix: (Units=GPa)
#
#
# Indices 1 2 3 4 5 6 
#
# 1 113.3006 41.3854 34.0783 11.2962 -5.3091 6.1463
# 2 41.3854 108.7562 17.1275 23.5193 -3.9256 -7.0411
# 3 34.0783 17.1275 59.7885 14.4835 23.3837 -7.4896
# 4 11.2962 23.5193 14.4835 44.6227 -4.6997 -3.0629
# 5 -5.3091 -3.9256 23.3837 -4.6997 34.7052 0.2455
# 6 6.1463 -7.0411 -7.4896 -3.0629 0.2455 32.0841
#
#
#
# Elastic Compliance Matrix: (Units=1/GPa)
#
#
# Indices 1 2 3 4 5 6 
#
# 1 0.015040 -0.004406 -0.013516 0.003645 0.011451 -0.006743
# 2 -0.004406 0.012059 0.001105 -0.005463 -0.000817 0.003233
# 3 -0.013516 0.001105 0.040955 -0.012976 -0.031375 0.011393
# 4 0.003645 -0.005463 -0.012976 0.029769 0.012729 -0.002182
# 5 0.011451 -0.000817 -0.031375 0.012729 0.053400 -0.008890
# 6 -0.006743 0.003233 0.011393 -0.002182 -0.008890 0.035689
#
#
# Mechanical properties :
#
#
# Convention : Reuss Voigt Hill
#
# Bulk Modulus (GPa) = 29.05425 51.89198 40.47312
# Shear Modulus (GPa) = 21.54991 34.89932 28.22462
#
# Velocity S-wave (km/s) = 3.19904 4.07104 3.66109
# Velocity P-wave (km/s) = 5.23858 6.83672 6.09030
#
# Compressibility (1/GPa) = 0.03441837
#
# Stress axis : x y z
#
# Youngs Moduli (GPa) = 66.48996 82.92691 24.41718
#
# Poissons Ratio (x) = 0.36538 0.33003
# Poissons Ratio (y) = 0.29296 -0.02698
# Poissons Ratio (z) = 0.89871 -0.09163
#
# Static dielectric constant tensor:
#      x y z
#    x 1.777840 0.008400 0.017590 
#    y 0.008400 1.774510 -0.044720 
#    z 0.017590 -0.044720 1.767990 
# 
# From -- ./inp_files/190797.got.cif
#   From: 2010.05.17/outbox.cif.g08.bks.cpg/sg2_96_cif.got.tgz:190797.got - 2010.06.03 11:33:40.
