data_PCOD9065057
_publ_section_title
;
Structure prediction by ZEFSAII (Michael W. Deem and Ramdas Pophale) SiO2 
 PCOD9065057
Probable space group: P -1
;
_chemical_formula_sum "Si O2"
_cell_formula_units_Z 16
_cell_length_a 7.929704
_cell_length_b 16.029086
_cell_length_c 9.798001
_cell_angle_alpha 56.315379
_cell_angle_beta 82.549245
_cell_angle_gamma 124.361456
_cell_volume 654.074903
_symmetry_space_group_name_H-M "P -1"
_symmetry_group_IT_number 2
_symmetry_cell_setting 'triclinic'
loop_
_space_group_symop_operation_xyz
x,y,z
-x,-y,-z
loop_
_atom_site_type_symbol
_atom_site_label
_atom_site_fract_x
_atom_site_fract_y
_atom_site_fract_z
Si Si1 0.981409 0.593295 0.003248
Si Si2 0.767372 0.624695 0.452654
Si Si3 0.439752 0.432099 0.917703
Si Si4 0.920570 0.526619 0.352549
Si Si5 0.399176 0.858231 0.559866
Si Si6 0.589975 0.846236 0.292392
Si Si7 0.121197 0.976808 0.171029
Si Si8 0.712857 0.863950 0.722921
O O1 0.093408 0.718399 0.761903
O O2 0.000000 0.500000 0.000000
O O3 0.749288 0.560927 0.117771
O O4 0.095024 0.606371 0.125092
O O5 0.500000 0.500000 0.500000
O O6 0.673887 0.533977 0.687871
O O7 0.951050 0.648341 0.307807
O O8 0.934014 0.797852 0.317967
O O9 0.500000 0.500000 0.000000
O O10 0.336243 0.271264 0.095157
O O11 0.627780 0.343668 0.511279
O O12 0.000000 0.500000 0.500000
O O13 0.468227 0.874206 0.381155
O O14 0.514848 0.814109 0.671185
O O15 0.500000 0.000000 0.500000
O O16 0.888059 0.956143 0.217423
O O17 0.661765 0.907649 0.074903
O O18 0.270110 0.050114 0.232148
O O19 0.000000 0.000000 0.500000
#
# Coordination Sequence:
#
# PCOD9065057 Si02
#       8
#     2   2   2   2   2   2   2   2
#     4  12  26  47  71 103 150 193 236 306 371 425
#     4  12  25  47  74 104 141 192 249 298 361 434
#     4  12  27  45  78 108 141 192 256 301 357 439
#     4  12  28  47  72 107 147 192 242 299 370 440
#     4  12  28  46  71 103 152 190 235 295 376 439
#     4  11  24  47  70 105 142 188 237 303 362 426
#     4  11  25  43  76 105 142 180 249 306 357 422
#     4  12  25  46  75 108 143 189 249 298 361 442
#
# _framework density 24.462032000000001
#
# number of rings (size 3 to 8) (size 9 to 14) (size 15 to 20)
#    0.000    0.250    5.000    3.000    8.750    1.000 
#    0.000    1.250    0.000    0.000    0.000    0.000 
#    0.000    0.000    0.000    0.000    0.000    0.000 
#
# Total GULP energy -89161.999654 kJ/mol
# GULP energy per Si atom -5572.624978 kJ/mol
# Density = 2.440635 g / cm^3
# Si number density = 24.462032 Si / 1000 Ang^3
#
#
#
# Elastic Constant Matrix: (Units=GPa)
#
#
# Indices 1 2 3 4 5 6 
#
# 1 39.5589 12.9515 -0.0771 2.3218 -0.6501 -6.2154
# 2 12.9515 135.8247 46.9018 16.6497 -8.7982 -27.0248
# 3 -0.0771 46.9018 150.4113 19.1683 -21.9363 -20.4559
# 4 2.3218 16.6497 19.1683 66.2122 -8.6324 1.2013
# 5 -0.6501 -8.7982 -21.9363 -8.6324 32.1376 3.9646
# 6 -6.2154 -27.0248 -20.4559 1.2013 3.9646 45.0354
#
#
#
# Elastic Compliance Matrix: (Units=1/GPa)
#
#
# Indices 1 2 3 4 5 6 
#
# 1 0.026524 -0.002285 0.001238 -0.000739 0.000206 0.002853
# 2 -0.002285 0.009402 -0.002098 -0.001746 0.000082 0.004413
# 3 0.001238 -0.002098 0.008475 -0.001418 0.004559 0.002398
# 4 -0.000739 -0.001746 -0.001418 0.016450 0.003268 -0.002521
# 5 0.000206 0.000082 0.004559 0.003268 0.035261 -0.001043
# 6 0.002853 0.004413 0.002398 -0.002521 -0.001043 0.026495
#
#
# Mechanical properties :
#
#
# Convention : Reuss Voigt Hill
#
# Bulk Modulus (GPa) = 26.23877 49.48302 37.86090
# Shear Modulus (GPa) = 35.31011 46.41161 40.86086
#
# Velocity S-wave (km/s) = 3.80342 4.36052 4.09146
# Velocity P-wave (km/s) = 5.48066 6.75459 6.15070
#
# Compressibility (1/GPa) = 0.03811154
#
# Stress axis : x y z
#
# Youngs Moduli (GPa) = 37.70111 106.35658 117.99253
#
# Poissons Ratio (x) = 0.24305 -0.14613
# Poissons Ratio (y) = 0.08615 0.24759
# Poissons Ratio (z) = -0.04669 0.22318
#
# Static dielectric constant tensor:
#      x y z
#    x 2.076540 0.130980 -0.082960 
#    y 0.130980 1.855130 -0.045310 
#    z -0.082960 -0.045310 1.968780 
# 
# From -- ./inp_files/205900.got.cif
#   From: 2010.05.17/outbox.cif.g08.bks.cpg/sg2_103_cif.got.tgz:205900.got - 2010.06.03 11:33:40.
