data_PCOD9065878
_publ_section_title
;
Structure prediction by ZEFSAII (Michael W. Deem and Ramdas Pophale) SiO2 
 PCOD9065878
Probable space group: P -1
;
_chemical_formula_sum "Si O2"
_cell_formula_units_Z 16
_cell_length_a 8.644610
_cell_length_b 14.637811
_cell_length_c 11.010690
_cell_angle_alpha 67.583220
_cell_angle_beta 62.534259
_cell_angle_gamma 117.765588
_cell_volume 711.749578
_symmetry_space_group_name_H-M "P -1"
_symmetry_group_IT_number 2
_symmetry_cell_setting 'triclinic'
loop_
_space_group_symop_operation_xyz
x,y,z
-x,-y,-z
loop_
_atom_site_type_symbol
_atom_site_label
_atom_site_fract_x
_atom_site_fract_y
_atom_site_fract_z
Si Si1 0.626554 0.837076 0.360768
Si Si2 0.989288 0.385677 0.611862
Si Si3 0.309048 0.871935 0.332255
Si Si4 0.823171 0.828904 0.906001
Si Si5 0.576158 0.620632 0.317305
Si Si6 0.603267 0.211331 0.034442
Si Si7 0.263581 0.323142 0.230265
Si Si8 0.663776 0.343340 0.197411
O O1 0.521476 0.891743 0.310738
O O2 0.606461 0.735612 0.326769
O O3 0.424933 0.730637 0.600944
O O4 0.933387 0.990505 0.227759
O O5 0.762404 0.214924 0.722075
O O6 0.000000 0.500000 0.500000
O O7 0.291819 0.485043 0.413438
O O8 0.919459 0.349971 0.797817
O O9 0.011580 0.751784 0.570665
O O10 0.445948 0.038028 0.175682
O O11 0.552314 0.777458 0.001686
O O12 0.862437 0.795149 0.778159
O O13 0.795582 0.734497 0.070945
O O14 0.500000 0.500000 0.500000
O O15 0.599555 0.243185 0.158478
O O16 0.453217 0.340884 0.243336
O O17 0.500000 0.500000 0.000000
O O18 0.000000 0.500000 0.000000
#
# Coordination Sequence:
#
# PCOD9065878 Si02
#       8
#     2   2   2   2   2   2   2   2
#     4  12  26  45  68 103 141 177 224 285 341 401
#     4  12  24  47  70  96 138 179 228 280 336 406
#     4  12  26  44  71 102 138 182 225 277 343 407
#     4  11  25  47  69  99 140 178 227 282 335 406
#     4  12  28  44  70 102 135 179 231 284 341 398
#     4  11  25  46  71  99 136 184 225 276 342 404
#     4  11  25  43  73 102 133 181 230 275 341 404
#     4  11  25  44  72 102 138 176 227 285 335 401
#
# _framework density 22.479816
#
# number of rings (size 3 to 8) (size 9 to 14) (size 15 to 20)
#    0.000    0.500    2.500    4.500    8.750    5.000 
#    0.000    0.000    0.000    0.000    0.000    0.000 
#    0.000    0.000    0.000    0.000    0.000    0.000 
#
# Total GULP energy -89285.193984 kJ/mol
# GULP energy per Si atom -5580.324624 kJ/mol
# Density = 2.242865 g / cm^3
# Si number density = 22.479816 Si / 1000 Ang^3
#
#
#
# Elastic Constant Matrix: (Units=GPa)
#
#
# Indices 1 2 3 4 5 6 
#
# 1 64.7407 18.7696 -1.1219 -11.3001 7.6555 4.5606
# 2 18.7696 93.7201 2.1540 -6.1084 -0.6303 5.2676
# 3 -1.1219 2.1540 65.8985 0.4679 1.4581 3.3585
# 4 -11.3001 -6.1084 0.4679 39.7814 0.2723 -3.1428
# 5 7.6555 -0.6303 1.4581 0.2723 41.7661 -4.4080
# 6 4.5606 5.2676 3.3585 -3.1428 -4.4080 30.6937
#
#
#
# Elastic Compliance Matrix: (Units=1/GPa)
#
#
# Indices 1 2 3 4 5 6 
#
# 1 0.017722 -0.003176 0.000566 0.004389 -0.003578 -0.002215
# 2 -0.003176 0.011440 -0.000382 0.000753 0.000628 -0.001282
# 3 0.000566 -0.000382 0.015311 -0.000217 -0.000836 -0.001836
# 4 0.004389 0.000753 -0.000217 0.026655 -0.000763 0.001862
# 5 -0.003578 0.000628 -0.000836 -0.000763 0.025069 0.004038
# 6 -0.002215 -0.001282 -0.001836 0.001862 0.004038 0.034100
#
#
# Mechanical properties :
#
#
# Convention : Reuss Voigt Hill
#
# Bulk Modulus (GPa) = 25.98054 29.32920 27.65487
# Shear Modulus (GPa) = 33.53245 36.08543 34.80894
#
# Velocity S-wave (km/s) = 3.86640 4.01089 3.93931
# Velocity P-wave (km/s) = 5.61377 5.87579 5.74627
#
# Compressibility (1/GPa) = 0.03849035
#
# Stress axis : x y z
#
# Youngs Moduli (GPa) = 56.42693 87.41048 65.31419
#
# Poissons Ratio (x) = 0.27760 -0.03699
# Poissons Ratio (y) = 0.17920 0.02494
# Poissons Ratio (z) = -0.03196 0.03338
#
# Static dielectric constant tensor:
#      x y z
#    x 1.860270 -0.022110 -0.023350 
#    y -0.022110 1.859010 0.045360 
#    z -0.023350 0.045360 1.771580 
# 
# From -- ./inp_files/398781.got.cif
#   From: 2010.05.17/outbox.cif.g08.bks.cpg/sg2_200_cif.got.tgz:398781.got - 2010.06.03 11:33:40.
