data_PCOD9065877
_publ_section_title
;
Structure prediction by ZEFSAII (Michael W. Deem and Ramdas Pophale) SiO2 
 PCOD9065877
Probable space group: P -1
;
_chemical_formula_sum "Si O2"
_cell_formula_units_Z 16
_cell_length_a 6.472148
_cell_length_b 22.466944
_cell_length_c 14.283072
_cell_angle_alpha 20.724285
_cell_angle_beta 96.495376
_cell_angle_gamma 97.440287
_cell_volume 728.575702
_symmetry_space_group_name_H-M "P -1"
_symmetry_group_IT_number 2
_symmetry_cell_setting 'triclinic'
loop_
_space_group_symop_operation_xyz
x,y,z
-x,-y,-z
loop_
_atom_site_type_symbol
_atom_site_label
_atom_site_fract_x
_atom_site_fract_y
_atom_site_fract_z
Si Si1 0.641237 0.719795 0.970506
Si Si2 0.694281 0.918533 0.358640
Si Si3 0.625403 0.530997 0.558644
Si Si4 0.947605 0.421519 0.400210
Si Si5 0.146171 0.425594 0.197497
Si Si6 0.059376 0.983992 0.418925
Si Si7 0.397472 0.846188 0.159828
Si Si8 0.395527 0.748254 0.735961
O O1 0.446532 0.633138 0.142841
O O2 0.798083 0.574839 0.173733
O O3 0.767467 0.867448 0.814905
O O4 0.557732 0.790019 0.766016
O O5 0.801631 0.763794 0.543178
O O6 0.486303 0.836105 0.518378
O O7 0.854265 0.989996 0.339474
O O8 0.657019 0.065312 0.069444
O O9 0.500000 0.500000 0.500000
O O10 0.545474 0.696556 0.362250
O O11 0.874905 0.555048 0.544630
O O12 0.804670 0.249362 0.662020
O O13 0.050048 0.428721 0.291898
O O14 0.357381 0.547301 0.025049
O O15 0.000000 0.500000 0.000000
O O16 0.174109 0.814853 0.654383
O O17 0.000000 0.000000 0.500000
O O18 0.500000 0.000000 0.000000
#
# Coordination Sequence:
#
# PCOD9065877 Si02
#       8
#     2   2   2   2   2   2   2   2
#     4  11  25  43  73 101 141 183 228 286 359 415
#     4  12  28  43  71 104 141 184 232 288 349 422
#     4  11  27  46  74 101 138 189 240 296 352 419
#     4  11  26  49  74 100 144 184 235 297 347 419
#     4  12  24  46  73 103 138 184 233 285 354 416
#     4  12  26  43  67 107 144 180 226 285 355 421
#     4  11  29  48  70 105 141 191 242 290 354 418
#     4  12  25  45  71 104 141 182 227 290 350 421
#
# _framework density 21.960654000000002
#
# number of rings (size 3 to 8) (size 9 to 14) (size 15 to 20)
#    0.000    0.500    3.750    3.000    8.750    3.000 
#    0.000    0.000    0.000    0.000    0.000    0.000 
#    0.000    0.000    0.000    0.000    0.000    0.000 
#
# Total GULP energy -89548.148997 kJ/mol
# GULP energy per Si atom -5596.759312 kJ/mol
# Density = 2.191067 g / cm^3
# Si number density = 21.960654 Si / 1000 Ang^3
#
#
#
# Elastic Constant Matrix: (Units=GPa)
#
#
# Indices 1 2 3 4 5 6 
#
# 1 74.9099 20.3439 14.0716 8.4362 -13.0553 14.0823
# 2 20.3439 85.0419 9.7728 3.6237 -10.5502 17.9553
# 3 14.0716 9.7728 95.7537 6.0103 -24.2103 2.8226
# 4 8.4362 3.6237 6.0103 41.8976 8.1708 -0.8247
# 5 -13.0553 -10.5502 -24.2103 8.1708 38.0473 -4.4598
# 6 14.0823 17.9553 2.8226 -0.8247 -4.4598 30.1497
#
#
#
# Elastic Compliance Matrix: (Units=1/GPa)
#
#
# Indices 1 2 3 4 5 6 
#
# 1 0.016388 -0.001819 -0.000528 -0.004155 0.004984 -0.005898
# 2 -0.001819 0.014127 -0.000202 -0.001483 0.002640 -0.007195
# 3 -0.000528 -0.000202 0.012972 -0.003446 0.008800 0.000360
# 4 -0.004155 -0.001483 -0.003446 0.027246 -0.009591 0.002473
# 5 0.004984 0.002640 0.008800 -0.009591 0.036431 0.000403
# 6 -0.005898 -0.007195 0.000360 0.002473 0.000403 0.040301
#
#
# Mechanical properties :
#
#
# Convention : Reuss Voigt Hill
#
# Bulk Modulus (GPa) = 26.04889 38.23134 32.14012
# Shear Modulus (GPa) = 30.23712 36.12008 33.17860
#
# Velocity S-wave (km/s) = 3.71465 4.05997 3.89114
# Velocity P-wave (km/s) = 5.50323 6.27890 5.90382
#
# Compressibility (1/GPa) = 0.03838935
#
# Stress axis : x y z
#
# Youngs Moduli (GPa) = 61.02104 70.78640 77.08766
#
# Poissons Ratio (x) = 0.12876 0.04069
# Poissons Ratio (y) = 0.11100 0.01556
# Poissons Ratio (z) = 0.03221 0.01429
#
# Static dielectric constant tensor:
#      x y z
#    x 1.822050 0.013940 -0.016400 
#    y 0.013940 1.827850 -0.004890 
#    z -0.016400 -0.004890 1.808430 
# 
# From -- ./inp_files/69602.got.cif
#   From: 2010.05.17/outbox.cif.g08.bks.cpg/sg2_35_cif.got.tgz:69602.got - 2010.06.03 11:33:40.
