data_PCOD9065378
_publ_section_title
;
Structure prediction by ZEFSAII (Michael W. Deem and Ramdas Pophale) SiO2 
 PCOD9065378
Probable space group: P -1
;
_chemical_formula_sum "Si O2"
_cell_formula_units_Z 14
_cell_length_a 6.681415
_cell_length_b 11.703833
_cell_length_c 7.762597
_cell_angle_alpha 85.804348
_cell_angle_beta 81.577299
_cell_angle_gamma 97.858568
_cell_volume 592.138558
_symmetry_space_group_name_H-M "P -1"
_symmetry_group_IT_number 2
_symmetry_cell_setting 'triclinic'
loop_
_space_group_symop_operation_xyz
x,y,z
-x,-y,-z
loop_
_atom_site_type_symbol
_atom_site_label
_atom_site_fract_x
_atom_site_fract_y
_atom_site_fract_z
Si Si1 0.446436 0.034651 0.813896
Si Si2 0.017250 0.622027 0.080933
Si Si3 0.222549 0.540728 0.381328
Si Si4 0.211237 0.796091 0.763320
Si Si5 0.876256 0.098750 0.576981
Si Si6 0.463585 0.338378 0.384334
Si Si7 0.786826 0.771938 0.274125
O O1 0.644496 0.049578 0.664129
O O2 0.352977 0.153098 0.818885
O O3 0.278728 0.930489 0.780819
O O4 0.500000 0.000000 0.000000
O O5 0.182964 0.617362 0.212649
O O6 0.814481 0.649659 0.201299
O O7 0.062183 0.724670 0.925468
O O8 0.000000 0.500000 0.000000
O O9 0.331553 0.432295 0.319706
O O10 0.371316 0.602322 0.502622
O O11 0.000000 0.500000 0.500000
O O12 0.128420 0.802307 0.578719
O O13 0.409108 0.730158 0.751252
O O14 0.991783 0.154850 0.725369
O O15 0.000000 0.000000 0.500000
O O16 0.311833 0.247442 0.523726
#
# Coordination Sequence:
#
# PCOD9065378 Si02
#       7
#     2   2   2   2   2   2   2
#     4  12  28  47  73 110 146 188 239 294 365 435
#     4  12  29  46  72 109 148 190 242 297 360 424
#     4  11  24  48  72 102 139 192 246 291 352 420
#     4  12  26  47  71 111 146 185 243 297 360 431
#     4  12  25  47  77 107 146 188 239 297 360 428
#     4  11  25  44  79 100 140 193 239 296 358 425
#     4  12  26  48  75 105 147 191 238 295 362 429
#
# _framework density 23.643115000000002
#
# number of rings (size 3 to 8) (size 9 to 14) (size 15 to 20)
#    0.000    0.286    4.286    3.857    8.000    2.857 
#    0.000    0.000    0.000    0.000    0.000    0.000 
#    0.000    0.000    0.000    0.000    0.000    0.000 
#
# Total GULP energy -78400.190790 kJ/mol
# GULP energy per Si atom -5600.013628 kJ/mol
# Density = 2.358930 g / cm^3
# Si number density = 23.643115 Si / 1000 Ang^3
#
#
#
# Elastic Constant Matrix: (Units=GPa)
#
#
# Indices 1 2 3 4 5 6 
#
# 1 98.8723 35.3270 24.5082 -7.4879 13.0841 -24.4057
# 2 35.3270 79.0379 1.8146 5.4010 6.4644 -25.1706
# 3 24.5082 1.8146 92.0352 -20.3951 15.7627 -7.9029
# 4 -7.4879 5.4010 -20.3951 43.2865 -10.5185 -4.2541
# 5 13.0841 6.4644 15.7627 -10.5185 24.6383 -10.8517
# 6 -24.4057 -25.1706 -7.9029 -4.2541 -10.8517 60.5847
#
#
#
# Elastic Compliance Matrix: (Units=1/GPa)
#
#
# Indices 1 2 3 4 5 6 
#
# 1 0.013675 -0.005084 -0.002561 0.001462 -0.002466 0.002723
# 2 -0.005084 0.016633 0.001145 -0.002289 -0.001343 0.004610
# 3 -0.002561 0.001145 0.013499 0.004515 -0.005405 0.000554
# 4 0.001462 -0.002289 0.004515 0.028893 0.011143 0.004252
# 5 -0.002466 -0.001343 -0.005405 0.011143 0.054081 0.008213
# 6 0.002723 0.004610 0.000554 0.004252 0.008213 0.021360
#
#
# Mechanical properties :
#
#
# Convention : Reuss Voigt Hill
#
# Bulk Modulus (GPa) = 32.46263 43.69386 38.07825
# Shear Modulus (GPa) = 29.16971 39.58827 34.37899
#
# Velocity S-wave (km/s) = 3.51629 4.09639 3.81738
# Velocity P-wave (km/s) = 5.49962 6.39489 5.96408
#
# Compressibility (1/GPa) = 0.03080465
#
# Stress axis : x y z
#
# Youngs Moduli (GPa) = 73.12765 60.12228 74.08153
#
# Poissons Ratio (x) = 0.30568 0.18973
# Poissons Ratio (y) = 0.37180 -0.08480
# Poissons Ratio (z) = 0.18729 -0.06882
#
# Static dielectric constant tensor:
#      x y z
#    x 1.949980 0.050590 0.012080 
#    y 0.050590 1.948910 0.041870 
#    z 0.012080 0.041870 1.897610 
# 
# From -- ./inp_files/131448.got.cif
#   From: 2010.05.17/outbox.cif.g08.bks.cpg/sg2_66_cif.got.tgz:131448.got - 2010.06.03 11:33:40.
