data_PCOD9065892
_publ_section_title
;
Structure prediction by ZEFSAII (Michael W. Deem and Ramdas Pophale) SiO2 
 PCOD9065892
Probable space group: P -1
;
_chemical_formula_sum "Si O2"
_cell_formula_units_Z 12
_cell_length_a 5.697774
_cell_length_b 9.258232
_cell_length_c 15.353393
_cell_angle_alpha 39.254330
_cell_angle_beta 85.619274
_cell_angle_gamma 101.144649
_cell_volume 468.302076
_symmetry_space_group_name_H-M "P -1"
_symmetry_group_IT_number 2
_symmetry_cell_setting 'triclinic'
loop_
_space_group_symop_operation_xyz
x,y,z
-x,-y,-z
loop_
_atom_site_type_symbol
_atom_site_label
_atom_site_fract_x
_atom_site_fract_y
_atom_site_fract_z
Si Si1 0.110536 0.416991 0.450843
Si Si2 0.249419 0.894153 0.113618
Si Si3 0.262654 0.046551 0.706589
Si Si4 0.368339 0.038311 0.396453
Si Si5 0.735620 0.599890 0.876804
Si Si6 0.960540 0.189865 0.019441
O O1 0.230914 0.666272 0.277848
O O2 0.000000 0.500000 0.500000
O O3 0.897408 0.200452 0.500441
O O4 0.296693 0.298142 0.539965
O O5 0.033211 0.783878 0.096921
O O6 0.206763 0.118558 0.058060
O O7 0.500000 0.000000 0.000000
O O8 0.255649 0.040379 0.814011
O O9 0.972983 0.847234 0.788234
O O10 0.458381 0.958333 0.693968
O O11 0.500000 0.000000 0.500000
O O12 0.337402 0.299572 0.259198
O O13 0.500000 0.500000 0.000000
O O14 0.876437 0.409824 0.949891
#
# Coordination Sequence:
#
# PCOD9065892 Si02
#       6
#     2   2   2   2   2   2
#     4  11  26  49  75 106 146 196 254 310 373 453
#     4  11  28  46  74 105 149 196 251 316 366 445
#     4  11  25  44  72 107 147 194 255 302 384 446
#     4  11  28  46  73 110 148 198 251 310 382 445
#     4  11  25  43  74 105 144 195 247 312 367 453
#     4  11  25  45  69 109 145 190 255 297 380 439
#
# _framework density 25.624483999999999
#
# number of rings (size 3 to 8) (size 9 to 14) (size 15 to 20)
#    0.000    1.000    3.333    0.500    9.333    4.667 
#    0.000    0.000    0.000    0.000    0.000    0.000 
#    0.000    0.000    0.000    0.000    0.000    0.000 
#
# Total GULP energy -67014.811125 kJ/mol
# GULP energy per Si atom -5584.567594 kJ/mol
# Density = 2.556616 g / cm^3
# Si number density = 25.624484 Si / 1000 Ang^3
#
#
#
# Elastic Constant Matrix: (Units=GPa)
#
#
# Indices 1 2 3 4 5 6 
#
# 1 85.2185 40.5122 72.9351 -20.3240 1.3229 -17.0127
# 2 40.5122 88.1633 52.0112 -1.4549 14.6499 -13.5767
# 3 72.9351 52.0112 244.2315 -2.3609 33.6784 -9.6708
# 4 -20.3240 -1.4549 -2.3609 40.5031 -9.9371 5.2553
# 5 1.3229 14.6499 33.6784 -9.9371 48.8606 -1.3511
# 6 -17.0127 -13.5767 -9.6708 5.2553 -1.3511 62.9850
#
#
#
# Elastic Compliance Matrix: (Units=1/GPa)
#
#
# Indices 1 2 3 4 5 6 
#
# 1 0.025440 -0.008543 -0.006835 0.014003 0.009515 0.003016
# 2 -0.008543 0.016449 -0.000168 -0.005283 -0.005617 0.001533
# 3 -0.006835 -0.000168 0.006847 -0.004278 -0.005371 -0.000589
# 4 0.014003 -0.005283 -0.004278 0.034072 0.011066 -0.000619
# 5 0.009515 -0.005617 -0.005371 0.011066 0.027851 0.000209
# 6 0.003016 0.001533 -0.000589 -0.000619 0.000209 0.016988
#
#
# Mechanical properties :
#
#
# Convention : Reuss Voigt Hill
#
# Bulk Modulus (GPa) = 56.67398 83.17002 69.92200
# Shear Modulus (GPa) = 30.37272 47.28004 38.82638
#
# Velocity S-wave (km/s) = 3.44655 4.30014 3.89679
# Velocity P-wave (km/s) = 6.16469 7.56192 6.89877
#
# Compressibility (1/GPa) = 0.01764478
#
# Stress axis : x y z
#
# Youngs Moduli (GPa) = 39.30806 60.79237 146.04377
#
# Poissons Ratio (x) = 0.51937 0.99824
# Poissons Ratio (y) = 0.33582 0.02447
# Poissons Ratio (z) = 0.26868 0.01018
#
# Static dielectric constant tensor:
#      x y z
#    x 2.104990 0.120550 0.085040 
#    y 0.120550 2.260600 -0.011180 
#    z 0.085040 -0.011180 2.027500 
# 
# From -- ./inp_files/26125.got.cif
#   From: 2010.05.17/outbox.cif.g08.bks.cpg/sg2_14_cif.got.tgz:26125.got - 2010.06.03 11:33:40.
