data_PCOD9065113
_publ_section_title
;
Structure prediction by ZEFSAII (Michael W. Deem and Ramdas Pophale) SiO2 
 PCOD9065113
Probable space group: P -1
;
_chemical_formula_sum "Si O2"
_cell_formula_units_Z 16
_cell_length_a 9.818425
_cell_length_b 12.375341
_cell_length_c 18.668253
_cell_angle_alpha 28.216650
_cell_angle_beta 46.322356
_cell_angle_gamma 44.025320
_cell_volume 734.038266
_symmetry_space_group_name_H-M "P -1"
_symmetry_group_IT_number 2
_symmetry_cell_setting 'triclinic'
loop_
_space_group_symop_operation_xyz
x,y,z
-x,-y,-z
loop_
_atom_site_type_symbol
_atom_site_label
_atom_site_fract_x
_atom_site_fract_y
_atom_site_fract_z
Si Si1 0.852116 0.174713 0.508732
Si Si2 0.471792 0.414571 0.421585
Si Si3 0.496744 0.778039 0.080416
Si Si4 0.835454 0.774375 0.850238
Si Si5 0.941650 0.095757 0.885264
Si Si6 0.363856 0.034727 0.598910
Si Si7 0.033360 0.590410 0.540121
Si Si8 0.120315 0.735370 0.900315
O O1 0.659534 0.370969 0.430485
O O2 0.972097 0.298902 0.443651
O O3 0.773681 0.003437 0.688521
O O4 0.000000 0.000000 0.500000
O O5 0.514022 0.551340 0.256997
O O6 0.460170 0.154368 0.554843
O O7 0.252643 0.561314 0.445701
O O8 0.293588 0.832795 0.079588
O O9 0.670306 0.743481 0.981373
O O10 0.500000 0.000000 0.000000
O O11 0.004934 0.797684 0.829432
O O12 0.890295 0.530787 0.926250
O O13 0.007831 0.328828 0.708375
O O14 0.026753 0.902505 0.903938
O O15 0.000000 0.000000 0.000000
O O16 0.147731 0.233190 0.543226
O O17 0.500000 0.000000 0.500000
O O18 0.325563 0.789613 0.779716
#
# Coordination Sequence:
#
# PCOD9065113 Si02
#       8
#     2   2   2   2   2   2   2   2
#     4  12  29  47  72 107 148 191 245 301 363 428
#     4  12  26  45  74 104 144 191 243 303 355 433
#     4  12  25  44  74 106 143 191 244 293 368 439
#     4  11  26  45  74 104 147 190 242 297 361 438
#     4  12  28  46  73 107 145 189 243 303 365 430
#     4  12  23  44  73 106 138 186 240 295 364 430
#     4  12  25  48  71 102 145 187 245 299 359 432
#     4  11  24  47  72 102 144 192 238 299 363 433
#
# _framework density 21.797226999999999
#
# number of rings (size 3 to 8) (size 9 to 14) (size 15 to 20)
#    0.000    0.250    5.000    3.750    8.750    0.000 
#    0.000    1.250    0.000    0.000    0.000    0.000 
#    0.000    0.000    0.000    0.000    0.000    0.000 
#
# Total GULP energy -89553.004704 kJ/mol
# GULP energy per Si atom -5597.062794 kJ/mol
# Density = 2.174762 g / cm^3
# Si number density = 21.797227 Si / 1000 Ang^3
#
#
#
# Elastic Constant Matrix: (Units=GPa)
#
#
# Indices 1 2 3 4 5 6 
#
# 1 94.2461 2.2179 33.3051 -10.2353 2.9070 11.1406
# 2 2.2179 87.8022 15.2709 2.4913 -11.3868 19.5584
# 3 33.3051 15.2709 101.0638 -6.7031 -10.6877 3.8374
# 4 -10.2353 2.4913 -6.7031 32.7990 -1.8720 -12.6607
# 5 2.9070 -11.3868 -10.6877 -1.8720 37.0571 -10.6087
# 6 11.1406 19.5584 3.8374 -12.6607 -10.6087 42.2482
#
#
#
# Elastic Compliance Matrix: (Units=1/GPa)
#
#
# Indices 1 2 3 4 5 6 
#
# 1 0.012848 0.000841 -0.004444 0.001436 -0.003018 -0.003701
# 2 0.000841 0.013624 -0.002193 -0.003929 0.001229 -0.007198
# 3 -0.004444 -0.002193 0.012195 0.002634 0.004159 0.002913
# 4 0.001436 -0.003929 0.002634 0.037369 0.005255 0.013719
# 5 -0.003018 0.001229 0.004159 0.005255 0.031755 0.009398
# 6 -0.003701 -0.007198 0.002913 0.013719 0.009398 0.034184
#
#
# Mechanical properties :
#
#
# Convention : Reuss Voigt Hill
#
# Bulk Modulus (GPa) = 36.93744 42.74445 39.84095
# Shear Modulus (GPa) = 30.75171 37.90873 34.33022
#
# Velocity S-wave (km/s) = 3.76015 4.17484 3.97291
# Velocity P-wave (km/s) = 5.98618 6.54917 6.27399
#
# Compressibility (1/GPa) = 0.02707280
#
# Stress axis : x y z
#
# Youngs Moduli (GPa) = 77.83397 73.40145 82.00356
#
# Poissons Ratio (x) = -0.06170 0.36445
# Poissons Ratio (y) = -0.06543 0.17983
# Poissons Ratio (z) = 0.34592 0.16097
#
# Static dielectric constant tensor:
#      x y z
#    x 1.751300 0.039030 -0.013820 
#    y 0.039030 1.812160 -0.063810 
#    z -0.013820 -0.063810 1.786530 
# 
# From -- ./inp_files/263363.got.cif
#   From: 2010.05.17/outbox.cif.g08.bks.cpg/sg2_132_cif.got.tgz:263363.got - 2010.06.03 11:33:40.
