data_PCOD9065593
_publ_section_title
;
Structure prediction by ZEFSAII (Michael W. Deem and Ramdas Pophale) SiO2 
 PCOD9065593
Probable space group: P -1
;
_chemical_formula_sum "Si O2"
_cell_formula_units_Z 13
_cell_length_a 15.426370
_cell_length_b 15.998402
_cell_length_c 5.202309
_cell_angle_alpha 59.485926
_cell_angle_beta 64.224041
_cell_angle_gamma 25.658790
_cell_volume 478.055394
_symmetry_space_group_name_H-M "P -1"
_symmetry_group_IT_number 2
_symmetry_cell_setting 'triclinic'
loop_
_space_group_symop_operation_xyz
x,y,z
-x,-y,-z
loop_
_atom_site_type_symbol
_atom_site_label
_atom_site_fract_x
_atom_site_fract_y
_atom_site_fract_z
Si Si1 0.911088 0.307271 0.204967
Si Si2 0.000000 0.500000 0.500000
Si Si3 0.349059 0.925741 0.322086
Si Si4 0.714807 0.851807 0.521573
Si Si5 0.208172 0.771365 0.188356
Si Si6 0.232228 0.378460 0.860979
Si Si7 0.555988 0.580788 0.922251
O O1 0.838604 0.269203 0.480453
O O2 0.886246 0.417978 0.262459
O O3 0.733325 0.487992 0.955471
O O4 0.143528 0.084341 0.196124
O O5 0.881894 0.713756 0.305354
O O6 0.812714 0.621560 0.361551
O O7 0.531706 0.811013 0.108537
O O8 0.306959 0.041297 0.422888
O O9 0.438102 0.749604 0.605078
O O10 0.500000 0.000000 0.500000
O O11 0.829298 0.650191 0.802896
O O12 0.380795 0.696384 0.155774
O O13 0.316918 0.618319 0.055645
O O14 0.000000 0.000000 0.000000
#
# Coordination Sequence:
#
# PCOD9065593 Si02
#       7
#     2   1   2   2   2   2   2
#     4  12  26  45  73 105 143 188 235 292 362 417
#     4  12  26  44  72  94 146 190 238 296 348 408
#     4  12  25  46  69 107 142 188 241 289 352 424
#     4  12  26  45  70 102 143 192 241 295 354 417
#     4  11  24  49  75 104 141 181 234 294 361 426
#     4  12  27  46  69 107 146 189 245 293 352 425
#     4  11  26  47  72 105 145 180 235 297 351 431
#
# _framework density 27.193501000000001
#
# number of rings (size 3 to 8) (size 9 to 14) (size 15 to 20)
#    0.000    0.308    6.154    2.308    0.000    1.846 
#    2.769    0.000    0.000    0.000    0.000    0.000 
#    0.000    0.000    0.000    0.000    0.000    0.000 
#
# Total GULP energy -72657.746664 kJ/mol
# GULP energy per Si atom -5589.057436 kJ/mol
# Density = 2.713161 g / cm^3
# Si number density = 27.193501 Si / 1000 Ang^3
#
#
#
# Elastic Constant Matrix: (Units=GPa)
#
#
# Indices 1 2 3 4 5 6 
#
# 1 102.7125 52.4545 30.8937 -9.1291 7.9319 -30.4867
# 2 52.4545 207.1593 27.9415 -29.5898 -3.1998 -29.4274
# 3 30.8937 27.9415 123.1371 -21.2193 -23.5135 -15.9036
# 4 -9.1291 -29.5898 -21.2193 39.7051 -1.6949 5.3697
# 5 7.9319 -3.1998 -23.5135 -1.6949 45.7284 -4.1650
# 6 -30.4867 -29.4274 -15.9036 5.3697 -4.1650 68.9471
#
#
#
# Elastic Compliance Matrix: (Units=1/GPa)
#
#
# Indices 1 2 3 4 5 6 
#
# 1 0.013402 -0.002649 -0.003216 -0.001306 -0.003855 0.003923
# 2 -0.002649 0.006248 0.000396 0.004135 0.001376 0.001348
# 3 -0.003216 0.000396 0.011268 0.005687 0.006710 0.001309
# 4 -0.001306 0.004135 0.005687 0.031157 0.004627 0.000352
# 5 -0.003855 0.001376 0.006710 0.004627 0.026406 0.001666
# 6 0.003923 0.001348 0.001309 0.000352 0.001666 0.017189
#
#
# Mechanical properties :
#
#
# Convention : Reuss Voigt Hill
#
# Bulk Modulus (GPa) = 50.04611 72.84315 61.44463
# Shear Modulus (GPa) = 40.56267 52.32408 46.44338
#
# Velocity S-wave (km/s) = 3.86635 4.39126 4.13714
# Velocity P-wave (km/s) = 6.19478 7.24955 6.74282
#
# Compressibility (1/GPa) = 0.01998157
#
# Stress axis : x y z
#
# Youngs Moduli (GPa) = 74.61788 160.05607 88.74496
#
# Poissons Ratio (x) = 0.42392 0.28539
# Poissons Ratio (y) = 0.19763 -0.03517
# Poissons Ratio (z) = 0.23996 -0.06344
#
# Static dielectric constant tensor:
#      x y z
#    x 2.246860 0.072490 0.072250 
#    y 0.072490 2.850980 0.635310 
#    z 0.072250 0.635310 2.742550 
# 
# From -- ./inp_files/96790.got.cif
#   From: 2010.05.17/outbox.cif.g08.bks.cpg/sg2_49_cif.got.tgz:96790.got - 2010.06.03 11:33:40.
