data_PCOD9065966
_publ_section_title
;
Structure prediction by ZEFSAII (Michael W. Deem and Ramdas Pophale) SiO2 
 PCOD9065966
Probable space group: P -1
;
_chemical_formula_sum "Si O2"
_cell_formula_units_Z 16
_cell_length_a 11.797350
_cell_length_b 16.129183
_cell_length_c 8.400982
_cell_angle_alpha 144.009722
_cell_angle_beta 112.159949
_cell_angle_gamma 54.071824
_cell_volume 744.507956
_symmetry_space_group_name_H-M "P -1"
_symmetry_group_IT_number 2
_symmetry_cell_setting 'triclinic'
loop_
_space_group_symop_operation_xyz
x,y,z
-x,-y,-z
loop_
_atom_site_type_symbol
_atom_site_label
_atom_site_fract_x
_atom_site_fract_y
_atom_site_fract_z
Si Si1 0.433255 0.184824 0.202065
Si Si2 0.454983 0.178385 0.818624
Si Si3 0.539602 0.404904 0.707968
Si Si4 0.679781 0.278440 0.075561
Si Si5 0.113247 0.321076 0.216199
Si Si6 0.820260 0.251432 0.434955
Si Si7 0.859655 0.552791 0.908013
Si Si8 0.989277 0.079391 0.789650
O O1 0.514660 0.254280 0.453498
O O2 0.266434 0.272387 0.292325
O O3 0.450774 0.192342 0.031627
O O4 0.500000 0.000000 0.000000
O O5 0.500000 0.000000 0.500000
O O6 0.577980 0.209647 0.872905
O O7 0.295726 0.320696 0.901981
O O8 0.425634 0.527538 0.706437
O O9 0.701730 0.341480 0.649064
O O10 0.500000 0.500000 0.000000
O O11 0.735488 0.235036 0.217181
O O12 0.822551 0.203306 0.931094
O O13 0.128756 0.349336 0.082851
O O14 0.000000 0.500000 0.500000
O O15 0.068429 0.184485 0.003273
O O16 0.865162 0.381856 0.606500
O O17 0.941907 0.073614 0.286810
O O18 0.000000 0.500000 0.000000
O O19 0.000000 0.000000 0.500000
#
# Coordination Sequence:
#
# PCOD9065966 Si02
#       8
#     2   2   2   2   2   2   2   2
#     4  11  25  44  70 102 143 181 232 295 353 427
#     4  11  26  44  73 105 140 188 235 294 358 422
#     4  12  25  44  72 104 140 187 238 295 361 424
#     4  12  25  47  72 101 143 185 246 292 352 431
#     4  11  25  46  67  99 141 186 228 283 361 420
#     4  12  24  46  73 106 139 189 241 295 358 426
#     4  11  25  45  72 102 140 181 235 292 352 425
#     4  12  27  45  72 106 146 187 240 297 357 430
#
# _framework density 21.490704999999998
#
# number of rings (size 3 to 8) (size 9 to 14) (size 15 to 20)
#    0.000    0.500    2.500    6.000    7.000    2.000 
#    0.000    0.000    0.000    0.000    0.000    0.000 
#    0.000    0.000    0.000    0.000    0.000    0.000 
#
# Total GULP energy -89487.843465 kJ/mol
# GULP energy per Si atom -5592.990217 kJ/mol
# Density = 2.144179 g / cm^3
# Si number density = 21.490705 Si / 1000 Ang^3
#
#
#
# Elastic Constant Matrix: (Units=GPa)
#
#
# Indices 1 2 3 4 5 6 
#
# 1 102.6299 -4.3840 17.2848 7.8601 11.9718 -8.9677
# 2 -4.3840 79.3363 -5.2117 15.5836 11.9556 -8.6054
# 3 17.2848 -5.2117 95.3251 8.1198 16.6324 7.7182
# 4 7.8601 15.5836 8.1198 41.4946 6.9622 2.9005
# 5 11.9718 11.9556 16.6324 6.9622 31.8157 6.3391
# 6 -8.9677 -8.6054 7.7182 2.9005 6.3391 27.6152
#
#
#
# Elastic Compliance Matrix: (Units=1/GPa)
#
#
# Indices 1 2 3 4 5 6 
#
# 1 0.011425 0.002498 -0.001321 -0.002399 -0.005282 0.006322
# 2 0.002498 0.016124 0.001729 -0.006050 -0.008144 0.007857
# 3 -0.001321 0.001729 0.012117 -0.001679 -0.005766 -0.001777
# 4 -0.002399 -0.006050 -0.001679 0.027668 -0.001032 -0.004864
# 5 -0.005282 -0.008144 -0.005766 -0.001032 0.042151 -0.012209
# 6 0.006322 0.007857 -0.001777 -0.004864 -0.012209 0.044524
#
#
# Mechanical properties :
#
#
# Convention : Reuss Voigt Hill
#
# Bulk Modulus (GPa) = 21.98907 32.51881 27.25394
# Shear Modulus (GPa) = 30.60765 38.15857 34.38311
#
# Velocity S-wave (km/s) = 3.77799 4.21834 4.00422
# Velocity P-wave (km/s) = 5.41156 6.23621 5.83846
#
# Compressibility (1/GPa) = 0.04547715
#
# Stress axis : x y z
#
# Youngs Moduli (GPa) = 87.52570 62.01928 82.52614
#
# Poissons Ratio (x) = -0.15489 0.10902
# Poissons Ratio (y) = -0.21860 -0.14267
# Poissons Ratio (z) = 0.11563 -0.10722
#
# Static dielectric constant tensor:
#      x y z
#    x 1.807920 0.046940 0.012680 
#    y 0.046940 1.753850 -0.026650 
#    z 0.012680 -0.026650 1.708770 
# 
# From -- ./inp_files/189164.got.cif
#   From: 2010.05.17/outbox.cif.g08.bks.cpg/sg2_95_cif.got.tgz:189164.got - 2010.06.03 11:33:40.
