data_PCOD9065699
_publ_section_title
;
Structure prediction by ZEFSAII (Michael W. Deem and Ramdas Pophale) SiO2 
 PCOD9065699
Probable space group: P -1
;
_chemical_formula_sum "Si O2"
_cell_formula_units_Z 9
_cell_length_a 9.498468
_cell_length_b 7.134451
_cell_length_c 8.170587
_cell_angle_alpha 102.051155
_cell_angle_beta 48.445493
_cell_angle_gamma 127.424101
_cell_volume 310.963319
_symmetry_space_group_name_H-M "P -1"
_symmetry_group_IT_number 2
_symmetry_cell_setting 'triclinic'
loop_
_space_group_symop_operation_xyz
x,y,z
-x,-y,-z
loop_
_atom_site_type_symbol
_atom_site_label
_atom_site_fract_x
_atom_site_fract_y
_atom_site_fract_z
Si Si1 0.737316 0.344164 0.036094
Si Si2 0.733845 0.258215 0.443003
Si Si3 0.951261 0.043367 0.364947
Si Si4 0.566447 0.796490 0.086804
Si Si5 0.500000 0.500000 0.500000
O O1 0.974234 0.445168 0.185306
O O2 0.629264 0.414550 0.268647
O O3 0.684455 0.085013 0.064303
O O4 0.589344 0.293579 0.973907
O O5 0.607714 0.358043 0.648364
O O6 0.500000 0.000000 0.500000
O O7 0.838810 0.182204 0.486029
O O8 0.763875 0.786499 0.367293
O O9 0.000000 0.000000 0.500000
O O10 0.209873 0.201729 0.101408
#
# Coordination Sequence:
#
# PCOD9065699 Si02
#       5
#     2   2   2   2   1
#     4  11  25  49  79 112 159 207 257 325 391 463
#     4  12  28  49  76 120 154 205 266 320 386 476
#     4  12  26  50  80 114 158 206 259 322 395 460
#     4  11  24  51  76 111 157 207 259 321 392 463
#     4  12  24  46  82 112 152 210 256 314 392 466
#
# _framework density 28.942322999999998
#
# number of rings (size 3 to 8) (size 9 to 14) (size 15 to 20)
#    0.000    0.444    4.444    3.333    3.111    6.222 
#    0.000    0.000    0.000    0.000    0.000    0.000 
#    0.000    0.000    0.000    0.000    0.000    0.000 
#
# Total GULP energy -50406.967356 kJ/mol
# GULP energy per Si atom -5600.774151 kJ/mol
# Density = 2.887645 g / cm^3
# Si number density = 28.942323 Si / 1000 Ang^3
#
#
#
# Elastic Constant Matrix: (Units=GPa)
#
#
# Indices 1 2 3 4 5 6 
#
# 1 84.8268 36.8388 48.0777 -16.3049 -36.6318 18.5072
# 2 36.8388 165.3321 72.7698 -1.7255 -8.3939 -8.2715
# 3 48.0777 72.7698 280.3969 -26.8568 -33.7273 18.3119
# 4 -16.3049 -1.7255 -26.8568 59.2136 0.7972 -6.0218
# 5 -36.6318 -8.3939 -33.7273 0.7972 59.2075 -1.1432
# 6 18.5072 -8.2715 18.3119 -6.0218 -1.1432 51.3083
#
#
#
# Elastic Compliance Matrix: (Units=1/GPa)
#
#
# Indices 1 2 3 4 5 6 
#
# 1 0.021897 -0.004538 -0.000081 0.004903 0.012643 -0.007744
# 2 -0.004538 0.007946 -0.001980 -0.001535 -0.002723 0.003383
# 3 -0.000081 -0.001980 0.004651 0.001828 0.002262 -0.001685
# 4 0.004903 -0.001535 0.001828 0.018937 0.003595 -0.000366
# 5 0.012643 -0.002723 0.002262 0.003595 0.025473 -0.004817
# 6 -0.007744 0.003383 -0.001685 -0.000366 -0.004817 0.023280
#
#
# Mechanical properties :
#
#
# Convention : Reuss Voigt Hill
#
# Bulk Modulus (GPa) = 46.95394 93.99204 70.47299
# Shear Modulus (GPa) = 40.82346 58.80386 49.81366
#
# Velocity S-wave (km/s) = 3.75975 4.51240 4.15316
# Velocity P-wave (km/s) = 5.92504 7.72626 6.88481
#
# Compressibility (1/GPa) = 0.02129747
#
# Stress axis : x y z
#
# Youngs Moduli (GPa) = 45.66880 125.85196 215.00126
#
# Poissons Ratio (x) = 0.57109 0.01737
# Poissons Ratio (y) = 0.20724 0.42561
# Poissons Ratio (z) = 0.00369 0.24913
#
# Static dielectric constant tensor:
#      x y z
#    x 2.232480 -0.016750 0.051720 
#    y -0.016750 2.150060 -0.001400 
#    z 0.051720 -0.001400 2.199940 
# 
# From -- ./inp_files/147673.got.cif
#   From: 2010.05.17/outbox.cif.g08.bks.cpg/sg2_74_cif.got.tgz:147673.got - 2010.06.03 11:33:40.
