data_PCOD9065212
_publ_section_title
;
Structure prediction by ZEFSAII (Michael W. Deem and Ramdas Pophale) SiO2 
 PCOD9065212
Probable space group: P -1
;
_chemical_formula_sum "Si O2"
_cell_formula_units_Z 13
_cell_length_a 16.191231
_cell_length_b 8.936771
_cell_length_c 15.830355
_cell_angle_alpha 31.786555
_cell_angle_beta 154.131721
_cell_angle_gamma 149.009233
_cell_volume 482.014195
_symmetry_space_group_name_H-M "P -1"
_symmetry_group_IT_number 2
_symmetry_cell_setting 'triclinic'
loop_
_space_group_symop_operation_xyz
x,y,z
-x,-y,-z
loop_
_atom_site_type_symbol
_atom_site_label
_atom_site_fract_x
_atom_site_fract_y
_atom_site_fract_z
Si Si1 0.769260 0.769747 0.199596
Si Si2 0.000000 0.500000 0.000000
Si Si3 0.791839 0.907455 0.525990
Si Si4 0.798422 0.211978 0.698971
Si Si5 0.675963 0.780514 0.290078
Si Si6 0.551454 0.943936 0.771439
Si Si7 0.784353 0.615575 0.909905
O O1 0.747820 0.918913 0.197577
O O2 0.598362 0.422433 0.199688
O O3 0.731878 0.976615 0.990865
O O4 0.002373 0.802836 0.394416
O O5 0.139567 0.373972 0.257844
O O6 0.129611 0.436966 0.072975
O O7 0.759543 0.939324 0.380543
O O8 0.591889 0.898050 0.396481
O O9 0.742013 0.490207 0.486319
O O10 0.663685 0.056709 0.732215
O O11 0.752179 0.936916 0.721802
O O12 0.040387 0.335922 0.882698
O O13 0.430425 0.644381 0.134369
#
# Coordination Sequence:
#
# PCOD9065212 Si02
#       7
#     2   1   2   2   2   2   2
#     4  11  27  50  73 111 150 199 252 295 373 448
#     4  12  26  48  72 116 140 192 248 308 364 434
#     4  12  28  47  75 108 156 194 246 309 368 442
#     4  11  24  47  74 109 143 195 248 307 364 432
#     4  12  26  46  75 114 146 196 245 306 376 433
#     4  11  26  51  78 107 148 201 249 303 368 440
#     4  11  25  43  73 106 149 184 244 306 363 434
#
# _framework density 26.97016
#
# number of rings (size 3 to 8) (size 9 to 14) (size 15 to 20)
#    0.000    0.615    3.077    3.231    6.462    3.077 
#    2.769    0.000    0.000    0.000    0.000    0.000 
#    0.000    0.000    0.000    0.000    0.000    0.000 
#
# Total GULP energy -72831.768950 kJ/mol
# GULP energy per Si atom -5602.443765 kJ/mol
# Density = 2.690877 g / cm^3
# Si number density = 26.970160 Si / 1000 Ang^3
#
#
#
# Elastic Constant Matrix: (Units=GPa)
#
#
# Indices 1 2 3 4 5 6 
#
# 1 180.9585 43.7748 72.2034 -5.4196 11.5731 -7.9379
# 2 43.7748 85.1597 47.7626 9.8612 7.5133 3.5665
# 3 72.2034 47.7626 135.1900 24.3812 14.4643 5.1844
# 4 -5.4196 9.8612 24.3812 61.0562 2.3689 10.4572
# 5 11.5731 7.5133 14.4643 2.3689 59.3364 -0.6890
# 6 -7.9379 3.5665 5.1844 10.4572 -0.6890 46.3441
#
#
#
# Elastic Compliance Matrix: (Units=1/GPa)
#
#
# Indices 1 2 3 4 5 6 
#
# 1 0.007710 -0.002126 -0.003797 0.002323 -0.000386 0.001379
# 2 -0.002126 0.015270 -0.004011 -0.000879 -0.000516 -0.000900
# 3 -0.003797 -0.004011 0.011787 -0.004214 -0.001465 -0.000731
# 4 0.002323 -0.000879 -0.004214 0.018987 -0.000111 -0.003349
# 5 -0.000386 -0.000516 -0.001465 -0.000111 0.017360 0.000421
# 6 0.001379 -0.000900 -0.000731 -0.003349 0.000421 0.022727
#
#
# Mechanical properties :
#
#
# Convention : Reuss Voigt Hill
#
# Bulk Modulus (GPa) = 67.12191 80.97663 74.04927
# Shear Modulus (GPa) = 42.13094 49.18516 45.65805
#
# Velocity S-wave (km/s) = 3.95667 4.27510 4.11896
# Velocity P-wave (km/s) = 6.76869 7.37959 7.08073
#
# Compressibility (1/GPa) = 0.01489827
#
# Stress axis : x y z
#
# Youngs Moduli (GPa) = 129.69483 65.48645 84.83922
#
# Poissons Ratio (x) = 0.13925 0.32217
# Poissons Ratio (y) = 0.27577 0.34029
# Poissons Ratio (z) = 0.49250 0.26267
#
# Static dielectric constant tensor:
#      x y z
#    x 1.972600 -0.058670 -0.076560 
#    y -0.058670 2.115590 0.037700 
#    z -0.076560 0.037700 2.115610 
# 
# From -- ./inp_files/529325.got.cif
#   From: 2010.05.17/outbox.cif.g08.bks.cpg/sg2_265_cif.got.tgz:529325.got - 2010.06.03 11:33:40.
