data_PCOD9065576
_publ_section_title
;
Structure prediction by ZEFSAII (Michael W. Deem and Ramdas Pophale) SiO2 
 PCOD9065576
Probable space group: P -1
;
_chemical_formula_sum "Si O2"
_cell_formula_units_Z 16
_cell_length_a 6.575029
_cell_length_b 21.640211
_cell_length_c 27.245367
_cell_angle_alpha 10.552028
_cell_angle_beta 94.659467
_cell_angle_gamma 93.324086
_cell_volume 702.469909
_symmetry_space_group_name_H-M "P -1"
_symmetry_group_IT_number 2
_symmetry_cell_setting 'triclinic'
loop_
_space_group_symop_operation_xyz
x,y,z
-x,-y,-z
loop_
_atom_site_type_symbol
_atom_site_label
_atom_site_fract_x
_atom_site_fract_y
_atom_site_fract_z
Si Si1 0.132076 0.399933 0.294006
Si Si2 0.864510 0.354710 0.235647
Si Si3 0.581994 0.313390 0.509197
Si Si4 0.913870 0.701254 0.262677
Si Si5 0.922923 0.300654 0.108094
Si Si6 0.327380 0.801917 0.053873
Si Si7 0.433194 0.558117 0.088469
Si Si8 0.355847 0.390919 0.539725
O O1 0.136743 0.641439 0.152460
O O2 0.937385 0.463961 0.205001
O O3 0.128101 0.040880 0.600457
O O4 0.316187 0.440967 0.226302
O O5 0.630108 0.303097 0.276588
O O6 0.000000 0.000000 0.500000
O O7 0.899771 0.652828 0.965044
O O8 0.801336 0.427524 0.442247
O O9 0.499915 0.520542 0.297640
O O10 0.430391 0.483255 0.416025
O O11 0.525176 0.926611 0.806800
O O12 0.114084 0.513991 0.440430
O O13 0.753700 0.910558 0.133096
O O14 0.000000 0.000000 0.000000
O O15 0.726398 0.419418 0.977454
O O16 0.000000 0.500000 0.000000
O O17 0.402265 0.989902 0.861318
O O18 0.500000 0.500000 0.500000
#
# Coordination Sequence:
#
# PCOD9065576 Si02
#       8
#     2   2   2   2   2   2   2   2
#     4  11  25  46  72 106 144 186 242 299 355 432
#     4  11  26  49  72 107 145 182 238 300 361 438
#     4  12  25  46  68 103 142 183 240 296 347 422
#     4  12  26  43  71 106 144 195 237 294 355 415
#     4  11  24  49  73 107 141 183 237 295 362 436
#     4  12  24  45  69 100 144 184 239 291 348 416
#     4  11  27  45  76 106 144 189 237 299 365 425
#     4  12  25  44  70  97 141 187 241 287 347 416
#
# _framework density 22.776775000000001
#
# number of rings (size 3 to 8) (size 9 to 14) (size 15 to 20)
#    0.000    0.500    6.250    1.500    1.750    4.500 
#    2.250    0.000    0.000    0.000    0.000    0.000 
#    0.000    0.000    0.000    0.000    0.000    0.000 
#
# Total GULP energy -89185.805241 kJ/mol
# GULP energy per Si atom -5574.112828 kJ/mol
# Density = 2.272493 g / cm^3
# Si number density = 22.776775 Si / 1000 Ang^3
#
#
#
# Elastic Constant Matrix: (Units=GPa)
#
#
# Indices 1 2 3 4 5 6 
#
# 1 102.9554 31.3669 31.8169 7.5633 -19.1728 7.9603
# 2 31.3669 108.0310 44.3397 4.7594 -8.3884 24.8175
# 3 31.8169 44.3397 126.6315 19.6467 -29.5140 6.9071
# 4 7.5633 4.7594 19.6467 50.3569 3.3202 -16.9523
# 5 -19.1728 -8.3884 -29.5140 3.3202 29.3497 -4.5655
# 6 7.9603 24.8175 6.9071 -16.9523 -4.5655 31.5890
#
#
#
# Elastic Compliance Matrix: (Units=1/GPa)
#
#
# Indices 1 2 3 4 5 6 
#
# 1 0.012130 -0.002531 0.000000 -0.002524 0.007272 -0.001372
# 2 -0.002531 0.014223 -0.003888 -0.003242 -0.002975 -0.011856
# 3 0.000000 -0.003888 0.013217 -0.006045 0.012669 -0.001248
# 4 -0.002524 -0.003242 -0.006045 0.029994 -0.009046 0.019294
# 5 0.007272 -0.002975 0.012669 -0.009046 0.051793 0.000366
# 6 -0.001372 -0.011856 -0.001248 0.019294 0.000366 0.051997
#
#
# Mechanical properties :
#
#
# Convention : Reuss Voigt Hill
#
# Bulk Modulus (GPa) = 37.40872 61.40720 49.40796
# Shear Modulus (GPa) = 25.62780 37.59875 31.61328
#
# Velocity S-wave (km/s) = 3.35800 4.06735 3.72958
# Velocity P-wave (km/s) = 5.61200 7.00548 6.34710
#
# Compressibility (1/GPa) = 0.02673173
#
# Stress axis : x y z
#
# Youngs Moduli (GPa) = 82.44149 70.31080 75.65988
#
# Poissons Ratio (x) = 0.17795 0.00001
# Poissons Ratio (y) = 0.20865 0.29415
# Poissons Ratio (z) = 0.00001 0.27336
#
# Static dielectric constant tensor:
#      x y z
#    x 1.765730 -0.146660 0.137010 
#    y -0.146660 1.734970 0.170850 
#    z 0.137010 0.170850 1.650480 
# 
# From -- ./inp_files/622030.got.cif
#   From: 2010.05.17/outbox.cif.g08.bks.cpg/sg2_312_cif.got.tgz:622030.got - 2010.06.03 11:33:40.
