data_PCOD9065470
_publ_section_title
;
Structure prediction by ZEFSAII (Michael W. Deem and Ramdas Pophale) SiO2 
 PCOD9065470
Probable space group: P -1
;
_chemical_formula_sum "Si O2"
_cell_formula_units_Z 13
_cell_length_a 6.178569
_cell_length_b 15.463231
_cell_length_c 14.957008
_cell_angle_alpha 25.786087
_cell_angle_beta 75.286824
_cell_angle_gamma 67.539667
_cell_volume 559.891104
_symmetry_space_group_name_H-M "P -1"
_symmetry_group_IT_number 2
_symmetry_cell_setting 'triclinic'
loop_
_space_group_symop_operation_xyz
x,y,z
-x,-y,-z
loop_
_atom_site_type_symbol
_atom_site_label
_atom_site_fract_x
_atom_site_fract_y
_atom_site_fract_z
Si Si1 0.986014 0.768869 0.223343
Si Si2 0.517608 0.809754 0.346596
Si Si3 0.023773 0.579442 0.782311
Si Si4 0.245483 0.053599 0.650865
Si Si5 0.386925 0.353130 0.096369
Si Si6 0.032611 0.210130 0.994388
Si Si7 0.500000 0.500000 0.500000
O O1 0.217816 0.629969 0.383060
O O2 0.734089 0.796684 0.268497
O O3 0.989233 0.691172 0.193591
O O4 0.000000 0.000000 0.000000
O O5 0.615457 0.822407 0.423227
O O6 0.454180 0.611180 0.503660
O O7 0.297206 0.030444 0.145780
O O8 0.973654 0.779363 0.536246
O O9 0.827533 0.658269 0.808505
O O10 0.276990 0.473561 0.903497
O O11 0.985779 0.390124 0.906436
O O12 0.426357 0.880630 0.727469
O O13 0.147533 0.916003 0.855789
O O14 0.500000 0.500000 0.000000
#
# Coordination Sequence:
#
# PCOD9065470 Si02
#       7
#     2   2   2   2   2   2   1
#     4  12  25  46  69 101 143 190 238 300 350 418
#     4  12  25  47  70 104 146 189 243 295 352 427
#     4  11  26  46  74 103 144 188 232 300 361 427
#     4  12  25  47  72 109 145 188 242 292 363 427
#     4  11  24  48  75 106 141 183 238 297 360 433
#     4  12  25  47  72 106 146 192 244 294 358 429
#     4  12  26  44  74 100 134 194 248 284 364 416
#
# _framework density 23.218802
#
# number of rings (size 3 to 8) (size 9 to 14) (size 15 to 20)
#    0.000    0.308    6.154    2.308    0.000    3.077 
#    5.538    0.000    0.000    0.000    0.000    0.000 
#    0.000    0.000    0.000    0.000    0.000    0.000 
#
# Total GULP energy -72535.786406 kJ/mol
# GULP energy per Si atom -5579.675877 kJ/mol
# Density = 2.316595 g / cm^3
# Si number density = 23.218802 Si / 1000 Ang^3
#
#
#
# Elastic Constant Matrix: (Units=GPa)
#
#
# Indices 1 2 3 4 5 6 
#
# 1 58.2558 19.7659 16.6794 -1.4959 27.0295 7.9092
# 2 19.7659 125.6801 27.4788 -21.1209 7.3592 17.4955
# 3 16.6794 27.4788 65.4391 -15.7355 9.2777 5.8557
# 4 -1.4959 -21.1209 -15.7355 36.3516 0.8080 4.2213
# 5 27.0295 7.3592 9.2777 0.8080 31.1658 -2.9948
# 6 7.9092 17.4955 5.8557 4.2213 -2.9948 59.4277
#
#
#
# Elastic Compliance Matrix: (Units=1/GPa)
#
#
# Indices 1 2 3 4 5 6 
#
# 1 0.031686 -0.002148 -0.003035 -0.000133 -0.026510 -0.004612
# 2 -0.002148 0.010039 -0.002135 0.005157 -0.000279 -0.002840
# 3 -0.003035 -0.002135 0.019234 0.007202 -0.002922 -0.001522
# 4 -0.000133 0.005157 0.007202 0.034286 -0.004604 -0.004878
# 5 -0.026510 -0.000279 -0.002922 -0.004604 0.056814 0.007088
# 6 -0.004612 -0.002840 -0.001522 -0.004878 0.007088 0.019131
#
#
# Mechanical properties :
#
#
# Convention : Reuss Voigt Hill
#
# Bulk Modulus (GPa) = 21.58702 41.91369 31.75036
# Shear Modulus (GPa) = 24.84263 37.75242 31.29752
#
# Velocity S-wave (km/s) = 3.27454 4.03667 3.67541
# Velocity P-wave (km/s) = 4.85944 6.31008 5.63166
#
# Compressibility (1/GPa) = 0.04632413
#
# Stress axis : x y z
#
# Youngs Moduli (GPa) = 31.55945 99.60691 51.99224
#
# Poissons Ratio (x) = 0.21393 0.15781
# Poissons Ratio (y) = 0.06778 0.11098
# Poissons Ratio (z) = 0.09579 0.21262
#
# Static dielectric constant tensor:
#      x y z
#    x 1.873530 0.009170 -0.029300 
#    y 0.009170 1.860520 0.018640 
#    z -0.029300 0.018640 1.860670 
# 
# From -- ./inp_files/96846.got.cif
#   From: 2010.05.17/outbox.cif.g08.bks.cpg/sg2_49_cif.got.tgz:96846.got - 2010.06.03 11:33:40.
