data_PCOD9065290
_publ_section_title
;
Structure prediction by ZEFSAII (Michael W. Deem and Ramdas Pophale) SiO2 
 PCOD9065290
Probable space group: P -1
;
_chemical_formula_sum "Si O2"
_cell_formula_units_Z 11
_cell_length_a 9.601282
_cell_length_b 7.300734
_cell_length_c 7.108029
_cell_angle_alpha 110.422673
_cell_angle_beta 107.537529
_cell_angle_gamma 71.748089
_cell_volume 432.991113
_symmetry_space_group_name_H-M "P -1"
_symmetry_group_IT_number 2
_symmetry_cell_setting 'triclinic'
loop_
_space_group_symop_operation_xyz
x,y,z
-x,-y,-z
loop_
_atom_site_type_symbol
_atom_site_label
_atom_site_fract_x
_atom_site_fract_y
_atom_site_fract_z
Si Si1 0.363223 0.685328 0.566200
Si Si2 0.159337 0.184508 0.091887
Si Si3 0.173408 0.431348 0.515411
Si Si4 0.919158 0.092296 0.698276
Si Si5 0.406433 0.095119 0.674334
Si Si6 0.500000 0.000000 0.000000
O O1 0.500000 0.500000 0.500000
O O2 0.262048 0.603840 0.645502
O O3 0.245727 0.783120 0.389060
O O4 0.418878 0.884115 0.724359
O O5 0.187211 0.378461 0.281392
O O6 0.318092 0.085185 0.033598
O O7 0.107727 0.061431 0.203559
O O8 0.031063 0.208622 0.889472
O O9 0.255164 0.238723 0.598465
O O10 0.000000 0.500000 0.500000
O O11 0.000000 0.000000 0.500000
O O12 0.500000 0.000000 0.500000
O O13 0.478781 0.195216 0.901998
#
# Coordination Sequence:
#
# PCOD9065290 Si02
#       6
#     2   2   2   2   2   1
#     4  12  24  43  76 103 142 198 241 301 380 438
#     4  11  25  45  75 111 146 200 252 304 386 444
#     4  12  27  47  74 110 151 196 254 312 373 448
#     4  11  24  47  78 105 149 198 250 313 377 450
#     4  12  24  51  73 103 154 193 251 316 370 448
#     4  12  24  42  80 104 144 206 238 310 388 436
#
# _framework density 25.404679000000002
#
# number of rings (size 3 to 8) (size 9 to 14) (size 15 to 20)
#    0.000    0.364    5.455    2.182    2.545    2.182 
#    3.273    0.909    0.000    0.000    0.000    0.000 
#    0.000    0.000    0.000    0.000    0.000    0.000 
#
# Total GULP energy -61290.697455 kJ/mol
# GULP energy per Si atom -5571.881587 kJ/mol
# Density = 2.534686 g / cm^3
# Si number density = 25.404679 Si / 1000 Ang^3
#
#
#
# Elastic Constant Matrix: (Units=GPa)
#
#
# Indices 1 2 3 4 5 6 
#
# 1 166.0238 65.8455 55.6259 -7.8806 5.4638 -28.6919
# 2 65.8455 133.6637 48.2406 -18.6473 3.8404 -18.3893
# 3 55.6259 48.2406 195.3752 -18.7636 16.8710 -28.4181
# 4 -7.8806 -18.6473 -18.7636 34.5083 -14.5713 12.8208
# 5 5.4638 3.8404 16.8710 -14.5713 73.1173 -2.4315
# 6 -28.6919 -18.3893 -28.4181 12.8208 -2.4315 62.9502
#
#
#
# Elastic Compliance Matrix: (Units=1/GPa)
#
#
# Indices 1 2 3 4 5 6 
#
# 1 0.008178 -0.003474 -0.001243 -0.001790 -0.000415 0.002500
# 2 -0.003474 0.010215 -0.001182 0.004460 0.000884 -0.000007
# 3 -0.001243 -0.001182 0.006213 0.001485 -0.000931 0.001555
# 4 -0.001790 0.004460 0.001485 0.036883 0.006704 -0.006095
# 5 -0.000415 0.000884 -0.000931 0.006704 0.015175 -0.001131
# 6 0.002500 -0.000007 0.001555 -0.006095 -0.001131 0.018922
#
#
# Mechanical properties :
#
#
# Convention : Reuss Voigt Hill
#
# Bulk Modulus (GPa) = 78.07449 92.72077 85.39763
# Shear Modulus (GPa) = 44.78085 55.80519 50.29302
#
# Velocity S-wave (km/s) = 4.20301 4.69193 4.45418
# Velocity P-wave (km/s) = 7.37243 8.11967 7.75505
#
# Compressibility (1/GPa) = 0.01280828
#
# Stress axis : x y z
#
# Youngs Moduli (GPa) = 122.27536 97.89234 160.94423
#
# Poissons Ratio (x) = 0.34007 0.20007
# Poissons Ratio (y) = 0.42478 0.19028
# Poissons Ratio (z) = 0.15200 0.11574
#
# Static dielectric constant tensor:
#      x y z
#    x 1.824750 0.315750 0.268270 
#    y 0.315750 2.018280 -0.052320 
#    z 0.268270 -0.052320 2.072270 
# 
# From -- ./inp_files/17564.got.cif
#   From: 2010.05.17/outbox.cif.g08.bks.cpg/sg2_9_cif.got.tgz:17564.got - 2010.06.03 11:33:40.
