data_PCOD9065689
_publ_section_title
;
Structure prediction by ZEFSAII (Michael W. Deem and Ramdas Pophale) SiO2 
 PCOD9065689
Probable space group: P -1
;
_chemical_formula_sum "Si O2"
_cell_formula_units_Z 16
_cell_length_a 7.028545
_cell_length_b 7.802766
_cell_length_c 11.777026
_cell_angle_alpha 82.199816
_cell_angle_beta 93.647502
_cell_angle_gamma 118.270966
_cell_volume 563.571574
_symmetry_space_group_name_H-M "P -1"
_symmetry_group_IT_number 2
_symmetry_cell_setting 'triclinic'
loop_
_space_group_symop_operation_xyz
x,y,z
-x,-y,-z
loop_
_atom_site_type_symbol
_atom_site_label
_atom_site_fract_x
_atom_site_fract_y
_atom_site_fract_z
Si Si1 0.166527 0.713487 0.042478
Si Si2 0.785986 0.025072 0.514645
Si Si3 0.445825 0.642670 0.410581
Si Si4 0.042654 0.576846 0.650943
Si Si5 0.776575 0.713197 0.240782
Si Si6 0.328413 0.995318 0.221941
Si Si7 0.167010 0.888743 0.804339
Si Si8 0.615112 0.728615 0.998334
O O1 0.181949 0.791556 0.165726
O O2 0.414869 0.760785 0.029011
O O3 0.142267 0.862689 0.940701
O O4 0.000000 0.500000 0.000000
O O5 0.158764 0.443591 0.690290
O O6 0.585835 0.850920 0.457518
O O7 0.729007 0.012148 0.647305
O O8 0.000000 0.000000 0.500000
O O9 0.500000 0.500000 0.500000
O O10 0.192068 0.552995 0.397049
O O11 0.537640 0.642215 0.288879
O O12 0.030472 0.680142 0.758230
O O13 0.836088 0.231759 0.440993
O O14 0.773893 0.737820 0.103964
O O15 0.885509 0.943131 0.258215
O O16 0.581631 0.050276 0.218248
O O17 0.308620 0.158016 0.127959
O O18 0.500000 0.500000 0.000000
#
# Coordination Sequence:
#
# PCOD9065689 Si02
#       8
#     2   2   2   2   2   2   2   2
#     4  11  24  51  88 135 183 245 315 386 467 571
#     4  12  29  62  92 136 189 251 320 396 468 560
#     4  12  30  58  91 131 184 247 318 395 461 554
#     4  12  30  56  95 141 183 247 320 386 478 569
#     4  12  26  55  92 136 190 242 309 388 482 577
#     4  11  25  54  95 129 184 255 311 386 475 558
#     4  11  24  53  89 134 194 242 309 396 472 567
#     4  11  24  50  86 131 182 237 307 389 472 568
#
# _framework density 28.390360999999999
#
# number of rings (size 3 to 8) (size 9 to 14) (size 15 to 20)
#    0.000    0.500    5.000    2.250    5.250    2.000 
#   13.500    0.625    0.000    0.000    0.000    0.000 
#    0.000    0.000    0.000    0.000    0.000    0.000 
#
# Total GULP energy -89741.136458 kJ/mol
# GULP energy per Si atom -5608.821029 kJ/mol
# Density = 2.832574 g / cm^3
# Si number density = 28.390361 Si / 1000 Ang^3
#
#
#
# Elastic Constant Matrix: (Units=GPa)
#
#
# Indices 1 2 3 4 5 6 
#
# 1 150.5696 104.2204 81.2917 -6.7026 32.9087 -1.3827
# 2 104.2204 227.3687 93.7275 1.2156 26.2773 -8.0779
# 3 81.2917 93.7275 264.7613 -15.0321 -1.6490 -9.1821
# 4 -6.7026 1.2156 -15.0321 74.7757 -2.2500 16.3779
# 5 32.9087 26.2773 -1.6490 -2.2500 63.8475 -9.2569
# 6 -1.3827 -8.0779 -9.1821 16.3779 -9.2569 64.3589
#
#
#
# Elastic Compliance Matrix: (Units=1/GPa)
#
#
# Indices 1 2 3 4 5 6 
#
# 1 0.011567 -0.003924 -0.002193 0.000835 -0.004581 -0.001428
# 2 -0.003924 0.006825 -0.001242 -0.000891 -0.000746 0.000715
# 3 -0.002193 -0.001242 0.004965 0.000750 0.001881 0.000585
# 4 0.000835 -0.000891 0.000750 0.014414 -0.000067 -0.003665
# 5 -0.004581 -0.000746 0.001881 -0.000067 0.018782 0.002795
# 6 -0.001428 0.000715 0.000585 -0.003665 0.002795 0.017015
#
#
# Mechanical properties :
#
#
# Convention : Reuss Voigt Hill
#
# Bulk Modulus (GPa) = 115.75288 133.46431 124.60860
# Shear Modulus (GPa) = 54.84618 64.82709 59.83663
#
# Velocity S-wave (km/s) = 4.40006 4.78370 4.59588
# Velocity P-wave (km/s) = 8.16544 8.81046 8.49407
#
# Compressibility (1/GPa) = 0.00863909
#
# Stress axis : x y z
#
# Youngs Moduli (GPa) = 86.45599 146.52088 201.42708
#
# Poissons Ratio (x) = 0.57488 0.44175
# Poissons Ratio (y) = 0.33921 0.25015
# Poissons Ratio (z) = 0.18961 0.18196
#
# Static dielectric constant tensor:
#      x y z
#    x 2.046820 0.044360 -0.034900 
#    y 0.044360 2.251630 0.076960 
#    z -0.034900 0.076960 2.272270 
# 
# From -- ./inp_files/382042.got.cif
#   From: 2010.05.17/outbox.cif.g08.bks.cpg/sg2_192_cif.got.tgz:382042.got - 2010.06.03 11:33:40.
