data_PCOD9065299
_publ_section_title
;
Structure prediction by ZEFSAII (Michael W. Deem and Ramdas Pophale) SiO2 
 PCOD9065299
Probable space group: P -1
;
_chemical_formula_sum "Si O2"
_cell_formula_units_Z 15
_cell_length_a 12.542887
_cell_length_b 12.516812
_cell_length_c 10.710586
_cell_angle_alpha 61.905417
_cell_angle_beta 120.362469
_cell_angle_gamma 157.011931
_cell_volume 566.555075
_symmetry_space_group_name_H-M "P -1"
_symmetry_group_IT_number 2
_symmetry_cell_setting 'triclinic'
loop_
_space_group_symop_operation_xyz
x,y,z
-x,-y,-z
loop_
_atom_site_type_symbol
_atom_site_label
_atom_site_fract_x
_atom_site_fract_y
_atom_site_fract_z
Si Si1 0.306053 0.132399 0.565296
Si Si2 0.862597 0.619783 0.753378
Si Si3 0.398947 0.534049 0.067546
Si Si4 0.659821 0.336937 0.450491
Si Si5 0.904264 0.819948 0.299111
Si Si6 0.000000 0.000000 0.000000
Si Si7 0.431453 0.084983 0.181558
Si Si8 0.013811 0.510410 0.236408
O O1 0.142921 0.921595 0.695265
O O2 0.083500 0.013282 0.420222
O O3 0.594922 0.438044 0.620067
O O4 0.416063 0.137553 0.519286
O O5 0.802917 0.590712 0.877571
O O6 0.874316 0.487710 0.798752
O O7 0.630483 0.659647 0.206596
O O8 0.222602 0.304538 0.990408
O O9 0.576234 0.789242 0.954240
O O10 0.803473 0.593559 0.373678
O O11 0.528256 0.177283 0.331708
O O12 0.887640 0.454793 0.590047
O O13 0.084205 0.011364 0.179436
O O14 0.684600 0.236207 0.182073
O O15 0.154911 0.765475 0.175126
#
# Coordination Sequence:
#
# PCOD9065299 Si02
#       8
#     2   2   2   2   2   1   2   2
#     4  11  24  48  78 113 155 201 255 324 379 460
#     4  11  27  51  79 112 160 205 266 315 391 456
#     4  12  31  49  77 118 158 213 253 319 395 479
#     4  11  24  47  78 116 154 196 263 330 390 447
#     4  12  26  48  80 115 158 203 250 337 382 474
#     4  12  28  50  76 114 164 194 262 308 402 468
#     4  12  28  45  79 113 157 207 259 314 396 454
#     4  11  25  47  74 113 156 203 262 326 370 463
#
# _framework density 26.475802000000002
#
# number of rings (size 3 to 8) (size 9 to 14) (size 15 to 20)
#    0.000    0.533    4.000    3.600    7.467    2.133 
#    0.000    0.000    0.000    0.000    0.000    0.000 
#    0.000    0.000    0.000    0.000    0.000    0.000 
#
# Total GULP energy -84007.500850 kJ/mol
# GULP energy per Si atom -5600.500057 kJ/mol
# Density = 2.641554 g / cm^3
# Si number density = 26.475802 Si / 1000 Ang^3
#
#
#
# Elastic Constant Matrix: (Units=GPa)
#
#
# Indices 1 2 3 4 5 6 
#
# 1 70.8037 30.7517 17.4713 -2.0562 -12.8057 -9.3968
# 2 30.7517 85.3959 36.5759 -14.4977 4.1994 0.9051
# 3 17.4713 36.5759 88.0299 -9.0331 7.3522 -2.2180
# 4 -2.0562 -14.4977 -9.0331 63.0143 4.0123 3.8801
# 5 -12.8057 4.1994 7.3522 4.0123 49.4290 -11.0441
# 6 -9.3968 0.9051 -2.2180 3.8801 -11.0441 31.2935
#
#
#
# Elastic Compliance Matrix: (Units=1/GPa)
#
#
# Indices 1 2 3 4 5 6 
#
# 1 0.020617 -0.007668 -0.001634 -0.002466 0.008588 0.009634
# 2 -0.007668 0.017566 -0.005187 0.003624 -0.004138 -0.005088
# 3 -0.001634 -0.005187 0.014114 0.000932 -0.002210 -0.000236
# 4 -0.002466 0.003624 0.000932 0.017227 -0.003403 -0.004116
# 5 0.008588 -0.004138 -0.002210 -0.003403 0.026136 0.012188
# 6 0.009634 -0.005088 -0.000236 -0.004116 0.012188 0.039790
#
#
# Mechanical properties :
#
#
# Convention : Reuss Voigt Hill
#
# Bulk Modulus (GPa) = 42.88299 45.98084 44.43192
# Shear Modulus (GPa) = 29.03602 39.37606 34.20604
#
# Velocity S-wave (km/s) = 3.31524 3.86067 3.59830
# Velocity P-wave (km/s) = 5.55757 6.10556 5.83800
#
# Compressibility (1/GPa) = 0.02331927
#
# Stress axis : x y z
#
# Youngs Moduli (GPa) = 48.50324 56.92841 70.85386
#
# Poissons Ratio (x) = 0.43651 0.11574
# Poissons Ratio (y) = 0.37191 0.36754
# Poissons Ratio (z) = 0.07923 0.29531
#
# Static dielectric constant tensor:
#      x y z
#    x 1.946860 -0.105440 0.117660 
#    y -0.105440 1.890930 0.020540 
#    z 0.117660 0.020540 2.072080 
# 
# From -- ./inp_files/453729.got.cif
#   From: 2010.05.17/outbox.cif.g08.bks.cpg/sg2_227_cif.got.tgz:453729.got - 2010.06.03 11:33:40.
