data_PCOD9065805
_publ_section_title
;
Structure prediction by ZEFSAII (Michael W. Deem and Ramdas Pophale) SiO2 
 PCOD9065805
Probable space group: P -1
;
_chemical_formula_sum "Si O2"
_cell_formula_units_Z 14
_cell_length_a 13.098337
_cell_length_b 19.885752
_cell_length_c 11.560538
_cell_angle_alpha 22.136341
_cell_angle_beta 33.857750
_cell_angle_gamma 32.264090
_cell_volume 588.820977
_symmetry_space_group_name_H-M "P -1"
_symmetry_group_IT_number 2
_symmetry_cell_setting 'triclinic'
loop_
_space_group_symop_operation_xyz
x,y,z
-x,-y,-z
loop_
_atom_site_type_symbol
_atom_site_label
_atom_site_fract_x
_atom_site_fract_y
_atom_site_fract_z
Si Si1 0.389496 0.752791 0.733442
Si Si2 0.679701 0.842425 0.761280
Si Si3 0.882888 0.610452 0.166527
Si Si4 0.227180 0.427156 0.439101
Si Si5 0.645477 0.283086 0.672761
Si Si6 0.814795 0.193706 0.403341
Si Si7 0.001106 0.201705 0.632132
O O1 0.624362 0.690888 0.611362
O O2 0.326370 0.766757 0.636531
O O3 0.299674 0.957636 0.547876
O O4 0.307337 0.599754 0.106562
O O5 0.794226 0.787304 0.621992
O O6 0.780396 0.701304 0.998509
O O7 0.459379 0.847533 0.959312
O O8 0.756942 0.695505 0.264193
O O9 0.916254 0.386927 0.497448
O O10 0.082056 0.651027 0.925956
O O11 0.000000 0.500000 0.500000
O O12 0.500000 0.500000 0.500000
O O13 0.690863 0.216614 0.602277
O O14 0.856229 0.250065 0.581134
O O15 0.000000 0.000000 0.500000
O O16 0.000000 0.000000 0.000000
#
# Coordination Sequence:
#
# PCOD9065805 Si02
#       7
#     2   2   2   2   2   2   2
#     4  11  25  43  67 107 140 181 238 293 356 434
#     4  12  25  46  74 102 139 187 245 295 358 429
#     4  12  23  43  74  98 141 187 234 295 361 420
#     4  11  25  44  66 100 146 185 225 295 363 421
#     4  12  26  46  75 105 141 195 247 295 356 436
#     4  12  24  43  76 108 142 186 243 299 362 430
#     4  12  27  49  70 105 146 184 240 306 361 431
#
# _framework density 23.776326999999998
#
# number of rings (size 3 to 8) (size 9 to 14) (size 15 to 20)
#    0.000    0.286    5.714    3.000    2.000    4.000 
#    0.000    0.000    0.000    0.000    0.000    0.000 
#    0.000    0.000    0.000    0.000    0.000    0.000 
#
# Total GULP energy -78243.064425 kJ/mol
# GULP energy per Si atom -5588.790316 kJ/mol
# Density = 2.372221 g / cm^3
# Si number density = 23.776327 Si / 1000 Ang^3
#
#
#
# Elastic Constant Matrix: (Units=GPa)
#
#
# Indices 1 2 3 4 5 6 
#
# 1 30.2692 9.5499 -20.7600 5.1772 -3.6800 -3.8880
# 2 9.5499 118.2356 36.9350 16.2259 12.6411 4.4044
# 3 -20.7600 36.9350 70.6364 12.5455 7.7346 -3.3046
# 4 5.1772 16.2259 12.5455 63.3369 2.2607 -4.3861
# 5 -3.6800 12.6411 7.7346 2.2607 34.4460 6.8910
# 6 -3.8880 4.4044 -3.3046 -4.3861 6.8910 33.8948
#
#
#
# Elastic Compliance Matrix: (Units=1/GPa)
#
#
# Indices 1 2 3 4 5 6 
#
# 1 0.055294 -0.011700 0.023391 -0.005683 0.003585 0.008679
# 2 -0.011700 0.013056 -0.009995 -0.000538 -0.003070 -0.003459
# 3 0.023391 -0.009995 0.027425 -0.004313 -0.000967 0.006294
# 4 -0.005683 -0.000538 -0.004313 0.017375 -0.000866 0.001422
# 5 0.003585 -0.003070 -0.000967 -0.000866 0.031995 -0.005901
# 6 0.008679 -0.003459 0.006294 0.001422 -0.005901 0.032945
#
#
# Mechanical properties :
#
#
# Convention : Reuss Voigt Hill
#
# Bulk Modulus (GPa) = 10.08412 30.06565 20.07489
# Shear Modulus (GPa) = 24.06705 39.22996 31.64850
#
# Velocity S-wave (km/s) = 3.18500 4.06637 3.65237
# Velocity P-wave (km/s) = 4.21617 5.89236 5.12328
#
# Compressibility (1/GPa) = 0.09916582
#
# Stress axis : x y z
#
# Youngs Moduli (GPa) = 18.08529 76.59285 36.46368
#
# Poissons Ratio (x) = 0.89613 -0.85293
# Poissons Ratio (y) = 0.21160 0.36447
# Poissons Ratio (z) = -0.42304 0.76558
#
# Static dielectric constant tensor:
#      x y z
#    x 1.922440 0.035910 0.025340 
#    y 0.035910 2.083890 -0.002760 
#    z 0.025340 -0.002760 1.900510 
# 
# From -- ./inp_files/189733.got.cif
#   From: 2010.05.17/outbox.cif.g08.bks.cpg/sg2_95_cif.got.tgz:189733.got - 2010.06.03 11:33:40.
