data_PCOD9065135
_publ_section_title
;
Structure prediction by ZEFSAII (Michael W. Deem and Ramdas Pophale) SiO2 
 PCOD9065135
Probable space group: P -1
;
_chemical_formula_sum "Si O2"
_cell_formula_units_Z 14
_cell_length_a 11.669340
_cell_length_b 13.276941
_cell_length_c 5.092343
_cell_angle_alpha 88.957742
_cell_angle_beta 78.661676
_cell_angle_gamma 45.463784
_cell_volume 543.262168
_symmetry_space_group_name_H-M "P -1"
_symmetry_group_IT_number 2
_symmetry_cell_setting 'triclinic'
loop_
_space_group_symop_operation_xyz
x,y,z
-x,-y,-z
loop_
_atom_site_type_symbol
_atom_site_label
_atom_site_fract_x
_atom_site_fract_y
_atom_site_fract_z
Si Si1 0.652734 0.028647 0.660917
Si Si2 0.304327 0.192294 0.691321
Si Si3 0.758763 0.584922 0.650573
Si Si4 0.965771 0.862801 0.867406
Si Si5 0.481706 0.582820 0.755629
Si Si6 0.941228 0.406721 0.081565
Si Si7 0.191402 0.886208 0.674488
O O1 0.460128 0.127649 0.807693
O O2 0.687266 0.123814 0.565095
O O3 0.677849 0.932037 0.421046
O O4 0.800376 0.919587 0.804616
O O5 0.305863 0.269346 0.440993
O O6 0.127040 0.308915 0.901803
O O7 0.620595 0.584014 0.677905
O O8 0.820459 0.533274 0.921427
O O9 0.907772 0.463968 0.388089
O O10 0.065758 0.877149 0.629312
O O11 0.080612 0.700121 0.906281
O O12 0.908028 0.967980 0.127130
O O13 0.500000 0.500000 0.500000
O O14 0.309034 0.749872 0.820767
O O15 0.500000 0.500000 0.000000
#
# Coordination Sequence:
#
# PCOD9065135 Si02
#       7
#     2   2   2   2   2   2   2
#     4  11  24  48  73 106 149 193 248 307 368 436
#     4  11  25  47  72 109 150 195 253 299 367 446
#     4  12  26  48  74 107 151 198 248 302 374 437
#     4  11  25  44  75 107 143 193 246 305 375 435
#     4  12  27  48  75 110 148 192 245 307 372 444
#     4  12  26  48  73 110 149 198 247 306 363 443
#     4  11  24  47  72 107 144 189 247 307 369 441
#
# _framework density 25.770244000000002
#
# number of rings (size 3 to 8) (size 9 to 14) (size 15 to 20)
#    0.000    0.571    2.857    4.714    2.000    2.857 
#    2.571    0.000    0.000    0.000    0.000    0.000 
#    0.000    0.000    0.000    0.000    0.000    0.000 
#
# Total GULP energy -78493.006880 kJ/mol
# GULP energy per Si atom -5606.643349 kJ/mol
# Density = 2.571159 g / cm^3
# Si number density = 25.770244 Si / 1000 Ang^3
#
#
#
# Elastic Constant Matrix: (Units=GPa)
#
#
# Indices 1 2 3 4 5 6 
#
# 1 171.8876 17.5461 28.5627 -6.7086 -17.7615 9.3889
# 2 17.5461 122.4606 24.4934 -23.1726 -0.6600 23.1750
# 3 28.5627 24.4934 88.4249 -19.3798 3.6893 13.7685
# 4 -6.7086 -23.1726 -19.3798 51.4714 5.7239 -8.8980
# 5 -17.7615 -0.6600 3.6893 5.7239 35.9371 -7.2698
# 6 9.3889 23.1750 13.7685 -8.8980 -7.2698 45.9647
#
#
#
# Elastic Compliance Matrix: (Units=1/GPa)
#
#
# Indices 1 2 3 4 5 6 
#
# 1 0.006600 -0.000612 -0.002270 -0.000656 0.003605 0.000084
# 2 -0.000612 0.009884 -0.001100 0.003402 -0.001377 -0.004088
# 3 -0.002270 -0.001100 0.013921 0.004375 -0.003857 -0.002915
# 4 -0.000656 0.003402 0.004375 0.023150 -0.004211 0.000924
# 5 0.003605 -0.001377 -0.003857 -0.004211 0.031725 0.005316
# 6 0.000084 -0.004088 -0.002915 0.000924 0.005316 0.025692
#
#
# Mechanical properties :
#
#
# Convention : Reuss Voigt Hill
#
# Bulk Modulus (GPa) = 44.56417 58.21971 51.39194
# Shear Modulus (GPa) = 39.55223 47.48603 43.51913
#
# Velocity S-wave (km/s) = 3.92191 4.29729 4.11388
# Velocity P-wave (km/s) = 6.15133 6.87482 6.52311
#
# Compressibility (1/GPa) = 0.02243955
#
# Stress axis : x y z
#
# Youngs Moduli (GPa) = 151.52175 101.17761 71.83594
#
# Poissons Ratio (x) = 0.06195 0.16303
# Poissons Ratio (y) = 0.09277 0.07905
# Poissons Ratio (z) = 0.34388 0.11134
#
# Static dielectric constant tensor:
#      x y z
#    x 2.044250 -0.028350 -0.039370 
#    y -0.028350 2.022990 -0.021490 
#    z -0.039370 -0.021490 2.013390 
# 
# From -- ./inp_files/69674.got.cif
#   From: 2010.05.17/outbox.cif.g08.bks.cpg/sg2_35_cif.got.tgz:69674.got - 2010.06.03 11:33:40.
