data_PCOD9065708
_publ_section_title
;
Structure prediction by ZEFSAII (Michael W. Deem and Ramdas Pophale) SiO2 
 PCOD9065708
Probable space group: P -1
;
_chemical_formula_sum "Si O2"
_cell_formula_units_Z 12
_cell_length_a 5.055879
_cell_length_b 14.732883
_cell_length_c 9.942418
_cell_angle_alpha 39.418709
_cell_angle_beta 74.173193
_cell_angle_gamma 88.561525
_cell_volume 431.050782
_symmetry_space_group_name_H-M "P -1"
_symmetry_group_IT_number 2
_symmetry_cell_setting 'triclinic'
loop_
_space_group_symop_operation_xyz
x,y,z
-x,-y,-z
loop_
_atom_site_type_symbol
_atom_site_label
_atom_site_fract_x
_atom_site_fract_y
_atom_site_fract_z
Si Si1 0.655254 0.856076 0.278567
Si Si2 0.171037 0.445872 0.655119
Si Si3 0.697922 0.080462 0.508123
Si Si4 0.834618 0.619897 0.926962
Si Si5 0.243692 0.422655 0.306481
Si Si6 0.158528 0.113534 0.057565
O O1 0.406908 0.838378 0.442707
O O2 0.769391 0.712329 0.437318
O O3 0.593726 0.867330 0.115199
O O4 0.893529 0.996492 0.151602
O O5 0.500000 0.500000 0.500000
O O6 0.094115 0.270385 0.894377
O O7 0.000000 0.500000 0.500000
O O8 0.035762 0.521081 0.707333
O O9 0.942321 0.220836 0.252002
O O10 0.500000 0.000000 0.500000
O O11 0.218137 0.044426 0.269294
O O12 0.719606 0.645713 0.764874
O O13 0.540902 0.559016 0.124359
O O14 0.000000 0.500000 0.000000
#
# Coordination Sequence:
#
# PCOD9065708 Si02
#       6
#     2   2   2   2   2   2
#     4  11  24  51  87 124 169 229 303 365 460 527
#     4  12  30  53  86 131 176 230 299 384 460 540
#     4  12  28  51  85 132 183 235 296 372 462 541
#     4  11  25  50  84 119 172 239 293 364 439 556
#     4  11  25  51  86 126 170 232 304 371 451 533
#     4  11  27  52  85 122 177 230 297 376 447 543
#
# _framework density 27.838946
#
# number of rings (size 3 to 8) (size 9 to 14) (size 15 to 20)
#    0.000    0.667    5.000    0.500    7.000    2.000 
#    3.000    0.833    0.000    0.000    0.000    0.000 
#    0.000    0.000    0.000    0.000    0.000    0.000 
#
# Total GULP energy -67159.443971 kJ/mol
# GULP energy per Si atom -5596.620331 kJ/mol
# Density = 2.777558 g / cm^3
# Si number density = 27.838946 Si / 1000 Ang^3
#
#
#
# Elastic Constant Matrix: (Units=GPa)
#
#
# Indices 1 2 3 4 5 6 
#
# 1 125.3694 56.5926 74.3249 -17.5714 0.1991 -10.5326
# 2 56.5926 181.8882 92.8898 -6.0108 7.6007 -13.4141
# 3 74.3249 92.8898 199.8998 -15.2373 2.1411 3.9226
# 4 -17.5714 -6.0108 -15.2373 71.9967 -2.5105 3.4077
# 5 0.1991 7.6007 2.1411 -2.5105 60.6919 -0.6949
# 6 -10.5326 -13.4141 3.9226 3.4077 -0.6949 75.3566
#
#
#
# Elastic Compliance Matrix: (Units=1/GPa)
#
#
# Indices 1 2 3 4 5 6 
#
# 1 0.010987 -0.001632 -0.003219 0.001814 0.000372 0.001334
# 2 -0.001632 0.007656 -0.003004 -0.000486 -0.000853 0.001305
# 3 -0.003219 -0.003004 0.007672 0.000659 0.000127 -0.001413
# 4 0.001814 -0.000486 0.000659 0.014477 0.000625 -0.000516
# 5 0.000372 -0.000853 0.000127 0.000625 0.016604 0.000018
# 6 0.001334 0.001305 -0.001413 -0.000516 0.000018 0.013786
#
#
# Mechanical properties :
#
#
# Convention : Reuss Voigt Hill
#
# Bulk Modulus (GPa) = 94.29685 106.08580 100.19132
# Shear Modulus (GPa) = 55.29369 60.49905 57.89637
#
# Velocity S-wave (km/s) = 4.46151 4.66680 4.56531
# Velocity P-wave (km/s) = 7.77727 8.19929 7.99107
#
# Compressibility (1/GPa) = 0.01060481
#
# Stress axis : x y z
#
# Youngs Moduli (GPa) = 91.01685 130.62124 130.34720
#
# Poissons Ratio (x) = 0.21317 0.41954
# Poissons Ratio (y) = 0.14853 0.39160
# Poissons Ratio (z) = 0.29295 0.39242
#
# Static dielectric constant tensor:
#      x y z
#    x 2.271260 -0.024460 0.010380 
#    y -0.024460 2.050190 0.207330 
#    z 0.010380 0.207330 2.434990 
# 
# From -- ./inp_files/367362.got.cif
#   From: 2010.05.17/outbox.cif.g08.bks.cpg/sg2_184_cif.got.tgz:367362.got - 2010.06.03 11:33:40.
