data_PCOD9065147
_publ_section_title
;
Structure prediction by ZEFSAII (Michael W. Deem and Ramdas Pophale) SiO2 
 PCOD9065147
Probable space group: P -1
;
_chemical_formula_sum "Si O2"
_cell_formula_units_Z 14
_cell_length_a 13.510403
_cell_length_b 5.008153
_cell_length_c 12.262194
_cell_angle_alpha 67.081562
_cell_angle_beta 129.675004
_cell_angle_gamma 87.225083
_cell_volume 534.063002
_symmetry_space_group_name_H-M "P -1"
_symmetry_group_IT_number 2
_symmetry_cell_setting 'triclinic'
loop_
_space_group_symop_operation_xyz
x,y,z
-x,-y,-z
loop_
_atom_site_type_symbol
_atom_site_label
_atom_site_fract_x
_atom_site_fract_y
_atom_site_fract_z
Si Si1 0.514815 0.633799 0.317105
Si Si2 0.344925 0.677068 0.735586
Si Si3 0.063823 0.257404 0.484814
Si Si4 0.340499 0.328304 0.373093
Si Si5 0.067884 0.541819 0.868594
Si Si6 0.641078 0.696316 0.992081
Si Si7 0.147515 0.021129 0.190245
O O1 0.648006 0.423688 0.368812
O O2 0.433878 0.430862 0.339349
O O3 0.569473 0.768861 0.436988
O O4 0.405732 0.931558 0.123661
O O5 0.501819 0.647880 0.872315
O O6 0.230564 0.029493 0.628062
O O7 0.322463 0.423100 0.839318
O O8 0.000000 0.500000 0.500000
O O9 0.009513 0.434348 0.304078
O O10 0.000000 0.000000 0.500000
O O11 0.277838 0.096526 0.314956
O O12 0.207800 0.655793 0.258504
O O13 0.973087 0.849101 0.824016
O O14 0.223625 0.508539 0.952776
O O15 0.092177 0.240299 0.009620
#
# Coordination Sequence:
#
# PCOD9065147 Si02
#       7
#     2   2   2   2   2   2   2
#     4  11  25  42  77 107 156 194 253 307 382 441
#     4  11  26  47  76 109 151 201 250 310 376 453
#     4  12  29  50  77 111 150 198 249 310 377 447
#     4  11  26  46  77 111 151 195 255 310 372 446
#     4  11  25  48  77 106 156 194 256 306 376 443
#     4  11  24  47  72 113 145 202 246 310 369 450
#     4  11  26  49  74 109 147 203 252 310 373 438
#
# _framework density 26.214136
#
# number of rings (size 3 to 8) (size 9 to 14) (size 15 to 20)
#    0.000    0.857    2.857    2.143    6.000    8.000 
#    2.571    0.000    0.000    0.000    0.000    0.000 
#    0.000    0.000    0.000    0.000    0.000    0.000 
#
# Total GULP energy -78627.518591 kJ/mol
# GULP energy per Si atom -5616.251328 kJ/mol
# Density = 2.615447 g / cm^3
# Si number density = 26.214136 Si / 1000 Ang^3
#
#
#
# Elastic Constant Matrix: (Units=GPa)
#
#
# Indices 1 2 3 4 5 6 
#
# 1 186.8311 54.0179 72.7115 -8.8841 -3.0679 -37.4356
# 2 54.0179 109.3160 56.4964 -2.0911 -7.5175 -20.7442
# 3 72.7115 56.4964 163.1210 -8.3202 -11.5296 -23.8304
# 4 -8.8841 -2.0911 -8.3202 39.6313 -7.6700 10.4456
# 5 -3.0679 -7.5175 -11.5296 -7.6700 57.9199 0.9031
# 6 -37.4356 -20.7442 -23.8304 10.4456 0.9031 52.6401
#
#
#
# Elastic Compliance Matrix: (Units=1/GPa)
#
#
# Indices 1 2 3 4 5 6 
#
# 1 0.007459 -0.001915 -0.002159 0.000118 -0.000323 0.003554
# 2 -0.001915 0.012100 -0.003008 -0.000864 0.000722 0.002203
# 3 -0.002159 -0.003008 0.008408 0.001156 0.001309 0.000834
# 4 0.000118 -0.000864 0.001156 0.027594 0.003861 -0.005275
# 5 -0.000323 0.000722 0.001309 0.003861 0.018120 -0.000430
# 6 0.003554 0.002203 0.000834 -0.005275 -0.000430 0.023824
#
#
# Mechanical properties :
#
#
# Convention : Reuss Voigt Hill
#
# Bulk Modulus (GPa) = 72.45411 91.74663 82.10037
# Shear Modulus (GPa) = 43.00284 48.44107 45.72195
#
# Velocity S-wave (km/s) = 4.05463 4.30338 4.18086
# Velocity P-wave (km/s) = 7.04410 7.73091 7.39549
#
# Compressibility (1/GPa) = 0.01380184
#
# Stress axis : x y z
#
# Youngs Moduli (GPa) = 134.06606 82.64305 118.93521
#
# Poissons Ratio (x) = 0.15830 0.25678
# Poissons Ratio (y) = 0.25680 0.35778
# Poissons Ratio (z) = 0.28945 0.24861
#
# Static dielectric constant tensor:
#      x y z
#    x 2.027000 0.018000 0.018530 
#    y 0.018000 2.015110 0.014640 
#    z 0.018530 0.014640 2.065490 
# 
# From -- ./inp_files/410140.got.cif
#   From: 2010.05.17/outbox.cif.g08.bks.cpg/sg2_206_cif.got.tgz:410140.got - 2010.06.03 11:33:40.
