data_PCOD9065073
_publ_section_title
;
Structure prediction by ZEFSAII (Michael W. Deem and Ramdas Pophale) SiO2 
 PCOD9065073
Probable space group: P -1
;
_chemical_formula_sum "Si O2"
_cell_formula_units_Z 16
_cell_length_a 18.020168
_cell_length_b 11.600387
_cell_length_c 8.444819
_cell_angle_alpha 51.083772
_cell_angle_beta 126.742018
_cell_angle_gamma 147.322607
_cell_volume 731.372953
_symmetry_space_group_name_H-M "P -1"
_symmetry_group_IT_number 2
_symmetry_cell_setting 'triclinic'
loop_
_space_group_symop_operation_xyz
x,y,z
-x,-y,-z
loop_
_atom_site_type_symbol
_atom_site_label
_atom_site_fract_x
_atom_site_fract_y
_atom_site_fract_z
Si Si1 0.350357 0.878680 0.349781
Si Si2 0.900215 0.964212 0.703340
Si Si3 0.109326 0.380417 0.060548
Si Si4 0.643102 0.098166 0.046727
Si Si5 0.639255 0.648492 0.147954
Si Si6 0.629148 0.748429 0.382043
Si Si7 0.173646 0.390290 0.499736
Si Si8 0.171713 0.932395 0.174263
O O1 0.231558 0.612493 0.450937
O O2 0.292814 0.954281 0.302456
O O3 0.500000 0.000000 0.500000
O O4 0.353975 0.908306 0.137216
O O5 0.888505 0.775417 0.894821
O O6 0.771008 0.837283 0.531854
O O7 0.874311 0.053401 0.730747
O O8 0.044695 0.170970 0.622257
O O9 0.121388 0.351958 0.286141
O O10 0.233187 0.644291 0.963344
O O11 0.963788 0.281286 0.911711
O O12 0.644643 0.940549 0.270758
O O13 0.500000 0.000000 0.000000
O O14 0.615845 0.726889 0.196787
O O15 0.690794 0.554110 0.364554
O O16 0.500000 0.500000 0.000000
O O17 0.764422 0.853894 0.023376
O O18 0.500000 0.500000 0.500000
#
# Coordination Sequence:
#
# PCOD9065073 Si02
#       8
#     2   2   2   2   2   2   2   2
#     4  11  27  48  68 103 148 187 234 295 358 421
#     4  12  25  45  72 105 143 185 241 292 349 427
#     4  11  24  47  71 102 144 182 239 293 356 420
#     4  11  27  45  73 103 141 188 234 296 359 418
#     4  12  24  45  72 103 140 188 237 294 353 420
#     4  12  26  46  73 106 141 187 241 289 354 430
#     4  11  25  43  73 102 141 186 234 297 356 412
#     4  12  26  45  71 103 143 190 238 290 358 422
#
# _framework density 21.876662
#
# number of rings (size 3 to 8) (size 9 to 14) (size 15 to 20)
#    0.000    0.500    3.750    3.750    5.250    2.500 
#    0.000    0.000    0.000    0.000    0.000    0.000 
#    0.000    0.000    0.000    0.000    0.000    0.000 
#
# Total GULP energy -89415.697497 kJ/mol
# GULP energy per Si atom -5588.481094 kJ/mol
# Density = 2.182687 g / cm^3
# Si number density = 21.876662 Si / 1000 Ang^3
#
#
#
# Elastic Constant Matrix: (Units=GPa)
#
#
# Indices 1 2 3 4 5 6 
#
# 1 99.6060 42.2022 31.5799 2.4114 18.7257 4.3000
# 2 42.2022 151.3938 59.1980 2.2323 3.1979 22.5850
# 3 31.5799 59.1980 70.0815 5.6533 22.6096 3.5481
# 4 2.4114 2.2323 5.6533 50.6846 -5.2384 3.3304
# 5 18.7257 3.1979 22.6096 -5.2384 35.1176 -0.9146
# 6 4.3000 22.5850 3.5481 3.3304 -0.9146 32.9990
#
#
#
# Elastic Compliance Matrix: (Units=1/GPa)
#
#
# Indices 1 2 3 4 5 6 
#
# 1 0.012828 -0.002996 -0.001304 -0.000968 -0.005860 0.000454
# 2 -0.002996 0.013107 -0.012265 0.002284 0.008452 -0.007257
# 3 -0.001304 -0.012265 0.031556 -0.005236 -0.019151 0.005169
# 4 -0.000968 0.002284 -0.005236 0.021143 0.006760 -0.002820
# 5 -0.005860 0.008452 -0.019151 0.006760 0.044106 -0.002422
# 6 0.000454 -0.007257 0.005169 -0.002820 -0.002422 0.034874
#
#
# Mechanical properties :
#
#
# Convention : Reuss Voigt Hill
#
# Bulk Modulus (GPa) = 41.04913 65.22682 53.13797
# Shear Modulus (GPa) = 25.14291 36.30033 30.72162
#
# Velocity S-wave (km/s) = 3.39382 4.07789 3.75148
# Velocity P-wave (km/s) = 5.84482 7.21476 6.56562
#
# Compressibility (1/GPa) = 0.02436105
#
# Stress axis : x y z
#
# Youngs Moduli (GPa) = 77.95556 76.29758 31.68961
#
# Poissons Ratio (x) = 0.22855 0.04134
# Poissons Ratio (y) = 0.23352 0.38867
# Poissons Ratio (z) = 0.10168 0.93578
#
# Static dielectric constant tensor:
#      x y z
#    x 1.789570 0.019610 0.023630 
#    y 0.019610 1.459950 0.003400 
#    z 0.023630 0.003400 1.845680 
# 
# From -- ./inp_files/209559.got.cif
#   From: 2010.05.17/outbox.cif.g08.bks.cpg/sg2_105_cif.got.tgz:209559.got - 2010.06.03 11:33:40.
