data_PCOD9065581
_publ_section_title
;
Structure prediction by ZEFSAII (Michael W. Deem and Ramdas Pophale) SiO2 
 PCOD9065581
Probable space group: P -1
;
_chemical_formula_sum "Si O2"
_cell_formula_units_Z 12
_cell_length_a 8.676389
_cell_length_b 12.641101
_cell_length_c 10.178390
_cell_angle_alpha 146.212874
_cell_angle_beta 99.356017
_cell_angle_gamma 62.937333
_cell_volume 497.722704
_symmetry_space_group_name_H-M "P -1"
_symmetry_group_IT_number 2
_symmetry_cell_setting 'triclinic'
loop_
_space_group_symop_operation_xyz
x,y,z
-x,-y,-z
loop_
_atom_site_type_symbol
_atom_site_label
_atom_site_fract_x
_atom_site_fract_y
_atom_site_fract_z
Si Si1 0.346882 0.576388 0.175768
Si Si2 0.082980 0.013080 0.162869
Si Si3 0.417284 0.512894 0.642766
Si Si4 0.599462 0.899899 0.270528
Si Si5 0.782514 0.671947 0.463823
Si Si6 0.993052 0.203794 0.833816
O O1 0.424917 0.631565 0.371039
O O2 0.143999 0.759831 0.267829
O O3 0.500000 0.500000 0.000000
O O4 0.345027 0.359566 0.997695
O O5 0.083744 0.239980 0.405715
O O6 0.995119 0.963893 0.223597
O O7 0.299101 0.778930 0.950262
O O8 0.000000 0.000000 0.000000
O O9 0.500000 0.500000 0.500000
O O10 0.269072 0.440978 0.544948
O O11 0.797328 0.874489 0.259395
O O12 0.500000 0.000000 0.500000
O O13 0.426755 0.090631 0.350835
O O14 0.876912 0.467598 0.155481
#
# Coordination Sequence:
#
# PCOD9065581 Si02
#       6
#     2   2   2   2   2   2
#     4  12  21  48  73 106 155 188 247 307 366 445
#     4  11  26  49  73 107 149 195 252 302 377 453
#     4  11  26  45  75 112 148 197 244 310 372 441
#     4  12  24  44  75 111 148 195 248 307 378 438
#     4  11  24  49  74 103 152 193 247 310 371 443
#     4  11  26  47  76 113 145 197 250 311 369 440
#
# _framework density 24.109811000000001
#
# number of rings (size 3 to 8) (size 9 to 14) (size 15 to 20)
#    0.000    0.667    6.667    0.500    2.333    6.000 
#    3.000    4.167    0.000    0.000    0.000    0.000 
#    0.000    0.000    0.000    0.000    0.000    0.000 
#
# Total GULP energy -67169.554802 kJ/mol
# GULP energy per Si atom -5597.462900 kJ/mol
# Density = 2.405494 g / cm^3
# Si number density = 24.109811 Si / 1000 Ang^3
#
#
#
# Elastic Constant Matrix: (Units=GPa)
#
#
# Indices 1 2 3 4 5 6 
#
# 1 204.9148 87.2189 71.8209 -10.3525 5.2559 13.5521
# 2 87.2189 152.1871 41.9069 -7.9730 -0.3701 -5.2921
# 3 71.8209 41.9069 86.4496 7.6207 -2.9984 11.0519
# 4 -10.3525 -7.9730 7.6207 42.2892 4.8611 -8.5821
# 5 5.2559 -0.3701 -2.9984 4.8611 69.0647 7.4795
# 6 13.5521 -5.2921 11.0519 -8.5821 7.4795 49.1503
#
#
#
# Elastic Compliance Matrix: (Units=1/GPa)
#
#
# Indices 1 2 3 4 5 6 
#
# 1 0.008384 -0.003179 -0.005563 0.002398 -0.000975 -0.000836
# 2 -0.003179 0.009251 -0.002385 0.001992 -0.000255 0.002796
# 3 -0.005563 -0.002385 0.018521 -0.006267 0.002122 -0.004305
# 4 0.002398 0.001992 -0.006267 0.027346 -0.003040 0.006200
# 5 -0.000975 -0.000255 0.002122 -0.003040 0.015191 -0.003078
# 6 -0.000836 0.002796 -0.004305 0.006200 -0.003078 0.023396
#
#
# Mechanical properties :
#
#
# Convention : Reuss Voigt Hill
#
# Bulk Modulus (GPa) = 71.92919 93.93834 82.93377
# Shear Modulus (GPa) = 38.76628 48.27450 43.52039
#
# Velocity S-wave (km/s) = 4.01422 4.47953 4.25324
# Velocity P-wave (km/s) = 7.16827 8.11186 7.65462
#
# Compressibility (1/GPa) = 0.01390256
#
# Stress axis : x y z
#
# Youngs Moduli (GPa) = 119.26910 108.10209 53.99180
#
# Poissons Ratio (x) = 0.34367 0.30035
# Poissons Ratio (y) = 0.37917 0.12876
# Poissons Ratio (z) = 0.66347 0.25781
#
# Static dielectric constant tensor:
#      x y z
#    x 1.930520 0.006770 0.032750 
#    y 0.006770 1.899960 0.081450 
#    z 0.032750 0.081450 2.035220 
# 
# From -- ./inp_files/394915.got.cif
#   From: 2010.05.17/outbox.cif.g08.bks.cpg/sg2_198_cif.got.tgz:394915.got - 2010.06.03 11:33:40.
