data_PCOD9065736
_publ_section_title
;
Structure prediction by ZEFSAII (Michael W. Deem and Ramdas Pophale) SiO2 
 PCOD9065736
Probable space group: P -1
;
_chemical_formula_sum "Si O2"
_cell_formula_units_Z 16
_cell_length_a 19.843259
_cell_length_b 12.430944
_cell_length_c 9.703053
_cell_angle_alpha 145.609177
_cell_angle_beta 130.809199
_cell_angle_gamma 34.549438
_cell_volume 764.135524
_symmetry_space_group_name_H-M "P -1"
_symmetry_group_IT_number 2
_symmetry_cell_setting 'triclinic'
loop_
_space_group_symop_operation_xyz
x,y,z
-x,-y,-z
loop_
_atom_site_type_symbol
_atom_site_label
_atom_site_fract_x
_atom_site_fract_y
_atom_site_fract_z
Si Si1 0.518736 0.928175 0.721806
Si Si2 0.092342 0.611901 0.960821
Si Si3 0.744262 0.410796 0.332418
Si Si4 0.003118 0.107063 0.472443
Si Si5 0.820292 0.874720 0.893738
Si Si6 0.563832 0.207017 0.273349
Si Si7 0.831331 0.779692 0.128712
Si Si8 0.275433 0.301753 0.631785
O O1 0.636436 0.668700 0.538827
O O2 0.481032 0.850728 0.718064
O O3 0.409240 0.086808 0.637498
O O4 0.539698 0.109389 0.003623
O O5 0.140252 0.456880 0.005323
O O6 0.183640 0.426481 0.767849
O O7 0.958168 0.723455 0.878283
O O8 0.079371 0.857438 0.213883
O O9 0.735536 0.484707 0.239973
O O10 0.870882 0.304622 0.445773
O O11 0.750085 0.175751 0.114287
O O12 0.065940 0.218184 0.691589
O O13 0.000000 0.000000 0.500000
O O14 0.761433 0.809277 0.642745
O O15 0.821692 0.796632 0.969307
O O16 0.500000 0.500000 0.500000
O O17 0.705456 0.031365 0.283611
#
# Coordination Sequence:
#
# PCOD9065736 Si02
#       8
#     2   2   2   2   2   2   2   2
#     4  11  26  47  67 102 139 186 234 285 343 412
#     4  11  25  43  68 103 142 179 231 286 350 407
#     4  11  25  45  69  98 145 183 232 285 344 415
#     4  11  25  41  73 106 135 181 232 288 346 408
#     4  11  25  41  69 103 137 184 230 282 346 416
#     4  11  26  42  72 101 140 179 233 294 344 406
#     4  12  23  43  72 103 135 179 234 288 345 412
#     4  12  26  44  69 100 142 190 226 285 349 416
#
# _framework density 20.938694000000002
#
# number of rings (size 3 to 8) (size 9 to 14) (size 15 to 20)
#    0.000    0.750    3.750    3.375    5.250    4.500 
#    0.000    0.000    0.000    0.000    0.000    0.000 
#    0.000    0.000    0.000    0.000    0.000    0.000 
#
# Total GULP energy -89575.172061 kJ/mol
# GULP energy per Si atom -5598.448254 kJ/mol
# Density = 2.089104 g / cm^3
# Si number density = 20.938694 Si / 1000 Ang^3
#
#
#
# Elastic Constant Matrix: (Units=GPa)
#
#
# Indices 1 2 3 4 5 6 
#
# 1 93.5654 48.4473 47.9064 9.3875 -18.2652 2.7960
# 2 48.4473 166.1294 77.2541 15.9351 -8.8506 0.4036
# 3 47.9064 77.2541 123.8297 12.5343 -5.3234 6.0218
# 4 9.3875 15.9351 12.5343 39.4725 -0.3338 -4.6596
# 5 -18.2652 -8.8506 -5.3234 -0.3338 24.7063 10.5195
# 6 2.7960 0.4036 6.0218 -4.6596 10.5195 35.2329
#
#
#
# Elastic Compliance Matrix: (Units=1/GPa)
#
#
# Indices 1 2 3 4 5 6 
#
# 1 0.016737 -0.002015 -0.004214 -0.002274 0.012705 -0.004679
# 2 -0.002015 0.008943 -0.004642 -0.001594 0.000481 0.000496
# 3 -0.004214 -0.004642 0.012757 -0.001371 -0.001384 -0.001561
# 4 -0.002274 -0.001594 -0.001371 0.027555 -0.004481 0.005415
# 5 0.012705 0.000481 -0.001384 -0.004481 0.057586 -0.018563
# 6 -0.004679 0.000496 -0.001561 0.005415 -0.018563 0.035274
#
#
# Mechanical properties :
#
#
# Convention : Reuss Voigt Hill
#
# Bulk Modulus (GPa) = 59.89754 81.19334 70.54544
# Shear Modulus (GPa) = 26.85884 33.87676 30.36780
#
# Velocity S-wave (km/s) = 3.58542 4.02668 3.81244
# Velocity P-wave (km/s) = 6.76820 7.77687 7.29000
#
# Compressibility (1/GPa) = 0.01669518
#
# Stress axis : x y z
#
# Youngs Moduli (GPa) = 59.74843 111.82065 78.38811
#
# Poissons Ratio (x) = 0.22530 0.33034
# Poissons Ratio (y) = 0.12038 0.36386
# Poissons Ratio (z) = 0.25179 0.51905
#
# Static dielectric constant tensor:
#      x y z
#    x 1.738290 0.003110 -0.001740 
#    y 0.003110 1.727560 0.005950 
#    z -0.001740 0.005950 1.754430 
# 
# From -- ./inp_files/346505.got.cif
#   From: 2010.05.17/outbox.cif.g08.bks.cpg/sg2_174_cif.got.tgz:346505.got - 2010.06.03 11:33:40.
