data_PCOD9065849
_publ_section_title
;
Structure prediction by ZEFSAII (Michael W. Deem and Ramdas Pophale) SiO2 
 PCOD9065849
Probable space group: P -1
;
_chemical_formula_sum "Si O2"
_cell_formula_units_Z 16
_cell_length_a 6.561951
_cell_length_b 15.984027
_cell_length_c 8.995857
_cell_angle_alpha 47.564691
_cell_angle_beta 85.442641
_cell_angle_gamma 84.703839
_cell_volume 693.209934
_symmetry_space_group_name_H-M "P -1"
_symmetry_group_IT_number 2
_symmetry_cell_setting 'triclinic'
loop_
_space_group_symop_operation_xyz
x,y,z
-x,-y,-z
loop_
_atom_site_type_symbol
_atom_site_label
_atom_site_fract_x
_atom_site_fract_y
_atom_site_fract_z
Si Si1 0.430561 0.417477 0.968178
Si Si2 0.700321 0.974665 0.420383
Si Si3 0.972002 0.860391 0.918190
Si Si4 0.128995 0.640526 0.016925
Si Si5 0.904824 0.216783 0.673807
Si Si6 0.605367 0.035279 0.800077
Si Si7 0.113198 0.527193 0.619168
Si Si8 0.116865 0.256150 0.326674
O O1 0.635051 0.354154 0.969145
O O2 0.307618 0.469498 0.769418
O O3 0.500000 0.500000 0.000000
O O4 0.294358 0.329500 0.166759
O O5 0.586297 0.935115 0.327797
O O6 0.845661 0.869459 0.592685
O O7 0.500000 0.000000 0.500000
O O8 0.846600 0.074761 0.251069
O O9 0.757246 0.934583 0.843418
O O10 0.987278 0.731416 0.010291
O O11 0.027615 0.848530 0.103565
O O12 0.061144 0.514285 0.206582
O O13 0.086835 0.679097 0.804371
O O14 0.745430 0.140794 0.690946
O O15 0.826161 0.344342 0.560321
O O16 0.087380 0.239360 0.522255
O O17 0.500000 0.000000 0.000000
O O18 0.000000 0.500000 0.500000
#
# Coordination Sequence:
#
# PCOD9065849 Si02
#       8
#     2   2   2   2   2   2   2   2
#     4  11  25  46  75 109 145 194 255 302 366 449
#     4  12  26  43  69 108 142 192 246 292 372 444
#     4  12  25  47  70 104 150 185 240 314 365 441
#     4  11  25  48  73 106 149 190 245 305 372 436
#     4  12  24  47  72 100 146 189 239 305 375 431
#     4  12  26  46  71 104 143 192 244 301 370 442
#     4  11  25  49  71 109 144 193 244 308 373 437
#     4  11  25  43  71 103 144 189 240 305 363 437
#
# _framework density 23.081030999999999
#
# number of rings (size 3 to 8) (size 9 to 14) (size 15 to 20)
#    0.000    0.500    3.750    4.125    5.250    4.500 
#    2.250    0.000    0.000    0.000    0.000    0.000 
#    0.000    0.000    0.000    0.000    0.000    0.000 
#
# Total GULP energy -89318.666527 kJ/mol
# GULP energy per Si atom -5582.416658 kJ/mol
# Density = 2.302850 g / cm^3
# Si number density = 23.081031 Si / 1000 Ang^3
#
#
#
# Elastic Constant Matrix: (Units=GPa)
#
#
# Indices 1 2 3 4 5 6 
#
# 1 119.6150 22.9915 45.3567 -7.1359 12.7677 -5.4993
# 2 22.9915 82.3483 22.4789 -4.8203 1.4636 10.4674
# 3 45.3567 22.4789 131.2451 -4.9038 0.6420 -2.4626
# 4 -7.1359 -4.8203 -4.9038 37.6662 8.8517 -5.0074
# 5 12.7677 1.4636 0.6420 8.8517 31.4292 7.8418
# 6 -5.4993 10.4674 -2.4626 -5.0074 7.8418 35.7477
#
#
#
# Elastic Compliance Matrix: (Units=1/GPa)
#
#
# Indices 1 2 3 4 5 6 
#
# 1 0.011097 -0.002434 -0.003184 0.003396 -0.006298 0.004058
# 2 -0.002434 0.013865 -0.001630 0.000083 0.001570 -0.004879
# 3 -0.003184 -0.001630 0.009008 0.000171 0.001036 0.000405
# 4 0.003396 0.000083 0.000171 0.031041 -0.011998 0.007490
# 5 -0.006298 0.001570 0.001036 -0.011998 0.040644 -0.011954
# 6 0.004058 -0.004879 0.000405 0.007490 -0.011954 0.033726
#
#
# Mechanical properties :
#
#
# Convention : Reuss Voigt Hill
#
# Bulk Modulus (GPa) = 51.35083 57.20696 54.27889
# Shear Modulus (GPa) = 31.17843 37.12738 34.15291
#
# Velocity S-wave (km/s) = 3.67934 4.01505 3.85085
# Velocity P-wave (km/s) = 6.35189 6.80685 6.58330
#
# Compressibility (1/GPa) = 0.01947388
#
# Stress axis : x y z
#
# Youngs Moduli (GPa) = 90.11551 72.12310 111.01496
#
# Poissons Ratio (x) = 0.17555 0.35350
# Poissons Ratio (y) = 0.21935 0.18092
# Poissons Ratio (z) = 0.28695 0.11754
#
# Static dielectric constant tensor:
#      x y z
#    x 1.814480 -0.025100 0.016580 
#    y -0.025100 1.940430 -0.026150 
#    z 0.016580 -0.026150 1.778330 
# 
# From -- ./inp_files/138511.got.cif
#   From: 2010.05.17/outbox.cif.g08.bks.cpg/sg2_70_cif.got.tgz:138511.got - 2010.06.03 11:33:40.
