data_PCOD9065063
_publ_section_title
;
Structure prediction by ZEFSAII (Michael W. Deem and Ramdas Pophale) SiO2 
 PCOD9065063
Probable space group: P -1
;
_chemical_formula_sum "Si O2"
_cell_formula_units_Z 16
_cell_length_a 8.842294
_cell_length_b 11.290162
_cell_length_c 21.503906
_cell_angle_alpha 27.665330
_cell_angle_beta 139.992120
_cell_angle_gamma 138.121933
_cell_volume 624.857190
_symmetry_space_group_name_H-M "P -1"
_symmetry_group_IT_number 2
_symmetry_cell_setting 'triclinic'
loop_
_space_group_symop_operation_xyz
x,y,z
-x,-y,-z
loop_
_atom_site_type_symbol
_atom_site_label
_atom_site_fract_x
_atom_site_fract_y
_atom_site_fract_z
Si Si1 0.930289 0.904284 0.123531
Si Si2 0.710156 0.689268 0.868323
Si Si3 0.298153 0.815690 0.176088
Si Si4 0.087825 0.643671 0.600507
Si Si5 0.204959 0.828817 0.817159
Si Si6 0.587048 0.387038 0.497811
Si Si7 0.204748 0.945260 0.379786
Si Si8 0.740072 0.156207 0.308718
O O1 0.080127 0.815692 0.154565
O O2 0.810982 0.622053 0.245358
O O3 0.109132 0.072261 0.151321
O O4 0.774146 0.092798 0.956642
O O5 0.677221 0.784784 0.743530
O O6 0.451951 0.656462 0.835662
O O7 0.815725 0.436643 0.028714
O O8 0.409346 0.562416 0.335439
O O9 0.514998 0.046849 0.159071
O O10 0.808114 0.545986 0.535587
O O11 0.103790 0.770674 0.614324
O O12 0.234586 0.861661 0.498599
O O13 0.118363 0.793936 0.734564
O O14 0.073114 0.025232 0.720025
O O15 0.721968 0.275980 0.535820
O O16 0.428464 0.134157 0.600782
#
# Coordination Sequence:
#
# PCOD9065063 Si02
#       8
#     2   2   2   2   2   2   2   2
#     4  11  25  44  73 113 146 190 248 312 369 436
#     4  11  24  47  70 107 157 190 245 313 363 439
#     4  11  25  44  74 110 149 192 245 308 375 436
#     4  12  24  46  79 107 152 193 246 304 372 441
#     4  12  24  44  75 110 147 198 244 305 373 436
#     4  11  25  51  74 108 156 193 244 310 366 440
#     4  11  26  47  73 105 153 201 243 300 372 442
#     4  11  26  44  78 113 144 196 251 308 368 437
#
# _framework density 25.60585
#
# number of rings (size 3 to 8) (size 9 to 14) (size 15 to 20)
#    0.000    0.750    5.000    1.875    5.250    4.500 
#    0.000    3.750    0.000    0.000    0.000    0.000 
#    0.000    0.000    0.000    0.000    0.000    0.000 
#
# Total GULP energy -89610.717794 kJ/mol
# GULP energy per Si atom -5600.669862 kJ/mol
# Density = 2.554757 g / cm^3
# Si number density = 25.605850 Si / 1000 Ang^3
#
#
#
# Elastic Constant Matrix: (Units=GPa)
#
#
# Indices 1 2 3 4 5 6 
#
# 1 98.6655 30.3619 59.1249 -1.4467 -6.8419 -12.8433
# 2 30.3619 97.4025 52.7709 9.8486 -6.9336 1.0042
# 3 59.1249 52.7709 234.9350 -4.3180 -9.1884 -11.3170
# 4 -1.4467 9.8486 -4.3180 44.1085 1.2496 -6.4163
# 5 -6.8419 -6.9336 -9.1884 1.2496 35.5527 -3.4229
# 6 -12.8433 1.0042 -11.3170 -6.4163 -3.4229 21.8511
#
#
#
# Elastic Compliance Matrix: (Units=1/GPa)
#
#
# Indices 1 2 3 4 5 6 
#
# 1 0.013660 -0.003195 -0.002216 0.002042 0.002128 0.007961
# 2 -0.003195 0.013083 -0.002397 -0.003977 0.001002 -0.004731
# 3 -0.002216 -0.002397 0.005507 0.001294 0.000691 0.002148
# 4 0.002042 -0.003977 0.001294 0.025125 -0.000024 0.009428
# 5 0.002128 0.001002 0.000691 -0.000024 0.029506 0.006177
# 6 0.007961 -0.004731 0.002148 0.009428 0.006177 0.055509
#
#
# Mechanical properties :
#
#
# Convention : Reuss Voigt Hill
#
# Bulk Modulus (GPa) = 60.11178 79.50205 69.80691
# Shear Modulus (GPa) = 30.57168 39.55213 35.06191
#
# Velocity S-wave (km/s) = 3.45908 3.93447 3.70441
# Velocity P-wave (km/s) = 6.28335 7.19416 6.75412
#
# Compressibility (1/GPa) = 0.01663567
#
# Stress axis : x y z
#
# Youngs Moduli (GPa) = 73.20652 76.43437 181.59486
#
# Poissons Ratio (x) = 0.24418 0.40240
# Poissons Ratio (y) = 0.23386 0.43521
# Poissons Ratio (z) = 0.16222 0.18318
#
# Static dielectric constant tensor:
#      x y z
#    x 2.047860 0.007150 -0.033560 
#    y 0.007150 2.018660 0.040530 
#    z -0.033560 0.040530 2.089680 
# 
# From -- ./inp_files/589383.got.cif
#   From: 2010.05.17/outbox.cif.g08.bks.cpg/sg2_295_cif.got.tgz:589383.got - 2010.06.03 11:33:40.
