data_PCOD9065259
_publ_section_title
;
Structure prediction by ZEFSAII (Michael W. Deem and Ramdas Pophale) SiO2 
 PCOD9065259
Probable space group: P -1
;
_chemical_formula_sum "Si O2"
_cell_formula_units_Z 14
_cell_length_a 17.164705
_cell_length_b 14.378561
_cell_length_c 9.206893
_cell_angle_alpha 129.382171
_cell_angle_beta 142.347711
_cell_angle_gamma 24.194272
_cell_volume 532.831989
_symmetry_space_group_name_H-M "P -1"
_symmetry_group_IT_number 2
_symmetry_cell_setting 'triclinic'
loop_
_space_group_symop_operation_xyz
x,y,z
-x,-y,-z
loop_
_atom_site_type_symbol
_atom_site_label
_atom_site_fract_x
_atom_site_fract_y
_atom_site_fract_z
Si Si1 0.698137 0.104716 0.233353
Si Si2 0.074144 0.064922 0.900994
Si Si3 0.503471 0.152660 0.508251
Si Si4 0.286898 0.239903 0.723985
Si Si5 0.281548 0.673552 0.973941
Si Si6 0.475645 0.390119 0.469757
Si Si7 0.972924 0.338604 0.546715
O O1 0.639923 0.236036 0.414085
O O2 0.782102 0.090495 0.190441
O O3 0.444840 0.230744 0.970561
O O4 0.932739 0.825907 0.349730
O O5 0.808270 0.343186 0.738876
O O6 0.092619 0.936395 0.909415
O O7 0.254009 0.012788 0.198097
O O8 0.489906 0.255309 0.452194
O O9 0.250695 0.390822 0.462459
O O10 0.541584 0.986227 0.348249
O O11 0.000000 0.500000 0.500000
O O12 0.216146 0.216117 0.734549
O O13 0.137751 0.663595 0.739845
O O14 0.500000 0.500000 0.000000
O O15 0.412752 0.601473 0.246889
#
# Coordination Sequence:
#
# PCOD9065259 Si02
#       7
#     2   2   2   2   2   2   2
#     4  12  26  47  76 110 148 192 250 306 367 434
#     4  11  24  48  74 112 148 192 247 300 365 444
#     4  11  24  48  75 106 150 194 245 298 374 430
#     4  12  28  48  75 109 148 192 252 306 364 444
#     4  11  24  49  77 106 155 195 242 303 367 440
#     4  11  24  47  76 113 145 198 245 302 370 435
#     4  12  25  48  74 107 149 197 240 306 369 433
#
# _framework density 26.274698999999998
#
# number of rings (size 3 to 8) (size 9 to 14) (size 15 to 20)
#    0.000    0.571    5.714    2.143    0.000    6.857 
#    0.000    2.857    0.000    0.000    0.000    0.000 
#    0.000    0.000    0.000    0.000    0.000    0.000 
#
# Total GULP energy -78610.880042 kJ/mol
# GULP energy per Si atom -5615.062860 kJ/mol
# Density = 2.621490 g / cm^3
# Si number density = 26.274699 Si / 1000 Ang^3
#
#
#
# Elastic Constant Matrix: (Units=GPa)
#
#
# Indices 1 2 3 4 5 6 
#
# 1 84.2749 19.5704 31.4282 -2.0127 -25.0973 4.6950
# 2 19.5704 134.2893 62.9055 -19.7247 -20.4906 -8.6755
# 3 31.4282 62.9055 156.7510 -24.7027 -13.5881 6.7743
# 4 -2.0127 -19.7247 -24.7027 51.2298 -1.2289 -7.8025
# 5 -25.0973 -20.4906 -13.5881 -1.2289 44.5106 -2.6171
# 6 4.6950 -8.6755 6.7743 -7.8025 -2.6171 37.3529
#
#
#
# Elastic Compliance Matrix: (Units=1/GPa)
#
#
# Indices 1 2 3 4 5 6 
#
# 1 0.015101 -0.000065 -0.002377 -0.000555 0.007681 -0.001060
# 2 -0.000065 0.010413 -0.003516 0.003012 0.004000 0.003974
# 3 -0.002377 -0.003516 0.008701 0.002498 -0.000328 -0.001597
# 4 -0.000555 0.003012 0.002498 0.022730 0.002773 0.005259
# 5 0.007681 0.004000 -0.000328 0.002773 0.028770 0.002618
# 6 -0.001060 0.003974 -0.001597 0.005259 0.002618 0.029399
#
#
# Mechanical properties :
#
#
# Convention : Reuss Voigt Hill
#
# Bulk Modulus (GPa) = 44.84661 67.01372 55.93016
# Shear Modulus (GPa) = 37.18495 44.04605 40.61550
#
# Velocity S-wave (km/s) = 3.76605 4.09879 3.93594
# Velocity P-wave (km/s) = 6.00135 6.92535 6.47984
#
# Compressibility (1/GPa) = 0.02229823
#
# Stress axis : x y z
#
# Youngs Moduli (GPa) = 66.22111 96.03749 114.92436
#
# Poissons Ratio (x) = 0.00624 0.27323
# Poissons Ratio (y) = 0.00430 0.40406
# Poissons Ratio (z) = 0.15744 0.33765
#
# Static dielectric constant tensor:
#      x y z
#    x 2.117510 0.009650 -0.035290 
#    y 0.009650 2.053830 -0.029230 
#    z -0.035290 -0.029230 2.030970 
# 
# From -- ./inp_files/348629.got.cif
#   From: 2010.05.17/outbox.cif.g08.bks.cpg/sg2_175_cif.got.tgz:348629.got - 2010.06.03 11:33:40.
