data_PCOD9065121
_publ_section_title
;
Structure prediction by ZEFSAII (Michael W. Deem and Ramdas Pophale) SiO2 
 PCOD9065121
Probable space group: P -1
;
_chemical_formula_sum "Si O2"
_cell_formula_units_Z 14
_cell_length_a 13.129270
_cell_length_b 8.509268
_cell_length_c 16.919298
_cell_angle_alpha 120.614978
_cell_angle_beta 21.416539
_cell_angle_gamma 121.819673
_cell_volume 585.444312
_symmetry_space_group_name_H-M "P -1"
_symmetry_group_IT_number 2
_symmetry_cell_setting 'triclinic'
loop_
_space_group_symop_operation_xyz
x,y,z
-x,-y,-z
loop_
_atom_site_type_symbol
_atom_site_label
_atom_site_fract_x
_atom_site_fract_y
_atom_site_fract_z
Si Si1 0.807818 0.098373 0.278735
Si Si2 0.272244 0.823179 0.228242
Si Si3 0.167172 0.911866 0.144952
Si Si4 0.741042 0.096869 0.146829
Si Si5 0.289627 0.600824 0.861408
Si Si6 0.216748 0.851779 0.454600
Si Si7 0.130238 0.558337 0.564883
O O1 0.820368 0.157530 0.192930
O O2 0.891684 0.280825 0.315657
O O3 0.500000 0.000000 0.500000
O O4 0.992986 0.934521 0.104968
O O5 0.210132 0.888622 0.201912
O O6 0.154169 0.875545 0.413083
O O7 0.130682 0.607598 0.275667
O O8 0.601244 0.922534 0.017362
O O9 0.199669 0.719535 0.030635
O O10 0.880495 0.995668 0.377932
O O11 0.583721 0.241544 0.253163
O O12 0.552527 0.894760 0.232509
O O13 0.555251 0.500024 0.666608
O O14 0.000000 0.500000 0.000000
O O15 0.107079 0.653856 0.520874
#
# Coordination Sequence:
#
# PCOD9065121 Si02
#       7
#     2   2   2   2   2   2   2
#     4  11  24  47  72 104 143 194 240 302 364 430
#     4  11  27  49  75 108 148 192 252 294 365 434
#     4  11  27  50  77 102 149 202 239 298 367 438
#     4  11  25  45  76  99 147 195 243 292 369 441
#     4  12  28  47  72 112 145 189 246 301 367 432
#     4  12  25  49  76 108 148 194 245 297 368 435
#     4  12  28  45  75 111 152 186 247 310 361 427
#
# _framework density 23.913460000000001
#
# number of rings (size 3 to 8) (size 9 to 14) (size 15 to 20)
#    0.000    0.571    2.857    3.429   10.000    1.143 
#    0.000    0.000    0.000    0.000    0.000    0.000 
#    0.000    0.000    0.000    0.000    0.000    0.000 
#
# Total GULP energy -78075.236738 kJ/mol
# GULP energy per Si atom -5576.802624 kJ/mol
# Density = 2.385903 g / cm^3
# Si number density = 23.913460 Si / 1000 Ang^3
#
#
#
# Elastic Constant Matrix: (Units=GPa)
#
#
# Indices 1 2 3 4 5 6 
#
# 1 122.7346 38.6230 48.4307 23.6505 34.2860 5.3630
# 2 38.6230 114.5128 61.6973 -14.0427 24.2680 20.0212
# 3 48.4307 61.6973 111.9026 8.4009 31.9812 1.6839
# 4 23.6505 -14.0427 8.4009 49.7128 -0.1959 3.6178
# 5 34.2860 24.2680 31.9812 -0.1959 31.8271 2.3548
# 6 5.3630 20.0212 1.6839 3.6178 2.3548 52.7482
#
#
#
# Elastic Compliance Matrix: (Units=1/GPa)
#
#
# Indices 1 2 3 4 5 6 
#
# 1 0.014251 -0.003026 -0.000245 -0.007703 -0.012906 0.000812
# 2 -0.003026 0.016171 -0.007925 0.007787 -0.000608 -0.006084
# 3 -0.000245 -0.007925 0.016882 -0.005262 -0.010937 0.003343
# 4 -0.007703 0.007787 -0.005262 0.027209 0.008128 -0.004234
# 5 -0.012906 -0.000608 -0.010937 0.008128 0.056916 -0.001206
# 6 0.000812 -0.006084 0.003343 -0.004234 -0.001206 0.021422
#
#
# Mechanical properties :
#
#
# Convention : Reuss Voigt Hill
#
# Bulk Modulus (GPa) = 40.14166 71.85024 55.99595
# Shear Modulus (GPa) = 27.24088 40.21755 33.72921
#
# Velocity S-wave (km/s) = 3.37878 4.10542 3.75970
# Velocity P-wave (km/s) = 5.66076 7.25147 6.50492
#
# Compressibility (1/GPa) = 0.02491178
#
# Stress axis : x y z
#
# Youngs Moduli (GPa) = 70.17236 61.83922 59.23364
#
# Poissons Ratio (x) = 0.18714 0.01449
# Poissons Ratio (y) = 0.21236 0.46944
# Poissons Ratio (z) = 0.01716 0.49009
#
# Static dielectric constant tensor:
#      x y z
#    x 2.015830 -0.012170 -0.050150 
#    y -0.012170 1.894380 -0.009370 
#    z -0.050150 -0.009370 1.934360 
# 
# From -- ./inp_files/572893.got.cif
#   From: 2010.05.17/outbox.cif.g08.bks.cpg/sg2_287_cif.got.tgz:572893.got - 2010.06.03 11:33:40.
