data_PCOD9065651
_publ_section_title
;
Structure prediction by ZEFSAII (Michael W. Deem and Ramdas Pophale) SiO2 
 PCOD9065651
Probable space group: P -1
;
_chemical_formula_sum "Si O2"
_cell_formula_units_Z 16
_cell_length_a 6.788416
_cell_length_b 17.754476
_cell_length_c 14.742785
_cell_angle_alpha 28.528388
_cell_angle_beta 112.840359
_cell_angle_gamma 103.366022
_cell_volume 757.327561
_symmetry_space_group_name_H-M "P -1"
_symmetry_group_IT_number 2
_symmetry_cell_setting 'triclinic'
loop_
_space_group_symop_operation_xyz
x,y,z
-x,-y,-z
loop_
_atom_site_type_symbol
_atom_site_label
_atom_site_fract_x
_atom_site_fract_y
_atom_site_fract_z
Si Si1 0.736431 0.871743 0.180179
Si Si2 0.721900 0.504886 0.588953
Si Si3 0.553737 0.381505 0.864897
Si Si4 0.640983 0.369629 0.283240
Si Si5 0.059089 0.982131 0.258948
Si Si6 0.847877 0.749251 0.132499
Si Si7 0.943646 0.134588 0.268964
Si Si8 0.817823 0.586764 0.949156
O O1 0.725081 0.692506 0.400320
O O2 0.840431 0.836888 0.135292
O O3 0.882286 0.945900 0.195892
O O4 0.500000 0.000000 0.000000
O O5 0.500000 0.500000 0.500000
O O6 0.710795 0.426633 0.768607
O O7 0.935258 0.398153 0.687476
O O8 0.428530 0.538475 0.732169
O O9 0.372750 0.311926 0.854079
O O10 0.699323 0.256644 0.095496
O O11 0.762354 0.184902 0.517085
O O12 0.420394 0.375300 0.180895
O O13 0.795566 0.465124 0.155496
O O14 0.957335 0.043936 0.271818
O O15 0.154380 0.121063 0.083869
O O16 0.112031 0.251260 0.179271
O O17 0.000000 0.000000 0.500000
O O18 0.000000 0.500000 0.000000
#
# Coordination Sequence:
#
# PCOD9065651 Si02
#       8
#     2   2   2   2   2   2   2   2
#     4  12  27  47  76 107 151 190 245 302 367 439
#     4  12  26  48  77 104 147 197 244 297 366 434
#     4  12  26  47  73 109 143 195 246 295 366 440
#     4  11  27  43  75 105 138 193 241 297 364 428
#     4  12  27  45  71 109 145 188 242 299 363 431
#     4  12  26  49  72 107 150 192 244 302 365 440
#     4  12  27  47  76 104 150 191 242 305 362 433
#     4  11  24  50  71 103 145 187 245 300 362 429
#
# _framework density 21.126919999999998
#
# number of rings (size 3 to 8) (size 9 to 14) (size 15 to 20)
#    0.000    0.250    3.750    4.500    8.750    1.500 
#    0.000    0.000    0.000    0.000    0.000    0.000 
#    0.000    0.000    0.000    0.000    0.000    0.000 
#
# Total GULP energy -89609.431660 kJ/mol
# GULP energy per Si atom -5600.589479 kJ/mol
# Density = 2.107883 g / cm^3
# Si number density = 21.126920 Si / 1000 Ang^3
#
#
#
# Elastic Constant Matrix: (Units=GPa)
#
#
# Indices 1 2 3 4 5 6 
#
# 1 95.4503 15.7406 39.2933 -7.0692 1.2292 -4.6114
# 2 15.7406 74.3988 -6.3630 -15.5096 -1.8117 -0.8878
# 3 39.2933 -6.3630 124.6565 -13.9535 2.9789 -4.2712
# 4 -7.0692 -15.5096 -13.9535 35.4898 -7.1151 5.7389
# 5 1.2292 -1.8117 2.9789 -7.1151 30.4914 -1.8271
# 6 -4.6114 -0.8878 -4.2712 5.7389 -1.8271 31.0031
#
#
#
# Elastic Compliance Matrix: (Units=1/GPa)
#
#
# Indices 1 2 3 4 5 6 
#
# 1 0.012756 -0.003227 -0.004222 -0.000829 -0.000406 0.001353
# 2 -0.003227 0.016098 0.002651 0.008131 0.002665 -0.001002
# 3 -0.004222 0.002651 0.009963 0.004299 0.000360 0.000046
# 4 -0.000829 0.008131 0.004299 0.035762 0.008116 -0.005440
# 5 -0.000406 0.002665 0.000360 0.008116 0.034866 0.000618
# 6 0.001353 -0.001002 0.000046 -0.005440 0.000618 0.033477
#
#
# Mechanical properties :
#
#
# Convention : Reuss Voigt Hill
#
# Bulk Modulus (GPa) = 34.22193 43.53861 38.88027
# Shear Modulus (GPa) = 30.81486 35.78583 33.30035
#
# Velocity S-wave (km/s) = 3.82325 4.12011 3.97445
# Velocity P-wave (km/s) = 5.97688 6.57925 6.28529
#
# Compressibility (1/GPa) = 0.02922103
#
# Stress axis : x y z
#
# Youngs Moduli (GPa) = 78.39381 62.11772 100.37638
#
# Poissons Ratio (x) = 0.20043 0.42383
# Poissons Ratio (y) = 0.25295 -0.26609
# Poissons Ratio (z) = 0.33101 -0.16467
#
# Static dielectric constant tensor:
#      x y z
#    x 1.852920 0.090570 -0.109830 
#    y 0.090570 1.823660 -0.092330 
#    z -0.109830 -0.092330 1.861910 
# 
# From -- ./inp_files/49410.got.cif
#   From: 2010.05.17/outbox.cif.g08.bks.cpg/sg2_25_cif.got.tgz:49410.got - 2010.06.03 11:33:40.
