data_PCOD9065645
_publ_section_title
;
Structure prediction by ZEFSAII (Michael W. Deem and Ramdas Pophale) SiO2 
 PCOD9065645
Probable space group: P -1
;
_chemical_formula_sum "Si O2"
_cell_formula_units_Z 14
_cell_length_a 6.676178
_cell_length_b 17.561912
_cell_length_c 8.727352
_cell_angle_alpha 129.924882
_cell_angle_beta 58.099850
_cell_angle_gamma 120.742358
_cell_volume 642.523708
_symmetry_space_group_name_H-M "P -1"
_symmetry_group_IT_number 2
_symmetry_cell_setting 'triclinic'
loop_
_space_group_symop_operation_xyz
x,y,z
-x,-y,-z
loop_
_atom_site_type_symbol
_atom_site_label
_atom_site_fract_x
_atom_site_fract_y
_atom_site_fract_z
Si Si1 0.760261 0.102712 0.707835
Si Si2 0.459564 0.570532 0.469612
Si Si3 0.316584 0.128709 0.453286
Si Si4 0.062439 0.393519 0.876212
Si Si5 0.701042 0.232429 0.188578
Si Si6 0.445222 0.752435 0.200016
Si Si7 0.175234 0.375846 0.169296
O O1 0.553929 0.141177 0.749307
O O2 0.030002 0.126013 0.551007
O O3 0.683671 0.983076 0.626499
O O4 0.785381 0.168340 0.938576
O O5 0.500000 0.500000 0.500000
O O6 0.691458 0.606725 0.312291
O O7 0.402179 0.671460 0.692765
O O8 0.254642 0.491447 0.349755
O O9 0.487754 0.156797 0.272630
O O10 0.449488 0.214819 0.632900
O O11 0.835664 0.308350 0.788178
O O12 0.100289 0.381566 0.027677
O O13 0.000000 0.500000 0.000000
O O14 0.952896 0.298169 0.249746
O O15 0.602276 0.677248 0.979159
#
# Coordination Sequence:
#
# PCOD9065645 Si02
#       7
#     2   2   2   2   2   2   2
#     4  11  24  50  70 100 137 178 234 292 349 409
#     4  12  26  42  67 106 141 184 231 278 341 419
#     4  11  26  45  75 100 132 183 233 291 351 407
#     4  12  25  43  71  99 141 190 231 276 342 414
#     4  12  24  45  69 100 141 178 227 283 347 405
#     4  12  22  45  71 100 138 180 230 283 353 407
#     4  12  25  45  67 101 145 183 222 286 342 414
#
# _framework density 21.789079999999998
#
# number of rings (size 3 to 8) (size 9 to 14) (size 15 to 20)
#    0.000    0.286    4.286    5.143    4.000    0.000 
#    2.571    0.714    0.000    0.000    0.000    0.000 
#    0.000    0.000    0.000    0.000    0.000    0.000 
#
# Total GULP energy -78239.777253 kJ/mol
# GULP energy per Si atom -5588.555518 kJ/mol
# Density = 2.173949 g / cm^3
# Si number density = 21.789080 Si / 1000 Ang^3
#
#
#
# Elastic Constant Matrix: (Units=GPa)
#
#
# Indices 1 2 3 4 5 6 
#
# 1 79.5439 38.5958 15.3906 -1.7792 -11.9683 1.1224
# 2 38.5958 116.9705 36.4336 -8.5468 -16.1405 11.9472
# 3 15.3906 36.4336 63.4965 6.5397 -14.2885 9.3493
# 4 -1.7792 -8.5468 6.5397 44.5457 2.1840 -9.5296
# 5 -11.9683 -16.1405 -14.2885 2.1840 41.3822 6.1303
# 6 1.1224 11.9472 9.3493 -9.5296 6.1303 37.7785
#
#
#
# Elastic Compliance Matrix: (Units=1/GPa)
#
#
# Indices 1 2 3 4 5 6 
#
# 1 0.015262 -0.004608 -0.000637 -0.000131 0.002291 0.000757
# 2 -0.004608 0.012445 -0.005576 0.002491 0.001773 -0.002078
# 3 -0.000637 -0.005576 0.022109 -0.006000 0.006519 -0.006261
# 4 -0.000131 0.002491 -0.006000 0.025641 -0.003641 0.007760
# 5 0.002291 0.001773 0.006519 -0.003641 0.029131 -0.007887
# 6 0.000757 -0.002078 -0.006261 0.007760 -0.007887 0.031892
#
#
# Mechanical properties :
#
#
# Convention : Reuss Voigt Hill
#
# Bulk Modulus (GPa) = 35.49322 48.98340 42.23831
# Shear Modulus (GPa) = 29.84837 36.04736 32.94787
#
# Velocity S-wave (km/s) = 3.70520 4.07182 3.89283
# Velocity P-wave (km/s) = 5.88468 6.68100 6.29545
#
# Compressibility (1/GPa) = 0.02817439
#
# Stress axis : x y z
#
# Youngs Moduli (GPa) = 65.52197 80.35239 45.22960
#
# Poissons Ratio (x) = 0.37027 0.02883
# Poissons Ratio (y) = 0.30193 0.25218
# Poissons Ratio (z) = 0.04177 0.44801
#
# Static dielectric constant tensor:
#      x y z
#    x 1.844070 -0.004890 -0.006380 
#    y -0.004890 1.841250 0.001720 
#    z -0.006380 0.001720 1.808230 
# 
# From -- ./inp_files/38329.got.cif
#   From: 2010.05.17/outbox.cif.g08.bks.cpg/sg2_20_cif.got.tgz:38329.got - 2010.06.03 11:33:40.
