data_PCOD9065483
_publ_section_title
;
Structure prediction by ZEFSAII (Michael W. Deem and Ramdas Pophale) SiO2 
 PCOD9065483
Probable space group: P -1
;
_chemical_formula_sum "Si O2"
_cell_formula_units_Z 13
_cell_length_a 9.246471
_cell_length_b 20.208820
_cell_length_c 6.732544
_cell_angle_alpha 56.283010
_cell_angle_beta 104.681808
_cell_angle_gamma 144.911372
_cell_volume 545.940994
_symmetry_space_group_name_H-M "P -1"
_symmetry_group_IT_number 2
_symmetry_cell_setting 'triclinic'
loop_
_space_group_symop_operation_xyz
x,y,z
-x,-y,-z
loop_
_atom_site_type_symbol
_atom_site_label
_atom_site_fract_x
_atom_site_fract_y
_atom_site_fract_z
Si Si1 0.750798 0.384812 0.261867
Si Si2 0.500000 0.000000 0.000000
Si Si3 0.209539 0.336835 0.251482
Si Si4 0.296199 0.160870 0.154763
Si Si5 0.030554 0.681331 0.468197
Si Si6 0.439964 0.610922 0.447799
Si Si7 0.825311 0.051605 0.341588
O O1 0.471686 0.265586 0.235680
O O2 0.782416 0.313271 0.492441
O O3 0.744505 0.444664 0.336826
O O4 0.000000 0.500000 0.000000
O O5 0.185159 0.823169 0.183183
O O6 0.572100 0.978598 0.261325
O O7 0.295761 0.315070 0.493694
O O8 0.038827 0.329744 0.309744
O O9 0.026956 0.207372 0.247299
O O10 0.500000 0.500000 0.000000
O O11 0.002485 0.074134 0.216957
O O12 0.266922 0.052726 0.344725
O O13 0.459433 0.268145 0.844871
O O14 0.740634 0.527917 0.519891
#
# Coordination Sequence:
#
# PCOD9065483 Si02
#       7
#     2   1   2   2   2   2   2
#     4  12  24  47  73 109 142 190 251 307 362 435
#     4  12  26  46  68 104 156 192 240 300 378 432
#     4  12  25  47  74 107 146 197 245 301 373 443
#     4  11  24  48  76 106 149 189 255 302 366 438
#     4  12  26  43  69 110 147 190 240 306 365 437
#     4  12  25  47  79 104 143 198 249 304 368 435
#     4  11  25  48  73 109 149 198 242 309 364 446
#
# _framework density 23.812097999999999
#
# number of rings (size 3 to 8) (size 9 to 14) (size 15 to 20)
#    0.000    0.308    4.615    4.615    0.000    2.462 
#    0.000    0.000    0.000    0.000    0.000    0.000 
#    0.000    0.000    0.000    0.000    0.000    0.000 
#
# Total GULP energy -72559.309422 kJ/mol
# GULP energy per Si atom -5581.485340 kJ/mol
# Density = 2.375790 g / cm^3
# Si number density = 23.812098 Si / 1000 Ang^3
#
#
#
# Elastic Constant Matrix: (Units=GPa)
#
#
# Indices 1 2 3 4 5 6 
#
# 1 79.6504 24.0395 17.7754 11.8045 2.4411 -3.2779
# 2 24.0395 119.0531 44.3996 -7.0578 17.0630 4.1753
# 3 17.7754 44.3996 126.2255 -18.9547 1.4523 -1.8352
# 4 11.8045 -7.0578 -18.9547 40.5906 12.6452 10.0674
# 5 2.4411 17.0630 1.4523 12.6452 29.2943 7.0455
# 6 -3.2779 4.1753 -1.8352 10.0674 7.0455 33.3327
#
#
#
# Elastic Compliance Matrix: (Units=1/GPa)
#
#
# Indices 1 2 3 4 5 6 
#
# 1 0.015266 -0.003359 -0.002150 -0.007947 0.003382 0.003489
# 2 -0.003359 0.011602 -0.002862 0.004524 -0.007895 -0.001639
# 3 -0.002150 -0.002862 0.010011 0.005207 -0.000725 -0.000721
# 4 -0.007947 0.004524 0.005207 0.037443 -0.016244 -0.008937
# 5 0.003382 -0.007895 -0.000725 -0.016244 0.046370 -0.003613
# 6 0.003489 -0.001639 -0.000721 -0.008937 -0.003613 0.033972
#
#
# Mechanical properties :
#
#
# Convention : Reuss Voigt Hill
#
# Bulk Modulus (GPa) = 49.65532 55.26200 52.45866
# Shear Modulus (GPa) = 28.07125 36.55782 32.31454
#
# Velocity S-wave (km/s) = 3.43719 3.92249 3.68783
# Velocity P-wave (km/s) = 6.05397 6.61608 6.34126
#
# Compressibility (1/GPa) = 0.02013883
#
# Stress axis : x y z
#
# Youngs Moduli (GPa) = 65.50483 86.18989 99.88526
#
# Poissons Ratio (x) = 0.28951 0.21473
# Poissons Ratio (y) = 0.22003 0.28585
# Poissons Ratio (z) = 0.14082 0.24665
#
# Static dielectric constant tensor:
#      x y z
#    x 1.919350 -0.013950 0.059630 
#    y -0.013950 1.843630 -0.007410 
#    z 0.059630 -0.007410 1.897050 
# 
# From -- ./inp_files/46743.got.cif
#   From: 2010.05.17/outbox.cif.g08.bks.cpg/sg2_24_cif.got.tgz:46743.got - 2010.06.03 11:33:40.
