data_PCOD9065841
_publ_section_title
;
Structure prediction by ZEFSAII (Michael W. Deem and Ramdas Pophale) SiO2 
 PCOD9065841
Probable space group: P -1
;
_chemical_formula_sum "Si O2"
_cell_formula_units_Z 12
_cell_length_a 9.874478
_cell_length_b 15.655593
_cell_length_c 10.162077
_cell_angle_alpha 154.361721
_cell_angle_beta 124.744852
_cell_angle_gamma 61.743744
_cell_volume 554.922340
_symmetry_space_group_name_H-M "P -1"
_symmetry_group_IT_number 2
_symmetry_cell_setting 'triclinic'
loop_
_space_group_symop_operation_xyz
x,y,z
-x,-y,-z
loop_
_atom_site_type_symbol
_atom_site_label
_atom_site_fract_x
_atom_site_fract_y
_atom_site_fract_z
Si Si1 0.749146 0.337332 0.200913
Si Si2 0.435440 0.327020 0.826523
Si Si3 0.271920 0.000111 0.803142
Si Si4 0.599974 0.039829 0.898374
Si Si5 0.144683 0.558585 0.057994
Si Si6 0.984021 0.719179 0.932654
O O1 0.836440 0.559919 0.575943
O O2 0.878321 0.233936 0.038400
O O3 0.574789 0.325403 0.012720
O O4 0.714864 0.229072 0.170148
O O5 0.414719 0.122529 0.450568
O O6 0.500000 0.500000 0.000000
O O7 0.263351 0.386657 0.869810
O O8 0.251423 0.762891 0.445353
O O9 0.417694 0.087004 0.906740
O O10 0.325289 0.043463 0.043475
O O11 0.102194 0.090694 0.808570
O O12 0.000000 0.500000 0.000000
O O13 0.069386 0.612867 0.951227
#
# Coordination Sequence:
#
# PCOD9065841 Si02
#       6
#     2   2   2   2   2   2
#     4  11  25  43  70  99 128 179 222 267 330 390
#     4  12  23  46  70  94 137 174 218 270 328 398
#     4  11  25  44  67  98 137 169 221 277 324 387
#     4  11  25  43  70  99 128 179 222 267 330 390
#     4  12  27  44  68 102 133 174 218 273 334 386
#     4  11  25  44  67  98 137 169 221 277 324 387
#
# _framework density 21.624649000000002
#
# number of rings (size 3 to 8) (size 9 to 14) (size 15 to 20)
#    0.000    0.667    3.333    3.000    9.333    1.333 
#    0.000    0.000    0.000    0.000    0.000    0.000 
#    0.000    0.000    0.000    0.000    0.000    0.000 
#
# Total GULP energy -67176.056573 kJ/mol
# GULP energy per Si atom -5598.004714 kJ/mol
# Density = 2.157543 g / cm^3
# Si number density = 21.624649 Si / 1000 Ang^3
#
#
#
# Elastic Constant Matrix: (Units=GPa)
#
#
# Indices 1 2 3 4 5 6 
#
# 1 171.6916 57.0072 0.1397 2.1009 -2.5585 14.4718
# 2 57.0072 55.6282 17.5547 -4.4304 -5.8209 -10.0161
# 3 0.1397 17.5547 43.2210 -27.2300 -5.3134 -4.4337
# 4 2.1009 -4.4304 -27.2300 30.4677 1.0293 8.7838
# 5 -2.5585 -5.8209 -5.3134 1.0293 19.8459 8.3501
# 6 14.4718 -10.0161 -4.4337 8.7838 8.3501 39.7983
#
#
#
# Elastic Compliance Matrix: (Units=1/GPa)
#
#
# Indices 1 2 3 4 5 6 
#
# 1 0.012776 -0.018366 0.014933 0.012926 0.004374 -0.011375
# 2 -0.018366 0.050341 -0.040101 -0.033874 -0.006568 0.023735
# 3 0.014933 -0.040101 0.090390 0.081251 0.021924 -0.027985
# 4 0.012926 -0.033874 0.081251 0.108292 0.021586 -0.032603
# 5 0.004374 -0.006568 0.021924 0.021586 0.061551 -0.018479
# 6 -0.011375 0.023735 -0.027985 -0.032603 -0.018479 0.043192
#
#
# Mechanical properties :
#
#
# Convention : Reuss Voigt Hill
#
# Bulk Modulus (GPa) = 15.05147 46.66044 30.85595
# Shear Modulus (GPa) = 10.50955 31.07833 20.79394
#
# Velocity S-wave (km/s) = 2.20693 3.79512 3.10431
# Velocity P-wave (km/s) = 3.67008 6.38969 5.21045
#
# Compressibility (1/GPa) = 0.06643870
#
# Stress axis : x y z
#
# Youngs Moduli (GPa) = 78.27022 19.86445 11.06312
#
# Poissons Ratio (x) = 0.36484 -0.16520
# Poissons Ratio (y) = 1.43753 0.44364
# Poissons Ratio (z) = -1.16878 0.79658
#
# Static dielectric constant tensor:
#      x y z
#    x 1.771010 -0.026960 -0.014860 
#    y -0.026960 1.776020 -0.004600 
#    z -0.014860 -0.004600 1.803450 
# 
# From -- ./inp_files/147727.got.cif
#   From: 2010.05.17/outbox.cif.g08.bks.cpg/sg2_74_cif.got.tgz:147727.got - 2010.06.03 11:33:40.
