data_PCOD9065479
_publ_section_title
;
Structure prediction by ZEFSAII (Michael W. Deem and Ramdas Pophale) SiO2 
 PCOD9065479
Probable space group: P -1
;
_chemical_formula_sum "Si O2"
_cell_formula_units_Z 11
_cell_length_a 12.160332
_cell_length_b 15.908269
_cell_length_c 6.512997
_cell_angle_alpha 62.246878
_cell_angle_beta 49.213877
_cell_angle_gamma 26.879047
_cell_volume 405.321802
_symmetry_space_group_name_H-M "P -1"
_symmetry_group_IT_number 2
_symmetry_cell_setting 'triclinic'
loop_
_space_group_symop_operation_xyz
x,y,z
-x,-y,-z
loop_
_atom_site_type_symbol
_atom_site_label
_atom_site_fract_x
_atom_site_fract_y
_atom_site_fract_z
Si Si1 0.579963 0.056267 0.572216
Si Si2 0.923407 0.723643 0.780764
Si Si3 0.301884 0.293193 0.251480
Si Si4 0.500000 0.500000 0.000000
Si Si5 0.739307 0.176288 0.281584
Si Si6 0.474534 0.643620 0.271107
O O1 0.501901 0.112967 0.364329
O O2 0.582403 0.163967 0.522557
O O3 0.889119 0.829811 0.535133
O O4 0.329057 0.133894 0.894396
O O5 0.829122 0.687953 0.801625
O O6 0.228003 0.536876 0.745234
O O7 0.000000 0.500000 0.500000
O O8 0.491987 0.274824 0.975259
O O9 0.546699 0.365982 0.185155
O O10 0.492691 0.550437 0.189325
O O11 0.796776 0.190245 0.420252
O O12 0.000000 0.000000 0.000000
#
# Coordination Sequence:
#
# PCOD9065479 Si02
#       6
#     2   2   2   1   2   2
#     4  11  24  48  75 124 159 204 267 336 416 491
#     4  11  25  45  81 119 161 203 264 346 418 482
#     4  12  22  43  79 115 159 201 258 336 415 487
#     4  12  30  56  78 112 162 228 280 332 400 486
#     4  12  29  53  79 116 165 219 278 335 399 495
#     4  12  26  51  82 115 164 217 275 336 410 485
#
# _framework density 27.138930999999999
#
# number of rings (size 3 to 8) (size 9 to 14) (size 15 to 20)
#    0.000    0.364    5.455    2.727    2.545    0.727 
#    9.818    0.000    0.000    0.000    0.000    0.000 
#    0.000    0.000    0.000    0.000    0.000    0.000 
#
# Total GULP energy -61387.735930 kJ/mol
# GULP energy per Si atom -5580.703266 kJ/mol
# Density = 2.707716 g / cm^3
# Si number density = 27.138931 Si / 1000 Ang^3
#
#
#
# Elastic Constant Matrix: (Units=GPa)
#
#
# Indices 1 2 3 4 5 6 
#
# 1 178.8798 65.5872 60.6362 6.7858 52.5961 14.5365
# 2 65.5872 176.6131 61.7579 -31.1307 7.2651 -7.8909
# 3 60.6362 61.7579 146.5874 -15.2721 31.3950 5.0211
# 4 6.7858 -31.1307 -15.2721 52.3122 19.0211 8.9992
# 5 52.5961 7.2651 31.3950 19.0211 60.2845 -1.5068
# 6 14.5365 -7.8909 5.0211 8.9992 -1.5068 56.5959
#
#
#
# Elastic Compliance Matrix: (Units=1/GPa)
#
#
# Indices 1 2 3 4 5 6 
#
# 1 0.009446 -0.003016 -0.000955 -0.000093 -0.007425 -0.002945
# 2 -0.003016 0.008229 -0.002235 0.003765 0.001655 0.001566
# 3 -0.000955 -0.002235 0.009730 0.003817 -0.005210 -0.001675
# 4 -0.000093 0.003765 0.003817 0.027270 -0.011075 -0.004421
# 5 -0.007425 0.001655 -0.005210 -0.011075 0.029203 0.005139
# 6 -0.002945 0.001566 -0.001675 -0.004421 0.005139 0.019632
#
#
# Mechanical properties :
#
#
# Convention : Reuss Voigt Hill
#
# Bulk Modulus (GPa) = 66.70529 97.56031 82.13280
# Shear Modulus (GPa) = 41.34925 54.77847 48.06386
#
# Velocity S-wave (km/s) = 3.90758 4.49759 4.21293
# Velocity P-wave (km/s) = 6.70757 7.93710 7.34810
#
# Compressibility (1/GPa) = 0.01499131
#
# Stress axis : x y z
#
# Youngs Moduli (GPa) = 105.86459 121.51631 102.77806
#
# Poissons Ratio (x) = 0.36654 0.09817
# Poissons Ratio (y) = 0.31933 0.22974
# Poissons Ratio (z) = 0.10112 0.27162
#
# Static dielectric constant tensor:
#      x y z
#    x 2.092820 -0.013580 0.031400 
#    y -0.013580 2.300270 0.188250 
#    z 0.031400 0.188250 2.294770 
# 
# From -- ./inp_files/75635.got.cif
#   From: 2010.05.17/outbox.cif.g08.bks.cpg/sg2_38_cif.got.tgz:75635.got - 2010.06.03 11:33:40.
