data_PCOD9065889
_publ_section_title
;
Structure prediction by ZEFSAII (Michael W. Deem and Ramdas Pophale) SiO2 
 PCOD9065889
Probable space group: P -1
;
_chemical_formula_sum "Si O2"
_cell_formula_units_Z 13
_cell_length_a 10.710944
_cell_length_b 14.238087
_cell_length_c 5.456187
_cell_angle_alpha 112.723486
_cell_angle_beta 116.346117
_cell_angle_gamma 46.762382
_cell_volume 538.894632
_symmetry_space_group_name_H-M "P -1"
_symmetry_group_IT_number 2
_symmetry_cell_setting 'triclinic'
loop_
_space_group_symop_operation_xyz
x,y,z
-x,-y,-z
loop_
_atom_site_type_symbol
_atom_site_label
_atom_site_fract_x
_atom_site_fract_y
_atom_site_fract_z
Si Si1 0.336667 0.207368 0.460819
Si Si2 0.139176 0.741139 0.339024
Si Si3 0.038471 0.101391 0.159831
Si Si4 0.000000 0.500000 0.500000
Si Si5 0.397632 0.971403 0.114546
Si Si6 0.823776 0.510744 0.939165
Si Si7 0.543078 0.246761 0.364094
O O1 0.409608 0.129587 0.698422
O O2 0.471162 0.238125 0.549182
O O3 0.138273 0.338649 0.429190
O O4 0.366343 0.106151 0.176170
O O5 0.033430 0.827884 0.571965
O O6 0.160129 0.610761 0.258447
O O7 0.324735 0.718859 0.476320
O O8 0.045977 0.807278 0.063881
O O9 0.247500 0.023361 0.242931
O O10 0.000000 0.000000 0.000000
O O11 0.840532 0.508240 0.241225
O O12 0.365536 0.892689 0.823836
O O13 0.641680 0.641361 0.820341
O O14 0.000000 0.500000 0.000000
#
# Coordination Sequence:
#
# PCOD9065889 Si02
#       7
#     2   2   2   1   2   2   2
#     4  11  25  43  74 108 152 201 261 322 390 463
#     4  12  30  49  81 115 157 207 264 326 398 468
#     4  12  26  50  78 113 156 205 258 322 392 473
#     4  12  24  50  72 110 146 210 256 322 382 474
#     4  11  25  43  73 110 152 200 260 321 390 463
#     4  12  28  48  75 109 152 207 264 324 393 468
#     4  12  25  48  74 110 154 201 257 328 393 468
#
# _framework density 24.123453000000001
#
# number of rings (size 3 to 8) (size 9 to 14) (size 15 to 20)
#    0.000    0.308    4.615    3.231    6.462    0.000 
#    0.000    2.308    0.000    0.000    0.000    0.000 
#    0.000    0.000    0.000    0.000    0.000    0.000 
#
# Total GULP energy -72466.049748 kJ/mol
# GULP energy per Si atom -5574.311519 kJ/mol
# Density = 2.406855 g / cm^3
# Si number density = 24.123453 Si / 1000 Ang^3
#
#
#
# Elastic Constant Matrix: (Units=GPa)
#
#
# Indices 1 2 3 4 5 6 
#
# 1 131.4031 44.9606 29.7752 4.8552 19.9091 10.1329
# 2 44.9606 177.5957 54.4914 7.4091 2.6543 -4.9062
# 3 29.7752 54.4914 97.8475 14.2553 9.6689 8.0231
# 4 4.8552 7.4091 14.2553 60.9166 7.4768 18.3483
# 5 19.9091 2.6543 9.6689 7.4768 44.6804 4.5966
# 6 10.1329 -4.9062 8.0231 18.3483 4.5966 26.7599
#
#
#
# Elastic Compliance Matrix: (Units=1/GPa)
#
#
# Indices 1 2 3 4 5 6 
#
# 1 0.009414 -0.002128 -0.001204 0.001426 -0.003641 -0.003946
# 2 -0.002128 0.007467 -0.003771 -0.001173 0.001114 0.003919
# 3 -0.001204 -0.003771 0.013298 -0.001480 -0.001567 -0.002939
# 4 0.001426 -0.001173 -0.001480 0.021489 -0.002335 -0.014644
# 5 -0.003641 0.001114 -0.001567 -0.002335 0.024728 -0.000594
# 6 -0.003946 0.003919 -0.002939 -0.014644 -0.000594 0.050606
#
#
# Mechanical properties :
#
#
# Convention : Reuss Voigt Hill
#
# Bulk Modulus (GPa) = 62.60721 73.92231 68.26476
# Shear Modulus (GPa) = 34.12180 44.97931 39.55055
#
# Velocity S-wave (km/s) = 3.76502 4.32272 4.05347
# Velocity P-wave (km/s) = 6.70147 7.45818 7.08993
#
# Compressibility (1/GPa) = 0.01597260
#
# Stress axis : x y z
#
# Youngs Moduli (GPa) = 106.22108 133.91882 75.19857
#
# Poissons Ratio (x) = 0.28498 0.09055
# Poissons Ratio (y) = 0.22604 0.28361
# Poissons Ratio (z) = 0.12790 0.50507
#
# Static dielectric constant tensor:
#      x y z
#    x 1.989520 0.035210 -0.095330 
#    y 0.035210 1.902780 0.029650 
#    z -0.095330 0.029650 2.058760 
# 
# From -- ./inp_files/76807.got.cif
#   From: 2010.05.17/outbox.cif.g08.bks.cpg/sg2_39_cif.got.tgz:76807.got - 2010.06.03 11:33:40.
