data_PCOD9065801
_publ_section_title
;
Structure prediction by ZEFSAII (Michael W. Deem and Ramdas Pophale) SiO2 
 PCOD9065801
Probable space group: P -1
;
_chemical_formula_sum "Si O2"
_cell_formula_units_Z 16
_cell_length_a 9.125421
_cell_length_b 16.165038
_cell_length_c 9.919850
_cell_angle_alpha 111.140198
_cell_angle_beta 133.216418
_cell_angle_gamma 104.497145
_cell_volume 678.081892
_symmetry_space_group_name_H-M "P -1"
_symmetry_group_IT_number 2
_symmetry_cell_setting 'triclinic'
loop_
_space_group_symop_operation_xyz
x,y,z
-x,-y,-z
loop_
_atom_site_type_symbol
_atom_site_label
_atom_site_fract_x
_atom_site_fract_y
_atom_site_fract_z
Si Si1 0.486763 0.513993 0.724920
Si Si2 0.236493 0.935904 0.646766
Si Si3 0.397753 0.262215 0.934839
Si Si4 0.460719 0.835969 0.839018
Si Si5 0.025095 0.384896 0.119250
Si Si6 0.471062 0.661106 0.241918
Si Si7 0.778818 0.847915 0.800705
Si Si8 0.306628 0.891885 0.200402
O O1 0.526431 0.616797 0.891204
O O2 0.776354 0.583231 0.860580
O O3 0.226179 0.444499 0.412894
O O4 0.438985 0.411792 0.724778
O O5 0.951159 0.867665 0.339088
O O6 0.287819 0.018328 0.852935
O O7 0.523671 0.037972 0.792077
O O8 0.224189 0.831326 0.634319
O O9 0.594438 0.251895 0.127707
O O10 0.422747 0.271451 0.796095
O O11 0.570660 0.813840 0.769461
O O12 0.880241 0.434005 0.036304
O O13 0.755998 0.229839 0.877821
O O14 0.604939 0.758749 0.508381
O O15 0.986482 0.833696 0.965031
O O16 0.000000 0.000000 0.000000
O O17 0.500000 0.000000 0.500000
#
# Coordination Sequence:
#
# PCOD9065801 Si02
#       8
#     2   2   2   2   2   2   2   2
#     4  11  26  48  73 102 142 188 244 300 344 430
#     4  11  25  45  71 104 148 186 231 291 362 426
#     4  12  27  46  73 105 144 189 242 289 358 424
#     4  11  25  43  67 102 143 189 226 291 352 429
#     4  11  25  46  72 104 141 186 240 294 357 416
#     4  12  27  46  73 105 145 186 238 302 352 420
#     4  12  23  42  70 105 142 184 238 286 356 422
#     4  12  23  43  72 107 146 186 233 293 357 428
#
# _framework density 23.595970999999999
#
# number of rings (size 3 to 8) (size 9 to 14) (size 15 to 20)
#    0.000    0.500    2.500    5.625    5.250    2.500 
#    0.000    0.000    0.000    0.000    0.000    0.000 
#    0.000    0.000    0.000    0.000    0.000    0.000 
#
# Total GULP energy -89635.777116 kJ/mol
# GULP energy per Si atom -5602.236070 kJ/mol
# Density = 2.354227 g / cm^3
# Si number density = 23.595971 Si / 1000 Ang^3
#
#
#
# Elastic Constant Matrix: (Units=GPa)
#
#
# Indices 1 2 3 4 5 6 
#
# 1 81.2101 9.5412 36.1054 -3.6546 -15.9952 -6.5415
# 2 9.5412 75.3423 17.5798 -18.3978 -1.5460 -5.0526
# 3 36.1054 17.5798 78.6858 -8.9267 -13.9388 -7.3430
# 4 -3.6546 -18.3978 -8.9267 36.3648 -6.7032 0.0171
# 5 -15.9952 -1.5460 -13.9388 -6.7032 35.9801 -7.0094
# 6 -6.5415 -5.0526 -7.3430 0.0171 -7.0094 40.2202
#
#
#
# Elastic Compliance Matrix: (Units=1/GPa)
#
#
# Indices 1 2 3 4 5 6 
#
# 1 0.016420 -0.000083 -0.006160 0.001129 0.005610 0.002513
# 2 -0.000083 0.015844 -0.002159 0.007775 0.001619 0.001861
# 3 -0.006160 -0.002159 0.017612 0.003571 0.005212 0.002849
# 4 0.001129 0.007775 0.003571 0.034125 0.009241 0.003408
# 5 0.005610 0.001619 0.005212 0.009241 0.035712 0.008287
# 6 0.002513 0.001861 0.002849 0.003408 0.008287 0.027469
#
#
# Mechanical properties :
#
#
# Convention : Reuss Voigt Hill
#
# Bulk Modulus (GPa) = 30.23685 40.18787 35.21236
# Shear Modulus (GPa) = 28.57008 33.98047 31.27528
#
# Velocity S-wave (km/s) = 3.48344 3.79898 3.64462
# Velocity P-wave (km/s) = 5.38714 6.02591 5.71546
#
# Compressibility (1/GPa) = 0.03307223
#
# Stress axis : x y z
#
# Youngs Moduli (GPa) = 60.90084 63.11684 56.77968
#
# Poissons Ratio (x) = 0.00523 0.34974
# Poissons Ratio (y) = 0.00504 0.12260
# Poissons Ratio (z) = 0.37513 0.13629
#
# Static dielectric constant tensor:
#      x y z
#    x 1.869380 0.129290 0.035130 
#    y 0.129290 1.652240 0.009240 
#    z 0.035130 0.009240 1.845280 
# 
# From -- ./inp_files/208542.got.cif
#   From: 2010.05.17/outbox.cif.g08.bks.cpg/sg2_105_cif.got.tgz:208542.got - 2010.06.03 11:33:40.
