data_PCOD9065377
_publ_section_title
;
Structure prediction by ZEFSAII (Michael W. Deem and Ramdas Pophale) SiO2 
 PCOD9065377
Probable space group: P -1
;
_chemical_formula_sum "Si O2"
_cell_formula_units_Z 14
_cell_length_a 8.942276
_cell_length_b 16.727163
_cell_length_c 6.693609
_cell_angle_alpha 121.883306
_cell_angle_beta 121.183018
_cell_angle_gamma 45.663632
_cell_volume 589.587293
_symmetry_space_group_name_H-M "P -1"
_symmetry_group_IT_number 2
_symmetry_cell_setting 'triclinic'
loop_
_space_group_symop_operation_xyz
x,y,z
-x,-y,-z
loop_
_atom_site_type_symbol
_atom_site_label
_atom_site_fract_x
_atom_site_fract_y
_atom_site_fract_z
Si Si1 0.194987 0.903913 0.862836
Si Si2 0.975485 0.794535 0.389545
Si Si3 0.043436 0.412768 0.739849
Si Si4 0.623556 0.494213 0.378224
Si Si5 0.736935 0.306423 0.891837
Si Si6 0.500316 0.212051 0.730748
Si Si7 0.373815 0.972660 0.727910
O O1 0.226508 0.954766 0.749683
O O2 0.141556 0.813750 0.637792
O O3 0.418344 0.840924 0.061544
O O4 0.000000 0.000000 0.000000
O O5 0.960698 0.697176 0.349604
O O6 0.044612 0.750695 0.151990
O O7 0.762098 0.923288 0.386837
O O8 0.291048 0.344666 0.757857
O O9 0.836273 0.488826 0.556292
O O10 0.000000 0.500000 0.000000
O O11 0.500000 0.500000 0.500000
O O12 0.447173 0.602571 0.268496
O O13 0.706587 0.378540 0.159775
O O14 0.700974 0.210180 0.791176
O O15 0.473907 0.138841 0.454107
O O16 0.500000 0.000000 0.000000
#
# Coordination Sequence:
#
# PCOD9065377 Si02
#       7
#     2   2   2   2   2   2   2
#     4  12  25  48  78 106 146 193 248 294 354 439
#     4  12  25  48  75 107 142 195 248 294 357 439
#     4  12  29  46  74 106 150 191 239 303 371 422
#     4  11  24  48  72 102 138 191 251 293 356 430
#     4  11  25  44  77 101 138 191 245 298 349 433
#     4  12  27  47  71 109 149 186 240 302 369 426
#     4  12  28  46  72 112 151 186 236 302 375 433
#
# _framework density 23.745425999999998
#
# number of rings (size 3 to 8) (size 9 to 14) (size 15 to 20)
#    0.000    0.286    4.286    3.857    8.000    2.857 
#    0.000    0.000    0.000    0.000    0.000    0.000 
#    0.000    0.000    0.000    0.000    0.000    0.000 
#
# Total GULP energy -78334.882689 kJ/mol
# GULP energy per Si atom -5595.348764 kJ/mol
# Density = 2.369138 g / cm^3
# Si number density = 23.745426 Si / 1000 Ang^3
#
#
#
# Elastic Constant Matrix: (Units=GPa)
#
#
# Indices 1 2 3 4 5 6 
#
# 1 59.4422 -2.4134 4.3651 2.5107 -9.4090 6.3815
# 2 -2.4134 63.4552 31.8199 8.5004 -8.1709 -8.7671
# 3 4.3651 31.8199 155.5543 12.8011 5.0473 -9.5347
# 4 2.5107 8.5004 12.8011 44.0307 -10.3908 -2.2140
# 5 -9.4090 -8.1709 5.0473 -10.3908 37.7205 7.6773
# 6 6.3815 -8.7671 -9.5347 -2.2140 7.6773 52.2209
#
#
#
# Elastic Compliance Matrix: (Units=1/GPa)
#
#
# Indices 1 2 3 4 5 6 
#
# 1 0.018198 0.001599 -0.001225 0.000208 0.005720 -0.003011
# 2 0.001599 0.018679 -0.003781 -0.001525 0.004212 0.001566
# 3 -0.001225 -0.003781 0.007576 -0.002037 -0.002953 0.001246
# 4 0.000208 -0.001525 -0.002037 0.025223 0.007069 -0.000623
# 5 0.005720 0.004212 -0.002953 0.007069 0.032203 -0.004966
# 6 -0.003011 0.001566 0.001246 -0.000623 -0.004966 0.020711
#
#
# Mechanical properties :
#
#
# Convention : Reuss Voigt Hill
#
# Bulk Modulus (GPa) = 26.56810 38.44390 32.50600
# Shear Modulus (GPa) = 35.22337 43.10641 39.16489
#
# Velocity S-wave (km/s) = 3.85564 4.26532 4.06564
# Velocity P-wave (km/s) = 5.57084 6.36258 5.97983
#
# Compressibility (1/GPa) = 0.03763912
#
# Stress axis : x y z
#
# Youngs Moduli (GPa) = 54.95171 53.53592 131.99110
#
# Poissons Ratio (x) = -0.08561 0.16170
# Poissons Ratio (y) = -0.08787 0.49905
# Poissons Ratio (z) = 0.06732 0.20242
#
# Static dielectric constant tensor:
#      x y z
#    x 1.948730 -0.004030 -0.001350 
#    y -0.004030 1.901300 -0.032960 
#    z -0.001350 -0.032960 1.893030 
# 
# From -- ./inp_files/49127.got.cif
#   From: 2010.05.17/outbox.cif.g08.bks.cpg/sg2_25_cif.got.tgz:49127.got - 2010.06.03 11:33:40.
