data_PCOD9065975
_publ_section_title
;
Structure prediction by ZEFSAII (Michael W. Deem and Ramdas Pophale) SiO2 
 PCOD9065975
Probable space group: P -1
;
_chemical_formula_sum "Si O2"
_cell_formula_units_Z 16
_cell_length_a 16.338206
_cell_length_b 27.126653
_cell_length_c 11.444946
_cell_angle_alpha 32.658909
_cell_angle_beta 22.969687
_cell_angle_gamma 20.293480
_cell_volume 677.689106
_symmetry_space_group_name_H-M "P -1"
_symmetry_group_IT_number 2
_symmetry_cell_setting 'triclinic'
loop_
_space_group_symop_operation_xyz
x,y,z
-x,-y,-z
loop_
_atom_site_type_symbol
_atom_site_label
_atom_site_fract_x
_atom_site_fract_y
_atom_site_fract_z
Si Si1 0.243286 0.775815 0.438044
Si Si2 0.495041 0.043785 0.550486
Si Si3 0.296354 0.924668 0.347725
Si Si4 0.078341 0.226827 0.316534
Si Si5 0.773451 0.235055 0.121252
Si Si6 0.584508 0.380422 0.840316
Si Si7 0.436746 0.444024 0.349500
Si Si8 0.347465 0.292477 0.171941
O O1 0.450470 0.678103 0.473364
O O2 0.175399 0.711782 0.574263
O O3 0.451772 0.771149 0.087643
O O4 0.876031 0.934610 0.636411
O O5 0.478641 0.158398 0.333483
O O6 0.500000 0.000000 0.500000
O O7 0.777515 0.910804 0.529787
O O8 0.147195 0.122943 0.897484
O O9 0.348043 0.824787 0.569056
O O10 0.614816 0.831477 0.034898
O O11 0.000000 0.000000 0.500000
O O12 0.853602 0.344096 0.479953
O O13 0.563449 0.377274 0.188156
O O14 0.752211 0.265116 0.953241
O O15 0.401465 0.521033 0.872985
O O16 0.404256 0.367174 0.021379
O O17 0.042583 0.587265 0.575973
#
# Coordination Sequence:
#
# PCOD9065975 Si02
#       8
#     2   2   2   2   2   2   2   2
#     4  11  26  45  70 104 142 183 235 292 353 425
#     4  12  22  43  73 102 143 182 229 294 353 416
#     4  12  24  42  70 107 137 181 234 284 365 414
#     4  11  25  44  70 106 139 182 231 298 351 414
#     4  12  25  44  72 103 143 187 234 295 349 421
#     4  11  27  47  71 106 139 189 242 287 347 424
#     4  12  25  48  69  98 152 185 239 286 352 414
#     4  11  27  44  74 106 137 195 236 288 355 414
#
# _framework density 23.609646999999999
#
# number of rings (size 3 to 8) (size 9 to 14) (size 15 to 20)
#    0.000    0.500    5.000    1.875    3.500    5.500 
#    0.000    0.000    0.000    0.000    0.000    0.000 
#    0.000    0.000    0.000    0.000    0.000    0.000 
#
# Total GULP energy -89444.567669 kJ/mol
# GULP energy per Si atom -5590.285479 kJ/mol
# Density = 2.355591 g / cm^3
# Si number density = 23.609647 Si / 1000 Ang^3
#
#
#
# Elastic Constant Matrix: (Units=GPa)
#
#
# Indices 1 2 3 4 5 6 
#
# 1 94.9680 7.3882 15.9943 5.5131 11.8021 9.8747
# 2 7.3882 62.6546 5.6494 -9.8560 3.8750 4.2925
# 3 15.9943 5.6494 94.7129 2.0697 20.7287 3.7341
# 4 5.5131 -9.8560 2.0697 35.1015 -0.0080 4.1232
# 5 11.8021 3.8750 20.7287 -0.0080 37.0574 -2.3551
# 6 9.8747 4.2925 3.7341 4.1232 -2.3551 39.7945
#
#
#
# Elastic Compliance Matrix: (Units=1/GPa)
#
#
# Indices 1 2 3 4 5 6 
#
# 1 0.011567 -0.001172 -0.001053 -0.001774 -0.003141 -0.002647
# 2 -0.001172 0.017208 -0.000591 0.005301 -0.001230 -0.002132
# 3 -0.001053 -0.000591 0.012259 -0.000590 -0.006534 -0.001151
# 4 -0.001774 0.005301 -0.000590 0.030672 0.000141 -0.003246
# 5 -0.003141 -0.001230 -0.006534 0.000141 0.031985 0.003403
# 6 -0.002647 -0.002132 -0.001151 -0.003246 0.003403 0.026662
#
#
# Mechanical properties :
#
#
# Convention : Reuss Voigt Hill
#
# Bulk Modulus (GPa) = 28.24719 34.48881 31.36800
# Shear Modulus (GPa) = 33.83259 37.27758 35.55509
#
# Velocity S-wave (km/s) = 3.78960 3.97786 3.88487
# Velocity P-wave (km/s) = 5.58018 5.97809 5.78255
#
# Compressibility (1/GPa) = 0.03540176
#
# Stress axis : x y z
#
# Youngs Moduli (GPa) = 86.45325 58.11241 81.56940
#
# Poissons Ratio (x) = 0.06813 0.08588
# Poissons Ratio (y) = 0.10136 0.04821
# Poissons Ratio (z) = 0.09102 0.03435
#
# Static dielectric constant tensor:
#      x y z
#    x 1.900150 0.070670 0.004760 
#    y 0.070670 1.941070 -0.018340 
#    z 0.004760 -0.018340 1.919550 
# 
# From -- ./inp_files/467685.got.cif
#   From: 2010.05.17/outbox.cif.g08.bks.cpg/sg2_234_cif.got.tgz:467685.got - 2010.06.03 11:33:40.
