data_PCOD9065017
_publ_section_title
;
Structure prediction by ZEFSAII (Michael W. Deem and Ramdas Pophale) SiO2 
 PCOD9065017
Probable space group: P -1
;
_chemical_formula_sum "Si O2"
_cell_formula_units_Z 11
_cell_length_a 7.260784
_cell_length_b 9.350634
_cell_length_c 12.990053
_cell_angle_alpha 31.166693
_cell_angle_beta 117.352806
_cell_angle_gamma 111.217130
_cell_volume 404.457477
_symmetry_space_group_name_H-M "P -1"
_symmetry_group_IT_number 2
_symmetry_cell_setting 'triclinic'
loop_
_space_group_symop_operation_xyz
x,y,z
-x,-y,-z
loop_
_atom_site_type_symbol
_atom_site_label
_atom_site_fract_x
_atom_site_fract_y
_atom_site_fract_z
Si Si1 0.775921 0.252196 0.197248
Si Si2 0.511796 0.822551 0.282953
Si Si3 0.000000 0.000000 0.000000
Si Si4 0.108311 0.164577 0.153879
Si Si5 0.330665 0.780549 0.582782
Si Si6 0.718314 0.765067 0.156129
O O1 0.802382 0.211762 0.351511
O O2 0.965864 0.208492 0.192296
O O3 0.614543 0.025070 0.263766
O O4 0.735178 0.586589 0.967824
O O5 0.500000 0.500000 0.500000
O O6 0.645614 0.842584 0.201079
O O7 0.291300 0.978256 0.090283
O O8 0.044477 0.307752 0.761940
O O9 0.011227 0.847539 0.975838
O O10 0.222423 0.868805 0.392929
O O11 0.419491 0.467007 0.780437
O O12 0.500000 0.000000 0.500000
#
# Coordination Sequence:
#
# PCOD9065017 Si02
#       6
#     2   2   1   2   2   2
#     4  11  24  47  68 104 137 182 229 284 343 408
#     4  11  25  45  70  98 141 183 227 284 346 404
#     4  12  24  48  70 100 138 184 234 284 334 408
#     4  11  26  46  72 100 141 184 226 288 342 401
#     4  12  26  44  72 106 137 181 229 284 348 410
#     4  11  26  44  66 105 135 182 232 281 339 411
#
# _framework density 27.196925
#
# number of rings (size 3 to 8) (size 9 to 14) (size 15 to 20)
#    0.000    0.727    3.636    2.727    5.091    5.091 
#    0.000    0.000    0.000    0.000    0.000    0.000 
#    0.000    0.000    0.000    0.000    0.000    0.000 
#
# Total GULP energy -61331.308642 kJ/mol
# GULP energy per Si atom -5575.573513 kJ/mol
# Density = 2.713502 g / cm^3
# Si number density = 27.196925 Si / 1000 Ang^3
#
#
#
# Elastic Constant Matrix: (Units=GPa)
#
#
# Indices 1 2 3 4 5 6 
#
# 1 112.0148 17.6752 39.2021 -4.2883 -41.0072 -21.3181
# 2 17.6752 176.2240 65.9238 -2.9002 -7.5147 8.6246
# 3 39.2021 65.9238 181.0082 -12.6588 -25.4058 11.3334
# 4 -4.2883 -2.9002 -12.6588 52.3791 3.0847 -11.7940
# 5 -41.0072 -7.5147 -25.4058 3.0847 41.3396 1.3294
# 6 -21.3181 8.6246 11.3334 -11.7940 1.3294 51.4478
#
#
#
# Elastic Compliance Matrix: (Units=1/GPa)
#
#
# Indices 1 2 3 4 5 6 
#
# 1 0.016511 -0.000774 -0.001537 0.001705 0.014930 0.007315
# 2 -0.000774 0.006632 -0.002348 -0.000431 -0.000942 -0.000990
# 3 -0.001537 -0.002348 0.007233 0.000968 0.002475 -0.001679
# 4 0.001705 -0.000431 0.000968 0.020600 0.000502 0.005275
# 5 0.014930 -0.000942 0.002475 0.000502 0.040156 0.004876
# 6 0.007315 -0.000990 -0.001679 0.005275 0.004876 0.024087
#
#
# Mechanical properties :
#
#
# Convention : Reuss Voigt Hill
#
# Bulk Modulus (GPa) = 47.49075 79.42770 63.45923
# Shear Modulus (GPa) = 38.00690 52.12969 45.06829
#
# Velocity S-wave (km/s) = 3.74233 4.38282 4.07518
# Velocity P-wave (km/s) = 6.01441 7.40812 6.74734
#
# Compressibility (1/GPa) = 0.02105673
#
# Stress axis : x y z
#
# Youngs Moduli (GPa) = 60.56724 150.78850 138.25750
#
# Poissons Ratio (x) = 0.11675 0.21250
# Poissons Ratio (y) = 0.04690 0.32462
# Poissons Ratio (z) = 0.09309 0.35404
#
# Static dielectric constant tensor:
#      x y z
#    x 2.343920 0.195970 0.064930 
#    y 0.195970 2.170560 -0.058050 
#    z 0.064930 -0.058050 2.242100 
# 
# From -- ./inp_files/17167.got.cif
#   From: 2010.05.17/outbox.cif.g08.bks.cpg/sg2_9_cif.got.tgz:17167.got - 2010.06.03 11:33:40.
