data_PCOD9065407
_publ_section_title
;
Structure prediction by ZEFSAII (Michael W. Deem and Ramdas Pophale) SiO2 
 PCOD9065407
Probable space group: P -1
;
_chemical_formula_sum "Si O2"
_cell_formula_units_Z 16
_cell_length_a 12.735632
_cell_length_b 15.272704
_cell_length_c 14.784745
_cell_angle_alpha 140.882903
_cell_angle_beta 125.053084
_cell_angle_gamma 26.410865
_cell_volume 728.776199
_symmetry_space_group_name_H-M "P -1"
_symmetry_group_IT_number 2
_symmetry_cell_setting 'triclinic'
loop_
_space_group_symop_operation_xyz
x,y,z
-x,-y,-z
loop_
_atom_site_type_symbol
_atom_site_label
_atom_site_fract_x
_atom_site_fract_y
_atom_site_fract_z
Si Si1 0.179952 0.958915 0.585961
Si Si2 0.208890 0.473152 0.838406
Si Si3 0.212045 0.938461 0.801789
Si Si4 0.036729 0.801102 0.863951
Si Si5 0.209344 0.632981 0.616866
Si Si6 0.257788 0.421836 0.172202
Si Si7 0.861917 0.560270 0.683967
Si Si8 0.464238 0.909170 0.135990
O O1 0.196939 0.947223 0.693484
O O2 0.475583 0.669298 0.466231
O O3 0.000000 0.000000 0.500000
O O4 0.024118 0.240684 0.701040
O O5 0.425660 0.229041 0.822354
O O6 0.251475 0.544773 0.836844
O O7 0.112104 0.423092 0.703136
O O8 0.979292 0.762096 0.015921
O O9 0.133244 0.862855 0.740968
O O10 0.508757 0.691140 0.779752
O O11 0.100663 0.691813 0.707278
O O12 0.766753 0.984689 0.909192
O O13 0.000000 0.000000 0.000000
O O14 0.108385 0.624116 0.482354
O O15 0.253974 0.326034 0.180594
O O16 0.327185 0.299340 0.009294
O O17 0.665803 0.818637 0.723807
#
# Coordination Sequence:
#
# PCOD9065407 Si02
#       8
#     2   2   2   2   2   2   2   2
#     4  12  25  39  68 105 142 174 222 288 342 402
#     4  11  25  45  71 101 135 182 231 278 329 407
#     4  12  22  45  68  99 144 174 221 290 337 400
#     4  11  24  48  72  96 135 181 230 283 331 400
#     4  12  25  46  68 101 142 180 223 281 348 396
#     4  12  22  42  70 103 138 177 227 275 345 405
#     4  11  26  42  69 101 144 178 217 287 346 400
#     4  11  25  45  70 102 136 180 232 276 330 407
#
# _framework density 21.954613999999999
#
# number of rings (size 3 to 8) (size 9 to 14) (size 15 to 20)
#    0.000    0.500    7.500    1.500    1.750    3.000 
#    4.500    1.250    0.000    0.000    0.000    0.000 
#    0.000    0.000    0.000    0.000    0.000    0.000 
#
# Total GULP energy -89465.694773 kJ/mol
# GULP energy per Si atom -5591.605923 kJ/mol
# Density = 2.190464 g / cm^3
# Si number density = 21.954614 Si / 1000 Ang^3
#
#
#
# Elastic Constant Matrix: (Units=GPa)
#
#
# Indices 1 2 3 4 5 6 
#
# 1 84.6698 8.7102 1.3947 -4.5922 2.5001 24.6514
# 2 8.7102 100.6110 4.8788 -8.9456 5.0274 31.0929
# 3 1.3947 4.8788 34.6232 -10.6962 -2.8737 -6.4374
# 4 -4.5922 -8.9456 -10.6962 27.4275 1.7587 -0.3673
# 5 2.5001 5.0274 -2.8737 1.7587 42.3838 -8.0879
# 6 24.6514 31.0929 -6.4374 -0.3673 -8.0879 39.7611
#
#
#
# Elastic Compliance Matrix: (Units=1/GPa)
#
#
# Indices 1 2 3 4 5 6 
#
# 1 0.015850 0.003571 -0.003300 0.002624 -0.004366 -0.014018
# 2 0.003571 0.015483 -0.004556 0.004014 -0.005607 -0.016163
# 3 -0.003300 -0.004556 0.036092 0.011879 0.005093 0.012598
# 4 0.002624 0.004014 0.011879 0.042941 -0.002158 -0.002885
# 5 -0.004366 -0.005607 0.005093 -0.002158 0.027527 0.013495
# 6 -0.014018 -0.016163 0.012598 -0.002885 0.013495 0.051238
#
#
# Mechanical properties :
#
#
# Convention : Reuss Voigt Hill
#
# Bulk Modulus (GPa) = 16.99054 27.76349 22.37701
# Shear Modulus (GPa) = 23.00770 35.57583 29.29176
#
# Velocity S-wave (km/s) = 3.24074 4.02982 3.65663
# Velocity P-wave (km/s) = 4.66465 5.85883 5.29551
#
# Compressibility (1/GPa) = 0.05885629
#
# Stress axis : x y z
#
# Youngs Moduli (GPa) = 63.09156 64.58646 27.70692
#
# Poissons Ratio (x) = -0.23066 0.09143
# Poissons Ratio (y) = -0.22532 0.12623
# Poissons Ratio (z) = 0.20819 0.29426
#
# Static dielectric constant tensor:
#      x y z
#    x 1.806940 0.012490 0.001030 
#    y 0.012490 1.801260 -0.005520 
#    z 0.001030 -0.005520 1.801020 
# 
# From -- ./inp_files/427879.got.cif
#   From: 2010.05.17/outbox.cif.g08.bks.cpg/sg2_214_cif.got.tgz:427879.got - 2010.06.03 11:33:40.
