data_PCOD9065086
_publ_section_title
;
Structure prediction by ZEFSAII (Michael W. Deem and Ramdas Pophale) SiO2 
 PCOD9065086
Probable space group: P -1
;
_chemical_formula_sum "Si O2"
_cell_formula_units_Z 16
_cell_length_a 22.039663
_cell_length_b 11.914377
_cell_length_c 9.241944
_cell_angle_alpha 137.653631
_cell_angle_beta 152.908109
_cell_angle_gamma 36.372553
_cell_volume 653.206210
_symmetry_space_group_name_H-M "P -1"
_symmetry_group_IT_number 2
_symmetry_cell_setting 'triclinic'
loop_
_space_group_symop_operation_xyz
x,y,z
-x,-y,-z
loop_
_atom_site_type_symbol
_atom_site_label
_atom_site_fract_x
_atom_site_fract_y
_atom_site_fract_z
Si Si1 0.151127 0.949289 0.869326
Si Si2 0.251254 0.045212 0.910917
Si Si3 0.998323 0.537571 0.202717
Si Si4 0.698633 0.480890 0.116176
Si Si5 0.038542 0.209951 0.159444
Si Si6 0.279370 0.673299 0.289234
Si Si7 0.416474 0.627915 0.808793
Si Si8 0.353210 0.021324 0.796595
O O1 0.244854 0.724215 0.882458
O O2 0.253738 0.026125 0.074408
O O3 0.000000 0.000000 0.500000
O O4 0.096755 0.051718 0.005803
O O5 0.098660 0.241289 0.755930
O O6 0.353053 0.055415 0.003666
O O7 0.274568 0.833180 0.731752
O O8 0.954232 0.407015 0.079523
O O9 0.168016 0.471304 0.543962
O O10 0.000000 0.500000 0.000000
O O11 0.669165 0.453120 0.862908
O O12 0.556522 0.641922 0.049382
O O13 0.187582 0.180378 0.535725
O O14 0.903428 0.220441 0.982496
O O15 0.359518 0.546531 0.480610
O O16 0.332180 0.834089 0.549051
O O17 0.500000 0.500000 0.000000
O O18 0.500000 0.000000 0.000000
#
# Coordination Sequence:
#
# PCOD9065086 Si02
#       8
#     2   2   2   2   2   2   2   2
#     4  12  21  42  78 109 145 199 260 314 375 459
#     4  11  24  47  71 104 150 199 243 312 379 449
#     4  12  27  46  75 113 152 199 262 322 373 453
#     4  12  25  45  77 108 155 202 257 317 384 451
#     4  12  26  47  78 112 150 203 259 308 383 461
#     4  11  26  48  78 111 152 204 262 307 387 469
#     4  11  25  44  75 111 147 196 256 321 385 458
#     4  11  26  48  77 115 157 195 247 320 389 453
#
# _framework density 24.494564
#
# number of rings (size 3 to 8) (size 9 to 14) (size 15 to 20)
#    0.000    0.500    5.000    3.000    5.250    2.000 
#    2.250    2.500    0.000    0.000    0.000    0.000 
#    0.000    0.000    0.000    0.000    0.000    0.000 
#
# Total GULP energy -89268.919203 kJ/mol
# GULP energy per Si atom -5579.307450 kJ/mol
# Density = 2.443881 g / cm^3
# Si number density = 24.494564 Si / 1000 Ang^3
#
#
#
# Elastic Constant Matrix: (Units=GPa)
#
#
# Indices 1 2 3 4 5 6 
#
# 1 172.5310 35.6013 52.2121 -7.6161 13.0977 -4.3965
# 2 35.6013 79.8510 28.5452 -17.3950 -5.5270 1.0095
# 3 52.2121 28.5452 86.0781 -16.1156 4.2213 5.8445
# 4 -7.6161 -17.3950 -16.1156 27.0049 5.4338 -3.1429
# 5 13.0977 -5.5270 4.2213 5.4338 53.2520 -7.8795
# 6 -4.3965 1.0095 5.8445 -3.1429 -7.8795 44.2440
#
#
#
# Elastic Compliance Matrix: (Units=1/GPa)
#
#
# Indices 1 2 3 4 5 6 
#
# 1 0.007592 -0.002345 -0.004081 -0.001388 -0.001500 0.000981
# 2 -0.002345 0.016374 -0.002632 0.008034 0.001757 0.000625
# 3 -0.004081 -0.002632 0.016529 0.007079 -0.001645 -0.002319
# 4 -0.001388 0.008034 0.007079 0.046999 -0.003978 0.001374
# 5 -0.001500 0.001757 -0.001645 -0.003978 0.020365 0.003372
# 6 0.000981 0.000625 -0.002319 0.001374 0.003372 0.023690
#
#
# Mechanical properties :
#
#
# Convention : Reuss Voigt Hill
#
# Bulk Modulus (GPa) = 44.68321 63.46413 54.07367
# Shear Modulus (GPa) = 31.82208 39.70693 35.76451
#
# Velocity S-wave (km/s) = 3.60828 4.03060 3.82527
# Velocity P-wave (km/s) = 5.97003 6.90121 6.45244
#
# Compressibility (1/GPa) = 0.02237977
#
# Stress axis : x y z
#
# Youngs Moduli (GPa) = 131.70925 61.07402 60.50060
#
# Poissons Ratio (x) = 0.14322 0.24688
# Poissons Ratio (y) = 0.30886 0.15923
# Poissons Ratio (z) = 0.53746 0.16074
#
# Static dielectric constant tensor:
#      x y z
#    x 0.106570 -1.605300 0.736690 
#    y -1.605300 0.568720 0.619310 
#    z 0.736690 0.619310 1.666490 
# 
# From -- ./inp_files/346414.got.cif
#   From: 2010.05.17/outbox.cif.g08.bks.cpg/sg2_174_cif.got.tgz:346414.got - 2010.06.03 11:33:40.
