data_PCOD9065291
_publ_section_title
;
Structure prediction by ZEFSAII (Michael W. Deem and Ramdas Pophale) SiO2 
 PCOD9065291
Probable space group: P -1
;
_chemical_formula_sum "Si O2"
_cell_formula_units_Z 10
_cell_length_a 5.438246
_cell_length_b 4.967533
_cell_length_c 16.028957
_cell_angle_alpha 80.167640
_cell_angle_beta 74.859756
_cell_angle_gamma 95.263373
_cell_volume 407.593985
_symmetry_space_group_name_H-M "P -1"
_symmetry_group_IT_number 2
_symmetry_cell_setting 'triclinic'
loop_
_space_group_symop_operation_xyz
x,y,z
-x,-y,-z
loop_
_atom_site_type_symbol
_atom_site_label
_atom_site_fract_x
_atom_site_fract_y
_atom_site_fract_z
Si Si1 0.554422 0.618398 0.237528
Si Si2 0.845349 0.242913 0.479508
Si Si3 0.572878 0.070441 0.355685
Si Si4 0.908095 0.014828 0.101996
Si Si5 0.578530 0.649553 0.897442
O O1 0.474103 0.341461 0.312707
O O2 0.393548 0.560387 0.169837
O O3 0.571984 0.872736 0.286607
O O4 0.830297 0.709688 0.163443
O O5 0.804651 0.225997 0.384518
O O6 0.000000 0.500000 0.500000
O O7 0.574570 0.151530 0.554582
O O8 0.000000 0.000000 0.500000
O O9 0.653736 0.172322 0.113048
O O10 0.146934 0.167793 0.123914
O O11 0.000000 0.000000 0.000000
O O12 0.500000 0.500000 0.000000
#
# Coordination Sequence:
#
# PCOD9065291 Si02
#       5
#     2   2   2   2   2
#     4  12  26  47  72 110 152 202 256 321 372 460
#     4  11  24  47  78 106 148 193 238 309 385 466
#     4  11  26  48  70 114 146 190 252 308 386 455
#     4  12  27  48  76 109 153 209 264 320 381 447
#     4  12  27  48  76 109 153 209 264 320 381 447
#
# _framework density 24.534217000000002
#
# number of rings (size 3 to 8) (size 9 to 14) (size 15 to 20)
#    0.000    0.400    4.000    3.600    0.000    8.000 
#    7.200    0.000    0.000    0.000    0.000    0.000 
#    0.000    0.000    0.000    0.000    0.000    0.000 
#
# Total GULP energy -55737.337299 kJ/mol
# GULP energy per Si atom -5573.733730 kJ/mol
# Density = 2.447838 g / cm^3
# Si number density = 24.534217 Si / 1000 Ang^3
#
#
#
# Elastic Constant Matrix: (Units=GPa)
#
#
# Indices 1 2 3 4 5 6 
#
# 1 109.4917 48.5977 13.6627 20.5365 18.2333 21.5049
# 2 48.5977 214.8096 54.5271 38.6373 18.3392 36.4815
# 3 13.6627 54.5271 118.0413 44.3534 27.8896 12.8927
# 4 20.5365 38.6373 44.3534 66.8412 14.4129 5.8543
# 5 18.2333 18.3392 27.8896 14.4129 22.7326 6.1085
# 6 21.5049 36.4815 12.8927 5.8543 6.1085 55.1495
#
#
#
# Elastic Compliance Matrix: (Units=1/GPa)
#
#
# Indices 1 2 3 4 5 6 
#
# 1 0.012157 -0.001741 0.002847 -0.002291 -0.009594 -0.002948
# 2 -0.001741 0.006282 -0.001847 -0.001716 0.000466 -0.002914
# 3 0.002847 -0.001847 0.015071 -0.006507 -0.014868 -0.001074
# 4 -0.002291 -0.001716 -0.006507 0.021443 -0.002816 0.001585
# 5 -0.009594 0.000466 -0.014868 -0.002816 0.071528 -0.000715
# 6 -0.002948 -0.002914 -0.001074 0.001585 -0.000715 0.021372
#
#
# Mechanical properties :
#
#
# Convention : Reuss Voigt Hill
#
# Bulk Modulus (GPa) = 31.22465 75.10194 53.16329
# Shear Modulus (GPa) = 31.24773 50.64831 40.94802
#
# Velocity S-wave (km/s) = 3.57268 4.54849 4.08979
# Velocity P-wave (km/s) = 5.45649 7.63299 6.63460
#
# Compressibility (1/GPa) = 0.03202598
#
# Stress axis : x y z
#
# Youngs Moduli (GPa) = 82.25626 159.18862 66.35381
#
# Poissons Ratio (x) = 0.27717 -0.18889
# Poissons Ratio (y) = 0.14322 0.12259
# Poissons Ratio (z) = -0.23416 0.29410
#
# Static dielectric constant tensor:
#      x y z
#    x 1.953600 -0.038000 0.015730 
#    y -0.038000 1.989200 0.022720 
#    z 0.015730 0.022720 1.943670 
# 
# From -- ./inp_files/2871.got.cif
#   From: 2010.05.17/outbox.cif.g08.bks.cpg/sg2_2_cif.got.tgz:2871.got - 2010.06.03 11:33:40.
