data_PCOD9065939
_publ_section_title
;
Structure prediction by ZEFSAII (Michael W. Deem and Ramdas Pophale) SiO2 
 PCOD9065939
Probable space group: P -1
;
_chemical_formula_sum "Si O2"
_cell_formula_units_Z 11
_cell_length_a 14.517479
_cell_length_b 14.830240
_cell_length_c 5.277549
_cell_angle_alpha 103.697499
_cell_angle_beta 101.992855
_cell_angle_gamma 20.521280
_cell_volume 386.661889
_symmetry_space_group_name_H-M "P -1"
_symmetry_group_IT_number 2
_symmetry_cell_setting 'triclinic'
loop_
_space_group_symop_operation_xyz
x,y,z
-x,-y,-z
loop_
_atom_site_type_symbol
_atom_site_label
_atom_site_fract_x
_atom_site_fract_y
_atom_site_fract_z
Si Si1 0.929509 0.299090 0.306826
Si Si2 0.478900 0.387369 0.369046
Si Si3 0.981331 0.097503 0.847047
Si Si4 0.645493 0.031804 0.257205
Si Si5 0.236031 0.344057 0.627917
Si Si6 0.500000 0.000000 0.000000
O O1 0.688098 0.456342 0.365599
O O2 0.806715 0.507599 0.291370
O O3 0.128146 0.139135 0.542528
O O4 0.072553 0.108360 0.048797
O O5 0.481808 0.273132 0.244648
O O6 0.302123 0.611616 0.229430
O O7 0.783586 0.135943 0.376048
O O8 0.000000 0.000000 0.000000
O O9 0.455675 0.134178 0.381795
O O10 0.732708 0.872962 0.008523
O O11 0.000000 0.500000 0.500000
O O12 0.313474 0.234785 0.868968
#
# Coordination Sequence:
#
# PCOD9065939 Si02
#       6
#     2   2   2   2   2   1
#     4  11  26  49  75 105 157 196 252 319 368 458
#     4  11  26  50  74 110 149 199 247 310 394 446
#     4  12  28  48  78 113 146 196 253 313 388 461
#     4  11  25  45  69 107 148 202 254 309 375 451
#     4  11  25  44  68 109 149 203 257 311 375 449
#     4  12  24  42  70 100 154 194 256 308 372 440
#
# _framework density 28.448626999999998
#
# number of rings (size 3 to 8) (size 9 to 14) (size 15 to 20)
#    0.000    0.727    3.636    2.182    7.636    2.182 
#    0.000    0.000    0.000    0.000    0.000    0.000 
#    0.000    0.000    0.000    0.000    0.000    0.000 
#
# Total GULP energy -61493.560761 kJ/mol
# GULP energy per Si atom -5590.323706 kJ/mol
# Density = 2.838388 g / cm^3
# Si number density = 28.448627 Si / 1000 Ang^3
#
#
#
# Elastic Constant Matrix: (Units=GPa)
#
#
# Indices 1 2 3 4 5 6 
#
# 1 129.0343 63.7120 3.8563 -6.8526 -3.3804 46.0926
# 2 63.7120 172.1037 44.4245 -30.5742 -22.2842 16.9049
# 3 3.8563 44.4245 77.3980 -18.5143 -6.1552 11.5930
# 4 -6.8526 -30.5742 -18.5143 64.0430 2.5741 -20.6734
# 5 -3.3804 -22.2842 -6.1552 2.5741 52.5129 4.5077
# 6 46.0926 16.9049 11.5930 -20.6734 4.5077 90.7764
#
#
#
# Elastic Compliance Matrix: (Units=1/GPa)
#
#
# Indices 1 2 3 4 5 6 
#
# 1 0.012218 -0.005066 0.002628 -0.002304 -0.000419 -0.006100
# 2 -0.005066 0.009622 -0.004556 0.003250 0.002895 0.001959
# 3 0.002628 -0.004556 0.016241 0.002119 0.000215 -0.002088
# 4 -0.002304 0.003250 0.002119 0.019017 0.000151 0.004617
# 5 -0.000419 0.002895 0.000215 0.000151 0.020377 -0.001332
# 6 -0.006100 0.001959 -0.002088 0.004617 -0.001332 0.015133
#
#
# Mechanical properties :
#
#
# Convention : Reuss Voigt Hill
#
# Bulk Modulus (GPa) = 41.50389 66.94685 54.22537
# Shear Modulus (GPa) = 43.62027 59.23603 51.42815
#
# Velocity S-wave (km/s) = 3.91999 4.56807 4.25638
# Velocity P-wave (km/s) = 5.92529 7.16985 6.57707
#
# Compressibility (1/GPa) = 0.02409413
#
# Stress axis : x y z
#
# Youngs Moduli (GPa) = 81.84393 103.93164 61.57291
#
# Poissons Ratio (x) = 0.52650 -0.16183
# Poissons Ratio (y) = 0.41461 0.28052
# Poissons Ratio (z) = -0.21511 0.47350
#
# Static dielectric constant tensor:
#      x y z
#    x 2.224320 -0.233540 -0.099140 
#    y -0.233540 2.087380 -0.140470 
#    z -0.099140 -0.140470 2.160750 
# 
# From -- ./inp_files/5949.got.cif
#   From: 2010.05.17/outbox.cif.g08.bks.cpg/sg2_3_cif.got.tgz:5949.got - 2010.06.03 11:33:40.
