data_PCOD9065656
_publ_section_title
;
Structure prediction by ZEFSAII (Michael W. Deem and Ramdas Pophale) SiO2 
 PCOD9065656
Probable space group: P -1
;
_chemical_formula_sum "Si O2"
_cell_formula_units_Z 16
_cell_length_a 15.678171
_cell_length_b 9.416352
_cell_length_c 11.490620
_cell_angle_alpha 51.518056
_cell_angle_beta 32.739952
_cell_angle_gamma 65.625897
_cell_volume 693.185422
_symmetry_space_group_name_H-M "P -1"
_symmetry_group_IT_number 2
_symmetry_cell_setting 'triclinic'
loop_
_space_group_symop_operation_xyz
x,y,z
-x,-y,-z
loop_
_atom_site_type_symbol
_atom_site_label
_atom_site_fract_x
_atom_site_fract_y
_atom_site_fract_z
Si Si1 0.923678 0.425453 0.954096
Si Si2 0.882784 0.830355 0.786983
Si Si3 0.658090 0.656212 0.773633
Si Si4 0.165068 0.613077 0.188615
Si Si5 0.413313 0.664300 0.480590
Si Si6 0.849889 0.817905 0.237737
Si Si7 0.696745 0.957632 0.133888
Si Si8 0.442794 0.186811 0.977024
O O1 0.769822 0.363532 0.248705
O O2 0.956259 0.651106 0.799570
O O3 0.864567 0.356863 0.927050
O O4 0.074003 0.332263 0.842048
O O5 0.715030 0.798332 0.923124
O O6 0.838205 0.897863 0.928973
O O7 0.000000 0.000000 0.500000
O O8 0.736183 0.540859 0.833956
O O9 0.770097 0.734485 0.494823
O O10 0.598550 0.801099 0.847228
O O11 0.500000 0.500000 0.000000
O O12 0.000000 0.500000 0.500000
O O13 0.256221 0.815300 0.034866
O O14 0.500000 0.500000 0.500000
O O15 0.528372 0.849680 0.318837
O O16 0.418603 0.670094 0.330852
O O17 0.715859 0.880942 0.280388
O O18 0.000000 0.000000 0.000000
O O19 0.500000 0.000000 0.000000
#
# Coordination Sequence:
#
# PCOD9065656 Si02
#       8
#     2   2   2   2   2   2   2   2
#     4  12  24  45  76 100 145 195 228 308 357 421
#     4  11  25  44  72 101 140 190 241 286 359 424
#     4  12  29  45  74 105 145 187 239 298 358 429
#     4  12  23  47  72 101 147 189 238 289 361 432
#     4  11  24  50  72 101 144 187 242 289 361 424
#     4  12  28  46  70 113 147 182 240 299 367 428
#     4  11  26  44  72 105 143 190 238 291 356 437
#     4  11  27  46  71 102 140 184 238 300 349 419
#
# _framework density 23.081847
#
# number of rings (size 3 to 8) (size 9 to 14) (size 15 to 20)
#    0.000    0.500    6.250    0.750   10.500    1.000 
#    0.000    0.000    0.000    0.000    0.000    0.000 
#    0.000    0.000    0.000    0.000    0.000    0.000 
#
# Total GULP energy -89394.747699 kJ/mol
# GULP energy per Si atom -5587.171731 kJ/mol
# Density = 2.302931 g / cm^3
# Si number density = 23.081847 Si / 1000 Ang^3
#
#
#
# Elastic Constant Matrix: (Units=GPa)
#
#
# Indices 1 2 3 4 5 6 
#
# 1 43.2456 0.8727 15.1722 2.2474 15.2896 -5.6384
# 2 0.8727 164.3404 45.5204 -1.0264 3.7988 -3.6274
# 3 15.1722 45.5204 151.7997 1.1821 13.7312 1.6828
# 4 2.2474 -1.0264 1.1821 40.7777 5.7323 2.3145
# 5 15.2896 3.7988 13.7312 5.7323 31.1937 -3.8303
# 6 -5.6384 -3.6274 1.6828 2.3145 -3.8303 33.5741
#
#
#
# Elastic Compliance Matrix: (Units=1/GPa)
#
#
# Indices 1 2 3 4 5 6 
#
# 1 0.028835 0.000774 -0.001984 0.000106 -0.012939 0.003542
# 2 0.000774 0.006681 -0.002075 0.000161 -0.000196 0.000922
# 3 -0.001984 -0.002075 0.007630 0.000232 -0.002326 -0.001221
# 4 0.000106 0.000161 0.000232 0.025365 -0.005118 -0.002309
# 5 -0.012939 -0.000196 -0.002326 -0.005118 0.040747 0.002924
# 6 0.003542 0.000922 -0.001221 -0.002309 0.002924 0.031033
#
#
# Mechanical properties :
#
#
# Convention : Reuss Voigt Hill
#
# Bulk Modulus (GPa) = 27.33869 53.61292 40.47581
# Shear Modulus (GPa) = 31.43590 40.96381 36.19985
#
# Velocity S-wave (km/s) = 3.69444 4.21731 3.96451
# Velocity P-wave (km/s) = 5.48347 6.85507 6.20727
#
# Compressibility (1/GPa) = 0.03657819
#
# Stress axis : x y z
#
# Youngs Moduli (GPa) = 34.67993 149.66967 131.05791
#
# Poissons Ratio (x) = -0.11590 0.26001
# Poissons Ratio (y) = -0.02685 0.27190
# Poissons Ratio (z) = 0.06880 0.31052
#
# Static dielectric constant tensor:
#      x y z
#    x 1.813250 -0.001170 0.028270 
#    y -0.001170 1.864400 -0.020190 
#    z 0.028270 -0.020190 1.685240 
# 
# From -- ./inp_files/461885.got.cif
#   From: 2010.05.17/outbox.cif.g08.bks.cpg/sg2_231_cif.got.tgz:461885.got - 2010.06.03 11:33:40.
