data_PCOD9065180
_publ_section_title
;
Structure prediction by ZEFSAII (Michael W. Deem and Ramdas Pophale) SiO2 
 PCOD9065180
Probable space group: P -1
;
_chemical_formula_sum "Si O2"
_cell_formula_units_Z 14
_cell_length_a 12.323342
_cell_length_b 11.990279
_cell_length_c 12.080992
_cell_angle_alpha 86.999243
_cell_angle_beta 152.331074
_cell_angle_gamma 111.111582
_cell_volume 609.436286
_symmetry_space_group_name_H-M "P -1"
_symmetry_group_IT_number 2
_symmetry_cell_setting 'triclinic'
loop_
_space_group_symop_operation_xyz
x,y,z
-x,-y,-z
loop_
_atom_site_type_symbol
_atom_site_label
_atom_site_fract_x
_atom_site_fract_y
_atom_site_fract_z
Si Si1 0.288552 0.170075 0.222225
Si Si2 0.264511 0.823983 0.535775
Si Si3 0.334445 0.632487 0.234185
Si Si4 0.654596 0.590700 0.866228
Si Si5 0.351294 0.560016 0.799893
Si Si6 0.666191 0.905034 0.360238
Si Si7 0.375369 0.118147 0.931565
O O1 0.485286 0.162923 0.311586
O O2 0.463785 0.253279 0.489711
O O3 0.220374 0.268510 0.103580
O O4 0.000000 0.000000 0.000000
O O5 0.293181 0.966775 0.541609
O O6 0.351119 0.832993 0.741275
O O7 0.936715 0.665769 0.205594
O O8 0.427527 0.543052 0.272270
O O9 0.407049 0.742705 0.194021
O O10 0.000000 0.500000 0.000000
O O11 0.366778 0.538106 0.684290
O O12 0.000000 0.500000 0.500000
O O13 0.500000 0.500000 0.000000
O O14 0.597416 0.738768 0.043518
O O15 0.575988 0.898692 0.150917
O O16 0.025337 0.970764 0.668180
#
# Coordination Sequence:
#
# PCOD9065180 Si02
#       7
#     2   2   2   2   2   2   2
#     4  12  27  47  76 108 146 205 265 318 397 473
#     4  12  22  47  77 106 149 201 262 326 398 477
#     4  12  27  50  74 112 156 204 266 327 397 470
#     4  12  26  48  74 108 155 200 260 330 397 481
#     4  12  26  46  77 113 158 203 258 330 413 481
#     4  11  26  46  74 107 152 203 257 323 400 475
#     4  11  24  47  73 111 151 195 264 319 400 483
#
# _framework density 22.972048999999998
#
# number of rings (size 3 to 8) (size 9 to 14) (size 15 to 20)
#    0.000    0.286    4.286    4.286    2.000    2.286 
#    7.714    0.000    0.000    0.000    0.000    0.000 
#    0.000    0.000    0.000    0.000    0.000    0.000 
#
# Total GULP energy -78244.217065 kJ/mol
# GULP energy per Si atom -5588.872647 kJ/mol
# Density = 2.291976 g / cm^3
# Si number density = 22.972049 Si / 1000 Ang^3
#
#
#
# Elastic Constant Matrix: (Units=GPa)
#
#
# Indices 1 2 3 4 5 6 
#
# 1 105.0498 41.8463 41.2046 19.3765 -24.8702 1.4375
# 2 41.8463 128.9474 20.3495 21.0347 6.4472 2.8003
# 3 41.2046 20.3495 90.8165 10.3125 1.9594 17.5069
# 4 19.3765 21.0347 10.3125 37.8099 3.0548 -8.9550
# 5 -24.8702 6.4472 1.9594 3.0548 33.8757 9.8407
# 6 1.4375 2.8003 17.5069 -8.9550 9.8407 42.3825
#
#
#
# Elastic Compliance Matrix: (Units=1/GPa)
#
#
# Indices 1 2 3 4 5 6 
#
# 1 0.019678 -0.004867 -0.006711 -0.007721 0.017401 -0.003245
# 2 -0.004867 0.009983 0.000402 -0.002751 -0.005241 -0.000025
# 3 -0.006711 0.000402 0.015360 -0.001973 -0.004083 -0.005613
# 4 -0.007721 -0.002751 -0.001973 0.036166 -0.011664 0.011608
# 5 0.017401 -0.005241 -0.004083 -0.011664 0.048123 -0.012195
# 6 -0.003245 -0.000025 -0.005613 0.011608 -0.012195 0.031309
#
#
# Mechanical properties :
#
#
# Convention : Reuss Voigt Hill
#
# Bulk Modulus (GPa) = 44.11352 59.06826 51.59089
# Shear Modulus (GPa) = 26.24300 37.57449 31.90875
#
# Velocity S-wave (km/s) = 3.38359 4.04872 3.73101
# Velocity P-wave (km/s) = 5.87450 6.90109 6.40839
#
# Compressibility (1/GPa) = 0.02266879
#
# Stress axis : x y z
#
# Youngs Moduli (GPa) = 50.81700 100.17455 65.10378
#
# Poissons Ratio (x) = 0.48756 0.43690
# Poissons Ratio (y) = 0.24733 -0.02615
# Poissons Ratio (z) = 0.34102 -0.04024
#
# Static dielectric constant tensor:
#      x y z
#    x 1.887650 0.070640 0.028170 
#    y 0.070640 1.917020 -0.029020 
#    z 0.028170 -0.029020 1.860220 
# 
# From -- ./inp_files/79398.got.cif
#   From: 2010.05.17/outbox.cif.g08.bks.cpg/sg2_40_cif.got.tgz:79398.got - 2010.06.03 11:33:40.
