data_PCOD9065433
_publ_section_title
;
Structure prediction by ZEFSAII (Michael W. Deem and Ramdas Pophale) SiO2 
 PCOD9065433
Probable space group: P -1
;
_chemical_formula_sum "Si O2"
_cell_formula_units_Z 14
_cell_length_a 6.836288
_cell_length_b 14.537487
_cell_length_c 14.274805
_cell_angle_alpha 30.420161
_cell_angle_beta 71.194030
_cell_angle_gamma 80.113580
_cell_volume 663.045374
_symmetry_space_group_name_H-M "P -1"
_symmetry_group_IT_number 2
_symmetry_cell_setting 'triclinic'
loop_
_space_group_symop_operation_xyz
x,y,z
-x,-y,-z
loop_
_atom_site_type_symbol
_atom_site_label
_atom_site_fract_x
_atom_site_fract_y
_atom_site_fract_z
Si Si1 0.413407 0.698953 0.101946
Si Si2 0.255818 0.893952 0.625544
Si Si3 0.317857 0.565536 0.029088
Si Si4 0.671987 0.100536 0.752452
Si Si5 0.072084 0.809705 0.178188
Si Si6 0.389544 0.387104 0.526637
Si Si7 0.019239 0.810448 0.543535
O O1 0.415491 0.668078 0.018410
O O2 0.187909 0.737677 0.136417
O O3 0.441530 0.517233 0.313606
O O4 0.588174 0.880352 0.945631
O O5 0.186831 0.846097 0.571418
O O6 0.500000 0.000000 0.500000
O O7 0.113745 0.029846 0.567619
O O8 0.225372 0.707777 0.854741
O O9 0.139786 0.386995 0.242903
O O10 0.500000 0.500000 0.000000
O O11 0.756452 0.150600 0.799763
O O12 0.483067 0.202982 0.667895
O O13 0.861321 0.175343 0.585527
O O14 0.861122 0.666615 0.369762
O O15 0.000000 0.000000 0.000000
O O16 0.500000 0.500000 0.500000
#
# Coordination Sequence:
#
# PCOD9065433 Si02
#       7
#     2   2   2   2   2   2   2
#     4  12  27  46  73 105 142 190 234 289 354 415
#     4  11  24  48  73  97 142 182 235 293 350 409
#     4  12  27  46  73 104 141 185 238 291 351 415
#     4  12  27  47  72 107 142 185 234 286 355 422
#     4  12  25  47  73 104 145 184 233 288 350 422
#     4  12  26  46  74 103 146 184 233 288 345 424
#     4  11  27  45  73 105 136 187 235 288 353 417
#
# _framework density 21.114695999999999
#
# number of rings (size 3 to 8) (size 9 to 14) (size 15 to 20)
#    0.000    0.286    4.286    3.857    8.000    3.429 
#    0.000    0.000    0.000    0.000    0.000    0.000 
#    0.000    0.000    0.000    0.000    0.000    0.000 
#
# Total GULP energy -78454.534469 kJ/mol
# GULP energy per Si atom -5603.895319 kJ/mol
# Density = 2.106664 g / cm^3
# Si number density = 21.114696 Si / 1000 Ang^3
#
#
#
# Elastic Constant Matrix: (Units=GPa)
#
#
# Indices 1 2 3 4 5 6 
#
# 1 89.3544 27.0384 32.5004 -1.0503 4.0534 2.4519
# 2 27.0384 109.7557 15.7227 14.2023 1.5595 3.9721
# 3 32.5004 15.7227 125.0617 -2.2071 2.0408 -9.4584
# 4 -1.0503 14.2023 -2.2071 33.9878 0.1222 -7.2569
# 5 4.0534 1.5595 2.0408 0.1222 56.2893 -0.8194
# 6 2.4519 3.9721 -9.4584 -7.2569 -0.8194 17.8969
#
#
#
# Elastic Compliance Matrix: (Units=1/GPa)
#
#
# Indices 1 2 3 4 5 6 
#
# 1 0.013360 -0.002818 -0.003291 0.000813 -0.000805 -0.002651
# 2 -0.002818 0.010893 -0.001113 -0.005771 -0.000118 -0.004965
# 3 -0.003291 -0.001113 0.009542 0.002418 0.000014 0.006722
# 4 0.000813 -0.005771 0.002418 0.035624 0.000182 0.016900
# 5 -0.000805 -0.000118 0.000014 0.000182 0.017841 0.001035
# 6 -0.002651 -0.004965 0.006722 0.016900 0.001035 0.067793
#
#
# Mechanical properties :
#
#
# Convention : Reuss Voigt Hill
#
# Bulk Modulus (GPa) = 51.67275 52.74388 52.20832
# Shear Modulus (GPa) = 28.41807 38.22881 33.32344
#
# Velocity S-wave (km/s) = 3.67262 4.25965 3.97698
# Velocity P-wave (km/s) = 6.51995 7.01618 6.77261
#
# Compressibility (1/GPa) = 0.01935256
#
# Stress axis : x y z
#
# Youngs Moduli (GPa) = 74.85188 91.80431 104.80117
#
# Poissons Ratio (x) = 0.25867 0.34486
# Poissons Ratio (y) = 0.21091 0.11660
# Poissons Ratio (z) = 0.24631 0.10214
#
# Static dielectric constant tensor:
#      x y z
#    x 1.724630 -0.011950 0.000050 
#    y -0.011950 1.725390 -0.010840 
#    z 0.000050 -0.010840 1.749660 
# 
# From -- ./inp_files/48498.got.cif
#   From: 2010.05.17/outbox.cif.g08.bks.cpg/sg2_25_cif.got.tgz:48498.got - 2010.06.03 11:33:40.
