data_PCOD9065392
_publ_section_title
;
Structure prediction by ZEFSAII (Michael W. Deem and Ramdas Pophale) SiO2 
 PCOD9065392
Probable space group: P -1
;
_chemical_formula_sum "Si O2"
_cell_formula_units_Z 12
_cell_length_a 10.854197
_cell_length_b 14.390071
_cell_length_c 5.711045
_cell_angle_alpha 56.685192
_cell_angle_beta 98.403629
_cell_angle_gamma 136.093956
_cell_volume 466.549181
_symmetry_space_group_name_H-M "P -1"
_symmetry_group_IT_number 2
_symmetry_cell_setting 'triclinic'
loop_
_space_group_symop_operation_xyz
x,y,z
-x,-y,-z
loop_
_atom_site_type_symbol
_atom_site_label
_atom_site_fract_x
_atom_site_fract_y
_atom_site_fract_z
Si Si1 0.280385 0.821489 0.100958
Si Si2 0.497855 0.374250 0.568515
Si Si3 0.515557 0.840693 0.806295
Si Si4 0.086187 0.104237 0.628148
Si Si5 0.082155 0.782975 0.712841
Si Si6 0.767730 0.413033 0.302242
O O1 0.171893 0.662367 0.463099
O O2 0.333602 0.778879 0.956076
O O3 0.152368 0.831713 0.941237
O O4 0.500000 0.000000 0.000000
O O5 0.500000 0.500000 0.500000
O O6 0.319394 0.248526 0.508825
O O7 0.699240 0.465137 0.386453
O O8 0.445371 0.246360 0.927646
O O9 0.436723 0.758203 0.644306
O O10 0.706011 0.051097 0.578800
O O11 0.041700 0.203391 0.449922
O O12 0.000000 0.000000 0.500000
O O13 0.000000 0.000000 0.000000
O O14 0.934920 0.577855 0.955923
#
# Coordination Sequence:
#
# PCOD9065392 Si02
#       6
#     2   2   2   2   2   2
#     4  11  25  47  73 104 150 196 245 316 384 449
#     4  11  26  49  74 107 158 197 252 320 388 452
#     4  11  24  48  72 106 148 196 246 320 375 457
#     4  12  28  48  77 113 153 204 263 314 386 472
#     4  12  25  45  76 106 145 198 253 310 381 455
#     4  11  26  47  74 110 147 195 258 311 381 460
#
# _framework density 25.720762000000001
#
# number of rings (size 3 to 8) (size 9 to 14) (size 15 to 20)
#    0.000    0.667    3.333    3.000    4.667    2.000 
#    6.000    0.000    0.000    0.000    0.000    0.000 
#    0.000    0.000    0.000    0.000    0.000    0.000 
#
# Total GULP energy -67056.494681 kJ/mol
# GULP energy per Si atom -5588.041223 kJ/mol
# Density = 2.566222 g / cm^3
# Si number density = 25.720762 Si / 1000 Ang^3
#
#
#
# Elastic Constant Matrix: (Units=GPa)
#
#
# Indices 1 2 3 4 5 6 
#
# 1 60.5212 26.4792 74.1595 -0.9918 3.0027 6.4556
# 2 26.4792 104.4167 35.5618 -6.6338 5.0688 11.5338
# 3 74.1595 35.5618 210.8759 -19.1858 31.6329 3.8741
# 4 -0.9918 -6.6338 -19.1858 47.5146 13.5312 5.1958
# 5 3.0027 5.0688 31.6329 13.5312 52.4319 8.3944
# 6 6.4556 11.5338 3.8741 5.1958 8.3944 50.5557
#
#
#
# Elastic Compliance Matrix: (Units=1/GPa)
#
#
# Indices 1 2 3 4 5 6 
#
# 1 0.034851 -0.004851 -0.013428 -0.007611 0.009024 -0.003031
# 2 -0.004851 0.011135 0.000229 0.002091 -0.001163 -0.001960
# 3 -0.013428 0.000229 0.011152 0.006330 -0.007849 0.001461
# 4 -0.007611 0.002091 0.006330 0.026791 -0.010335 -0.001028
# 5 0.009024 -0.001163 -0.007849 -0.010335 0.026655 -0.003649
# 6 -0.003031 -0.001960 0.001461 -0.001028 -0.003649 0.021214
#
#
# Mechanical properties :
#
#
# Convention : Reuss Voigt Hill
#
# Bulk Modulus (GPa) = 47.53531 72.02386 59.77958
# Shear Modulus (GPa) = 28.58570 46.07465 37.33017
#
# Velocity S-wave (km/s) = 3.33736 4.23702 3.81381
# Velocity P-wave (km/s) = 5.77686 7.21106 6.53343
#
# Compressibility (1/GPa) = 0.02103699
#
# Stress axis : x y z
#
# Youngs Moduli (GPa) = 28.69352 89.80580 89.66602
#
# Poissons Ratio (x) = 0.43568 1.20408
# Poissons Ratio (y) = 0.13920 -0.02053
# Poissons Ratio (z) = 0.38531 -0.02056
#
# Static dielectric constant tensor:
#      x y z
#    x 2.046930 -0.035730 -0.017370 
#    y -0.035730 2.114780 0.072580 
#    z -0.017370 0.072580 2.047480 
# 
# From -- ./inp_files/35112.got.cif
#   From: 2010.05.17/outbox.cif.g08.bks.cpg/sg2_18_cif.got.tgz:35112.got - 2010.06.03 11:33:40.
