data_PCOD9065979
_publ_section_title
;
Structure prediction by ZEFSAII (Michael W. Deem and Ramdas Pophale) SiO2 
 PCOD9065979
Probable space group: P -1
;
_chemical_formula_sum "Si O2"
_cell_formula_units_Z 14
_cell_length_a 23.337014
_cell_length_b 6.268314
_cell_length_c 17.675535
_cell_angle_alpha 43.385185
_cell_angle_beta 20.768079
_cell_angle_gamma 52.500942
_cell_volume 602.592688
_symmetry_space_group_name_H-M "P -1"
_symmetry_group_IT_number 2
_symmetry_cell_setting 'triclinic'
loop_
_space_group_symop_operation_xyz
x,y,z
-x,-y,-z
loop_
_atom_site_type_symbol
_atom_site_label
_atom_site_fract_x
_atom_site_fract_y
_atom_site_fract_z
Si Si1 0.317831 0.549503 0.726017
Si Si2 0.268730 0.458990 0.986036
Si Si3 0.699656 0.172884 0.632078
Si Si4 0.899250 0.468575 0.447017
Si Si5 0.547599 0.770021 0.676263
Si Si6 0.015059 0.804468 0.848850
Si Si7 0.614005 0.188887 0.973662
O O1 0.500000 0.500000 0.500000
O O2 0.324891 0.880356 0.588455
O O3 0.288391 0.573286 0.845392
O O4 0.164034 0.266968 0.954657
O O5 0.076504 0.407079 0.261203
O O6 0.323886 0.130516 0.008075
O O7 0.396675 0.711496 0.817131
O O8 0.790783 0.192116 0.595363
O O9 0.635756 0.491174 0.627473
O O10 0.839604 0.196856 0.389885
O O11 0.533159 0.886860 0.888858
O O12 0.779701 0.454689 0.670518
O O13 0.940085 0.830344 0.268081
O O14 0.468705 0.751245 0.861570
O O15 0.000000 0.500000 0.000000
#
# Coordination Sequence:
#
# PCOD9065979 Si02
#       7
#     2   2   2   2   2   2   2
#     4  12  23  45  72 100 141 176 229 283 343 402
#     4  11  25  44  70 107 135 179 228 282 344 406
#     4  11  25  46  69 100 137 181 231 279 339 406
#     4  12  26  45  71 102 138 184 224 282 347 401
#     4  11  25  44  71 101 136 186 225 283 340 402
#     4  12  28  44  68 104 141 176 229 284 336 408
#     4  11  25  47  70 101 140 179 231 280 337 410
#
# _framework density 23.232939999999999
#
# number of rings (size 3 to 8) (size 9 to 14) (size 15 to 20)
#    0.000    0.571    2.857    4.714    4.000    6.286 
#    0.000    0.000    0.000    0.000    0.000    0.000 
#    0.000    0.000    0.000    0.000    0.000    0.000 
#
# Total GULP energy -78444.738060 kJ/mol
# GULP energy per Si atom -5603.195576 kJ/mol
# Density = 2.318006 g / cm^3
# Si number density = 23.232940 Si / 1000 Ang^3
#
#
#
# Elastic Constant Matrix: (Units=GPa)
#
#
# Indices 1 2 3 4 5 6 
#
# 1 83.5925 13.2361 40.4708 -7.5392 -13.0393 13.8488
# 2 13.2361 90.5125 35.4219 11.8221 2.1935 -6.5716
# 3 40.4708 35.4219 150.3679 16.9158 -10.3989 6.8598
# 4 -7.5392 11.8221 16.9158 32.3693 -14.3476 -5.2777
# 5 -13.0393 2.1935 -10.3989 -14.3476 46.3167 -6.5947
# 6 13.8488 -6.5716 6.8598 -5.2777 -6.5947 32.2566
#
#
#
# Elastic Compliance Matrix: (Units=1/GPa)
#
#
# Indices 1 2 3 4 5 6 
#
# 1 0.016946 -0.002394 -0.004421 0.009202 0.006164 -0.004057
# 2 -0.002394 0.013206 -0.002226 -0.005093 -0.002985 0.002748
# 3 -0.004421 -0.002226 0.009001 -0.005677 -0.001108 -0.001625
# 4 0.009202 -0.005093 -0.005677 0.046611 0.017040 0.007329
# 5 0.006164 -0.002985 -0.001108 0.017040 0.029317 0.005763
# 6 -0.004057 0.002748 -0.001625 0.007329 0.005763 0.036026
#
#
# Mechanical properties :
#
#
# Convention : Reuss Voigt Hill
#
# Bulk Modulus (GPa) = 47.45595 55.85895 51.65745
# Shear Modulus (GPa) = 28.37495 37.87811 33.12653
#
# Velocity S-wave (km/s) = 3.49854 4.04216 3.78013
# Velocity P-wave (km/s) = 6.06549 6.77352 6.42926
#
# Compressibility (1/GPa) = 0.02107217
#
# Stress axis : x y z
#
# Youngs Moduli (GPa) = 59.01166 75.72134 111.10446
#
# Poissons Ratio (x) = 0.18127 0.49117
# Poissons Ratio (y) = 0.14127 0.24727
# Poissons Ratio (z) = 0.26088 0.16852
#
# Static dielectric constant tensor:
#      x y z
#    x 1.866040 -0.011230 -0.013390 
#    y -0.011230 1.855100 -0.027820 
#    z -0.013390 -0.027820 1.834810 
# 
# From -- ./inp_files/26719.got.cif
#   From: 2010.05.17/outbox.cif.g08.bks.cpg/sg2_14_cif.got.tgz:26719.got - 2010.06.03 11:33:40.
