data_PCOD9065742
_publ_section_title
;
Structure prediction by ZEFSAII (Michael W. Deem and Ramdas Pophale) SiO2 
 PCOD9065742
Probable space group: P -1
;
_chemical_formula_sum "Si O2"
_cell_formula_units_Z 12
_cell_length_a 14.659511
_cell_length_b 15.971311
_cell_length_c 5.221940
_cell_angle_alpha 117.407783
_cell_angle_beta 127.841061
_cell_angle_gamma 28.640099
_cell_volume 452.824849
_symmetry_space_group_name_H-M "P -1"
_symmetry_group_IT_number 2
_symmetry_cell_setting 'triclinic'
loop_
_space_group_symop_operation_xyz
x,y,z
-x,-y,-z
loop_
_atom_site_type_symbol
_atom_site_label
_atom_site_fract_x
_atom_site_fract_y
_atom_site_fract_z
Si Si1 0.523489 0.628637 0.143078
Si Si2 0.192542 0.941327 0.324332
Si Si3 0.281408 0.180356 0.033892
Si Si4 0.691697 0.373801 0.449192
Si Si5 0.133360 0.466897 0.473736
Si Si6 0.148062 0.097111 0.976918
O O1 0.669798 0.440746 0.231803
O O2 0.666687 0.604517 0.207240
O O3 0.427482 0.729971 0.392093
O O4 0.311354 0.734629 0.784073
O O5 0.173813 0.008553 0.653969
O O6 0.207878 0.008769 0.221058
O O7 0.000000 0.000000 0.000000
O O8 0.262211 0.115925 0.133559
O O9 0.053046 0.337710 0.701069
O O10 0.253710 0.305615 0.273262
O O11 0.500000 0.000000 0.000000
O O12 0.500000 0.500000 0.500000
O O13 0.888768 0.287358 0.804634
O O14 0.000000 0.500000 0.500000
#
# Coordination Sequence:
#
# PCOD9065742 Si02
#       6
#     2   2   2   2   2   2
#     4  11  25  45  68 105 144 189 248 305 375 446
#     4  12  26  46  73 111 147 194 243 305 375 450
#     4  11  27  49  73 107 148 201 253 314 379 445
#     4  11  25  41  72 101 145 193 234 308 376 444
#     4  11  27  47  75 106 145 199 258 311 373 453
#     4  12  27  47  75 108 150 189 251 305 373 450
#
# _framework density 26.500308
#
# number of rings (size 3 to 8) (size 9 to 14) (size 15 to 20)
#    0.000    0.667    3.333    2.500   11.667    0.667 
#    0.000    0.000    0.000    0.000    0.000    0.000 
#    0.000    0.000    0.000    0.000    0.000    0.000 
#
# Total GULP energy -67083.502291 kJ/mol
# GULP energy per Si atom -5590.291858 kJ/mol
# Density = 2.643999 g / cm^3
# Si number density = 26.500308 Si / 1000 Ang^3
#
#
#
# Elastic Constant Matrix: (Units=GPa)
#
#
# Indices 1 2 3 4 5 6 
#
# 1 180.5675 48.5370 23.7858 -2.4782 13.5810 0.1771
# 2 48.5370 110.7768 21.9310 20.0884 3.4190 -18.0901
# 3 23.7858 21.9310 63.7351 10.6245 8.6164 -6.9063
# 4 -2.4782 20.0884 10.6245 33.4787 -5.4390 -12.7424
# 5 13.5810 3.4190 8.6164 -5.4390 53.9343 -6.2681
# 6 0.1771 -18.0901 -6.9063 -12.7424 -6.2681 56.2174
#
#
#
# Elastic Compliance Matrix: (Units=1/GPa)
#
#
# Indices 1 2 3 4 5 6 
#
# 1 0.006733 -0.003144 -0.001788 0.002473 -0.001055 -0.000810
# 2 -0.003144 0.012250 -0.001757 -0.006144 -0.000052 0.002337
# 3 -0.001788 -0.001757 0.018246 -0.005270 -0.002865 0.000168
# 4 0.002473 -0.006144 -0.005270 0.038851 0.005313 0.006766
# 5 -0.001055 -0.000052 -0.002865 0.005313 0.020162 0.003087
# 6 -0.000810 0.002337 0.000168 0.006766 0.003087 0.020441
#
#
# Mechanical properties :
#
#
# Convention : Reuss Voigt Hill
#
# Bulk Modulus (GPa) = 41.92876 60.39856 51.16366
# Shear Modulus (GPa) = 36.22870 46.11444 41.17157
#
# Velocity S-wave (km/s) = 3.70145 4.17603 3.94588
# Velocity P-wave (km/s) = 5.84157 6.78922 6.33314
#
# Compressibility (1/GPa) = 0.02384998
#
# Stress axis : x y z
#
# Youngs Moduli (GPa) = 148.52482 81.63117 54.80673
#
# Poissons Ratio (x) = 0.25666 0.09800
# Poissons Ratio (y) = 0.46698 0.09631
# Poissons Ratio (z) = 0.26558 0.14345
#
# Static dielectric constant tensor:
#      x y z
#    x 2.029530 -0.003190 -0.070220 
#    y -0.003190 2.328780 0.042650 
#    z -0.070220 0.042650 2.255510 
# 
# From -- ./inp_files/30975.got.cif
#   From: 2010.05.17/outbox.cif.g08.bks.cpg/sg2_16_cif.got.tgz:30975.got - 2010.06.03 11:33:40.
