data_PCOD9065126
_publ_section_title
;
Structure prediction by ZEFSAII (Michael W. Deem and Ramdas Pophale) SiO2 
 PCOD9065126
Probable space group: P -1
;
_chemical_formula_sum "Si O2"
_cell_formula_units_Z 12
_cell_length_a 6.826365
_cell_length_b 5.050663
_cell_length_c 19.972376
_cell_angle_alpha 100.855979
_cell_angle_beta 95.898191
_cell_angle_gamma 46.611307
_cell_volume 491.115908
_symmetry_space_group_name_H-M "P -1"
_symmetry_group_IT_number 2
_symmetry_cell_setting 'triclinic'
loop_
_space_group_symop_operation_xyz
x,y,z
-x,-y,-z
loop_
_atom_site_type_symbol
_atom_site_label
_atom_site_fract_x
_atom_site_fract_y
_atom_site_fract_z
Si Si1 0.175993 0.906489 0.727086
Si Si2 0.747252 0.843849 0.548208
Si Si3 0.533657 0.780450 0.853014
Si Si4 0.701597 0.451758 0.639163
Si Si5 0.072622 0.113414 0.168380
Si Si6 0.736502 0.219624 0.046285
O O1 0.322067 0.938089 0.792619
O O2 0.410821 0.649951 0.669152
O O3 0.060860 0.756365 0.756505
O O4 0.918708 0.265465 0.697311
O O5 0.706061 0.720806 0.610076
O O6 0.000000 0.500000 0.500000
O O7 0.500000 0.000000 0.500000
O O8 0.776133 0.131987 0.578773
O O9 0.730867 0.837435 0.845469
O O10 0.363279 0.951552 0.924296
O O11 0.737191 0.332840 0.846387
O O12 0.826013 0.318892 0.117390
O O13 0.500000 0.500000 0.000000
O O14 0.000000 0.000000 0.000000
#
# Coordination Sequence:
#
# PCOD9065126 Si02
#       6
#     2   2   2   2   2   2
#     4  11  26  47  70 111 142 185 244 292 360 421
#     4  12  26  48  72 106 146 186 234 288 348 414
#     4  11  26  47  71 103 147 187 232 308 355 417
#     4  12  26  44  76 104 142 190 236 290 348 426
#     4  11  26  47  71 103 147 187 232 308 355 417
#     4  11  24  47  72 105 140 191 244 292 358 433
#
# _framework density 24.434148
#
# number of rings (size 3 to 8) (size 9 to 14) (size 15 to 20)
#    0.000    0.667    3.333    3.000    2.333    9.333 
#    0.000    0.000    0.000    0.000    0.000    0.000 
#    0.000    0.000    0.000    0.000    0.000    0.000 
#
# Total GULP energy -67203.019343 kJ/mol
# GULP energy per Si atom -5600.251612 kJ/mol
# Density = 2.437853 g / cm^3
# Si number density = 24.434148 Si / 1000 Ang^3
#
#
#
# Elastic Constant Matrix: (Units=GPa)
#
#
# Indices 1 2 3 4 5 6 
#
# 1 170.4877 50.0619 29.2843 -23.1268 -18.4648 -20.0139
# 2 50.0619 88.7232 15.3482 -21.0116 -5.6605 -27.8047
# 3 29.2843 15.3482 96.6189 -30.0360 -14.2098 -18.9576
# 4 -23.1268 -21.0116 -30.0360 61.2714 -23.3670 0.0514
# 5 -18.4648 -5.6605 -14.2098 -23.3670 60.9564 6.9749
# 6 -20.0139 -27.8047 -18.9576 0.0514 6.9749 59.5584
#
#
#
# Elastic Compliance Matrix: (Units=1/GPa)
#
#
# Indices 1 2 3 4 5 6 
#
# 1 0.007627 -0.003241 -0.000446 0.002635 0.002850 0.000572
# 2 -0.003241 0.016688 0.002199 0.006646 0.002820 0.007065
# 3 -0.000446 0.002199 0.015639 0.011065 0.007386 0.004980
# 4 0.002635 0.006646 0.011065 0.030789 0.015144 0.005710
# 5 0.002850 0.002820 0.007386 0.015144 0.024863 0.001700
# 6 0.000572 0.007065 0.004980 0.005710 0.001700 0.021662
#
#
# Mechanical properties :
#
#
# Convention : Reuss Voigt Hill
#
# Bulk Modulus (GPa) = 27.04471 60.57986 43.81229
# Shear Modulus (GPa) = 37.71541 53.76625 45.74083
#
# Velocity S-wave (km/s) = 3.93307 4.69599 4.33136
# Velocity P-wave (km/s) = 5.63186 7.36546 6.55621
#
# Compressibility (1/GPa) = 0.03697581
#
# Stress axis : x y z
#
# Youngs Moduli (GPa) = 131.10933 59.92429 63.94222
#
# Poissons Ratio (x) = 0.19424 0.02854
# Poissons Ratio (y) = 0.42498 -0.14059
# Poissons Ratio (z) = 0.05853 -0.13176
#
# Static dielectric constant tensor:
#      x y z
#    x 1.922090 0.049400 -0.022590 
#    y 0.049400 1.972280 0.053310 
#    z -0.022590 0.053310 1.935200 
# 
# From -- ./inp_files/580753.got.cif
#   From: 2010.05.17/outbox.cif.g08.bks.cpg/sg2_291_cif.got.tgz:580753.got - 2010.06.03 11:33:40.
