data_PCOD9065984
_publ_section_title
;
Structure prediction by ZEFSAII (Michael W. Deem and Ramdas Pophale) SiO2 
 PCOD9065984
Probable space group: P -1
;
_chemical_formula_sum "Si O2"
_cell_formula_units_Z 16
_cell_length_a 12.011929
_cell_length_b 8.676675
_cell_length_c 14.354286
_cell_angle_alpha 85.980396
_cell_angle_beta 74.427516
_cell_angle_gamma 32.776631
_cell_volume 744.635556
_symmetry_space_group_name_H-M "P -1"
_symmetry_group_IT_number 2
_symmetry_cell_setting 'triclinic'
loop_
_space_group_symop_operation_xyz
x,y,z
-x,-y,-z
loop_
_atom_site_type_symbol
_atom_site_label
_atom_site_fract_x
_atom_site_fract_y
_atom_site_fract_z
Si Si1 0.269804 0.179765 0.066677
Si Si2 0.659337 0.200519 0.424426
Si Si3 0.852722 0.152633 0.120293
Si Si4 0.111223 0.828366 0.267161
Si Si5 0.173437 0.160959 0.888525
Si Si6 0.374111 0.846198 0.232549
Si Si7 0.745595 0.833831 0.565164
Si Si8 0.530462 0.784873 0.694637
O O1 0.074880 0.528699 0.106191
O O2 0.296130 0.037546 0.153989
O O3 0.194760 0.173250 0.991485
O O4 0.500000 0.000000 0.000000
O O5 0.500000 0.500000 0.500000
O O6 0.560361 0.250418 0.347706
O O7 0.681347 0.023967 0.490029
O O8 0.889892 0.028327 0.363733
O O9 0.640395 0.506697 0.172724
O O10 0.750474 0.099720 0.133481
O O11 0.023003 0.954784 0.176863
O O12 0.000000 0.000000 0.000000
O O13 0.235603 0.844227 0.266579
O O14 0.282068 0.494365 0.265581
O O15 0.335897 0.075860 0.791375
O O16 0.309670 0.012721 0.333028
O O17 0.620051 0.815180 0.605821
O O18 0.000000 0.500000 0.500000
#
# Coordination Sequence:
#
# PCOD9065984 Si02
#       8
#     2   2   2   2   2   2   2   2
#     4  11  26  45  73 105 150 192 239 304 370 442
#     4  12  27  48  76 108 144 194 249 308 369 436
#     4  12  26  45  74 108 148 193 247 296 370 445
#     4  12  25  47  74 105 151 189 243 311 365 440
#     4  11  25  44  70 108 140 193 241 292 372 438
#     4  12  28  47  72 113 145 195 250 305 368 443
#     4  12  28  48  74 108 146 197 247 304 373 433
#     4  12  26  47  76 106 147 191 247 302 369 444
#
# _framework density 21.487022
#
# number of rings (size 3 to 8) (size 9 to 14) (size 15 to 20)
#    0.000    0.250    3.750    4.125    8.750    6.000 
#    0.000    0.000    0.000    0.000    0.000    0.000 
#    0.000    0.000    0.000    0.000    0.000    0.000 
#
# Total GULP energy -89462.722891 kJ/mol
# GULP energy per Si atom -5591.420181 kJ/mol
# Density = 2.143812 g / cm^3
# Si number density = 21.487022 Si / 1000 Ang^3
#
#
#
# Elastic Constant Matrix: (Units=GPa)
#
#
# Indices 1 2 3 4 5 6 
#
# 1 73.8659 20.4538 32.6694 0.8342 -4.9696 -3.8444
# 2 20.4538 146.4595 71.4747 1.6659 8.7485 -10.2264
# 3 32.6694 71.4747 157.5243 2.8602 -8.8153 -10.0474
# 4 0.8342 1.6659 2.8602 48.9905 -0.5075 -3.2785
# 5 -4.9696 8.7485 -8.8153 -0.5075 46.1173 4.2663
# 6 -3.8444 -10.2264 -10.0474 -3.2785 4.2663 28.3745
#
#
#
# Elastic Compliance Matrix: (Units=1/GPa)
#
#
# Indices 1 2 3 4 5 6 
#
# 1 0.015050 -0.000849 -0.002628 -0.000020 0.001223 0.000616
# 2 -0.000849 0.009237 -0.004032 0.000055 -0.002819 0.002216
# 3 -0.002628 -0.004032 0.008908 -0.000250 0.002089 0.001002
# 4 -0.000020 0.000055 -0.000250 0.020580 -0.000048 0.002314
# 5 0.001223 -0.002819 0.002089 -0.000048 0.023081 -0.003586
# 6 0.000616 0.002216 0.001002 0.002314 -0.003586 0.037287
#
#
# Mechanical properties :
#
#
# Convention : Reuss Voigt Hill
#
# Bulk Modulus (GPa) = 55.01675 69.67170 62.34423
# Shear Modulus (GPa) = 36.97687 41.57992 39.27840
#
# Velocity S-wave (km/s) = 4.15287 4.40377 4.28016
# Velocity P-wave (km/s) = 6.97533 7.63891 7.31465
#
# Compressibility (1/GPa) = 0.01817628
#
# Stress axis : x y z
#
# Youngs Moduli (GPa) = 66.44506 108.26283 112.25612
#
# Poissons Ratio (x) = 0.09194 0.29499
# Poissons Ratio (y) = 0.05643 0.45266
# Poissons Ratio (z) = 0.17461 0.43655
#
# Static dielectric constant tensor:
#      x y z
#    x 1.782060 -0.012000 -0.020480 
#    y -0.012000 1.779490 0.040240 
#    z -0.020480 0.040240 1.872390 
# 
# From -- ./inp_files/49030.got.cif
#   From: 2010.05.17/outbox.cif.g08.bks.cpg/sg2_25_cif.got.tgz:49030.got - 2010.06.03 11:33:40.
