data_PCOD9065793
_publ_section_title
;
Structure prediction by ZEFSAII (Michael W. Deem and Ramdas Pophale) SiO2 
 PCOD9065793
Probable space group: P -1
;
_chemical_formula_sum "Si O2"
_cell_formula_units_Z 16
_cell_length_a 6.091886
_cell_length_b 11.777104
_cell_length_c 12.580489
_cell_angle_alpha 109.116733
_cell_angle_beta 91.143544
_cell_angle_gamma 48.536790
_cell_volume 613.874656
_symmetry_space_group_name_H-M "P -1"
_symmetry_group_IT_number 2
_symmetry_cell_setting 'triclinic'
loop_
_space_group_symop_operation_xyz
x,y,z
-x,-y,-z
loop_
_atom_site_type_symbol
_atom_site_label
_atom_site_fract_x
_atom_site_fract_y
_atom_site_fract_z
Si Si1 0.730410 0.423195 0.131246
Si Si2 0.765749 0.826335 0.505385
Si Si3 0.712667 0.111611 0.952124
Si Si4 0.410407 0.707814 0.482425
Si Si5 0.393965 0.621571 0.671759
Si Si6 0.441217 0.061662 0.228202
Si Si7 0.114062 0.751963 0.144095
Si Si8 0.246881 0.369051 0.190602
O O1 0.787011 0.314818 0.199755
O O2 0.376217 0.589050 0.164243
O O3 0.907385 0.475429 0.182435
O O4 0.872605 0.320863 0.992621
O O5 0.617903 0.744624 0.466105
O O6 0.762724 0.846516 0.640368
O O7 0.081851 0.779623 0.458081
O O8 0.500000 0.000000 0.500000
O O9 0.787622 0.151546 0.856423
O O10 0.614265 0.018863 0.885798
O O11 0.446526 0.290295 0.060692
O O12 0.000000 0.000000 0.000000
O O13 0.340740 0.738969 0.617250
O O14 0.617660 0.509237 0.410679
O O15 0.722061 0.534697 0.697147
O O16 0.399022 0.199519 0.203092
O O17 0.773628 0.896354 0.224739
#
# Coordination Sequence:
#
# PCOD9065793 Si02
#       8
#     2   2   2   2   2   2   2   2
#     4  11  25  43  68 104 149 191 245 308 376 463
#     4  12  29  51  79 110 154 196 262 317 388 450
#     4  12  24  40  70 106 146 191 247 303 379 463
#     4  11  28  52  75 113 143 200 260 321 377 453
#     4  11  26  45  78  98 149 194 254 316 382 444
#     4  12  26  44  73 103 147 195 247 317 378 455
#     4  11  25  43  65 105 150 191 241 302 385 459
#     4  12  23  43  71 108 140 194 251 309 373 459
#
# _framework density 26.063953000000001
#
# number of rings (size 3 to 8) (size 9 to 14) (size 15 to 20)
#    0.000    0.500    5.000    2.250    7.000    3.500 
#    0.000    0.000    0.000    0.000    0.000    0.000 
#    0.000    0.000    0.000    0.000    0.000    0.000 
#
# Total GULP energy -89243.764067 kJ/mol
# GULP energy per Si atom -5577.735254 kJ/mol
# Density = 2.600463 g / cm^3
# Si number density = 26.063953 Si / 1000 Ang^3
#
#
#
# Elastic Constant Matrix: (Units=GPa)
#
#
# Indices 1 2 3 4 5 6 
#
# 1 139.4113 26.9796 26.9828 10.4343 18.0795 -3.5403
# 2 26.9796 91.1511 8.1915 7.0829 -4.2636 -7.6458
# 3 26.9828 8.1915 51.2197 6.3168 11.3249 0.9652
# 4 10.4343 7.0829 6.3168 24.1510 -1.9280 -1.7234
# 5 18.0795 -4.2636 11.3249 -1.9280 49.7934 13.4659
# 6 -3.5403 -7.6458 0.9652 -1.7234 13.4659 46.7706
#
#
#
# Elastic Compliance Matrix: (Units=1/GPa)
#
#
# Indices 1 2 3 4 5 6 
#
# 1 0.008853 -0.002171 -0.003360 -0.002469 -0.003049 0.001171
# 2 -0.002171 0.012042 -0.000894 -0.002141 0.001592 0.001285
# 3 -0.003360 -0.000894 0.022956 -0.004620 -0.004309 0.000196
# 4 -0.002469 -0.002141 -0.004620 0.044599 0.003433 0.000213
# 5 -0.003049 0.001592 -0.004309 0.003433 0.024262 -0.006740
# 6 0.001171 0.001285 0.000196 0.000213 -0.006740 0.023624
#
#
# Mechanical properties :
#
#
# Convention : Reuss Voigt Hill
#
# Bulk Modulus (GPa) = 32.25784 45.12113 38.68948
# Shear Modulus (GPa) = 31.34363 38.78487 35.06425
#
# Velocity S-wave (km/s) = 3.47157 3.86173 3.67183
# Velocity P-wave (km/s) = 5.33595 6.10190 5.73173
#
# Compressibility (1/GPa) = 0.03100022
#
# Stress axis : x y z
#
# Youngs Moduli (GPa) = 112.95005 83.03964 43.56165
#
# Poissons Ratio (x) = 0.18028 0.14638
# Poissons Ratio (y) = 0.24522 0.03897
# Poissons Ratio (z) = 0.37955 0.07428
#
# Static dielectric constant tensor:
#      x y z
#    x 2.242720 -0.039870 -0.037810 
#    y -0.039870 2.020180 0.014290 
#    z -0.037810 0.014290 2.088470 
# 
# From -- ./inp_files/482884.got.cif
#   From: 2010.05.17/outbox.cif.g08.bks.cpg/sg2_242_cif.got.tgz:482884.got - 2010.06.03 11:33:40.
