data_PCOD9065518
_publ_section_title
;
Structure prediction by ZEFSAII (Michael W. Deem and Ramdas Pophale) SiO2 
 PCOD9065518
Probable space group: P -1
;
_chemical_formula_sum "Si O2"
_cell_formula_units_Z 14
_cell_length_a 16.159683
_cell_length_b 16.568234
_cell_length_c 8.596964
_cell_angle_alpha 136.494648
_cell_angle_beta 62.065170
_cell_angle_gamma 152.573234
_cell_volume 608.171165
_symmetry_space_group_name_H-M "P -1"
_symmetry_group_IT_number 2
_symmetry_cell_setting 'triclinic'
loop_
_space_group_symop_operation_xyz
x,y,z
-x,-y,-z
loop_
_atom_site_type_symbol
_atom_site_label
_atom_site_fract_x
_atom_site_fract_y
_atom_site_fract_z
Si Si1 0.835358 0.381787 0.598936
Si Si2 0.606466 0.387921 0.160784
Si Si3 0.549238 0.913076 0.409705
Si Si4 0.462865 0.328382 0.720748
Si Si5 0.133498 0.900853 0.958405
Si Si6 0.876393 0.736189 0.719361
Si Si7 0.789509 0.822490 0.502781
O O1 0.597671 0.167685 0.465196
O O2 0.000000 0.500000 0.500000
O O3 0.975988 0.657841 0.875303
O O4 0.759932 0.214125 0.573394
O O5 0.781973 0.596834 0.436293
O O6 0.614035 0.523834 0.260908
O O7 0.607174 0.295183 0.891439
O O8 0.365227 0.101983 0.037955
O O9 0.597344 0.844335 0.353093
O O10 0.673398 0.523336 0.715652
O O11 0.281594 0.152754 0.509653
O O12 0.500000 0.500000 0.000000
O O13 0.021623 0.793963 0.740610
O O14 0.167174 0.070826 0.222532
O O15 0.000000 0.000000 0.000000
O O16 0.000000 0.000000 0.500000
#
# Coordination Sequence:
#
# PCOD9065518 Si02
#       7
#     2   2   2   2   2   2   2
#     4  11  24  48  79  98 145 204 248 306 366 431
#     4  12  24  43  72 108 146 189 242 305 369 452
#     4  11  25  46  76 110 144 195 252 303 368 440
#     4  12  24  42  69 110 150 185 236 307 369 445
#     4  12  23  44  70 102 142 193 243 298 372 428
#     4  12  25  41  70 108 147 194 237 292 378 443
#     4  12  24  40  67 105 152 189 234 301 377 442
#
# _framework density 23.019836000000002
#
# number of rings (size 3 to 8) (size 9 to 14) (size 15 to 20)
#    0.000    0.286    7.143    3.000    0.000    0.000 
#    0.000    1.429    6.286    0.000    0.000    0.000 
#    0.000    0.000    0.000    0.000    0.000    0.000 
#
# Total GULP energy -78082.287253 kJ/mol
# GULP energy per Si atom -5577.306232 kJ/mol
# Density = 2.296744 g / cm^3
# Si number density = 23.019836 Si / 1000 Ang^3
#
#
#
# Elastic Constant Matrix: (Units=GPa)
#
#
# Indices 1 2 3 4 5 6 
#
# 1 130.7221 38.3688 43.7582 12.3090 2.5801 -25.8009
# 2 38.3688 136.8536 18.1560 28.1662 -4.2793 2.8125
# 3 43.7582 18.1560 72.0818 9.5778 14.3307 -16.7666
# 4 12.3090 28.1662 9.5778 43.1596 -8.6518 -13.0249
# 5 2.5801 -4.2793 14.3307 -8.6518 40.1757 1.9036
# 6 -25.8009 2.8125 -16.7666 -13.0249 1.9036 44.7396
#
#
#
# Elastic Compliance Matrix: (Units=1/GPa)
#
#
# Indices 1 2 3 4 5 6 
#
# 1 0.011041 -0.002788 -0.005233 0.001528 0.000953 0.004986
# 2 -0.002788 0.009683 -0.000993 -0.006597 0.000358 -0.004525
# 3 -0.005233 -0.000993 0.020152 -0.002623 -0.007720 0.004161
# 4 0.001528 -0.006597 -0.002623 0.031728 0.006528 0.009272
# 5 0.000953 0.000358 -0.007720 0.006528 0.029108 -0.001704
# 6 0.004986 -0.004525 0.004161 0.009272 -0.001704 0.029843
#
#
# Mechanical properties :
#
#
# Convention : Reuss Voigt Hill
#
# Bulk Modulus (GPa) = 43.77260 60.02483 51.89871
# Shear Modulus (GPa) = 31.80677 41.57327 36.69002
#
# Velocity S-wave (km/s) = 3.72117 4.25429 3.99663
# Velocity P-wave (km/s) = 6.12530 7.08970 6.62507
#
# Compressibility (1/GPa) = 0.02284534
#
# Stress axis : x y z
#
# Youngs Moduli (GPa) = 90.56776 103.27863 49.62408
#
# Poissons Ratio (x) = 0.28799 0.25970
# Poissons Ratio (y) = 0.25254 0.04929
# Poissons Ratio (z) = 0.47397 0.10259
#
# Static dielectric constant tensor:
#      x y z
#    x 1.871830 0.063980 -0.066650 
#    y 0.063980 1.887220 0.002190 
#    z -0.066650 0.002190 1.880500 
# 
# From -- ./inp_files/315853.got.cif
#   From: 2010.05.17/outbox.cif.g08.bks.cpg/sg2_158_cif.got.tgz:315853.got - 2010.06.03 11:33:40.
