data_PCOD9065692
_publ_section_title
;
Structure prediction by ZEFSAII (Michael W. Deem and Ramdas Pophale) SiO2 
 PCOD9065692
Probable space group: P -1
;
_chemical_formula_sum "Si O2"
_cell_formula_units_Z 14
_cell_length_a 16.682526
_cell_length_b 20.165577
_cell_length_c 6.238571
_cell_angle_alpha 47.126639
_cell_angle_beta 53.338105
_cell_angle_gamma 23.864761
_cell_volume 620.037219
_symmetry_space_group_name_H-M "P -1"
_symmetry_group_IT_number 2
_symmetry_cell_setting 'triclinic'
loop_
_space_group_symop_operation_xyz
x,y,z
-x,-y,-z
loop_
_atom_site_type_symbol
_atom_site_label
_atom_site_fract_x
_atom_site_fract_y
_atom_site_fract_z
Si Si1 0.659261 0.452747 0.333656
Si Si2 0.014477 0.597026 0.753317
Si Si3 0.565123 0.705523 0.103048
Si Si4 0.971056 0.914429 0.190708
Si Si5 0.977347 0.253349 0.921371
Si Si6 0.341928 0.943008 0.330613
Si Si7 0.574793 0.010383 0.544380
O O1 0.500000 0.500000 0.500000
O O2 0.527575 0.641346 0.193684
O O3 0.835196 0.288183 0.578077
O O4 0.780057 0.377434 0.089035
O O5 0.195903 0.475104 0.888852
O O6 0.059763 0.622249 0.414010
O O7 0.798568 0.805226 0.689108
O O8 0.000000 0.500000 0.000000
O O9 0.486087 0.773551 0.320366
O O10 0.467513 0.864411 0.788293
O O11 0.963220 0.876608 0.047579
O O12 0.781556 0.024890 0.382170
O O13 0.000000 0.000000 0.000000
O O14 0.164772 0.121451 0.071377
O O15 0.477060 0.914048 0.296562
O O16 0.500000 0.000000 0.500000
#
# Coordination Sequence:
#
# PCOD9065692 Si02
#       7
#     2   2   2   2   2   2   2
#     4  11  28  44  73 113 150 196 251 305 374 445
#     4  12  24  49  74 107 148 194 248 305 367 443
#     4  12  26  47  73 110 152 194 251 307 372 446
#     4  11  25  44  75 106 148 199 246 306 379 437
#     4  11  24  51  73 106 157 195 249 310 368 447
#     4  11  25  46  76 104 151 195 247 309 373 442
#     4  12  26  50  73 108 150 193 254 304 376 442
#
# _framework density 22.579291999999999
#
# number of rings (size 3 to 8) (size 9 to 14) (size 15 to 20)
#    0.000    0.571    5.714    0.857    8.000    2.286 
#    0.000    3.571    0.000    0.000    0.000    0.000 
#    0.000    0.000    0.000    0.000    0.000    0.000 
#
# Total GULP energy -78043.989953 kJ/mol
# GULP energy per Si atom -5574.570711 kJ/mol
# Density = 2.252790 g / cm^3
# Si number density = 22.579292 Si / 1000 Ang^3
#
#
#
# Elastic Constant Matrix: (Units=GPa)
#
#
# Indices 1 2 3 4 5 6 
#
# 1 149.8487 31.3960 65.3308 -9.0320 -18.7720 23.5907
# 2 31.3960 104.5185 30.0318 -14.7978 -1.9627 23.6630
# 3 65.3308 30.0318 104.6410 -17.2754 -25.2934 24.9661
# 4 -9.0320 -14.7978 -17.2754 27.2452 11.7673 -0.9190
# 5 -18.7720 -1.9627 -25.2934 11.7673 43.6983 -7.0644
# 6 23.5907 23.6630 24.9661 -0.9190 -7.0644 40.2775
#
#
#
# Elastic Compliance Matrix: (Units=1/GPa)
#
#
# Indices 1 2 3 4 5 6 
#
# 1 0.009469 -0.001194 -0.005158 -0.001325 0.001146 -0.001476
# 2 -0.001194 0.012640 -0.000982 0.007136 -0.003497 -0.006568
# 3 -0.005158 -0.000982 0.016566 0.005998 0.004793 -0.005692
# 4 -0.001325 0.007136 0.005998 0.048477 -0.011121 -0.007978
# 5 0.001146 -0.003497 0.004793 -0.011121 0.029528 0.003337
# 6 -0.001476 -0.006568 -0.005692 -0.007978 0.003337 0.033483
#
#
# Mechanical properties :
#
#
# Convention : Reuss Voigt Hill
#
# Bulk Modulus (GPa) = 41.65777 68.05839 54.85808
# Shear Modulus (GPa) = 28.92936 37.72751 33.32843
#
# Velocity S-wave (km/s) = 3.58332 4.09209 3.84612
# Velocity P-wave (km/s) = 5.96740 7.24805 6.63868
#
# Compressibility (1/GPa) = 0.02400513
#
# Stress axis : x y z
#
# Youngs Moduli (GPa) = 105.61195 79.11192 60.36470
#
# Poissons Ratio (x) = 0.09446 0.31139
# Poissons Ratio (y) = 0.12610 0.05931
# Poissons Ratio (z) = 0.54479 0.07773
#
# Static dielectric constant tensor:
#      x y z
#    x 1.530080 0.027880 0.090080 
#    y 0.027880 1.882350 0.028070 
#    z 0.090080 0.028070 1.879910 
# 
# From -- ./inp_files/99480.got.cif
#   From: 2010.05.17/outbox.cif.g08.bks.cpg/sg2_50_cif.got.tgz:99480.got - 2010.06.03 11:33:40.
