data_PCOD9065380
_publ_section_title
;
Structure prediction by ZEFSAII (Michael W. Deem and Ramdas Pophale) SiO2 
 PCOD9065380
Probable space group: P -1
;
_chemical_formula_sum "Si O2"
_cell_formula_units_Z 16
_cell_length_a 8.530294
_cell_length_b 9.215400
_cell_length_c 12.747234
_cell_angle_alpha 70.152877
_cell_angle_beta 70.925905
_cell_angle_gamma 44.381450
_cell_volume 653.828829
_symmetry_space_group_name_H-M "P -1"
_symmetry_group_IT_number 2
_symmetry_cell_setting 'triclinic'
loop_
_space_group_symop_operation_xyz
x,y,z
-x,-y,-z
loop_
_atom_site_type_symbol
_atom_site_label
_atom_site_fract_x
_atom_site_fract_y
_atom_site_fract_z
Si Si1 0.269811 0.684025 0.945336
Si Si2 0.200031 0.429519 0.899593
Si Si3 0.909979 0.593838 0.310117
Si Si4 0.117012 0.164575 0.352175
Si Si5 0.586306 0.436846 0.377168
Si Si6 0.654361 0.138625 0.807231
Si Si7 0.028135 0.110479 0.840131
Si Si8 0.490172 0.834502 0.498811
O O1 0.227422 0.593094 0.882376
O O2 0.500000 0.500000 0.000000
O O3 0.073690 0.783613 0.050129
O O4 0.256142 0.869592 0.865968
O O5 0.142807 0.413019 0.798276
O O6 0.457029 0.207317 0.911202
O O7 0.000000 0.500000 0.000000
O O8 0.699689 0.690513 0.407547
O O9 0.106783 0.347103 0.351044
O O10 0.958180 0.744455 0.266524
O O11 0.857565 0.281354 0.361343
O O12 0.252842 0.052648 0.242037
O O13 0.252821 0.978591 0.452021
O O14 0.500000 0.500000 0.500000
O O15 0.461466 0.651530 0.288562
O O16 0.515059 0.309678 0.388529
O O17 0.856892 0.094965 0.832140
O O18 0.500000 0.000000 0.500000
#
# Coordination Sequence:
#
# PCOD9065380 Si02
#       8
#     2   2   2   2   2   2   2   2
#     4  11  24  48  72 102 146 189 242 295 364 439
#     4  12  23  48  75 106 145 189 242 303 368 434
#     4  12  26  49  68 111 149 184 246 307 361 434
#     4  12  24  46  75 101 150 189 247 299 371 434
#     4  12  24  48  74 103 144 194 251 298 366 442
#     4  12  26  46  74 109 144 197 247 300 367 445
#     4  11  27  44  72 107 143 190 242 299 367 433
#     4  12  29  45  69 111 147 193 247 304 370 433
#
# _framework density 24.471236000000001
#
# number of rings (size 3 to 8) (size 9 to 14) (size 15 to 20)
#    0.000    0.250    7.500    1.125    3.500    1.500 
#    0.000    3.125    0.000    0.000    0.000    0.000 
#    0.000    0.000    0.000    0.000    0.000    0.000 
#
# Total GULP energy -89522.990155 kJ/mol
# GULP energy per Si atom -5595.186885 kJ/mol
# Density = 2.441554 g / cm^3
# Si number density = 24.471236 Si / 1000 Ang^3
#
#
#
# Elastic Constant Matrix: (Units=GPa)
#
#
# Indices 1 2 3 4 5 6 
#
# 1 70.3835 43.6221 15.2141 0.6918 -10.7418 -0.5176
# 2 43.6221 185.2095 46.5398 5.7412 -18.8492 0.1808
# 3 15.2141 46.5398 61.8268 9.6490 -15.9579 -7.5307
# 4 0.6918 5.7412 9.6490 45.1310 3.7338 0.8126
# 5 -10.7418 -18.8492 -15.9579 3.7338 42.9262 -3.4422
# 6 -0.5176 0.1808 -7.5307 0.8126 -3.4422 38.3243
#
#
#
# Elastic Compliance Matrix: (Units=1/GPa)
#
#
# Indices 1 2 3 4 5 6 
#
# 1 0.016952 -0.003533 -0.000896 0.000181 0.002364 0.000278
# 2 -0.003533 0.007479 -0.004751 0.000091 0.000548 -0.000969
# 3 -0.000896 -0.004751 0.023270 -0.005049 0.007207 0.005337
# 4 0.000181 0.000091 -0.005049 0.023587 -0.003992 -0.001849
# 5 0.002364 0.000548 0.007207 -0.003992 0.027475 0.003998
# 6 0.000278 -0.000969 0.005337 -0.001849 0.003998 0.027548
#
#
# Mechanical properties :
#
#
# Convention : Reuss Voigt Hill
#
# Bulk Modulus (GPa) = 34.08298 58.68575 46.38436
# Shear Modulus (GPa) = 32.37246 39.41254 35.89250
#
# Velocity S-wave (km/s) = 3.64108 4.01754 3.83394
# Velocity P-wave (km/s) = 5.62447 6.74940 6.21245
#
# Compressibility (1/GPa) = 0.02934016
#
# Stress axis : x y z
#
# Youngs Moduli (GPa) = 58.98927 133.70399 42.97443
#
# Poissons Ratio (x) = 0.47234 0.03852
# Poissons Ratio (y) = 0.20839 0.20419
# Poissons Ratio (z) = 0.05288 0.63527
#
# Static dielectric constant tensor:
#      x y z
#    x 1.977230 0.018580 -0.012480 
#    y 0.018580 1.985410 -0.034550 
#    z -0.012480 -0.034550 1.978560 
# 
# From -- ./inp_files/494623.got.cif
#   From: 2010.05.17/outbox.cif.g08.bks.cpg/sg2_248_cif.got.tgz:494623.got - 2010.06.03 11:33:40.
