data_PCOD9065757
_publ_section_title
;
Structure prediction by ZEFSAII (Michael W. Deem and Ramdas Pophale) SiO2 
 PCOD9065757
Probable space group: P -1
;
_chemical_formula_sum "Si O2"
_cell_formula_units_Z 14
_cell_length_a 14.896590
_cell_length_b 7.796251
_cell_length_c 13.803998
_cell_angle_alpha 47.159672
_cell_angle_beta 147.663836
_cell_angle_gamma 109.117767
_cell_volume 488.413547
_symmetry_space_group_name_H-M "P -1"
_symmetry_group_IT_number 2
_symmetry_cell_setting 'triclinic'
loop_
_space_group_symop_operation_xyz
x,y,z
-x,-y,-z
loop_
_atom_site_type_symbol
_atom_site_label
_atom_site_fract_x
_atom_site_fract_y
_atom_site_fract_z
Si Si1 0.252610 0.717091 0.847557
Si Si2 0.760906 0.575969 0.825386
Si Si3 0.416211 0.005583 0.816486
Si Si4 0.886965 0.429407 0.778549
Si Si5 0.787013 0.677676 0.139359
Si Si6 0.623043 0.302774 0.468872
Si Si7 0.938121 0.142912 0.639611
O O1 0.368130 0.774205 0.850207
O O2 0.279076 0.417562 0.975600
O O3 0.404911 0.643239 0.105963
O O4 0.000000 0.000000 0.500000
O O5 0.867912 0.717377 0.914619
O O6 0.770476 0.586534 0.714056
O O7 0.521265 0.746052 0.578851
O O8 0.926171 0.206836 0.133746
O O9 0.189664 0.323340 0.467802
O O10 0.585353 0.934062 0.919282
O O11 0.500000 0.000000 0.000000
O O12 0.787583 0.280006 0.703043
O O13 0.884113 0.378359 0.412502
O O14 0.920723 0.792385 0.195621
O O15 0.752091 0.212013 0.516733
#
# Coordination Sequence:
#
# PCOD9065757 Si02
#       7
#     2   2   2   2   2   2   2
#     4  12  26  40  70 108 150 189 241 305 371 443
#     4  11  27  51  73 106 149 198 247 306 352 441
#     4  12  23  43  73 108 143 193 239 306 376 434
#     4  11  25  48  78 104 147 197 248 296 371 431
#     4  11  25  42  67 111 148 190 244 309 369 441
#     4  12  25  46  72 106 143 193 245 299 366 433
#     4  11  25  45  72 105 150 189 246 302 368 437
#
# _framework density 28.664235000000001
#
# number of rings (size 3 to 8) (size 9 to 14) (size 15 to 20)
#    0.000    0.571    2.857    4.286   10.000    0.571 
#    0.000    2.857    0.000    0.000    0.000    0.000 
#    0.000    0.000    0.000    0.000    0.000    0.000 
#
# Total GULP energy -78171.984091 kJ/mol
# GULP energy per Si atom -5583.713149 kJ/mol
# Density = 2.859899 g / cm^3
# Si number density = 28.664235 Si / 1000 Ang^3
#
#
#
# Elastic Constant Matrix: (Units=GPa)
#
#
# Indices 1 2 3 4 5 6 
#
# 1 143.9196 21.6488 67.2467 11.5287 47.7162 10.4041
# 2 21.6488 119.5093 30.2821 35.4071 32.0603 4.0405
# 3 67.2467 30.2821 143.1094 25.8848 26.7413 -7.6583
# 4 11.5287 35.4071 25.8848 32.3288 -0.7061 3.5661
# 5 47.7162 32.0603 26.7413 -0.7061 69.8967 0.9394
# 6 10.4041 4.0405 -7.6583 3.5661 0.9394 46.9361
#
#
#
# Elastic Compliance Matrix: (Units=1/GPa)
#
#
# Indices 1 2 3 4 5 6 
#
# 1 0.011310 0.001639 -0.004109 -0.002358 -0.006884 -0.003002
# 2 0.001639 0.015815 0.000971 -0.018883 -0.008936 0.000047
# 3 -0.004109 0.000971 0.010812 -0.008659 -0.001908 0.003287
# 4 -0.002358 -0.018883 -0.008659 0.060153 0.014247 -0.004120
# 5 -0.006884 -0.008936 -0.001908 0.014247 0.023974 0.000422
# 6 -0.003002 0.000047 0.003287 -0.004120 0.000422 0.022808
#
#
# Mechanical properties :
#
#
# Convention : Reuss Voigt Hill
#
# Bulk Modulus (GPa) = 28.62161 71.65483 50.13822
# Shear Modulus (GPa) = 31.34504 48.98971 40.16738
#
# Velocity S-wave (km/s) = 3.31044 4.13860 3.74746
# Velocity P-wave (km/s) = 4.96173 6.92023 6.02114
#
# Compressibility (1/GPa) = 0.03493864
#
# Stress axis : x y z
#
# Youngs Moduli (GPa) = 88.41631 63.23274 92.49131
#
# Poissons Ratio (x) = -0.10366 0.38007
# Poissons Ratio (y) = -0.14494 -0.08981
# Poissons Ratio (z) = 0.36333 -0.06140
#
# Static dielectric constant tensor:
#      x y z
#    x 2.310970 0.026970 0.092860 
#    y 0.026970 2.326490 0.015280 
#    z 0.092860 0.015280 3.253590 
# 
# From -- ./inp_files/529430.got.cif
#   From: 2010.05.17/outbox.cif.g08.bks.cpg/sg2_265_cif.got.tgz:529430.got - 2010.06.03 11:33:40.
