data_PCOD9065461
_publ_section_title
;
Structure prediction by ZEFSAII (Michael W. Deem and Ramdas Pophale) SiO2 
 PCOD9065461
Probable space group: P -1
;
_chemical_formula_sum "Si O2"
_cell_formula_units_Z 11
_cell_length_a 9.549066
_cell_length_b 12.712933
_cell_length_c 15.753496
_cell_angle_alpha 152.704417
_cell_angle_beta 136.021401
_cell_angle_gamma 36.008779
_cell_volume 515.594539
_symmetry_space_group_name_H-M "P -1"
_symmetry_group_IT_number 2
_symmetry_cell_setting 'triclinic'
loop_
_space_group_symop_operation_xyz
x,y,z
-x,-y,-z
loop_
_atom_site_type_symbol
_atom_site_label
_atom_site_fract_x
_atom_site_fract_y
_atom_site_fract_z
Si Si1 0.246933 0.465653 0.554943
Si Si2 0.534601 0.851461 0.819119
Si Si3 0.837467 0.270834 0.478001
Si Si4 0.370222 0.080646 0.593302
Si Si5 0.274048 0.836206 0.972888
Si Si6 0.500000 0.500000 0.000000
O O1 0.209655 0.586476 0.532110
O O2 0.300694 0.640250 0.767499
O O3 0.000000 0.500000 0.500000
O O4 0.454353 0.155836 0.435700
O O5 0.702015 0.524098 0.664858
O O6 0.290235 0.897591 0.705954
O O7 0.500000 0.000000 0.000000
O O8 0.654973 0.960224 0.886849
O O9 0.117803 0.106319 0.497605
O O10 0.500000 0.000000 0.500000
O O11 0.345364 0.361711 0.806785
O O12 0.430095 0.662855 0.995760
O O13 0.000000 0.000000 0.000000
#
# Coordination Sequence:
#
# PCOD9065461 Si02
#       6
#     2   2   2   2   2   1
#     4  12  22  42  71 105 143 183 235 298 356 417
#     4  11  24  48  75 102 143 195 235 291 369 427
#     4  11  25  45  72 103 145 186 237 298 355 428
#     4  12  24  41  69 107 139 185 234 293 355 417
#     4  12  25  43  73 105 136 190 241 293 353 424
#     4  12  24  42  66 102 144 172 236 290 346 410
#
# _framework density 21.334593000000002
#
# number of rings (size 3 to 8) (size 9 to 14) (size 15 to 20)
#    0.000    0.364    5.455    4.364    0.000    1.455 
#    0.000   10.909    0.000    0.000    0.000    0.000 
#    0.000    0.000    0.000    0.000    0.000    0.000 
#
# Total GULP energy -61299.674946 kJ/mol
# GULP energy per Si atom -5572.697722 kJ/mol
# Density = 2.128603 g / cm^3
# Si number density = 21.334593 Si / 1000 Ang^3
#
#
#
# Elastic Constant Matrix: (Units=GPa)
#
#
# Indices 1 2 3 4 5 6 
#
# 1 119.8667 42.0146 44.2506 -10.8167 28.0087 -20.6187
# 2 42.0146 101.9542 21.9132 -13.8066 5.6654 -13.0835
# 3 44.2506 21.9132 133.7739 -20.4524 18.9149 -13.6196
# 4 -10.8167 -13.8066 -20.4524 27.3608 1.4886 5.9115
# 5 28.0087 5.6654 18.9149 1.4886 54.5382 -10.9815
# 6 -20.6187 -13.0835 -13.6196 5.9115 -10.9815 46.5693
#
#
#
# Elastic Compliance Matrix: (Units=1/GPa)
#
#
# Indices 1 2 3 4 5 6 
#
# 1 0.012099 -0.003804 -0.002367 0.000818 -0.004532 0.002424
# 2 -0.003804 0.012085 -0.000064 0.004203 0.000881 0.001367
# 3 -0.002367 -0.000064 0.009570 0.006212 -0.002180 0.000431
# 4 0.000818 0.004203 0.006212 0.044654 -0.004929 -0.003471
# 5 -0.004532 0.000881 -0.002180 -0.004929 0.022158 0.003454
# 6 0.002424 0.001367 0.000431 -0.003471 0.003454 0.024311
#
#
# Mechanical properties :
#
#
# Convention : Reuss Voigt Hill
#
# Bulk Modulus (GPa) = 46.97959 63.55017 55.26488
# Shear Modulus (GPa) = 34.61583 42.18810 38.40196
#
# Velocity S-wave (km/s) = 4.03242 4.45168 4.24723
# Velocity P-wave (km/s) = 6.61429 7.50169 7.07192
#
# Compressibility (1/GPa) = 0.02128584
#
# Stress axis : x y z
#
# Youngs Moduli (GPa) = 82.65018 82.74530 104.48896
#
# Poissons Ratio (x) = 0.31474 0.24728
# Poissons Ratio (y) = 0.31438 0.00671
# Poissons Ratio (z) = 0.19560 0.00531
#
# Static dielectric constant tensor:
#      x y z
#    x 1.789100 -0.009710 -0.023470 
#    y -0.009710 1.736130 0.008670 
#    z -0.023470 0.008670 1.825380 
# 
# From -- ./inp_files/302020.got.cif
#   From: 2010.05.17/outbox.cif.g08.bks.cpg/sg2_152_cif.got.tgz:302020.got - 2010.06.03 11:33:40.
