data_PCOD9065197
_publ_section_title
;
Structure prediction by ZEFSAII (Michael W. Deem and Ramdas Pophale) SiO2 
 PCOD9065197
Probable space group: P -1
;
_chemical_formula_sum "Si O2"
_cell_formula_units_Z 15
_cell_length_a 11.253608
_cell_length_b 9.228741
_cell_length_c 12.740268
_cell_angle_alpha 127.035308
_cell_angle_beta 40.559220
_cell_angle_gamma 115.074211
_cell_volume 685.340243
_symmetry_space_group_name_H-M "P -1"
_symmetry_group_IT_number 2
_symmetry_cell_setting 'triclinic'
loop_
_space_group_symop_operation_xyz
x,y,z
-x,-y,-z
loop_
_atom_site_type_symbol
_atom_site_label
_atom_site_fract_x
_atom_site_fract_y
_atom_site_fract_z
Si Si1 0.080651 0.802203 0.330522
Si Si2 0.600769 0.183871 0.035520
Si Si3 0.089673 0.687710 0.509003
Si Si4 0.500000 0.500000 0.500000
Si Si5 0.466456 0.604077 0.337859
Si Si6 0.079502 0.476461 0.818686
Si Si7 0.118435 0.006230 0.083032
Si Si8 0.813591 0.786797 0.079652
O O1 0.272044 0.793878 0.139796
O O2 0.108539 0.707800 0.381418
O O3 0.944183 0.717995 0.302291
O O4 0.000000 0.000000 0.500000
O O5 0.733808 0.134330 0.023131
O O6 0.492817 0.380584 0.210707
O O7 0.500000 0.000000 0.000000
O O8 0.283933 0.677363 0.432751
O O9 0.000000 0.500000 0.500000
O O10 0.954388 0.846585 0.718209
O O11 0.445028 0.627322 0.486930
O O12 0.288617 0.512991 0.687411
O O13 0.636543 0.708679 0.220506
O O14 0.000000 0.500000 0.000000
O O15 0.951600 0.610729 0.891110
O O16 0.210965 0.103997 0.965039
O O17 0.938437 0.909673 0.122321
#
# Coordination Sequence:
#
# PCOD9065197 Si02
#       8
#     2   2   2   1   2   2   2   2
#     4  12  26  47  75 106 153 198 245 318 382 447
#     4  12  27  46  71 107 145 198 245 307 385 459
#     4  12  27  47  70 108 150 195 253 314 380 452
#     4  12  24  40  78 108 142 192 256 306 370 450
#     4  12  27  46  77 109 145 202 254 310 381 465
#     4  12  24  48  77 109 152 201 258 310 384 461
#     4  11  25  47  72 102 151 194 246 320 381 441
#     4  11  24  47  74 104 146 198 251 315 379 450
#
# _framework density 21.886938000000001
#
# number of rings (size 3 to 8) (size 9 to 14) (size 15 to 20)
#    0.000    0.267    4.000    4.800    3.733    2.133 
#    0.000    0.000    0.000    0.000    0.000    0.000 
#    0.000    0.000    0.000    0.000    0.000    0.000 
#
# Total GULP energy -83648.489178 kJ/mol
# GULP energy per Si atom -5576.565945 kJ/mol
# Density = 2.183712 g / cm^3
# Si number density = 21.886938 Si / 1000 Ang^3
#
#
#
# Elastic Constant Matrix: (Units=GPa)
#
#
# Indices 1 2 3 4 5 6 
#
# 1 110.2852 46.2169 38.9968 -32.9330 10.1623 -12.2161
# 2 46.2169 124.0622 46.2962 -23.2797 14.8286 -3.1773
# 3 38.9968 46.2962 78.6833 -15.0545 9.0766 6.0671
# 4 -32.9330 -23.2797 -15.0545 55.2906 0.1763 8.4062
# 5 10.1623 14.8286 9.0766 0.1763 40.3774 -5.2711
# 6 -12.2161 -3.1773 6.0671 8.4062 -5.2711 46.1787
#
#
#
# Elastic Compliance Matrix: (Units=1/GPa)
#
#
# Indices 1 2 3 4 5 6 
#
# 1 0.013665 -0.002126 -0.004531 0.005573 -0.001285 0.002903
# 2 -0.002126 0.011423 -0.004977 0.002167 -0.002525 0.000195
# 3 -0.004531 -0.004977 0.018605 0.000940 -0.001788 -0.004361
# 4 0.005573 0.002167 0.000940 0.023044 -0.002905 -0.003027
# 5 -0.001285 -0.002525 -0.001788 -0.002905 0.026865 0.003317
# 6 0.002903 0.000195 -0.004361 -0.003027 0.003317 0.023939
#
#
# Mechanical properties :
#
#
# Convention : Reuss Voigt Hill
#
# Bulk Modulus (GPa) = 48.95681 64.00561 56.48121
# Shear Modulus (GPa) = 33.87185 40.47071 37.17128
#
# Velocity S-wave (km/s) = 3.93820 4.30476 4.12555
# Velocity P-wave (km/s) = 6.56474 7.34950 6.96818
#
# Compressibility (1/GPa) = 0.02042617
#
# Stress axis : x y z
#
# Youngs Moduli (GPa) = 73.18184 87.54285 53.74832
#
# Poissons Ratio (x) = 0.18612 0.24352
# Poissons Ratio (y) = 0.15559 0.26748
# Poissons Ratio (z) = 0.33157 0.43566
#
# Static dielectric constant tensor:
#      x y z
#    x 1.916890 0.069670 0.108910 
#    y 0.069670 1.874160 0.079790 
#    z 0.108910 0.079790 1.832800 
# 
# From -- ./inp_files/419883.got.cif
#   From: 2010.05.17/outbox.cif.g08.bks.cpg/sg2_210_cif.got.tgz:419883.got - 2010.06.03 11:33:40.
