data_PCOD9065655
_publ_section_title
;
Structure prediction by ZEFSAII (Michael W. Deem and Ramdas Pophale) SiO2 
 PCOD9065655
Probable space group: P -1
;
_chemical_formula_sum "Si O2"
_cell_formula_units_Z 14
_cell_length_a 11.515835
_cell_length_b 11.326174
_cell_length_c 5.588019
_cell_angle_alpha 122.832804
_cell_angle_beta 85.797132
_cell_angle_gamma 104.876576
_cell_volume 589.938175
_symmetry_space_group_name_H-M "P -1"
_symmetry_group_IT_number 2
_symmetry_cell_setting 'triclinic'
loop_
_space_group_symop_operation_xyz
x,y,z
-x,-y,-z
loop_
_atom_site_type_symbol
_atom_site_label
_atom_site_fract_x
_atom_site_fract_y
_atom_site_fract_z
Si Si1 0.233634 0.242177 0.125567
Si Si2 0.837465 0.304413 0.759417
Si Si3 0.049873 0.405931 0.206482
Si Si4 0.436033 0.517062 0.280000
Si Si5 0.123708 0.967496 0.524401
Si Si6 0.330511 0.036980 0.203884
Si Si7 0.406464 0.831632 0.563326
O O1 0.114537 0.300686 0.222788
O O2 0.323464 0.378395 0.142059
O O3 0.299503 0.183642 0.268982
O O4 0.197051 0.104087 0.810230
O O5 0.861231 0.467451 0.829828
O O6 0.886005 0.178443 0.480107
O O7 0.693373 0.225390 0.693974
O O8 0.932506 0.326682 0.986697
O O9 0.000000 0.500000 0.500000
O O10 0.500000 0.500000 0.500000
O O11 0.408792 0.673427 0.486636
O O12 0.500000 0.500000 0.000000
O O13 0.209003 0.961706 0.278854
O O14 0.000000 0.000000 0.500000
O O15 0.451866 0.085764 0.403054
O O16 0.360473 0.933708 0.874881
#
# Coordination Sequence:
#
# PCOD9065655 Si02
#       7
#     2   2   2   2   2   2   2
#     4  12  25  46  71 110 146 192 263 314 381 470
#     4  11  25  46  68 104 143 187 248 302 387 447
#     4  11  27  45  72 104 143 195 251 312 381 465
#     4  12  27  49  77 113 157 207 258 320 396 467
#     4  12  27  46  72 107 147 199 252 322 392 464
#     4  11  27  46  74 109 149 196 259 312 388 469
#     4  11  24  50  71 111 150 199 255 311 391 460
#
# _framework density 23.731299
#
# number of rings (size 3 to 8) (size 9 to 14) (size 15 to 20)
#    0.000    0.571    5.714    0.857    4.000    3.429 
#    0.000    0.000    0.000    0.000    0.000    0.000 
#    0.000    0.000    0.000    0.000    0.000    0.000 
#
# Total GULP energy -78040.862802 kJ/mol
# GULP energy per Si atom -5574.347343 kJ/mol
# Density = 2.367729 g / cm^3
# Si number density = 23.731299 Si / 1000 Ang^3
#
#
#
# Elastic Constant Matrix: (Units=GPa)
#
#
# Indices 1 2 3 4 5 6 
#
# 1 185.6865 66.8012 57.6093 -3.2887 26.9243 -12.6149
# 2 66.8012 111.6251 20.9961 27.0709 -5.2882 -21.2505
# 3 57.6093 20.9961 81.9015 25.7925 10.9916 5.4071
# 4 -3.2887 27.0709 25.7925 41.7145 4.5078 -1.0225
# 5 26.9243 -5.2882 10.9916 4.5078 50.5472 17.2978
# 6 -12.6149 -21.2505 5.4071 -1.0225 17.2978 62.6537
#
#
#
# Elastic Compliance Matrix: (Units=1/GPa)
#
#
# Indices 1 2 3 4 5 6 
#
# 1 0.014310 -0.010041 -0.011502 0.015766 -0.008642 0.003112
# 2 -0.010041 0.018609 0.006886 -0.017831 0.006872 0.001508
# 3 -0.011502 0.006886 0.024888 -0.021355 0.004624 -0.003753
# 4 0.015766 -0.017831 -0.021355 0.051271 -0.011182 0.002894
# 5 -0.008642 0.006872 0.004624 -0.011182 0.027713 -0.007642
# 6 0.003112 0.001508 -0.003753 0.002894 -0.007642 0.019580
#
#
# Mechanical properties :
#
#
# Convention : Reuss Voigt Hill
#
# Bulk Modulus (GPa) = 35.09738 74.44737 54.77238
# Shear Modulus (GPa) = 25.61704 46.57018 36.09361
#
# Velocity S-wave (km/s) = 3.28908 4.43470 3.90414
# Velocity P-wave (km/s) = 5.40793 7.59349 6.59192
#
# Compressibility (1/GPa) = 0.02849215
#
# Stress axis : x y z
#
# Youngs Moduli (GPa) = 69.88096 53.73675 40.18035
#
# Poissons Ratio (x) = 0.53956 0.46217
# Poissons Ratio (y) = 0.70167 -0.27667
# Poissons Ratio (z) = 0.80380 -0.37002
#
# Static dielectric constant tensor:
#      x y z
#    x 1.903040 -0.049490 -0.029500 
#    y -0.049490 2.025240 0.017990 
#    z -0.029500 0.017990 1.834380 
# 
# From -- ./inp_files/72573.got.cif
#   From: 2010.05.17/outbox.cif.g08.bks.cpg/sg2_37_cif.got.tgz:72573.got - 2010.06.03 11:33:40.
