data_PCOD9065409
_publ_section_title
;
Structure prediction by ZEFSAII (Michael W. Deem and Ramdas Pophale) SiO2 
 PCOD9065409
Probable space group: P -1
;
_chemical_formula_sum "Si O2"
_cell_formula_units_Z 16
_cell_length_a 11.232696
_cell_length_b 5.431037
_cell_length_c 11.802204
_cell_angle_alpha 86.969322
_cell_angle_beta 107.517063
_cell_angle_gamma 63.887227
_cell_volume 601.908989
_symmetry_space_group_name_H-M "P -1"
_symmetry_group_IT_number 2
_symmetry_cell_setting 'triclinic'
loop_
_space_group_symop_operation_xyz
x,y,z
-x,-y,-z
loop_
_atom_site_type_symbol
_atom_site_label
_atom_site_fract_x
_atom_site_fract_y
_atom_site_fract_z
Si Si1 0.241082 0.576781 0.177329
Si Si2 0.628677 0.210808 0.591965
Si Si3 0.775931 0.586306 0.259699
Si Si4 0.842265 0.175274 0.094095
Si Si5 0.051599 0.630027 0.293891
Si Si6 0.835392 0.191573 0.482117
Si Si7 0.569148 0.189479 0.978775
Si Si8 0.510227 0.007866 0.748111
O O1 0.285032 0.728973 0.284129
O O2 0.146552 0.457838 0.218818
O O3 0.386000 0.313045 0.184889
O O4 0.154368 0.750473 0.038506
O O5 0.500000 0.500000 0.500000
O O6 0.742825 0.075745 0.525296
O O7 0.550829 0.053355 0.632622
O O8 0.774537 0.463529 0.138614
O O9 0.928555 0.572498 0.306632
O O10 0.763186 0.364780 0.345750
O O11 0.652631 0.878985 0.266056
O O12 0.975551 0.946096 0.208842
O O13 0.732840 0.051092 0.063487
O O14 0.152071 0.602924 0.426999
O O15 0.000000 0.000000 0.500000
O O16 0.552875 0.191960 0.839323
O O17 0.500000 0.500000 0.000000
O O18 0.500000 0.000000 0.000000
#
# Coordination Sequence:
#
# PCOD9065409 Si02
#       8
#     2   2   2   2   2   2   2   2
#     4  11  28  47  72 110 151 198 251 315 397 462
#     4  11  25  48  72 103 145 196 250 315 387 463
#     4  12  26  45  75 110 142 197 254 311 384 455
#     4  12  25  46  74 108 149 196 254 314 381 466
#     4  11  27  47  73 104 150 200 254 314 386 464
#     4  11  24  48  73 101 145 195 252 318 377 461
#     4  12  25  44  75 114 160 206 254 316 394 468
#     4  12  26  45  74 108 151 190 249 324 379 469
#
# _framework density 26.582089
#
# number of rings (size 3 to 8) (size 9 to 14) (size 15 to 20)
#    0.000    0.500    5.000    2.250    3.500    3.000 
#    0.000    0.000    0.000    0.000    0.000    0.000 
#    0.000    0.000    0.000    0.000    0.000    0.000 
#
# Total GULP energy -89533.740294 kJ/mol
# GULP energy per Si atom -5595.858768 kJ/mol
# Density = 2.652159 g / cm^3
# Si number density = 26.582089 Si / 1000 Ang^3
#
#
#
# Elastic Constant Matrix: (Units=GPa)
#
#
# Indices 1 2 3 4 5 6 
#
# 1 143.3297 14.4046 22.7189 10.5664 -34.0144 -11.0275
# 2 14.4046 97.6124 18.9831 3.7334 -9.7673 -12.5492
# 3 22.7189 18.9831 130.9476 8.6495 -19.4741 0.3970
# 4 10.5664 3.7334 8.6495 36.2592 -3.4572 1.8732
# 5 -34.0144 -9.7673 -19.4741 -3.4572 58.9123 1.5377
# 6 -11.0275 -12.5492 0.3970 1.8732 1.5377 42.0620
#
#
#
# Elastic Compliance Matrix: (Units=1/GPa)
#
#
# Indices 1 2 3 4 5 6 
#
# 1 0.008472 -0.000342 -0.000634 -0.001963 0.004456 0.002049
# 2 -0.000342 0.011110 -0.001350 -0.000787 0.001067 0.003234
# 3 -0.000634 -0.001350 0.008352 -0.001434 0.002104 -0.000661
# 4 -0.001963 -0.000787 -0.001434 0.028678 -0.000003 -0.002013
# 5 0.004456 0.001067 0.002104 -0.000003 0.020401 0.000721
# 6 0.002049 0.003234 -0.000661 -0.002013 0.000721 0.025346
#
#
# Mechanical properties :
#
#
# Convention : Reuss Voigt Hill
#
# Bulk Modulus (GPa) = 42.95385 53.78922 48.37154
# Shear Modulus (GPa) = 43.56426 48.49889 46.03158
#
# Velocity S-wave (km/s) = 4.05267 4.27604 4.16586
# Velocity P-wave (km/s) = 6.17194 6.68270 6.43239
#
# Compressibility (1/GPa) = 0.02328080
#
# Stress axis : x y z
#
# Youngs Moduli (GPa) = 118.03862 90.00583 119.73180
#
# Poissons Ratio (x) = 0.03082 0.07591
# Poissons Ratio (y) = 0.04042 0.16167
# Poissons Ratio (z) = 0.07483 0.12153
#
# Static dielectric constant tensor:
#      x y z
#    x 2.175550 -0.058890 -0.020970 
#    y -0.058890 2.104210 -0.063660 
#    z -0.020970 -0.063660 2.132450 
# 
# From -- ./inp_files/410575.got.cif
#   From: 2010.05.17/outbox.cif.g08.bks.cpg/sg2_206_cif.got.tgz:410575.got - 2010.06.03 11:33:40.
