data_PCOD9065412
_publ_section_title
;
Structure prediction by ZEFSAII (Michael W. Deem and Ramdas Pophale) SiO2 
 PCOD9065412
Probable space group: P -1
;
_chemical_formula_sum "Si O2"
_cell_formula_units_Z 16
_cell_length_a 5.087113
_cell_length_b 12.545285
_cell_length_c 12.632128
_cell_angle_alpha 123.187382
_cell_angle_beta 90.646236
_cell_angle_gamma 76.324399
_cell_volume 648.592302
_symmetry_space_group_name_H-M "P -1"
_symmetry_group_IT_number 2
_symmetry_cell_setting 'triclinic'
loop_
_space_group_symop_operation_xyz
x,y,z
-x,-y,-z
loop_
_atom_site_type_symbol
_atom_site_label
_atom_site_fract_x
_atom_site_fract_y
_atom_site_fract_z
Si Si1 0.517692 0.542049 0.835235
Si Si2 0.162854 0.046923 0.934021
Si Si3 0.673933 0.638351 0.113948
Si Si4 0.729070 0.035366 0.451249
Si Si5 0.534778 0.786421 0.837988
Si Si6 0.929679 0.188049 0.811940
Si Si7 0.725970 0.321384 0.543650
Si Si8 0.806229 0.645642 0.568495
O O1 0.311911 0.469299 0.851746
O O2 0.422669 0.673594 0.832963
O O3 0.693360 0.430854 0.695095
O O4 0.650861 0.582821 0.965152
O O5 0.946956 0.140241 0.906339
O O6 0.349208 0.901009 0.823200
O O7 0.351549 0.134402 0.028186
O O8 0.000000 0.000000 0.000000
O O9 0.387121 0.755845 0.192417
O O10 0.933000 0.694870 0.146225
O O11 0.663598 0.189258 0.513040
O O12 0.500000 0.000000 0.500000
O O13 0.000000 0.000000 0.500000
O O14 0.839548 0.938757 0.301612
O O15 0.772081 0.711601 0.718937
O O16 0.485577 0.365599 0.480085
O O17 0.027567 0.286701 0.475126
O O18 0.000000 0.500000 0.500000
#
# Coordination Sequence:
#
# PCOD9065412 Si02
#       8
#     2   2   2   2   2   2   2   2
#     4  11  24  48  73 103 149 181 244 288 363 423
#     4  11  26  44  75 105 141 192 237 300 363 422
#     4  11  27  46  75 108 136 193 231 304 352 420
#     4  12  26  47  74 106 143 190 238 295 354 427
#     4  11  25  47  70 106 145 185 242 297 361 428
#     4  12  25  49  74 105 145 179 248 289 358 421
#     4  12  27  47  73 105 144 195 234 297 358 428
#     4  12  27  46  70 105 143 189 240 289 361 426
#
# _framework density 24.668807000000001
#
# number of rings (size 3 to 8) (size 9 to 14) (size 15 to 20)
#    0.000    0.500    2.500    4.875    5.250    5.000 
#    2.250    0.000    0.000    0.000    0.000    0.000 
#    0.000    0.000    0.000    0.000    0.000    0.000 
#
# Total GULP energy -89470.444549 kJ/mol
# GULP energy per Si atom -5591.902784 kJ/mol
# Density = 2.461266 g / cm^3
# Si number density = 24.668807 Si / 1000 Ang^3
#
#
#
# Elastic Constant Matrix: (Units=GPa)
#
#
# Indices 1 2 3 4 5 6 
#
# 1 107.9310 38.4496 7.9149 -6.1709 -14.7495 4.9678
# 2 38.4496 174.5704 31.7124 6.8094 -8.6909 16.3274
# 3 7.9149 31.7124 96.9756 14.5348 -28.7000 6.2785
# 4 -6.1709 6.8094 14.5348 39.9849 -4.6393 -9.3653
# 5 -14.7495 -8.6909 -28.7000 -4.6393 34.0753 -0.7684
# 6 4.9678 16.3274 6.2785 -9.3653 -0.7684 40.5087
#
#
#
# Elastic Compliance Matrix: (Units=1/GPa)
#
#
# Indices 1 2 3 4 5 6 
#
# 1 0.010917 -0.002446 0.001146 0.002336 0.005387 0.000112
# 2 -0.002446 0.006870 -0.002030 -0.001553 -0.001285 -0.002538
# 3 0.001146 -0.002030 0.015285 -0.004183 0.012228 -0.002426
# 4 0.002336 -0.001553 -0.004183 0.029111 0.001230 0.007741
# 5 0.005387 -0.001285 0.012228 0.001230 0.041796 -0.000961
# 6 0.000112 -0.002538 -0.002426 0.007741 -0.000961 0.027843
#
#
# Mechanical properties :
#
#
# Convention : Reuss Voigt Hill
#
# Bulk Modulus (GPa) = 37.86238 59.51454 48.68846
# Shear Modulus (GPa) = 33.94748 43.00713 38.47730
#
# Velocity S-wave (km/s) = 3.71365 4.17991 3.95366
# Velocity P-wave (km/s) = 5.81118 6.89009 6.37351
#
# Compressibility (1/GPa) = 0.02641144
#
# Stress axis : x y z
#
# Youngs Moduli (GPa) = 91.59875 145.56358 65.42270
#
# Poissons Ratio (x) = 0.35606 -0.07497
# Poissons Ratio (y) = 0.22406 0.13282
# Poissons Ratio (z) = -0.10496 0.29552
#
# Static dielectric constant tensor:
#      x y z
#    x 1.761870 0.086830 0.139070 
#    y 0.086830 1.964440 -0.128860 
#    z 0.139070 -0.128860 1.927030 
# 
# From -- ./inp_files/365239.got.cif
#   From: 2010.05.17/outbox.cif.g08.bks.cpg/sg2_183_cif.got.tgz:365239.got - 2010.06.03 11:33:40.
