data_PCOD9065119
_publ_section_title
;
Structure prediction by ZEFSAII (Michael W. Deem and Ramdas Pophale) SiO2 
 PCOD9065119
Probable space group: P -1
;
_chemical_formula_sum "Si O2"
_cell_formula_units_Z 16
_cell_length_a 13.987103
_cell_length_b 6.157013
_cell_length_c 14.843482
_cell_angle_alpha 122.169629
_cell_angle_beta 137.700007
_cell_angle_gamma 65.293127
_cell_volume 727.578232
_symmetry_space_group_name_H-M "P -1"
_symmetry_group_IT_number 2
_symmetry_cell_setting 'triclinic'
loop_
_space_group_symop_operation_xyz
x,y,z
-x,-y,-z
loop_
_atom_site_type_symbol
_atom_site_label
_atom_site_fract_x
_atom_site_fract_y
_atom_site_fract_z
Si Si1 0.026882 0.825102 0.841031
Si Si2 0.456812 0.305181 0.010812
Si Si3 0.139143 0.327416 0.727328
Si Si4 0.271884 0.016002 0.418252
Si Si5 0.839189 0.079985 0.487853
Si Si6 0.595881 0.475189 0.648490
Si Si7 0.901842 0.679684 0.909028
Si Si8 0.607903 0.444028 0.324888
O O1 0.880372 0.937113 0.722962
O O2 0.983435 0.691102 0.874001
O O3 0.096703 0.627209 0.775251
O O4 0.117554 0.054313 0.991248
O O5 0.285772 0.292963 0.877365
O O6 0.500000 0.500000 0.000000
O O7 0.532094 0.445706 0.176844
O O8 0.500000 0.000000 0.000000
O O9 0.999306 0.177862 0.629347
O O10 0.160184 0.208443 0.615693
O O11 0.341232 0.282730 0.545851
O O12 0.239562 0.895375 0.466592
O O13 0.366229 0.827224 0.379514
O O14 0.744779 0.250401 0.388886
O O15 0.500000 0.500000 0.500000
O O16 0.747871 0.585234 0.762130
O O17 0.515738 0.619802 0.705254
O O18 0.000000 0.500000 0.000000
#
# Coordination Sequence:
#
# PCOD9065119 Si02
#       8
#     2   2   2   2   2   2   2   2
#     4  11  25  43  72 105 139 183 246 303 364 443
#     4  12  29  52  76 110 157 200 251 318 379 451
#     4  11  25  47  74 106 141 193 245 299 374 443
#     4  12  24  45  72 104 145 184 243 311 366 445
#     4  11  24  47  72 104 141 189 248 298 364 452
#     4  12  25  44  74 103 145 193 236 305 386 440
#     4  11  25  46  69 100 144 186 241 302 367 448
#     4  12  26  45  73 107 146 192 250 303 374 456
#
# _framework density 21.990763000000001
#
# number of rings (size 3 to 8) (size 9 to 14) (size 15 to 20)
#    0.000    0.500    5.000    2.625    1.750    3.500 
#    0.000    0.000    0.000    0.000    0.000    0.000 
#    0.000    0.000    0.000    0.000    0.000    0.000 
#
# Total GULP energy -89313.130914 kJ/mol
# GULP energy per Si atom -5582.070682 kJ/mol
# Density = 2.194071 g / cm^3
# Si number density = 21.990763 Si / 1000 Ang^3
#
#
#
# Elastic Constant Matrix: (Units=GPa)
#
#
# Indices 1 2 3 4 5 6 
#
# 1 46.4218 39.8736 20.9121 -1.8651 -4.8197 -16.3864
# 2 39.8736 77.7984 49.8235 -11.0628 7.3430 -12.7044
# 3 20.9121 49.8235 131.5368 -4.8860 1.2723 -12.7903
# 4 -1.8651 -11.0628 -4.8860 53.9494 -0.2546 -1.9847
# 5 -4.8197 7.3430 1.2723 -0.2546 39.9436 -7.3229
# 6 -16.3864 -12.7044 -12.7903 -1.9847 -7.3229 33.6544
#
#
#
# Elastic Compliance Matrix: (Units=1/GPa)
#
#
# Indices 1 2 3 4 5 6 
#
# 1 0.051764 -0.027641 0.003871 -0.002749 0.014721 0.019282
# 2 -0.027641 0.033082 -0.008455 0.004789 -0.010241 -0.006129
# 3 0.003871 -0.008455 0.010452 -0.000528 0.002258 0.003125
# 4 -0.002749 0.004789 -0.000528 0.019416 -0.000846 0.001230
# 5 0.014721 -0.010241 0.002258 -0.000846 0.030591 0.010767
# 6 0.019282 -0.006129 0.003125 0.001230 0.010767 0.040391
#
#
# Mechanical properties :
#
#
# Convention : Reuss Voigt Hill
#
# Bulk Modulus (GPa) = 32.41812 52.99726 42.70769
# Shear Modulus (GPa) = 19.19897 35.18599 27.19248
#
# Velocity S-wave (km/s) = 2.95794 4.00438 3.52026
# Velocity P-wave (km/s) = 5.14195 6.74776 5.99883
#
# Compressibility (1/GPa) = 0.03084694
#
# Stress axis : x y z
#
# Youngs Moduli (GPa) = 19.31837 30.22792 95.67297
#
# Poissons Ratio (x) = 0.83553 -0.37031
# Poissons Ratio (y) = 0.53398 0.80896
# Poissons Ratio (z) = -0.07477 0.25559
#
# Static dielectric constant tensor:
#      x y z
#    x 1.956810 0.048460 -0.020630 
#    y 0.048460 1.868560 0.030570 
#    z -0.020630 0.030570 1.743000 
# 
# From -- ./inp_files/442260.got.cif
#   From: 2010.05.17/outbox.cif.g08.bks.cpg/sg2_222_cif.got.tgz:442260.got - 2010.06.03 11:33:40.
