data_PCOD9065144
_publ_section_title
;
Structure prediction by ZEFSAII (Michael W. Deem and Ramdas Pophale) SiO2 
 PCOD9065144
Probable space group: P -1
;
_chemical_formula_sum "Si O2"
_cell_formula_units_Z 16
_cell_length_a 5.076064
_cell_length_b 22.214137
_cell_length_c 7.961434
_cell_angle_alpha 131.265814
_cell_angle_beta 95.425558
_cell_angle_gamma 65.361119
_cell_volume 591.581059
_symmetry_space_group_name_H-M "P -1"
_symmetry_group_IT_number 2
_symmetry_cell_setting 'triclinic'
loop_
_space_group_symop_operation_xyz
x,y,z
-x,-y,-z
loop_
_atom_site_type_symbol
_atom_site_label
_atom_site_fract_x
_atom_site_fract_y
_atom_site_fract_z
Si Si1 0.858591 0.399952 0.022749
Si Si2 0.713621 0.966771 0.290437
Si Si3 0.216777 0.654906 0.709702
Si Si4 0.340650 0.922557 0.922110
Si Si5 0.539503 0.773360 0.919093
Si Si6 0.443783 0.410914 0.717049
Si Si7 0.216318 0.863297 0.354238
Si Si8 0.421113 0.251148 0.580781
O O1 0.802573 0.388126 0.192662
O O2 0.856493 0.496488 0.171344
O O3 0.583792 0.412959 0.909573
O O4 0.146294 0.316658 0.802791
O O5 0.535551 0.960434 0.106361
O O6 0.839479 0.038836 0.405317
O O7 0.500000 0.000000 0.500000
O O8 0.977720 0.877260 0.223751
O O9 0.442296 0.697370 0.817412
O O10 0.337152 0.597324 0.439810
O O11 0.877107 0.730360 0.795409
O O12 0.321144 0.851935 0.923615
O O13 0.553563 0.845087 0.656352
O O14 0.000000 0.000000 0.000000
O O15 0.517365 0.821555 0.185243
O O16 0.422633 0.318049 0.560032
O O17 0.268720 0.792313 0.372257
#
# Coordination Sequence:
#
# PCOD9065144 Si02
#       8
#     2   2   2   2   2   2   2   2
#     4  11  26  49  82 120 158 217 273 349 429 504
#     4  11  24  47  72 111 157 216 289 345 405 503
#     4  12  26  52  82 123 167 221 273 351 421 510
#     4  12  27  48  76 118 166 223 277 348 420 495
#     4  12  25  50  78 117 164 216 284 333 417 502
#     4  11  26  49  80 120 163 211 279 344 423 517
#     4  11  25  44  77 108 157 219 277 343 415 484
#     4  12  25  50  76 118 165 212 278 349 422 499
#
# _framework density 27.046168999999999
#
# number of rings (size 3 to 8) (size 9 to 14) (size 15 to 20)
#    0.000    0.500    3.750    3.750    1.750    2.500 
#    2.250    1.250    0.000    0.000    0.000    0.875 
#    0.000    0.000    0.000    0.000    0.000    0.000 
#
# Total GULP energy -89454.418877 kJ/mol
# GULP energy per Si atom -5590.901180 kJ/mol
# Density = 2.698461 g / cm^3
# Si number density = 27.046169 Si / 1000 Ang^3
#
#
#
# Elastic Constant Matrix: (Units=GPa)
#
#
# Indices 1 2 3 4 5 6 
#
# 1 106.1972 55.3669 42.5956 10.7561 3.8890 -12.1198
# 2 55.3669 213.7601 73.7245 6.4510 1.0297 -19.1827
# 3 42.5956 73.7245 154.9435 -0.2693 -11.8285 -16.1229
# 4 10.7561 6.4510 -0.2693 53.8548 6.3501 -2.0968
# 5 3.8890 1.0297 -11.8285 6.3501 47.9383 -3.0437
# 6 -12.1198 -19.1827 -16.1229 -2.0968 -3.0437 40.4194
#
#
#
# Elastic Compliance Matrix: (Units=1/GPa)
#
#
# Indices 1 2 3 4 5 6 
#
# 1 0.011791 -0.002109 -0.002171 -0.001926 -0.001097 0.001486
# 2 -0.002109 0.006120 -0.002223 -0.000224 -0.000394 0.001344
# 3 -0.002171 -0.002223 0.008486 0.000537 0.002366 0.001885
# 4 -0.001926 -0.000224 0.000537 0.019260 -0.002235 0.000361
# 5 -0.001097 -0.000394 0.002366 -0.002235 0.021962 0.001966
# 6 0.001486 0.001344 0.001885 0.000361 0.001966 0.026743
#
#
# Mechanical properties :
#
#
# Convention : Reuss Voigt Hill
#
# Bulk Modulus (GPa) = 74.66492 90.91942 82.79217
# Shear Modulus (GPa) = 44.70964 48.65677 46.68321
#
# Velocity S-wave (km/s) = 4.07023 4.24609 4.15909
# Velocity P-wave (km/s) = 7.05375 7.59792 7.33089
#
# Compressibility (1/GPa) = 0.01339317
#
# Stress axis : x y z
#
# Youngs Moduli (GPa) = 84.80771 163.38993 117.83838
#
# Poissons Ratio (x) = 0.34454 0.25579
# Poissons Ratio (y) = 0.17883 0.26196
# Poissons Ratio (z) = 0.18409 0.36322
#
# Static dielectric constant tensor:
#      x y z
#    x 2.120760 -0.008040 -0.001320 
#    y -0.008040 2.169020 0.027020 
#    z -0.001320 0.027020 2.337870 
# 
# From -- ./inp_files/140783.got.cif
#   From: 2010.05.17/outbox.cif.g08.bks.cpg/sg2_71_cif.got.tgz:140783.got - 2010.06.03 11:33:40.
