data_PCOD9065600
_publ_section_title
;
Structure prediction by ZEFSAII (Michael W. Deem and Ramdas Pophale) SiO2 
 PCOD9065600
Probable space group: P -1
;
_chemical_formula_sum "Si O2"
_cell_formula_units_Z 16
_cell_length_a 12.303506
_cell_length_b 12.345880
_cell_length_c 5.005339
_cell_angle_alpha 119.099205
_cell_angle_beta 75.532540
_cell_angle_gamma 112.398004
_cell_volume 612.253381
_symmetry_space_group_name_H-M "P -1"
_symmetry_group_IT_number 2
_symmetry_cell_setting 'triclinic'
loop_
_space_group_symop_operation_xyz
x,y,z
-x,-y,-z
loop_
_atom_site_type_symbol
_atom_site_label
_atom_site_fract_x
_atom_site_fract_y
_atom_site_fract_z
Si Si1 0.347839 0.431758 0.851522
Si Si2 0.327731 0.588963 0.560911
Si Si3 0.204128 0.209935 0.339495
Si Si4 0.039513 0.765233 0.507694
Si Si5 0.920196 0.383220 0.219714
Si Si6 0.776532 0.015354 0.622617
Si Si7 0.586721 0.774570 0.164368
Si Si8 0.418113 0.862878 0.994968
O O1 0.382946 0.524960 0.686407
O O2 0.687634 0.491516 0.795178
O O3 0.236847 0.308848 0.687491
O O4 0.439502 0.358081 0.808108
O O5 0.197699 0.582113 0.736361
O O6 0.396348 0.741111 0.665874
O O7 0.089144 0.233515 0.316948
O O8 0.181651 0.060865 0.259358
O O9 0.325078 0.247418 0.145023
O O10 0.105432 0.731640 0.682328
O O11 0.112629 0.907182 0.525821
O O12 0.032712 0.665076 0.140775
O O13 0.000000 0.500000 0.500000
O O14 0.707345 0.118169 0.849635
O O15 0.672770 0.898598 0.412698
O O16 0.483430 0.819407 0.149964
O O17 0.500000 0.000000 0.000000
#
# Coordination Sequence:
#
# PCOD9065600 Si02
#       8
#     2   2   2   2   2   2   2   2
#     4  11  25  49  76 112 149 196 253 305 378 446
#     4  12  26  48  80 108 155 194 255 312 369 454
#     4  11  24  49  75 113 152 200 243 314 373 453
#     4  12  27  44  76 110 153 192 254 307 375 452
#     4  12  26  47  74 113 151 202 243 309 378 445
#     4  11  26  47  75 111 151 196 259 305 380 446
#     4  11  26  47  80 105 154 202 249 316 369 446
#     4  12  27  50  77 111 151 202 255 314 376 441
#
# _framework density 26.132968000000002
#
# number of rings (size 3 to 8) (size 9 to 14) (size 15 to 20)
#    0.000    0.500    3.750    3.375    7.000    2.500 
#    0.000    0.000    0.000    0.000    0.000    0.000 
#    0.000    0.000    0.000    0.000    0.000    0.000 
#
# Total GULP energy -89685.769746 kJ/mol
# GULP energy per Si atom -5605.360609 kJ/mol
# Density = 2.607349 g / cm^3
# Si number density = 26.132968 Si / 1000 Ang^3
#
#
#
# Elastic Constant Matrix: (Units=GPa)
#
#
# Indices 1 2 3 4 5 6 
#
# 1 125.4453 35.8635 35.7082 1.7797 -6.3498 -27.8201
# 2 35.8635 155.2816 39.1170 7.2679 1.3660 -22.4651
# 3 35.7082 39.1170 140.0719 9.5413 -3.0028 -26.7980
# 4 1.7797 7.2679 9.5413 48.6199 -1.8115 1.5324
# 5 -6.3498 1.3660 -3.0028 -1.8115 34.6468 -1.0646
# 6 -27.8201 -22.4651 -26.7980 1.5324 -1.0646 35.9214
#
#
#
# Elastic Compliance Matrix: (Units=1/GPa)
#
#
# Indices 1 2 3 4 5 6 
#
# 1 0.010114 -0.001172 -0.000966 -0.000134 0.002007 0.006445
# 2 -0.001172 0.007479 -0.001180 -0.000957 -0.000572 0.002914
# 3 -0.000966 -0.001180 0.008838 -0.001660 0.000708 0.005199
# 4 -0.000134 -0.000957 -0.001660 0.021163 0.000889 -0.002817
# 5 0.002007 -0.000572 0.000708 0.000889 0.029440 0.002560
# 6 0.006445 0.002914 0.005199 -0.002817 0.002560 0.038727
#
#
# Mechanical properties :
#
#
# Convention : Reuss Voigt Hill
#
# Bulk Modulus (GPa) = 50.51333 71.35291 60.93312
# Shear Modulus (GPa) = 38.76132 44.51163 41.63647
#
# Velocity S-wave (km/s) = 3.85546 4.13155 3.99589
# Velocity P-wave (km/s) = 6.26025 7.07974 6.68257
#
# Compressibility (1/GPa) = 0.01979675
#
# Stress axis : x y z
#
# Youngs Moduli (GPa) = 98.86927 133.70726 113.15012
#
# Poissons Ratio (x) = 0.15665 0.10931
# Poissons Ratio (y) = 0.11583 0.13347
# Poissons Ratio (z) = 0.09551 0.15772
#
# Static dielectric constant tensor:
#      x y z
#    x 2.044450 0.026080 -0.031800 
#    y 0.026080 2.067760 0.001420 
#    z -0.031800 0.001420 2.098090 
# 
# From -- ./inp_files/71794.got.cif
#   From: 2010.05.17/outbox.cif.g08.bks.cpg/sg2_36_cif.got.tgz:71794.got - 2010.06.03 11:33:40.
