data_PCOD9065931
_publ_section_title
;
Structure prediction by ZEFSAII (Michael W. Deem and Ramdas Pophale) SiO2 
 PCOD9065931
Probable space group: P -1
;
_chemical_formula_sum "Si O2"
_cell_formula_units_Z 16
_cell_length_a 12.405508
_cell_length_b 14.029606
_cell_length_c 13.496482
_cell_angle_alpha 30.031631
_cell_angle_beta 45.268249
_cell_angle_gamma 65.074084
_cell_volume 709.071445
_symmetry_space_group_name_H-M "P -1"
_symmetry_group_IT_number 2
_symmetry_cell_setting 'triclinic'
loop_
_space_group_symop_operation_xyz
x,y,z
-x,-y,-z
loop_
_atom_site_type_symbol
_atom_site_label
_atom_site_fract_x
_atom_site_fract_y
_atom_site_fract_z
Si Si1 0.103820 0.527960 0.308056
Si Si2 0.591277 0.531522 0.020515
Si Si3 0.666233 0.077336 0.894960
Si Si4 0.591485 0.395471 0.470079
Si Si5 0.032221 0.369114 0.896709
Si Si6 0.974467 0.879290 0.390438
Si Si7 0.298090 0.702504 0.706937
Si Si8 0.561887 0.211906 0.026859
O O1 0.081072 0.286900 0.518710
O O2 0.000000 0.500000 0.500000
O O3 0.032548 0.591541 0.201526
O O4 0.304488 0.724247 0.025049
O O5 0.798719 0.734801 0.700016
O O6 0.495829 0.608438 0.089637
O O7 0.500000 0.500000 0.000000
O O8 0.597746 0.321557 0.245614
O O9 0.584371 0.846988 0.218377
O O10 0.665141 0.238544 0.833946
O O11 0.500000 0.000000 0.000000
O O12 0.845188 0.110810 0.701201
O O13 0.500000 0.500000 0.500000
O O14 0.688677 0.449265 0.251460
O O15 0.761122 0.442227 0.385596
O O16 0.899171 0.372191 0.061423
O O17 0.013013 0.126918 0.128575
O O18 0.395286 0.958851 0.375510
#
# Coordination Sequence:
#
# PCOD9065931 Si02
#       8
#     2   2   2   2   2   2   2   2
#     4  12  26  44  71 104 140 180 233 283 349 416
#     4  12  25  43  71 104 139 181 231 282 345 419
#     4  11  25  46  70  97 138 181 234 285 344 411
#     4  11  25  46  67  99 133 182 232 284 343 408
#     4  12  25  46  72  96 146 180 226 294 340 415
#     4  12  24  45  70 105 134 183 233 276 351 409
#     4  11  26  45  69 101 139 182 228 284 348 410
#     4  11  25  44  68 103 138 178 226 287 345 410
#
# _framework density 22.564723999999998
#
# number of rings (size 3 to 8) (size 9 to 14) (size 15 to 20)
#    0.000    0.500    6.250    1.125    3.500    1.500 
#    0.000    1.250    0.000    0.000    0.000    0.000 
#    0.000    0.000    0.000    0.000    0.000    0.000 
#
# Total GULP energy -89215.428561 kJ/mol
# GULP energy per Si atom -5575.964285 kJ/mol
# Density = 2.251337 g / cm^3
# Si number density = 22.564724 Si / 1000 Ang^3
#
#
#
# Elastic Constant Matrix: (Units=GPa)
#
#
# Indices 1 2 3 4 5 6 
#
# 1 111.2312 39.7027 13.2986 19.6507 -19.9532 -4.3504
# 2 39.7027 169.4327 17.7125 20.6349 -6.7867 -8.0828
# 3 13.2986 17.7125 75.1756 15.8507 -21.8910 -8.5101
# 4 19.6507 20.6349 15.8507 39.6718 -8.4708 -3.6810
# 5 -19.9532 -6.7867 -21.8910 -8.4708 35.0891 1.6333
# 6 -4.3504 -8.0828 -8.5101 -3.6810 1.6333 35.6761
#
#
#
# Elastic Compliance Matrix: (Units=1/GPa)
#
#
# Indices 1 2 3 4 5 6 
#
# 1 0.011299 -0.002052 0.000982 -0.003650 0.005736 0.000508
# 2 -0.002052 0.006758 -0.000959 -0.002258 -0.001043 0.000867
# 3 0.000982 -0.000959 0.017624 -0.004575 0.010116 0.003171
# 4 -0.003650 -0.002258 -0.004575 0.030529 0.001956 0.001012
# 5 0.005736 -0.001043 0.010116 0.001956 0.038280 0.001325
# 6 0.000508 0.000867 0.003171 0.001012 0.001325 0.029089
#
#
# Mechanical properties :
#
#
# Convention : Reuss Voigt Hill
#
# Bulk Modulus (GPa) = 31.62241 55.25190 43.43716
# Shear Modulus (GPa) = 33.74367 41.09580 37.41973
#
# Velocity S-wave (km/s) = 3.87126 4.27223 4.07668
# Velocity P-wave (km/s) = 5.83324 6.99107 6.43824
#
# Compressibility (1/GPa) = 0.03162314
#
# Stress axis : x y z
#
# Youngs Moduli (GPa) = 88.50430 147.98110 56.74172
#
# Poissons Ratio (x) = 0.30363 -0.05573
# Poissons Ratio (y) = 0.18159 0.05441
# Poissons Ratio (z) = -0.08692 0.14189
#
# Static dielectric constant tensor:
#      x y z
#    x 1.912200 -0.017530 0.064710 
#    y -0.017530 1.877260 0.007720 
#    z 0.064710 0.007720 2.052970 
# 
# From -- ./inp_files/522115.got.cif
#   From: 2010.05.17/outbox.cif.g08.bks.cpg/sg2_262_cif.got.tgz:522115.got - 2010.06.03 11:33:40.
