data_PCOD9065573
_publ_section_title
;
Structure prediction by ZEFSAII (Michael W. Deem and Ramdas Pophale) SiO2 
 PCOD9065573
Probable space group: P -1
;
_chemical_formula_sum "Si O2"
_cell_formula_units_Z 12
_cell_length_a 13.462596
_cell_length_b 18.504234
_cell_length_c 5.430020
_cell_angle_alpha 66.407019
_cell_angle_beta 81.599722
_cell_angle_gamma 29.295175
_cell_volume 540.870620
_symmetry_space_group_name_H-M "P -1"
_symmetry_group_IT_number 2
_symmetry_cell_setting 'triclinic'
loop_
_space_group_symop_operation_xyz
x,y,z
-x,-y,-z
loop_
_atom_site_type_symbol
_atom_site_label
_atom_site_fract_x
_atom_site_fract_y
_atom_site_fract_z
Si Si1 0.283913 0.108367 0.051934
Si Si2 0.839249 0.076781 0.657559
Si Si3 0.362388 0.615881 0.639267
Si Si4 0.958304 0.479682 0.795007
Si Si5 0.547573 0.156478 0.373690
Si Si6 0.901422 0.898699 0.214685
O O1 0.398459 0.971243 0.399749
O O2 0.137845 0.152345 0.865104
O O3 0.118065 0.291021 0.974181
O O4 0.500000 0.000000 0.000000
O O5 0.674756 0.263944 0.524690
O O6 0.711493 0.096132 0.547906
O O7 0.036583 0.061052 0.989630
O O8 0.000000 0.000000 0.500000
O O9 0.500000 0.500000 0.500000
O O10 0.116485 0.742669 0.538618
O O11 0.500000 0.500000 0.000000
O O12 0.696029 0.645576 0.712576
O O13 0.000000 0.500000 0.500000
O O14 0.000000 0.500000 0.000000
O O15 0.646624 0.093613 0.149331
#
# Coordination Sequence:
#
# PCOD9065573 Si02
#       6
#     2   2   2   2   2   2
#     4  11  25  49  76 109 154 198 254 320 382 459
#     4  11  24  49  73 104 150 202 254 311 382 459
#     4  12  28  46  73 112 152 197 256 317 378 452
#     4  12  28  49  76 112 152 202 255 314 387 460
#     4  11  26  45  78 108 148 203 255 311 384 452
#     4  11  26  47  77 108 150 209 257 313 391 453
#
# _framework density 22.186453
#
# number of rings (size 3 to 8) (size 9 to 14) (size 15 to 20)
#    0.000    0.667    3.333    2.500   11.667    1.333 
#    0.000    0.000    0.000    0.000    0.000    0.000 
#    0.000    0.000    0.000    0.000    0.000    0.000 
#
# Total GULP energy -66948.881914 kJ/mol
# GULP energy per Si atom -5579.073493 kJ/mol
# Density = 2.213596 g / cm^3
# Si number density = 22.186453 Si / 1000 Ang^3
#
#
#
# Elastic Constant Matrix: (Units=GPa)
#
#
# Indices 1 2 3 4 5 6 
#
# 1 99.5901 46.7250 51.6850 -9.6948 -20.4892 17.4676
# 2 46.7250 195.7234 45.0570 -2.8592 -14.7477 20.2886
# 3 51.6850 45.0570 103.5585 6.0989 -1.4222 2.5484
# 4 -9.6948 -2.8592 6.0989 34.6824 1.4389 -1.9317
# 5 -20.4892 -14.7477 -1.4222 1.4389 30.0092 -0.7648
# 6 17.4676 20.2886 2.5484 -1.9317 -0.7648 63.1374
#
#
#
# Elastic Compliance Matrix: (Units=1/GPa)
#
#
# Indices 1 2 3 4 5 6 
#
# 1 0.018987 -0.001029 -0.009125 0.006110 0.011625 -0.004226
# 2 -0.001029 0.006179 -0.002131 0.000419 0.002173 -0.001576
# 3 -0.009125 -0.002131 0.015289 -0.005024 -0.006252 0.002363
# 4 0.006110 0.000419 -0.005024 0.031315 0.002621 -0.000632
# 5 0.011625 0.002173 -0.006252 0.002621 0.041828 -0.003075
# 6 -0.004226 -0.001576 0.002363 -0.000632 -0.003075 0.017362
#
#
# Mechanical properties :
#
#
# Convention : Reuss Voigt Hill
#
# Bulk Modulus (GPa) = 62.94754 76.20068 69.57411
# Shear Modulus (GPa) = 31.08987 42.59280 36.84133
#
# Velocity S-wave (km/s) = 3.74745 4.38627 4.07938
# Velocity P-wave (km/s) = 6.86718 7.75065 7.32225
#
# Compressibility (1/GPa) = 0.01588625
#
# Stress axis : x y z
#
# Youngs Moduli (GPa) = 52.66713 161.85036 65.40469
#
# Poissons Ratio (x) = 0.16653 0.59681
# Poissons Ratio (y) = 0.05419 0.13936
# Poissons Ratio (z) = 0.48058 0.34486
#
# Static dielectric constant tensor:
#      x y z
#    x 1.680060 -0.236070 0.360870 
#    y -0.236070 1.188160 0.558890 
#    z 0.360870 0.558890 1.007040 
# 
# From -- ./inp_files/78998.got.cif
#   From: 2010.05.17/outbox.cif.g08.bks.cpg/sg2_40_cif.got.tgz:78998.got - 2010.06.03 11:33:40.
