data_PCOD9065977
_publ_section_title
;
Structure prediction by ZEFSAII (Michael W. Deem and Ramdas Pophale) SiO2 
 PCOD9065977
Probable space group: P -1
;
_chemical_formula_sum "Si O2"
_cell_formula_units_Z 16
_cell_length_a 9.988582
_cell_length_b 4.934817
_cell_length_c 12.291375
_cell_angle_alpha 99.290980
_cell_angle_beta 95.651115
_cell_angle_gamma 106.026942
_cell_volume 568.103699
_symmetry_space_group_name_H-M "P -1"
_symmetry_group_IT_number 2
_symmetry_cell_setting 'triclinic'
loop_
_space_group_symop_operation_xyz
x,y,z
-x,-y,-z
loop_
_atom_site_type_symbol
_atom_site_label
_atom_site_fract_x
_atom_site_fract_y
_atom_site_fract_z
Si Si1 0.266837 0.352376 0.622262
Si Si2 0.434601 0.735904 0.900328
Si Si3 0.658630 0.078487 0.802587
Si Si4 0.098676 0.773131 0.586714
Si Si5 0.261551 0.131313 0.856231
Si Si6 0.446262 0.720728 0.399002
Si Si7 0.840917 0.750288 0.711483
Si Si8 0.866467 0.592049 0.955740
O O1 0.219142 0.633370 0.624145
O O2 0.244089 0.222125 0.735554
O O3 0.425272 0.416552 0.596891
O O4 0.165477 0.060473 0.539940
O O5 0.390912 0.411824 0.912761
O O6 0.561599 0.784613 0.826947
O O7 0.301679 0.837705 0.852101
O O8 0.500000 0.000000 0.000000
O O9 0.556412 0.170463 0.718197
O O10 0.733221 0.302811 0.916096
O O11 0.780622 0.020088 0.734918
O O12 0.000000 0.500000 0.500000
O O13 0.991335 0.814475 0.672550
O O14 0.153937 0.175079 0.943152
O O15 0.286674 0.496394 0.375151
O O16 0.500000 0.000000 0.500000
O O17 0.866552 0.685664 0.836047
O O18 0.000000 0.500000 0.000000
#
# Coordination Sequence:
#
# PCOD9065977 Si02
#       8
#     2   2   2   2   2   2   2   2
#     4  12  27  49  76 114 148 192 259 309 373 451
#     4  12  23  42  68 102 142 186 235 294 372 422
#     4  11  25  44  70 106 146 188 247 308 367 448
#     4  12  29  51  78 107 151 201 249 313 381 449
#     4  12  25  43  71 103 143 188 236 302 361 442
#     4  11  26  47  78 109 148 194 250 320 379 441
#     4  11  27  48  75 106 152 196 251 308 378 452
#     4  11  26  45  68 101 144 199 245 293 368 447
#
# _framework density 28.163875000000001
#
# number of rings (size 3 to 8) (size 9 to 14) (size 15 to 20)
#    0.000    0.500    2.500    4.500   10.500    1.000 
#    0.000    0.000    0.000    0.000    0.000    0.000 
#    0.000    0.000    0.000    0.000    0.000    0.000 
#
# Total GULP energy -89608.919413 kJ/mol
# GULP energy per Si atom -5600.557463 kJ/mol
# Density = 2.809977 g / cm^3
# Si number density = 28.163875 Si / 1000 Ang^3
#
#
#
# Elastic Constant Matrix: (Units=GPa)
#
#
# Indices 1 2 3 4 5 6 
#
# 1 207.2114 52.6470 39.9131 0.0287 -13.1891 -12.9853
# 2 52.6470 135.6362 8.4035 12.9819 2.7386 -6.8700
# 3 39.9131 8.4035 122.5476 18.0320 11.1311 -8.0778
# 4 0.0287 12.9819 18.0320 47.0494 2.9914 6.3672
# 5 -13.1891 2.7386 11.1311 2.9914 48.8543 0.9492
# 6 -12.9853 -6.8700 -8.0778 6.3672 0.9492 62.3295
#
#
#
# Elastic Compliance Matrix: (Units=1/GPa)
#
#
# Indices 1 2 3 4 5 6 
#
# 1 0.006002 -0.002332 -0.002137 0.001247 0.002151 0.000556
# 2 -0.002332 0.008555 0.000725 -0.002679 -0.001126 0.000842
# 3 -0.002137 0.000725 0.009711 -0.003935 -0.002615 0.001335
# 4 0.001247 -0.002679 -0.003935 0.023906 -0.000023 -0.002987
# 5 0.002151 -0.001126 -0.002615 -0.000023 0.021717 -0.000343
# 6 0.000556 0.000842 0.001335 -0.002987 -0.000343 0.016736
#
#
# Mechanical properties :
#
#
# Convention : Reuss Voigt Hill
#
# Bulk Modulus (GPa) = 59.59646 74.14693 66.87170
# Shear Modulus (GPa) = 50.14702 55.94208 53.04455
#
# Velocity S-wave (km/s) = 4.22423 4.46163 4.34455
# Velocity P-wave (km/s) = 6.70810 7.27500 6.99730
#
# Compressibility (1/GPa) = 0.01677952
#
# Stress axis : x y z
#
# Youngs Moduli (GPa) = 166.62218 116.89614 102.97719
#
# Poissons Ratio (x) = 0.27257 0.22005
# Poissons Ratio (y) = 0.38851 -0.07464
# Poissons Ratio (z) = 0.35606 -0.08473
#
# Static dielectric constant tensor:
#      x y z
#    x 2.230090 0.073530 0.078990 
#    y 0.073530 2.165940 0.038000 
#    z 0.078990 0.038000 2.600940 
# 
# From -- ./inp_files/488707.got.cif
#   From: 2010.05.17/outbox.cif.g08.bks.cpg/sg2_245_cif.got.tgz:488707.got - 2010.06.03 11:33:40.
