data_PCOD9065787
_publ_section_title
;
Structure prediction by ZEFSAII (Michael W. Deem and Ramdas Pophale) SiO2 
 PCOD9065787
Probable space group: P -1
;
_chemical_formula_sum "Si O2"
_cell_formula_units_Z 14
_cell_length_a 12.271853
_cell_length_b 11.953558
_cell_length_c 5.198704
_cell_angle_alpha 94.246449
_cell_angle_beta 105.383999
_cell_angle_gamma 125.629792
_cell_volume 571.649182
_symmetry_space_group_name_H-M "P -1"
_symmetry_group_IT_number 2
_symmetry_cell_setting 'triclinic'
loop_
_space_group_symop_operation_xyz
x,y,z
-x,-y,-z
loop_
_atom_site_type_symbol
_atom_site_label
_atom_site_fract_x
_atom_site_fract_y
_atom_site_fract_z
Si Si1 0.254423 0.368687 0.806303
Si Si2 0.479066 0.132900 0.479450
Si Si3 0.793124 0.270775 0.898225
Si Si4 0.519820 0.613290 0.338600
Si Si5 0.049425 0.432685 0.710774
Si Si6 0.697157 0.017868 0.143266
Si Si7 0.901046 0.930083 0.172047
O O1 0.322177 0.314629 0.661009
O O2 0.139103 0.386769 0.634396
O O3 0.173562 0.238403 0.932934
O O4 0.393303 0.521095 0.031200
O O5 0.634184 0.181152 0.663396
O O6 0.488990 0.273028 0.517514
O O7 0.437073 0.072023 0.155534
O O8 0.362031 0.028643 0.611421
O O9 0.916823 0.307667 0.782688
O O10 0.781923 0.181653 0.124056
O O11 0.840457 0.427499 0.018453
O O12 0.500000 0.500000 0.500000
O O13 0.000000 0.500000 0.500000
O O14 0.791006 0.966044 0.128019
O O15 0.000000 0.000000 0.500000
O O16 0.000000 0.000000 0.000000
#
# Coordination Sequence:
#
# PCOD9065787 Si02
#       7
#     2   2   2   2   2   2   2
#     4  11  25  47  69 108 139 193 243 301 364 429
#     4  12  26  48  76 112 144 190 249 303 365 431
#     4  11  27  46  70 110 141 198 242 302 363 438
#     4  11  25  42  77 103 145 188 244 308 360 429
#     4  11  27  45  73 100 150 194 246 297 363 440
#     4  12  27  48  76 108 148 191 244 302 369 429
#     4  12  27  46  73 105 148 190 237 295 363 440
#
# _framework density 24.490545999999998
#
# number of rings (size 3 to 8) (size 9 to 14) (size 15 to 20)
#    0.000    0.571    2.857    3.429   12.000    0.000 
#    0.000    0.000    0.000    0.000    0.000    0.000 
#    0.000    0.000    0.000    0.000    0.000    0.000 
#
# Total GULP energy -78402.860908 kJ/mol
# GULP energy per Si atom -5600.204351 kJ/mol
# Density = 2.443480 g / cm^3
# Si number density = 24.490546 Si / 1000 Ang^3
#
#
#
# Elastic Constant Matrix: (Units=GPa)
#
#
# Indices 1 2 3 4 5 6 
#
# 1 127.7464 31.2814 12.6215 -2.6520 25.5782 -13.1000
# 2 31.2814 120.7500 4.6972 -19.9901 2.9135 -5.8182
# 3 12.6215 4.6972 68.2427 -7.8954 2.9963 6.7985
# 4 -2.6520 -19.9901 -7.8954 40.2029 -3.9626 -1.3847
# 5 25.5782 2.9135 2.9963 -3.9626 39.6346 -1.1999
# 6 -13.1000 -5.8182 6.7985 -1.3847 -1.1999 45.4205
#
#
#
# Elastic Compliance Matrix: (Units=1/GPa)
#
#
# Indices 1 2 3 4 5 6 
#
# 1 0.010127 -0.002515 -0.001861 -0.001475 -0.006277 0.002666
# 2 -0.002515 0.009731 0.000232 0.004879 0.001399 0.000672
# 3 -0.001861 0.000232 0.015590 0.002981 0.000220 -0.002744
# 4 -0.001475 0.004879 0.002981 0.028127 0.003201 0.000695
# 5 -0.006277 0.001399 0.000220 0.003201 0.029458 -0.000788
# 6 0.002666 0.000672 -0.002744 0.000695 -0.000788 0.023283
#
#
# Mechanical properties :
#
#
# Convention : Reuss Voigt Hill
#
# Bulk Modulus (GPa) = 36.81972 45.99326 41.40649
# Shear Modulus (GPa) = 37.40877 42.92754 40.16816
#
# Velocity S-wave (km/s) = 3.91254 4.19121 4.05427
# Velocity P-wave (km/s) = 5.95630 6.49942 6.23378
#
# Compressibility (1/GPa) = 0.02715936
#
# Stress axis : x y z
#
# Youngs Moduli (GPa) = 98.74180 102.76917 64.14211
#
# Poissons Ratio (x) = 0.25851 0.11934
# Poissons Ratio (y) = 0.24838 -0.01485
# Poissons Ratio (z) = 0.18372 -0.02380
#
# Static dielectric constant tensor:
#      x y z
#    x 1.875140 0.007630 -0.000300 
#    y 0.007630 1.972400 0.048890 
#    z -0.000300 0.048890 1.992750 
# 
# From -- ./inp_files/69819.got.cif
#   From: 2010.05.17/outbox.cif.g08.bks.cpg/sg2_35_cif.got.tgz:69819.got - 2010.06.03 11:33:40.
