data_PCOD9065958
_publ_section_title
;
Structure prediction by ZEFSAII (Michael W. Deem and Ramdas Pophale) SiO2 
 PCOD9065958
Probable space group: P -1
;
_chemical_formula_sum "Si O2"
_cell_formula_units_Z 16
_cell_length_a 5.544034
_cell_length_b 17.365398
_cell_length_c 13.431801
_cell_angle_alpha 143.948151
_cell_angle_beta 78.091575
_cell_angle_gamma 89.997757
_cell_volume 712.705373
_symmetry_space_group_name_H-M "P -1"
_symmetry_group_IT_number 2
_symmetry_cell_setting 'triclinic'
loop_
_space_group_symop_operation_xyz
x,y,z
-x,-y,-z
loop_
_atom_site_type_symbol
_atom_site_label
_atom_site_fract_x
_atom_site_fract_y
_atom_site_fract_z
Si Si1 0.929228 0.658353 0.641544
Si Si2 0.258772 0.088144 0.982443
Si Si3 0.060739 0.692232 0.378502
Si Si4 0.356141 0.364491 0.787742
Si Si5 0.297314 0.609794 0.905356
Si Si6 0.231037 0.371015 0.037935
Si Si7 0.503725 0.403356 0.492551
Si Si8 0.154221 0.052555 0.191566
O O1 0.829635 0.747822 0.840749
O O2 0.692045 0.680887 0.608361
O O3 0.000000 0.500000 0.500000
O O4 0.199585 0.680882 0.608352
O O5 0.206712 0.069608 0.086576
O O6 0.561284 0.026044 0.873601
O O7 0.065100 0.026044 0.873602
O O8 0.338692 0.700382 0.324576
O O9 0.126861 0.533721 0.246272
O O10 0.836700 0.700384 0.324580
O O11 0.954177 0.812462 0.591635
O O12 0.295472 0.518451 0.909063
O O13 0.294034 0.367488 0.911947
O O14 0.503929 0.689655 0.990455
O O15 0.402902 0.498547 0.694176
O O16 0.005596 0.689657 0.990462
O O17 0.500000 0.500000 0.500000
#
# Coordination Sequence:
#
# PCOD9065958 Si02
#       8
#     2   2   2   2   2   2   2   2
#     4  10  21  36  54  71  96 137 175 231 269 296
#     4  10  21  35  49  68 105 132 181 228 246 305
#     4  10  18  29  46  66  97 136 175 202 243 314
#     4  10  19  29  46  71 101 134 171 214 252 305
#     4  10  18  28  46  64  94 138 165 197 259 310
#     4  10  19  31  44  73  98 135 173 211 253 311
#     4  10  21  33  48  75  99 128 179 217 254 312
#     4  10  21  33  47  74  99 142 178 211 255 302
#
# _framework density 22.449670000000001
#
# number of rings (size 3 to 8) (size 9 to 14) (size 15 to 20)
#    0.000    2.000    0.000    6.000    7.000    0.000 
#    0.000    0.000    0.000    0.000    0.000    0.000 
#    0.000    0.000    0.000  522.000    0.000    0.000 
#
# Total GULP energy -89377.634298 kJ/mol
# GULP energy per Si atom -5586.102144 kJ/mol
# Density = 2.239857 g / cm^3
# Si number density = 22.449670 Si / 1000 Ang^3
#
#
#
# Elastic Constant Matrix: (Units=GPa)
#
#
# Indices 1 2 3 4 5 6 
#
# 1 286.3031 29.9955 65.8220 -13.9542 3.4763 21.9441
# 2 29.9955 33.5760 17.1750 -7.7106 -0.9086 1.8025
# 3 65.8220 17.1750 107.0594 3.8148 -0.1348 4.4479
# 4 -13.9542 -7.7106 3.8148 23.2992 2.1297 -1.4798
# 5 3.4763 -0.9086 -0.1348 2.1297 47.3000 -8.7738
# 6 21.9441 1.8025 4.4479 -1.4798 -8.7738 13.1666
#
#
#
# Elastic Compliance Matrix: (Units=1/GPa)
#
#
# Indices 1 2 3 4 5 6 
#
# 1 0.005101 -0.002346 -0.002494 0.002341 -0.002105 -0.008478
# 2 -0.002346 0.037037 -0.005016 0.011753 0.000781 0.002375
# 3 -0.002494 -0.005016 0.011837 -0.005097 0.000457 0.000576
# 4 0.002341 0.011753 -0.005097 0.049261 -0.002116 0.000337
# 5 -0.002105 0.000781 0.000457 -0.002116 0.025064 0.019711
# 6 -0.008478 0.002375 0.000576 0.000337 0.019711 0.102733
#
#
# Mechanical properties :
#
#
# Convention : Reuss Voigt Hill
#
# Bulk Modulus (GPa) = 29.18503 72.54708 50.86605
# Shear Modulus (GPa) = 19.07179 37.68287 28.37733
#
# Velocity S-wave (km/s) = 2.91784 4.10145 3.55919
# Velocity P-wave (km/s) = 4.93763 7.40370 6.29265
#
# Compressibility (1/GPa) = 0.03426415
#
# Stress axis : x y z
#
# Youngs Moduli (GPa) = 196.02257 26.99980 84.48172
#
# Poissons Ratio (x) = 0.06334 0.21069
# Poissons Ratio (y) = 0.45984 0.42375
# Poissons Ratio (z) = 0.48887 0.13543
#
# Static dielectric constant tensor:
#      x y z
#    x 2.001250 0.013070 0.000070 
#    y 0.013070 1.860890 0.007140 
#    z 0.000070 0.007140 1.821570 
# 
# From -- ./inp_files/71699.got.cif
#   From: 2010.05.17/outbox.cif.g08.bks.cpg/sg2_36_cif.got.tgz:71699.got - 2010.06.03 11:33:40.
