data_PCOD9065509
_publ_section_title
;
Structure prediction by ZEFSAII (Michael W. Deem and Ramdas Pophale) SiO2 
 PCOD9065509
Probable space group: P -1
;
_chemical_formula_sum "Si O2"
_cell_formula_units_Z 16
_cell_length_a 18.954295
_cell_length_b 21.361995
_cell_length_c 5.604353
_cell_angle_alpha 75.611148
_cell_angle_beta 72.321812
_cell_angle_gamma 19.031043
_cell_volume 699.548749
_symmetry_space_group_name_H-M "P -1"
_symmetry_group_IT_number 2
_symmetry_cell_setting 'triclinic'
loop_
_space_group_symop_operation_xyz
x,y,z
-x,-y,-z
loop_
_atom_site_type_symbol
_atom_site_label
_atom_site_fract_x
_atom_site_fract_y
_atom_site_fract_z
Si Si1 0.126369 0.327908 0.033465
Si Si2 0.487221 0.813425 0.572503
Si Si3 0.267921 0.428943 0.959999
Si Si4 0.066746 0.095117 0.563656
Si Si5 0.272672 0.575777 0.744368
Si Si6 0.773270 0.158261 0.483342
Si Si7 0.577908 0.983598 0.639263
Si Si8 0.252315 0.714179 0.966144
O O1 0.974930 0.404627 0.960017
O O2 0.189013 0.234390 0.291888
O O3 0.370954 0.148358 0.875284
O O4 0.000000 0.500000 0.000000
O O5 0.616464 0.686522 0.309278
O O6 0.427735 0.937822 0.506063
O O7 0.247387 0.976582 0.662509
O O8 0.611982 0.695079 0.804400
O O9 0.254124 0.518184 0.913927
O O10 0.893502 0.285897 0.442424
O O11 0.216278 0.926974 0.400167
O O12 0.916508 0.163714 0.769915
O O13 0.532448 0.375930 0.623635
O O14 0.200930 0.698450 0.847958
O O15 0.760627 0.202748 0.195227
O O16 0.000000 0.000000 0.500000
O O17 0.500000 0.000000 0.500000
O O18 0.500000 0.500000 0.000000
#
# Coordination Sequence:
#
# PCOD9065509 Si02
#       8
#     2   2   2   2   2   2   2   2
#     4  11  24  48  79 111 156 199 247 309 370 442
#     4  12  29  50  77 113 153 202 252 306 377 450
#     4  12  29  49  79 110 155 202 253 308 378 445
#     4  12  27  47  73 100 149 195 247 310 383 447
#     4  12  27  48  70 105 146 194 250 312 379 447
#     4  12  24  46  71 100 142 190 245 314 378 450
#     4  11  26  46  81 116 153 200 254 303 371 448
#     4  12  26  44  73 103 140 190 253 313 379 448
#
# _framework density 22.871884999999999
#
# number of rings (size 3 to 8) (size 9 to 14) (size 15 to 20)
#    0.000    0.250    5.000    3.000   10.500    2.000 
#    0.000    0.000    0.000    0.000    0.000    0.000 
#    0.000    0.000    0.000    0.000    0.000    0.000 
#
# Total GULP energy -89214.593382 kJ/mol
# GULP energy per Si atom -5575.912086 kJ/mol
# Density = 2.281983 g / cm^3
# Si number density = 22.871885 Si / 1000 Ang^3
#
#
#
# Elastic Constant Matrix: (Units=GPa)
#
#
# Indices 1 2 3 4 5 6 
#
# 1 117.7920 38.3483 23.3207 -30.2616 -14.7397 -6.2107
# 2 38.3483 143.1980 47.1708 -51.5461 -2.3592 -6.1242
# 3 23.3207 47.1708 82.5750 -37.8786 -7.5679 4.4159
# 4 -30.2616 -51.5461 -37.8786 51.6349 1.9889 5.5787
# 5 -14.7397 -2.3592 -7.5679 1.9889 36.7553 -9.5498
# 6 -6.2107 -6.1242 4.4159 5.5787 -9.5498 53.0744
#
#
#
# Elastic Compliance Matrix: (Units=1/GPa)
#
#
# Indices 1 2 3 4 5 6 
#
# 1 0.010699 -0.000945 0.000216 0.005170 0.004349 0.001364
# 2 -0.000945 0.011187 -0.001992 0.009139 -0.000488 0.000297
# 3 0.000216 -0.001992 0.019287 0.012475 0.002564 -0.002659
# 4 0.005170 0.009139 0.012475 0.040944 0.002157 -0.003294
# 5 0.004349 -0.000488 0.002564 0.002157 0.030773 0.005550
# 6 0.001364 0.000297 -0.002659 -0.003294 0.005550 0.020601
#
#
# Mechanical properties :
#
#
# Convention : Reuss Voigt Hill
#
# Bulk Modulus (GPa) = 27.98797 62.36050 45.17423
# Shear Modulus (GPa) = 33.14670 43.94127 38.54398
#
# Velocity S-wave (km/s) = 3.81101 4.38789 4.10959
# Velocity P-wave (km/s) = 5.62392 7.27982 6.50478
#
# Compressibility (1/GPa) = 0.03572964
#
# Stress axis : x y z
#
# Youngs Moduli (GPa) = 93.46769 89.38835 51.84880
#
# Poissons Ratio (x) = 0.08449 -0.01118
# Poissons Ratio (y) = 0.08834 0.10328
# Poissons Ratio (z) = -0.02015 0.17806
#
# Static dielectric constant tensor:
#      x y z
#    x 1.887040 0.076040 -0.012460 
#    y 0.076040 1.853230 0.002640 
#    z -0.012460 0.002640 2.024210 
# 
# From -- ./inp_files/53191.got.cif
#   From: 2010.05.17/outbox.cif.g08.bks.cpg/sg2_27_cif.got.tgz:53191.got - 2010.06.03 11:33:40.
