data_PCOD9065374
_publ_section_title
;
Structure prediction by ZEFSAII (Michael W. Deem and Ramdas Pophale) SiO2 
 PCOD9065374
Probable space group: P -1
;
_chemical_formula_sum "Si O2"
_cell_formula_units_Z 12
_cell_length_a 7.687888
_cell_length_b 9.420665
_cell_length_c 15.007638
_cell_angle_alpha 145.321235
_cell_angle_beta 53.321228
_cell_angle_gamma 129.788264
_cell_volume 468.895657
_symmetry_space_group_name_H-M "P -1"
_symmetry_group_IT_number 2
_symmetry_cell_setting 'triclinic'
loop_
_space_group_symop_operation_xyz
x,y,z
-x,-y,-z
loop_
_atom_site_type_symbol
_atom_site_label
_atom_site_fract_x
_atom_site_fract_y
_atom_site_fract_z
Si Si1 0.157527 0.319132 0.474811
Si Si2 0.723234 0.604438 0.165403
Si Si3 0.098366 0.031216 0.863782
Si Si4 0.174950 0.618002 0.808361
Si Si5 0.256582 0.544231 0.370868
Si Si6 0.550445 0.040405 0.834959
O O1 0.183824 0.460093 0.634863
O O2 0.279028 0.510014 0.452830
O O3 0.890644 0.264114 0.505451
O O4 0.267757 0.088157 0.324972
O O5 0.858063 0.828977 0.172958
O O6 0.859163 0.562530 0.188470
O O7 0.490134 0.631931 0.290727
O O8 0.653708 0.332984 0.990529
O O9 0.340996 0.025603 0.824346
O O10 0.905996 0.746662 0.762401
O O11 0.006315 0.224299 0.052648
O O12 0.421651 0.846370 0.854452
#
# Coordination Sequence:
#
# PCOD9065374 Si02
#       6
#     2   2   2   2   2   2
#     4  11  25  42  76 100 138 190 224 283 351 413
#     4  12  26  46  73 104 138 181 235 285 336 412
#     4  12  26  46  73 104 138 181 235 285 336 412
#     4  12  23  45  72 103 138 183 231 280 348 406
#     4  11  24  48  72 101 138 186 230 279 352 404
#     4  12  23  45  72 103 138 183 231 280 348 406
#
# _framework density 25.592046
#
# number of rings (size 3 to 8) (size 9 to 14) (size 15 to 20)
#    0.000    0.333    5.000    4.500    0.000    0.000 
#    0.000   13.333    0.000    0.000    0.000    0.000 
#    0.000    0.000    0.000    0.000    0.000    0.000 
#
# Total GULP energy -67324.033387 kJ/mol
# GULP energy per Si atom -5610.336116 kJ/mol
# Density = 2.553380 g / cm^3
# Si number density = 25.592046 Si / 1000 Ang^3
#
#
#
# Elastic Constant Matrix: (Units=GPa)
#
#
# Indices 1 2 3 4 5 6 
#
# 1 125.4650 21.9171 82.2810 2.2054 -18.2137 -17.1384
# 2 21.9171 86.1652 25.8347 -7.4575 5.9514 5.5552
# 3 82.2810 25.8347 211.2281 -10.6503 -19.6790 5.4433
# 4 2.2054 -7.4575 -10.6503 20.7696 0.8781 -0.6892
# 5 -18.2137 5.9514 -19.6790 0.8781 73.5556 -9.8792
# 6 -17.1384 5.5552 5.4433 -0.6892 -9.8792 35.7026
#
#
#
# Elastic Compliance Matrix: (Units=1/GPa)
#
#
# Indices 1 2 3 4 5 6 
#
# 1 0.013641 -0.003188 -0.005076 -0.005056 0.003505 0.008690
# 2 -0.003188 0.013376 -0.000275 0.004970 -0.002566 -0.004184
# 3 -0.005076 -0.000275 0.007044 0.003935 0.000153 -0.003350
# 4 -0.005056 0.004970 0.003935 0.052449 -0.001664 -0.003248
# 5 0.003505 -0.002566 0.000153 -0.001664 0.015583 0.006338
# 6 0.008690 -0.004184 -0.003350 -0.003248 0.006338 0.035034
#
#
# Mechanical properties :
#
#
# Convention : Reuss Voigt Hill
#
# Bulk Modulus (GPa) = 58.88030 75.88043 67.38037
# Shear Modulus (GPa) = 31.27641 45.52726 38.40184
#
# Velocity S-wave (km/s) = 3.49967 4.22235 3.87788
# Velocity P-wave (km/s) = 6.27594 7.31337 6.81443
#
# Compressibility (1/GPa) = 0.01698361
#
# Stress axis : x y z
#
# Youngs Moduli (GPa) = 73.30889 74.76077 141.96230
#
# Poissons Ratio (x) = 0.23832 0.72061
# Poissons Ratio (y) = 0.23369 0.03903
# Poissons Ratio (z) = 0.37212 0.02056
#
# Static dielectric constant tensor:
#      x y z
#    x 2.046580 -0.013640 -0.014860 
#    y -0.013640 1.997490 0.011430 
#    z -0.014860 0.011430 2.030490 
# 
# From -- ./inp_files/233428.got.cif
#   From: 2010.05.17/outbox.cif.g08.bks.cpg/sg2_117_cif.got.tgz:233428.got - 2010.06.03 11:33:40.
