data_PCOD9065264
_publ_section_title
;
Structure prediction by ZEFSAII (Michael W. Deem and Ramdas Pophale) SiO2 
 PCOD9065264
Probable space group: P -1
;
_chemical_formula_sum "Si O2"
_cell_formula_units_Z 16
_cell_length_a 9.133250
_cell_length_b 19.648276
_cell_length_c 6.394319
_cell_angle_alpha 89.621433
_cell_angle_beta 85.497661
_cell_angle_gamma 35.115787
_cell_volume 654.698852
_symmetry_space_group_name_H-M "P -1"
_symmetry_group_IT_number 2
_symmetry_cell_setting 'triclinic'
loop_
_space_group_symop_operation_xyz
x,y,z
-x,-y,-z
loop_
_atom_site_type_symbol
_atom_site_label
_atom_site_fract_x
_atom_site_fract_y
_atom_site_fract_z
Si Si1 0.574652 0.278625 0.481213
Si Si2 0.198813 0.123725 0.058783
Si Si3 0.661875 0.569319 0.879151
Si Si4 0.066183 0.282521 0.427156
Si Si5 0.992700 0.952377 0.807398
Si Si6 0.846854 0.652895 0.942260
Si Si7 0.789559 0.303196 0.762007
Si Si8 0.528574 0.813573 0.312682
O O1 0.431456 0.387502 0.349364
O O2 0.758689 0.248898 0.618618
O O3 0.407715 0.289229 0.632589
O O4 0.730715 0.167503 0.318544
O O5 0.047625 0.205872 0.869916
O O6 0.122064 0.200346 0.260536
O O7 0.089068 0.090764 0.109384
O O8 0.500000 0.000000 0.000000
O O9 0.924364 0.432841 0.912837
O O10 0.730203 0.622370 0.924311
O O11 0.443384 0.617669 0.048151
O O12 0.316788 0.199402 0.543682
O O13 0.825368 0.352725 0.597739
O O14 0.042390 0.358470 0.283977
O O15 0.774012 0.059347 0.668649
O O16 0.000000 0.000000 0.000000
O O17 0.628604 0.783407 0.064322
#
# Coordination Sequence:
#
# PCOD9065264 Si02
#       8
#     2   2   2   2   2   2   2   2
#     4  12  24  45  73 108 144 186 244 291 362 429
#     4  12  27  45  69 101 150 195 236 290 361 428
#     4  11  24  47  77 104 147 185 242 306 353 421
#     4  12  26  46  70 103 150 188 237 293 360 432
#     4  12  25  44  72 107 145 188 237 299 356 426
#     4  11  25  47  73 110 143 189 240 302 359 420
#     4  12  24  47  72 103 144 192 236 298 354 427
#     4  12  26  43  73 108 145 185 243 295 358 433
#
# _framework density 24.438714000000001
#
# number of rings (size 3 to 8) (size 9 to 14) (size 15 to 20)
#    0.000    0.250    5.000    4.125    3.500    3.000 
#    0.000    4.375    0.000    0.000    0.000    0.000 
#    0.000    0.000    0.000    0.000    0.000    0.000 
#
# Total GULP energy -89562.453208 kJ/mol
# GULP energy per Si atom -5597.653325 kJ/mol
# Density = 2.438309 g / cm^3
# Si number density = 24.438714 Si / 1000 Ang^3
#
#
#
# Elastic Constant Matrix: (Units=GPa)
#
#
# Indices 1 2 3 4 5 6 
#
# 1 127.8296 12.3096 59.0918 -1.3799 -3.9590 -2.6914
# 2 12.3096 72.2577 19.5212 -12.3045 -6.4970 -18.0543
# 3 59.0918 19.5212 101.5156 -12.7289 -8.5532 -4.0638
# 4 -1.3799 -12.3045 -12.7289 30.5856 -0.2349 3.3426
# 5 -3.9590 -6.4970 -8.5532 -0.2349 73.9329 1.2152
# 6 -2.6914 -18.0543 -4.0638 3.3426 1.2152 33.9327
#
#
#
# Elastic Compliance Matrix: (Units=1/GPa)
#
#
# Indices 1 2 3 4 5 6 
#
# 1 0.010869 -0.000504 -0.006554 -0.002448 -0.000229 0.000058
# 2 -0.000504 0.017600 -0.001986 0.005309 0.001167 0.008522
# 3 -0.006554 -0.001986 0.014775 0.005102 0.001206 -0.000353
# 4 -0.002448 0.005309 0.005102 0.036899 0.001050 -0.000431
# 5 -0.000229 0.001167 0.001206 0.001050 0.013756 0.000151
# 6 0.000058 0.008522 -0.000353 -0.000431 0.000151 0.034004
#
#
# Mechanical properties :
#
#
# Convention : Reuss Voigt Hill
#
# Bulk Modulus (GPa) = 39.75175 53.71647 46.73411
# Shear Modulus (GPa) = 32.38877 41.73559 37.06218
#
# Velocity S-wave (km/s) = 3.64442 4.13700 3.89850
# Velocity P-wave (km/s) = 5.83184 6.69682 6.27924
#
# Compressibility (1/GPa) = 0.02515612
#
# Stress axis : x y z
#
# Youngs Moduli (GPa) = 92.00733 56.81866 67.68339
#
# Poissons Ratio (x) = 0.02863 0.44357
# Poissons Ratio (y) = 0.04636 0.13442
# Poissons Ratio (z) = 0.60298 0.11284
#
# Static dielectric constant tensor:
#      x y z
#    x 1.968640 0.001580 -0.101270 
#    y 0.001580 1.951500 -0.002980 
#    z -0.101270 -0.002980 2.014730 
# 
# From -- ./inp_files/53083.got.cif
#   From: 2010.05.17/outbox.cif.g08.bks.cpg/sg2_27_cif.got.tgz:53083.got - 2010.06.03 11:33:40.
