data_PCOD9065993
_publ_section_title
;
Structure prediction by ZEFSAII (Michael W. Deem and Ramdas Pophale) SiO2 
 PCOD9065993
Probable space group: P -1
;
_chemical_formula_sum "Si O2"
_cell_formula_units_Z 16
_cell_length_a 9.874910
_cell_length_b 12.346295
_cell_length_c 9.138189
_cell_angle_alpha 73.883222
_cell_angle_beta 96.980437
_cell_angle_gamma 132.735564
_cell_volume 782.612768
_symmetry_space_group_name_H-M "P -1"
_symmetry_group_IT_number 2
_symmetry_cell_setting 'triclinic'
loop_
_space_group_symop_operation_xyz
x,y,z
-x,-y,-z
loop_
_atom_site_type_symbol
_atom_site_label
_atom_site_fract_x
_atom_site_fract_y
_atom_site_fract_z
Si Si1 0.203607 0.105053 0.543154
Si Si2 0.306231 0.906053 0.096504
Si Si3 0.050274 0.945147 0.893026
Si Si4 0.293696 0.412027 0.061575
Si Si5 0.971438 0.550420 0.125640
Si Si6 0.671466 0.033521 0.582681
Si Si7 0.330184 0.427263 0.397455
Si Si8 0.990853 0.389767 0.433890
O O1 0.269616 0.264650 0.450062
O O2 0.169110 0.062164 0.728246
O O3 0.303885 0.066291 0.472366
O O4 0.000000 0.000000 0.500000
O O5 0.162701 0.717892 0.145668
O O6 0.346225 0.976144 0.239131
O O7 0.184872 0.927724 0.984921
O O8 0.500000 0.000000 0.000000
O O9 0.857639 0.775192 0.884716
O O10 0.000000 0.000000 0.000000
O O11 0.334801 0.469944 0.213182
O O12 0.500000 0.500000 0.000000
O O13 0.188224 0.446118 0.932824
O O14 0.922664 0.418156 0.271884
O O15 0.000000 0.500000 0.000000
O O16 0.850868 0.211403 0.515814
O O17 0.500000 0.000000 0.500000
O O18 0.500000 0.500000 0.500000
O O19 0.188281 0.438353 0.440703
O O20 0.000000 0.500000 0.500000
#
# Coordination Sequence:
#
# PCOD9065993 Si02
#       8
#     2   2   2   2   2   2   2   2
#     4  12  24  48  72  97 144 188 237 292 354 421
#     4  11  26  45  68 105 140 180 235 290 354 420
#     4  11  25  44  71 100 137 183 228 290 354 416
#     4  11  26  45  68 105 140 182 235 284 356 424
#     4  11  25  47  72  97 143 189 231 293 357 416
#     4  12  27  45  74 106 142 188 240 292 355 429
#     4  12  29  46  73 105 144 187 240 297 357 428
#     4  12  26  48  72 103 144 189 241 290 356 426
#
# _framework density 20.444337999999998
#
# number of rings (size 3 to 8) (size 9 to 14) (size 15 to 20)
#    0.000    0.500    5.000    1.500    8.750    2.000 
#    0.000    0.000    0.000    0.000    0.000    0.000 
#    0.000    0.000    0.000    0.000    0.000    0.000 
#
# Total GULP energy -89095.536718 kJ/mol
# GULP energy per Si atom -5568.471045 kJ/mol
# Density = 2.039781 g / cm^3
# Si number density = 20.444338 Si / 1000 Ang^3
#
#
#
# Elastic Constant Matrix: (Units=GPa)
#
#
# Indices 1 2 3 4 5 6 
#
# 1 180.2469 44.2673 39.2213 7.3666 -5.7348 2.4372
# 2 44.2673 38.3028 1.7016 11.9081 0.2593 0.8150
# 3 39.2213 1.7016 125.6643 7.4533 -2.8058 0.3208
# 4 7.3666 11.9081 7.4533 36.2968 -2.6491 6.8184
# 5 -5.7348 0.2593 -2.8058 -2.6491 37.3839 8.9164
# 6 2.4372 0.8150 0.3208 6.8184 8.9164 43.5855
#
#
#
# Elastic Compliance Matrix: (Units=1/GPa)
#
#
# Indices 1 2 3 4 5 6 
#
# 1 0.008745 -0.010794 -0.002700 0.002631 0.001642 -0.001015
# 2 -0.010794 0.042491 0.003497 -0.013173 -0.003218 0.002502
# 3 -0.002700 0.003497 0.008900 -0.002510 -0.000049 0.000423
# 4 0.002631 -0.013173 -0.002510 0.033263 0.004076 -0.005920
# 5 0.001642 -0.003218 -0.000049 0.004076 0.028877 -0.006576
# 6 -0.001015 0.002502 0.000423 -0.005920 -0.006576 0.025222
#
#
# Mechanical properties :
#
#
# Convention : Reuss Voigt Hill
#
# Bulk Modulus (GPa) = 24.91231 57.17715 41.04473
# Shear Modulus (GPa) = 27.64359 40.72150 34.18254
#
# Velocity S-wave (km/s) = 3.68113 4.46783 4.09342
# Velocity P-wave (km/s) = 5.50269 7.39211 6.51624
#
# Compressibility (1/GPa) = 0.04014079
#
# Stress axis : x y z
#
# Youngs Moduli (GPa) = 114.35241 23.53416 112.36259
#
# Poissons Ratio (x) = 0.25404 0.30338
# Poissons Ratio (y) = 1.23436 -0.39290
# Poissons Ratio (z) = 0.30876 -0.08229
#
# Static dielectric constant tensor:
#      x y z
#    x 1.652790 0.028950 0.084180 
#    y 0.028950 1.697340 -0.090220 
#    z 0.084180 -0.090220 1.464210 
# 
# From -- ./inp_files/186828.got.cif
#   From: 2010.05.17/outbox.cif.g08.bks.cpg/sg2_94_cif.got.tgz:186828.got - 2010.06.03 11:33:40.
