data_PCOD9065315
_publ_section_title
;
Structure prediction by ZEFSAII (Michael W. Deem and Ramdas Pophale) SiO2 
 PCOD9065315
Probable space group: P -1
;
_chemical_formula_sum "Si O2"
_cell_formula_units_Z 13
_cell_length_a 11.758964
_cell_length_b 9.356771
_cell_length_c 9.920183
_cell_angle_alpha 118.848238
_cell_angle_beta 140.134786
_cell_angle_gamma 84.615004
_cell_volume 533.335756
_symmetry_space_group_name_H-M "P -1"
_symmetry_group_IT_number 2
_symmetry_cell_setting 'triclinic'
loop_
_space_group_symop_operation_xyz
x,y,z
-x,-y,-z
loop_
_atom_site_type_symbol
_atom_site_label
_atom_site_fract_x
_atom_site_fract_y
_atom_site_fract_z
Si Si1 0.343612 0.941646 0.459570
Si Si2 0.352430 0.172484 0.202464
Si Si3 0.500000 0.500000 0.000000
Si Si4 0.839192 0.513908 0.265207
Si Si5 0.996546 0.432479 0.115877
Si Si6 0.586337 0.531903 0.407028
Si Si7 0.930633 0.928975 0.560683
O O1 0.466188 0.877135 0.645812
O O2 0.224834 0.018239 0.483405
O O3 0.500000 0.000000 0.500000
O O4 0.146801 0.786723 0.127780
O O5 0.410275 0.355804 0.246425
O O6 0.356055 0.263039 0.392163
O O7 0.137988 0.010627 0.876246
O O8 0.614225 0.362720 0.030544
O O9 0.525568 0.511870 0.190761
O O10 0.898004 0.513660 0.166065
O O11 0.000000 0.500000 0.500000
O O12 0.817209 0.699781 0.356271
O O13 0.213261 0.483244 0.392818
O O14 0.000000 0.500000 0.000000
O O15 0.000000 0.000000 0.500000
#
# Coordination Sequence:
#
# PCOD9065315 Si02
#       7
#     2   2   1   2   2   2   2
#     4  12  29  47  81 117 159 204 267 339 401 476
#     4  11  26  49  79 111 157 207 270 323 404 478
#     4  12  26  44  72 112 156 192 262 316 398 458
#     4  12  29  47  74 113 158 201 254 333 393 470
#     4  12  24  51  81 109 153 213 270 317 401 489
#     4  11  24  47  81 116 150 213 266 330 393 487
#     4  12  29  51  78 116 162 208 264 333 405 482
#
# _framework density 24.374890000000001
#
# number of rings (size 3 to 8) (size 9 to 14) (size 15 to 20)
#    0.000    0.308    4.615    2.769    8.615    1.231 
#    0.000    0.000    0.000    0.000    0.000    0.000 
#    0.000    0.000    0.000    0.000    0.000    0.000 
#
# Total GULP energy -72430.585874 kJ/mol
# GULP energy per Si atom -5571.583529 kJ/mol
# Density = 2.431941 g / cm^3
# Si number density = 24.374890 Si / 1000 Ang^3
#
#
#
# Elastic Constant Matrix: (Units=GPa)
#
#
# Indices 1 2 3 4 5 6 
#
# 1 181.7601 48.9620 51.4206 -12.7358 -30.8054 -34.8879
# 2 48.9620 72.4987 31.8958 -17.4786 -14.8661 -26.1645
# 3 51.4206 31.8958 166.6411 -34.7506 -6.0600 -1.8031
# 4 -12.7358 -17.4786 -34.7506 45.9309 6.8285 11.4937
# 5 -30.8054 -14.8661 -6.0600 6.8285 47.7600 -8.4205
# 6 -34.8879 -26.1645 -1.8031 11.4937 -8.4205 53.7438
#
#
#
# Elastic Compliance Matrix: (Units=1/GPa)
#
#
# Indices 1 2 3 4 5 6 
#
# 1 0.008847 -0.001921 -0.002648 -0.002792 0.006282 0.006300
# 2 -0.001921 0.021722 -0.002757 0.002219 0.006582 0.009792
# 3 -0.002648 -0.002757 0.008487 0.006269 -0.003200 -0.004618
# 4 -0.002792 0.002219 0.006269 0.029393 -0.005880 -0.007729
# 5 0.006282 0.006582 -0.003200 -0.005880 0.029783 0.013099
# 6 0.006300 0.009792 -0.004618 -0.007729 0.013099 0.031014
#
#
# Mechanical properties :
#
#
# Convention : Reuss Voigt Hill
#
# Bulk Modulus (GPa) = 40.97654 76.16185 58.56919
# Shear Modulus (GPa) = 32.88793 48.72839 40.80816
#
# Velocity S-wave (km/s) = 3.67721 4.47601 4.09612
# Velocity P-wave (km/s) = 5.90564 7.61753 6.81554
#
# Compressibility (1/GPa) = 0.02440421
#
# Stress axis : x y z
#
# Youngs Moduli (GPa) = 113.03740 46.03595 117.83332
#
# Poissons Ratio (x) = 0.08843 0.31198
# Poissons Ratio (y) = 0.21713 0.32486
# Poissons Ratio (z) = 0.29929 0.12692
#
# Static dielectric constant tensor:
#      x y z
#    x 1.900400 -0.118920 0.048430 
#    y -0.118920 1.985350 -0.100280 
#    z 0.048430 -0.100280 2.432490 
# 
# From -- ./inp_files/245729.got.cif
#   From: 2010.05.17/outbox.cif.g08.bks.cpg/sg2_123_cif.got.tgz:245729.got - 2010.06.03 11:33:40.
