data_PCOD9065875
_publ_section_title
;
Structure prediction by ZEFSAII (Michael W. Deem and Ramdas Pophale) SiO2 
 PCOD9065875
Probable space group: P -1
;
_chemical_formula_sum "Si O2"
_cell_formula_units_Z 14
_cell_length_a 20.062566
_cell_length_b 5.145033
_cell_length_c 5.015447
_cell_angle_alpha 99.997578
_cell_angle_beta 90.152905
_cell_angle_gamma 108.945480
_cell_volume 481.257126
_symmetry_space_group_name_H-M "P -1"
_symmetry_group_IT_number 2
_symmetry_cell_setting 'triclinic'
loop_
_space_group_symop_operation_xyz
x,y,z
-x,-y,-z
loop_
_atom_site_type_symbol
_atom_site_label
_atom_site_fract_x
_atom_site_fract_y
_atom_site_fract_z
Si Si1 0.641203 0.547092 0.991769
Si Si2 0.235315 0.168822 0.610072
Si Si3 0.065081 0.152388 0.217978
Si Si4 0.518398 0.225629 0.302934
Si Si5 0.829636 0.460928 0.103425
Si Si6 0.319571 0.944515 0.186689
Si Si7 0.090082 0.733198 0.560176
O O1 0.722530 0.715380 0.098907
O O2 0.595273 0.405299 0.217384
O O3 0.621169 0.808273 0.927512
O O4 0.647790 0.291553 0.768838
O O5 0.194149 0.389876 0.616570
O O6 0.174383 0.875420 0.530274
O O7 0.297314 0.128189 0.433695
O O8 0.134037 0.279685 0.050970
O O9 0.054657 0.432670 0.378431
O O10 0.065670 0.954378 0.432279
O O11 0.000000 0.000000 0.000000
O O12 0.500000 0.500000 0.500000
O O13 0.500000 0.000000 0.500000
O O14 0.500000 0.000000 0.000000
O O15 0.893864 0.338820 0.145589
O O16 0.756062 0.232796 0.977489
#
# Coordination Sequence:
#
# PCOD9065875 Si02
#       7
#     2   2   2   2   2   2   2
#     4  11  27  44  76 114 151 208 268 326 401 489
#     4  11  25  43  73 109 144 192 251 325 405 475
#     4  12  29  48  72 103 143 198 254 311 386 490
#     4  12  29  54  85 121 179 236 291 354 424 512
#     4  11  26  47  73 107 147 191 250 319 413 471
#     4  11  25  43  72 109 151 192 252 332 403 471
#     4  12  25  47  72 101 142 187 245 314 391 465
#
# _framework density 29.090475000000001
#
# number of rings (size 3 to 8) (size 9 to 14) (size 15 to 20)
#    0.000    0.571    4.286    1.714   12.000    1.143 
#    0.000    0.000    0.000    0.000    0.000    0.000 
#    0.000    0.000    0.000    0.000    0.000    0.000 
#
# Total GULP energy -77943.910624 kJ/mol
# GULP energy per Si atom -5567.422187 kJ/mol
# Density = 2.902426 g / cm^3
# Si number density = 29.090475 Si / 1000 Ang^3
#
#
#
# Elastic Constant Matrix: (Units=GPa)
#
#
# Indices 1 2 3 4 5 6 
#
# 1 90.4436 72.6716 47.7899 22.3718 -30.1445 -10.3853
# 2 72.6716 296.0522 82.5404 19.8322 -8.3005 -23.9538
# 3 47.7899 82.5404 128.7863 20.6173 -6.1570 -7.0228
# 4 22.3718 19.8322 20.6173 53.1735 16.6379 -4.1288
# 5 -30.1445 -8.3005 -6.1570 16.6379 48.4652 17.0576
# 6 -10.3853 -23.9538 -7.0228 -4.1288 17.0576 74.7792
#
#
#
# Elastic Compliance Matrix: (Units=1/GPa)
#
#
# Indices 1 2 3 4 5 6 
#
# 1 0.027845 -0.004289 -0.004142 -0.016009 0.022969 -0.004019
# 2 -0.004289 0.004875 -0.001903 0.001884 -0.003300 0.001644
# 3 -0.004142 -0.001903 0.010686 -0.001355 -0.001076 -0.000011
# 4 -0.016009 0.001884 -0.001355 0.032974 -0.022999 0.005320
# 5 0.022969 -0.003300 -0.001076 -0.022999 0.045498 -0.009616
# 6 -0.004019 0.001644 -0.000011 0.005320 -0.009616 0.015827
#
#
# Mechanical properties :
#
#
# Convention : Reuss Voigt Hill
#
# Bulk Modulus (GPa) = 43.97744 102.36510 73.17127
# Shear Modulus (GPa) = 30.12884 56.10224 43.11554
#
# Velocity S-wave (km/s) = 3.22171 4.39628 3.85401
# Velocity P-wave (km/s) = 5.38419 7.81247 6.70910
#
# Compressibility (1/GPa) = 0.02273893
#
# Stress axis : x y z
#
# Youngs Moduli (GPa) = 35.91263 205.10970 93.57689
#
# Poissons Ratio (x) = 0.87974 0.38761
# Poissons Ratio (y) = 0.15403 0.17806
# Poissons Ratio (z) = 0.14876 0.39030
#
# Static dielectric constant tensor:
#      x y z
#    x 2.734550 -0.172230 0.137410 
#    y -0.172230 2.364500 -0.082830 
#    z 0.137410 -0.082830 2.544270 
# 
# From -- ./inp_files/121316.got.cif
#   From: 2010.05.17/outbox.cif.g08.bks.cpg/sg2_61_cif.got.tgz:121316.got - 2010.06.03 11:33:40.
