data_PCOD9065848
_publ_section_title
;
Structure prediction by ZEFSAII (Michael W. Deem and Ramdas Pophale) SiO2 
 PCOD9065848
Probable space group: P -1
;
_chemical_formula_sum "Si O2"
_cell_formula_units_Z 14
_cell_length_a 30.643008
_cell_length_b 5.386801
_cell_length_c 8.557278
_cell_angle_alpha 64.494897
_cell_angle_beta 147.891857
_cell_angle_gamma 129.712588
_cell_volume 556.012079
_symmetry_space_group_name_H-M "P -1"
_symmetry_group_IT_number 2
_symmetry_cell_setting 'triclinic'
loop_
_space_group_symop_operation_xyz
x,y,z
-x,-y,-z
loop_
_atom_site_type_symbol
_atom_site_label
_atom_site_fract_x
_atom_site_fract_y
_atom_site_fract_z
Si Si1 0.863792 0.698347 0.294945
Si Si2 0.202833 0.543021 0.400525
Si Si3 0.884120 0.243739 0.659416
Si Si4 0.544892 0.693036 0.747295
Si Si5 0.949672 0.686581 0.250268
Si Si6 0.646666 0.391540 0.691263
Si Si7 0.613688 0.313145 0.247755
O O1 0.861822 0.364853 0.399236
O O2 0.902015 0.795708 0.206985
O O3 0.760387 0.655714 0.018105
O O4 0.952720 0.962463 0.607380
O O5 0.182377 0.696367 0.442559
O O6 0.316996 0.735892 0.641492
O O7 0.155380 0.142995 0.367481
O O8 0.137841 0.555143 0.064777
O O9 0.000000 0.500000 0.000000
O O10 0.500000 0.500000 0.500000
O O11 0.444950 0.575118 0.573487
O O12 0.610110 0.073556 0.780131
O O13 0.606818 0.593852 0.063319
O O14 0.000000 0.500000 0.500000
O O15 0.654275 0.367066 0.533447
O O16 0.500000 0.000000 0.000000
#
# Coordination Sequence:
#
# PCOD9065848 Si02
#       7
#     2   2   2   2   2   2   2
#     4  11  25  43  71 103 143 193 243 301 381 442
#     4  12  28  48  76 111 150 195 258 304 374 457
#     4  12  26  48  77 109 151 200 247 314 376 441
#     4  11  25  45  73 105 141 184 253 303 362 456
#     4  11  25  44  69 105 146 189 243 302 362 466
#     4  11  25  47  72 105 144 193 242 309 379 437
#     4  12  26  48  75 108 148 199 246 315 382 441
#
# _framework density 25.179307999999999
#
# number of rings (size 3 to 8) (size 9 to 14) (size 15 to 20)
#    0.000    0.571    4.286    2.571    6.000    4.571 
#    0.000    0.000    0.000    0.000    0.000    0.000 
#    0.000    0.000    0.000    0.000    0.000    0.000 
#
# Total GULP energy -78287.057999 kJ/mol
# GULP energy per Si atom -5591.932714 kJ/mol
# Density = 2.512200 g / cm^3
# Si number density = 25.179308 Si / 1000 Ang^3
#
#
#
# Elastic Constant Matrix: (Units=GPa)
#
#
# Indices 1 2 3 4 5 6 
#
# 1 142.4601 21.1242 29.1360 8.2500 41.1519 7.2882
# 2 21.1242 77.8957 35.8453 -4.2042 19.1894 1.2845
# 3 29.1360 35.8453 143.2614 3.1803 34.4563 17.5273
# 4 8.2500 -4.2042 3.1803 50.1100 8.0374 3.7165
# 5 41.1519 19.1894 34.4563 8.0374 42.0953 0.5232
# 6 7.2882 1.2845 17.5273 3.7165 0.5232 26.9822
#
#
#
# Elastic Compliance Matrix: (Units=1/GPa)
#
#
# Indices 1 2 3 4 5 6 
#
# 1 0.010045 -0.000562 0.000964 0.000128 -0.010338 -0.003130
# 2 -0.000562 0.015545 -0.002830 0.002248 -0.004662 0.001031
# 3 0.000964 -0.002830 0.010247 0.000752 -0.008100 -0.006729
# 4 0.000128 0.002248 0.000752 0.021259 -0.005781 -0.003446
# 5 -0.010338 -0.004662 -0.008100 -0.005781 0.043619 0.008227
# 6 -0.003130 0.001031 -0.006729 -0.003446 0.008227 0.042544
#
#
# Mechanical properties :
#
#
# Convention : Reuss Voigt Hill
#
# Bulk Modulus (GPa) = 32.27775 59.53647 45.90711
# Shear Modulus (GPa) = 31.55741 42.33829 36.94785
#
# Velocity S-wave (km/s) = 3.54405 4.10502 3.83481
# Velocity P-wave (km/s) = 5.44004 6.79446 6.15462
#
# Compressibility (1/GPa) = 0.03098109
#
# Stress axis : x y z
#
# Youngs Moduli (GPa) = 99.55456 64.32822 97.59089
#
# Poissons Ratio (x) = 0.03618 -0.09412
# Poissons Ratio (y) = 0.05600 0.27617
# Poissons Ratio (z) = -0.09602 0.18204
#
# Static dielectric constant tensor:
#      x y z
#    x 1.950170 -0.161430 0.083500 
#    y -0.161430 1.919860 0.139350 
#    z 0.083500 0.139350 1.842630 
# 
# From -- ./inp_files/48229.got.cif
#   From: 2010.05.17/outbox.cif.g08.bks.cpg/sg2_25_cif.got.tgz:48229.got - 2010.06.03 11:33:40.
