data_PCOD9065862
_publ_section_title
;
Structure prediction by ZEFSAII (Michael W. Deem and Ramdas Pophale) SiO2 
 PCOD9065862
Probable space group: P -1
;
_chemical_formula_sum "Si O2"
_cell_formula_units_Z 14
_cell_length_a 28.916780
_cell_length_b 9.450903
_cell_length_c 26.591647
_cell_angle_alpha 147.461191
_cell_angle_beta 170.692153
_cell_angle_gamma 33.047190
_cell_volume 630.552785
_symmetry_space_group_name_H-M "P -1"
_symmetry_group_IT_number 2
_symmetry_cell_setting 'triclinic'
loop_
_space_group_symop_operation_xyz
x,y,z
-x,-y,-z
loop_
_atom_site_type_symbol
_atom_site_label
_atom_site_fract_x
_atom_site_fract_y
_atom_site_fract_z
Si Si1 0.208960 0.524301 0.279465
Si Si2 0.868410 0.724738 0.148627
Si Si3 0.193134 0.227849 0.618310
Si Si4 0.464929 0.544292 0.864040
Si Si5 0.856263 0.727292 0.252125
Si Si6 0.389550 0.033488 0.665510
Si Si7 0.871919 0.301830 0.944880
O O1 0.531202 0.366476 0.582337
O O2 0.231297 0.840750 0.402586
O O3 0.000000 0.500000 0.000000
O O4 0.044678 0.428820 0.123464
O O5 0.782101 0.703792 0.107451
O O6 0.951204 0.454811 0.127376
O O7 0.077569 0.962952 0.438202
O O8 0.595530 0.829888 0.856174
O O9 0.237088 0.188086 0.594660
O O10 0.000000 0.500000 0.500000
O O11 0.471318 0.288603 0.967824
O O12 0.574344 0.240939 0.897544
O O13 0.128779 0.521238 0.490175
O O14 0.608798 0.675462 0.010296
O O15 0.000000 0.000000 0.500000
O O16 0.000000 0.000000 0.000000
#
# Coordination Sequence:
#
# PCOD9065862 Si02
#       7
#     2   2   2   2   2   2   2
#     4  11  25  48  79 106 142 183 240 313 368 423
#     4  11  25  43  71  98 139 189 233 287 351 427
#     4  12  22  41  69 102 139 185 240 281 342 417
#     4  12  26  41  66  99 143 184 227 283 337 416
#     4  12  26  42  62  99 144 183 228 279 347 405
#     4  11  25  44  70 103 138 184 244 286 355 427
#     4  11  25  49  75 107 141 187 241 300 369 441
#
# _framework density 22.202741
#
# number of rings (size 3 to 8) (size 9 to 14) (size 15 to 20)
#    0.000    0.571    4.286    3.429    2.000    1.143 
#    0.000    4.286    0.000    0.000    0.000    0.000 
#    0.000    0.000    0.000    0.000    0.000    0.000 
#
# Total GULP energy -78160.375670 kJ/mol
# GULP energy per Si atom -5582.883976 kJ/mol
# Density = 2.215221 g / cm^3
# Si number density = 22.202741 Si / 1000 Ang^3
#
#
#
# Elastic Constant Matrix: (Units=GPa)
#
#
# Indices 1 2 3 4 5 6 
#
# 1 83.6811 65.8081 10.0780 30.4901 -9.5155 8.2265
# 2 65.8081 136.3926 33.6700 24.9458 -8.7267 -23.1124
# 3 10.0780 33.6700 75.9571 21.2380 -10.6053 -4.9975
# 4 30.4901 24.9458 21.2380 36.0240 -8.3006 -4.9639
# 5 -9.5155 -8.7267 -10.6053 -8.3006 48.0977 5.2117
# 6 8.2265 -23.1124 -4.9975 -4.9639 5.2117 30.4594
#
#
#
# Elastic Compliance Matrix: (Units=1/GPa)
#
#
# Indices 1 2 3 4 5 6 
#
# 1 0.046481 -0.025259 0.012668 -0.032982 0.005612 -0.035976
# 2 -0.025259 0.023608 -0.009654 0.013530 -0.003316 0.025924
# 3 0.012668 -0.009654 0.020192 -0.016614 0.003503 -0.010741
# 4 -0.032982 0.013530 -0.016614 0.059648 -0.000280 0.026217
# 5 0.005612 -0.003316 0.003503 -0.000280 0.022827 -0.007409
# 6 -0.035976 0.025924 -0.010741 0.026217 -0.007409 0.065996
#
#
# Mechanical properties :
#
#
# Convention : Reuss Voigt Hill
#
# Bulk Modulus (GPa) = 21.83834 57.23812 39.53823
# Shear Modulus (GPa) = 16.75018 35.34786 26.04902
#
# Velocity S-wave (km/s) = 2.74965 3.99438 3.42897
# Velocity P-wave (km/s) = 4.46520 6.86361 5.78995
#
# Compressibility (1/GPa) = 0.04579103
#
# Stress axis : x y z
#
# Youngs Moduli (GPa) = 21.51436 42.35803 49.52528
#
# Poissons Ratio (x) = 1.06991 -0.62739
# Poissons Ratio (y) = 0.54342 0.47812
# Poissons Ratio (z) = -0.27255 0.40893
#
# Static dielectric constant tensor:
#      x y z
#    x 1.835320 -0.016120 -0.018820 
#    y -0.016120 1.915270 -0.095970 
#    z -0.018820 -0.095970 1.959350 
# 
# From -- ./inp_files/40034.got.cif
#   From: 2010.05.17/outbox.cif.g08.bks.cpg/sg2_21_cif.got.tgz:40034.got - 2010.06.03 11:33:40.
