data_PCOD9065271
_publ_section_title
;
Structure prediction by ZEFSAII (Michael W. Deem and Ramdas Pophale) SiO2 
 PCOD9065271
Probable space group: P -1
;
_chemical_formula_sum "Si O2"
_cell_formula_units_Z 16
_cell_length_a 5.401923
_cell_length_b 19.711207
_cell_length_c 8.182599
_cell_angle_alpha 52.737888
_cell_angle_beta 100.071283
_cell_angle_gamma 117.882243
_cell_volume 605.619181
_symmetry_space_group_name_H-M "P -1"
_symmetry_group_IT_number 2
_symmetry_cell_setting 'triclinic'
loop_
_space_group_symop_operation_xyz
x,y,z
-x,-y,-z
loop_
_atom_site_type_symbol
_atom_site_label
_atom_site_fract_x
_atom_site_fract_y
_atom_site_fract_z
Si Si1 0.732275 0.518177 0.134860
Si Si2 0.146473 0.892052 0.944630
Si Si3 0.316141 0.780242 0.353807
Si Si4 0.156662 0.086114 0.597014
Si Si5 0.234398 0.684714 0.816491
Si Si6 0.657905 0.125221 0.336218
Si Si7 0.696696 0.686432 0.062014
Si Si8 0.247530 0.605602 0.417696
O O1 0.757270 0.598224 0.152546
O O2 0.654096 0.419516 0.361690
O O3 0.500000 0.500000 0.000000
O O4 0.032994 0.575928 0.997003
O O5 0.380047 0.913482 0.796240
O O6 0.076942 0.980617 0.811408
O O7 0.243391 0.864017 0.165218
O O8 0.889672 0.793391 0.994563
O O9 0.648072 0.834725 0.362231
O O10 0.171664 0.720390 0.586811
O O11 0.212003 0.699526 0.319327
O O12 0.378866 0.098100 0.455008
O O13 0.890927 0.099490 0.484090
O O14 0.206180 0.759408 0.828793
O O15 0.548544 0.699512 0.860807
O O16 0.467680 0.638638 0.249512
O O17 0.000000 0.500000 0.500000
#
# Coordination Sequence:
#
# PCOD9065271 Si02
#       8
#     2   2   2   2   2   2   2   2
#     4  12  27  43  75 102 144 193 249 301 383 442
#     4  12  24  47  75 111 144 196 247 310 379 443
#     4  11  27  45  73 106 153 186 247 309 376 444
#     4  11  27  49  78 110 150 199 251 309 382 455
#     4  11  25  48  70 104 147 198 239 309 373 448
#     4  11  24  47  77 108 151 194 252 308 374 451
#     4  12  26  48  74 103 150 193 253 312 368 449
#     4  12  26  46  70 107 144 194 248 310 373 444
#
# _framework density 26.419242000000001
#
# number of rings (size 3 to 8) (size 9 to 14) (size 15 to 20)
#    0.000    0.500    2.500    5.250    5.250    4.000 
#    0.000    3.750    0.000    0.000    0.000    0.000 
#    0.000    0.000    0.000    0.000    0.000    0.000 
#
# Total GULP energy -89550.030966 kJ/mol
# GULP energy per Si atom -5596.876935 kJ/mol
# Density = 2.635911 g / cm^3
# Si number density = 26.419242 Si / 1000 Ang^3
#
#
#
# Elastic Constant Matrix: (Units=GPa)
#
#
# Indices 1 2 3 4 5 6 
#
# 1 68.2077 4.1916 32.8558 -16.6444 6.4332 8.5497
# 2 4.1916 107.3176 13.9641 -22.9887 -9.5427 -2.5795
# 3 32.8558 13.9641 163.7508 -10.5579 21.4571 0.5202
# 4 -16.6444 -22.9887 -10.5579 53.7723 3.0405 11.7138
# 5 6.4332 -9.5427 21.4571 3.0405 39.8941 -10.9981
# 6 8.5497 -2.5795 0.5202 11.7138 -10.9981 42.7703
#
#
#
# Elastic Compliance Matrix: (Units=1/GPa)
#
#
# Indices 1 2 3 4 5 6 
#
# 1 0.018969 0.000700 -0.002887 0.007266 -0.003729 -0.006664
# 2 0.000700 0.010614 -0.001116 0.004381 0.002694 0.000007
# 3 -0.002887 -0.001116 0.007335 0.000453 -0.003981 -0.000727
# 4 0.007266 0.004381 0.000453 0.025112 -0.004850 -0.009319
# 5 -0.003729 0.002694 -0.003981 -0.004850 0.031700 0.010436
# 6 -0.006664 0.000007 -0.000727 -0.009319 0.010436 0.029958
#
#
# Mechanical properties :
#
#
# Convention : Reuss Voigt Hill
#
# Bulk Modulus (GPa) = 32.99226 49.03323 41.01275
# Shear Modulus (GPa) = 35.61261 46.50497 41.05879
#
# Velocity S-wave (km/s) = 3.67547 4.20011 3.94652
# Velocity P-wave (km/s) = 5.52514 6.49008 6.02695
#
# Compressibility (1/GPa) = 0.03031014
#
# Stress axis : x y z
#
# Youngs Moduli (GPa) = 52.71719 94.21221 136.34148
#
# Poissons Ratio (x) = -0.06590 0.39367
# Poissons Ratio (y) = -0.03688 0.15217
# Poissons Ratio (z) = 0.15221 0.10515
#
# Static dielectric constant tensor:
#      x y z
#    x 2.147240 0.015130 -0.010830 
#    y 0.015130 2.124800 0.003430 
#    z -0.010830 0.003430 2.128330 
# 
# From -- ./inp_files/141159.got.cif
#   From: 2010.05.17/outbox.cif.g08.bks.cpg/sg2_71_cif.got.tgz:141159.got - 2010.06.03 11:33:40.
