data_PCOD9065376
_publ_section_title
;
Structure prediction by ZEFSAII (Michael W. Deem and Ramdas Pophale) SiO2 
 PCOD9065376
Probable space group: P -1
;
_chemical_formula_sum "Si O2"
_cell_formula_units_Z 16
_cell_length_a 9.155311
_cell_length_b 19.067108
_cell_length_c 6.611550
_cell_angle_alpha 136.978083
_cell_angle_beta 105.188871
_cell_angle_gamma 83.603119
_cell_volume 754.292988
_symmetry_space_group_name_H-M "P -1"
_symmetry_group_IT_number 2
_symmetry_cell_setting 'triclinic'
loop_
_space_group_symop_operation_xyz
x,y,z
-x,-y,-z
loop_
_atom_site_type_symbol
_atom_site_label
_atom_site_fract_x
_atom_site_fract_y
_atom_site_fract_z
Si Si1 0.921822 0.906083 0.404603
Si Si2 0.551181 0.670163 0.361180
Si Si3 0.899793 0.422799 0.451399
Si Si4 0.890679 0.140187 0.261415
Si Si5 0.324510 0.962429 0.375645
Si Si6 0.713857 0.232743 0.739913
Si Si7 0.893331 0.738368 0.724702
Si Si8 0.608779 0.482244 0.692692
O O1 0.011960 0.918847 0.672152
O O2 0.750905 0.932448 0.395929
O O3 0.931728 0.795682 0.073348
O O4 0.000000 0.000000 0.500000
O O5 0.449031 0.740510 0.343423
O O6 0.713282 0.726829 0.608681
O O7 0.456619 0.618584 0.411051
O O8 0.594686 0.577771 0.038431
O O9 0.779596 0.473805 0.655726
O O10 0.000000 0.500000 0.500000
O O11 0.030814 0.366905 0.488549
O O12 0.793003 0.331313 0.101653
O O13 0.811500 0.216340 0.540464
O O14 0.016754 0.191253 0.261708
O O15 0.757241 0.082313 0.953768
O O16 0.296031 0.871308 0.343611
O O17 0.500000 0.000000 0.500000
O O18 0.500000 0.500000 0.500000
#
# Coordination Sequence:
#
# PCOD9065376 Si02
#       8
#     2   2   2   2   2   2   2   2
#     4  12  24  48  71 101 144 179 243 296 351 429
#     4  11  28  43  73 108 141 199 235 298 367 417
#     4  12  25  47  76 104 150 190 236 299 355 423
#     4  12  24  46  75 100 147 190 232 298 362 421
#     4  12  29  47  73 107 141 192 235 299 361 424
#     4  12  26  49  67 110 150 182 245 295 353 434
#     4  12  27  45  71 110 139 190 242 292 356 429
#     4  11  24  48  72 101 153 187 245 296 352 429
#
# _framework density 21.211915999999999
#
# number of rings (size 3 to 8) (size 9 to 14) (size 15 to 20)
#    0.000    0.250    6.250    1.875    7.000    2.000 
#    0.000    0.000    0.000    0.000    0.000    0.000 
#    0.000    0.000    0.000    0.000    0.000    0.000 
#
# Total GULP energy -89393.901559 kJ/mol
# GULP energy per Si atom -5587.118847 kJ/mol
# Density = 2.116364 g / cm^3
# Si number density = 21.211916 Si / 1000 Ang^3
#
#
#
# Elastic Constant Matrix: (Units=GPa)
#
#
# Indices 1 2 3 4 5 6 
#
# 1 175.9702 53.2998 35.8921 -8.3205 1.1683 -11.7729
# 2 53.2998 112.7853 38.1035 -17.6284 10.2555 -15.4384
# 3 35.8921 38.1035 70.3515 -14.0818 -0.8536 7.2923
# 4 -8.3205 -17.6284 -14.0818 25.0517 -4.5061 1.1100
# 5 1.1683 10.2555 -0.8536 -4.5061 44.7335 -0.1749
# 6 -11.7729 -15.4384 7.2923 1.1100 -0.1749 44.4961
#
#
#
# Elastic Compliance Matrix: (Units=1/GPa)
#
#
# Indices 1 2 3 4 5 6 
#
# 1 0.006989 -0.002376 -0.002595 -0.000833 0.000235 0.001472
# 2 -0.002376 0.013592 -0.005714 0.004869 -0.002653 0.004892
# 3 -0.002595 -0.005714 0.020824 0.007552 0.002511 -0.006260
# 4 -0.000833 0.004869 0.007552 0.048053 0.003886 -0.000952
# 5 0.000235 -0.002653 0.002511 0.003886 0.023391 -0.001275
# 6 0.001472 0.004892 -0.006260 -0.000952 -0.001275 0.025605
#
#
# Mechanical properties :
#
#
# Convention : Reuss Voigt Hill
#
# Bulk Modulus (GPa) = 49.91347 68.18865 59.05106
# Shear Modulus (GPa) = 30.02943 38.31037 34.16990
#
# Velocity S-wave (km/s) = 3.76664 4.25441 4.01793
# Velocity P-wave (km/s) = 6.51911 7.50663 7.03023
#
# Compressibility (1/GPa) = 0.02003467
#
# Stress axis : x y z
#
# Youngs Moduli (GPa) = 143.07348 73.57500 48.02153
#
# Poissons Ratio (x) = 0.17483 0.12463
# Poissons Ratio (y) = 0.33998 0.27438
# Poissons Ratio (z) = 0.37131 0.42038
#
# Static dielectric constant tensor:
#      x y z
#    x 1.755190 -0.026510 -0.001180 
#    y -0.026510 1.763060 0.014310 
#    z -0.001180 0.014310 1.752120 
# 
# From -- ./inp_files/49411.got.cif
#   From: 2010.05.17/outbox.cif.g08.bks.cpg/sg2_25_cif.got.tgz:49411.got - 2010.06.03 11:33:40.
