data_PCOD9065871
_publ_section_title
;
Structure prediction by ZEFSAII (Michael W. Deem and Ramdas Pophale) SiO2 
 PCOD9065871
Probable space group: P -1
;
_chemical_formula_sum "Si O2"
_cell_formula_units_Z 14
_cell_length_a 9.610385
_cell_length_b 11.066794
_cell_length_c 16.579572
_cell_angle_alpha 159.054095
_cell_angle_beta 109.198190
_cell_angle_gamma 68.721497
_cell_volume 587.126711
_symmetry_space_group_name_H-M "P -1"
_symmetry_group_IT_number 2
_symmetry_cell_setting 'triclinic'
loop_
_space_group_symop_operation_xyz
x,y,z
-x,-y,-z
loop_
_atom_site_type_symbol
_atom_site_label
_atom_site_fract_x
_atom_site_fract_y
_atom_site_fract_z
Si Si1 0.072994 0.802766 0.813476
Si Si2 0.653935 0.888531 0.911936
Si Si3 0.821186 0.170508 0.570931
Si Si4 0.610961 0.729066 0.627982
Si Si5 0.826709 0.470603 0.934699
Si Si6 0.394663 0.204969 0.794377
Si Si7 0.123738 0.147237 0.336126
O O1 0.061721 0.402312 0.555153
O O2 0.996093 0.959276 0.814454
O O3 0.241705 0.851205 0.876169
O O4 0.000000 0.000000 0.000000
O O5 0.750818 0.502461 0.707549
O O6 0.632565 0.947515 0.848547
O O7 0.500000 0.000000 0.000000
O O8 0.797160 0.335499 0.757557
O O9 0.721429 0.874073 0.346031
O O10 0.000000 0.000000 0.500000
O O11 0.500000 0.500000 0.500000
O O12 0.776712 0.646992 0.572829
O O13 0.521288 0.878327 0.625142
O O14 0.793621 0.194457 0.822245
O O15 0.707170 0.788990 0.139649
O O16 0.000000 0.500000 0.000000
O O17 0.500000 0.500000 0.000000
#
# Coordination Sequence:
#
# PCOD9065871 Si02
#       7
#     2   2   2   2   2   2   2
#     4  11  25  43  72 107 146 196 252 315 386 454
#     4  12  26  47  78 113 151 202 261 318 392 466
#     4  12  28  48  80 112 153 209 267 317 389 475
#     4  12  24  47  76 107 157 194 250 325 388 450
#     4  12  26  47  76 105 154 204 255 314 388 466
#     4  12  27  48  76 113 156 203 259 319 395 466
#     4  11  26  45  72 112 149 194 257 323 378 460
#
# _framework density 23.844937999999999
#
# number of rings (size 3 to 8) (size 9 to 14) (size 15 to 20)
#    0.000    0.286    5.714    2.571    2.000    4.000 
#    0.000    0.000    0.000    0.000    0.000    0.000 
#    0.000    0.000    0.000    0.000    0.000    0.000 
#
# Total GULP energy -78007.759400 kJ/mol
# GULP energy per Si atom -5571.982814 kJ/mol
# Density = 2.379067 g / cm^3
# Si number density = 23.844938 Si / 1000 Ang^3
#
#
#
# Elastic Constant Matrix: (Units=GPa)
#
#
# Indices 1 2 3 4 5 6 
#
# 1 152.5054 28.3059 40.4129 -26.4078 3.3761 -22.2698
# 2 28.3059 67.6115 25.4182 -30.6359 11.9712 -23.6359
# 3 40.4129 25.4182 90.7900 -43.8200 6.0926 -8.2454
# 4 -26.4078 -30.6359 -43.8200 62.0940 -1.7529 -0.3070
# 5 3.3761 11.9712 6.0926 -1.7529 51.1408 -7.2614
# 6 -22.2698 -23.6359 -8.2454 -0.3070 -7.2614 38.8340
#
#
#
# Elastic Compliance Matrix: (Units=1/GPa)
#
#
# Indices 1 2 3 4 5 6 
#
# 1 0.008119 -0.000505 -0.002403 0.001541 0.000481 0.003941
# 2 -0.000505 0.027075 0.001002 0.013824 -0.003704 0.015819
# 3 -0.002403 0.001002 0.018037 0.012176 -0.001396 0.002897
# 4 0.001541 0.013824 0.012176 0.032175 -0.002016 0.011760
# 5 0.000481 -0.003704 -0.001396 -0.002016 0.020711 0.001582
# 6 0.003941 0.015819 0.002897 0.011760 0.001582 0.038642
#
#
# Mechanical properties :
#
#
# Convention : Reuss Voigt Hill
#
# Bulk Modulus (GPa) = 20.23513 55.46455 37.84984
# Shear Modulus (GPa) = 30.29483 44.86510 37.57996
#
# Velocity S-wave (km/s) = 3.56826 4.34237 3.97421
# Velocity P-wave (km/s) = 5.04789 6.96079 6.08004
#
# Compressibility (1/GPa) = 0.04941902
#
# Stress axis : x y z
#
# Youngs Moduli (GPa) = 123.16232 36.93461 55.44061
#
# Poissons Ratio (x) = 0.01866 0.13325
# Poissons Ratio (y) = 0.06221 -0.05557
# Poissons Ratio (z) = 0.29601 -0.03702
#
# Static dielectric constant tensor:
#      x y z
#    x 1.951460 -0.138320 0.042480 
#    y -0.138320 1.716430 0.224540 
#    z 0.042480 0.224540 2.025260 
# 
# From -- ./inp_files/279278.got.cif
#   From: 2010.05.17/outbox.cif.g08.bks.cpg/sg2_140_cif.got.tgz:279278.got - 2010.06.03 11:33:40.
