data_PCOD9065050
_publ_section_title
;
Structure prediction by ZEFSAII (Michael W. Deem and Ramdas Pophale) SiO2 
 PCOD9065050
Probable space group: P -1
;
_chemical_formula_sum "Si O2"
_cell_formula_units_Z 13
_cell_length_a 8.567160
_cell_length_b 17.373293
_cell_length_c 9.454712
_cell_angle_alpha 151.366800
_cell_angle_beta 105.447162
_cell_angle_gamma 62.894560
_cell_volume 570.102646
_symmetry_space_group_name_H-M "P -1"
_symmetry_group_IT_number 2
_symmetry_cell_setting 'triclinic'
loop_
_space_group_symop_operation_xyz
x,y,z
-x,-y,-z
loop_
_atom_site_type_symbol
_atom_site_label
_atom_site_fract_x
_atom_site_fract_y
_atom_site_fract_z
Si Si1 0.172139 0.635961 0.294230
Si Si2 0.335537 0.200324 0.244442
Si Si3 0.774050 0.753121 0.388306
Si Si4 0.844369 0.850699 0.154204
Si Si5 0.763217 0.267375 0.830495
Si Si6 0.516684 0.441811 0.571082
Si Si7 0.500000 0.000000 0.500000
O O1 0.273516 0.649358 0.199834
O O2 0.272479 0.663200 0.496448
O O3 0.956128 0.775403 0.450836
O O4 0.193099 0.434572 0.978990
O O5 0.243070 0.275694 0.495327
O O6 0.420498 0.321122 0.393486
O O7 0.198197 0.192649 0.082180
O O8 0.500000 0.000000 0.000000
O O9 0.593803 0.922373 0.553938
O O10 0.697821 0.852101 0.233728
O O11 0.056956 0.729520 0.056622
O O12 0.806356 0.059615 0.490809
O O13 0.590666 0.373867 0.063691
O O14 0.500000 0.500000 0.500000
#
# Coordination Sequence:
#
# PCOD9065050 Si02
#       7
#     2   2   2   2   2   2   1
#     4  11  24  47  70 101 135 190 236 285 348 429
#     4  12  26  45  69 105 142 186 230 299 356 413
#     4  11  25  43  74 102 138 184 234 291 352 421
#     4  11  26  42  74 101 144 179 236 294 356 420
#     4  11  24  49  69 103 137 192 231 291 357 424
#     4  12  29  45  71 104 146 187 240 294 352 415
#     4  12  22  44  66 106 134 182 228 282 350 428
#
# _framework density 22.802911999999999
#
# number of rings (size 3 to 8) (size 9 to 14) (size 15 to 20)
#    0.000    0.615    4.615    2.308    6.462    0.615 
#    0.000    1.538    0.000    0.000    0.000    0.000 
#    0.000    0.000    0.000    0.000    0.000    0.000 
#
# Total GULP energy -72550.473678 kJ/mol
# GULP energy per Si atom -5580.805668 kJ/mol
# Density = 2.275101 g / cm^3
# Si number density = 22.802912 Si / 1000 Ang^3
#
#
#
# Elastic Constant Matrix: (Units=GPa)
#
#
# Indices 1 2 3 4 5 6 
#
# 1 68.7684 35.3106 16.5377 -9.0713 -13.3089 4.4047
# 2 35.3106 150.7353 25.3657 -27.5447 5.3599 5.1530
# 3 16.5377 25.3657 38.6003 -8.6113 18.5557 -2.8236
# 4 -9.0713 -27.5447 -8.6113 29.7651 -5.8039 -13.7852
# 5 -13.3089 5.3599 18.5557 -5.8039 18.6923 -6.1385
# 6 4.4047 5.1530 -2.8236 -13.7852 -6.1385 39.2149
#
#
#
# Elastic Compliance Matrix: (Units=1/GPa)
#
#
# Indices 1 2 3 4 5 6 
#
# 1 0.109737 0.001113 -0.160900 0.057923 0.268090 0.038269
# 2 0.001113 0.009349 -0.010056 0.010053 0.012328 0.003386
# 3 -0.160900 -0.010056 0.294042 -0.089987 -0.451803 -0.061790
# 4 0.057923 0.010053 -0.089987 0.087261 0.168837 0.042797
# 5 0.268090 0.012328 -0.451803 0.168837 0.780266 0.117225
# 6 0.038269 0.003386 -0.061790 0.042797 0.117225 0.049702
#
#
# Mechanical properties :
#
#
# Convention : Reuss Voigt Hill
#
# Bulk Modulus (GPa) = 13.61601 45.83691 29.72646
# Shear Modulus (GPa) = 2.95068 29.59380 16.27224
#
# Velocity S-wave (km/s) = 1.13877 3.60642 2.67423
# Velocity P-wave (km/s) = 2.77727 6.12263 4.75394
#
# Compressibility (1/GPa) = 0.07344295
#
# Stress axis : x y z
#
# Youngs Moduli (GPa) = 9.11268 106.96831 3.40087
#
# Poissons Ratio (x) = -0.11907 0.54720
# Poissons Ratio (y) = -0.01014 0.03420
# Poissons Ratio (z) = 1.46623 1.07567
#
# Static dielectric constant tensor:
#      x y z
#    x 1.893280 0.008300 0.016450 
#    y 0.008300 1.814480 0.002010 
#    z 0.016450 0.002010 1.869050 
# 
# From -- ./inp_files/148395.got.cif
#   From: 2010.05.17/outbox.cif.g08.bks.cpg/sg2_75_cif.got.tgz:148395.got - 2010.06.03 11:33:40.
