data_PCOD9065325
_publ_section_title
;
Structure prediction by ZEFSAII (Michael W. Deem and Ramdas Pophale) SiO2 
 PCOD9065325
Probable space group: P -1
;
_chemical_formula_sum "Si O2"
_cell_formula_units_Z 14
_cell_length_a 16.245117
_cell_length_b 18.066204
_cell_length_c 11.372914
_cell_angle_alpha 31.112948
_cell_angle_beta 158.550487
_cell_angle_gamma 154.160195
_cell_volume 528.411362
_symmetry_space_group_name_H-M "P -1"
_symmetry_group_IT_number 2
_symmetry_cell_setting 'triclinic'
loop_
_space_group_symop_operation_xyz
x,y,z
-x,-y,-z
loop_
_atom_site_type_symbol
_atom_site_label
_atom_site_fract_x
_atom_site_fract_y
_atom_site_fract_z
Si Si1 0.212858 0.592461 0.051463
Si Si2 0.418505 0.816877 0.688987
Si Si3 0.240487 0.369804 0.198045
Si Si4 0.307904 0.951632 0.697091
Si Si5 0.305388 0.166432 0.201498
Si Si6 0.171559 0.414464 0.802045
Si Si7 0.102904 0.009614 0.756700
O O1 0.144748 0.457017 0.041903
O O2 0.517277 0.646085 0.414243
O O3 0.218500 0.762145 0.801490
O O4 0.000000 0.500000 0.000000
O O5 0.517510 0.762516 0.778701
O O6 0.113556 0.736167 0.427542
O O7 0.500000 0.000000 0.500000
O O8 0.597095 0.850629 0.996559
O O9 0.988083 0.184596 0.077144
O O10 0.337197 0.467740 0.072261
O O11 0.062398 0.953212 0.422859
O O12 0.418988 0.090687 0.551347
O O13 0.500000 0.000000 0.000000
O O14 0.329728 0.334867 0.057317
O O15 0.000000 0.000000 0.000000
O O16 0.000000 0.500000 0.500000
O O17 0.000000 0.000000 0.500000
#
# Coordination Sequence:
#
# PCOD9065325 Si02
#       7
#     2   2   2   2   2   2   2
#     4  11  26  45  73 106 150 194 236 303 373 434
#     4  12  25  46  76 106 142 201 247 296 376 436
#     4  11  24  48  64 109 148 180 250 298 360 440
#     4  12  24  44  75 106 141 196 238 297 373 417
#     4  12  24  47  72 105 149 181 256 304 342 459
#     4  12  28  47  74 105 150 197 240 313 376 430
#     4  12  25  44  74 108 142 184 253 302 357 449
#
# _framework density 26.494508
#
# number of rings (size 3 to 8) (size 9 to 14) (size 15 to 20)
#    0.000    0.286    7.143    0.857    4.000    6.286 
#    0.000    0.000    0.000    0.000    0.000    0.000 
#    0.000    0.000    0.000    0.000    0.000    0.000 
#
# Total GULP energy -78002.809147 kJ/mol
# GULP energy per Si atom -5571.629225 kJ/mol
# Density = 2.643421 g / cm^3
# Si number density = 26.494508 Si / 1000 Ang^3
#
#
#
# Elastic Constant Matrix: (Units=GPa)
#
#
# Indices 1 2 3 4 5 6 
#
# 1 194.0351 53.4167 60.4019 -31.4914 11.3828 -35.5929
# 2 53.4167 62.5288 47.2267 -41.4851 14.2310 -27.4698
# 3 60.4019 47.2267 88.2895 -23.0293 -14.5665 -21.0944
# 4 -31.4914 -41.4851 -23.0293 63.8267 -20.6927 13.6195
# 5 11.3828 14.2310 -14.5665 -20.6927 57.8001 -17.5182
# 6 -35.5929 -27.4698 -21.0944 13.6195 -17.5182 56.4354
#
#
#
# Elastic Compliance Matrix: (Units=1/GPa)
#
#
# Indices 1 2 3 4 5 6 
#
# 1 0.007318 -0.002899 -0.003285 -0.000176 -0.001111 0.001674
# 2 -0.002899 0.054106 -0.020046 0.022219 -0.006972 0.009488
# 3 -0.003285 -0.020046 0.026479 -0.001569 0.012389 0.002292
# 4 -0.000176 0.022219 -0.001569 0.030563 0.006558 0.004777
# 5 -0.001111 -0.006972 0.012389 0.006558 0.026922 0.007310
# 6 0.001674 0.009488 0.002292 0.004777 0.007310 0.025367
#
#
# Mechanical properties :
#
#
# Convention : Reuss Voigt Hill
#
# Bulk Modulus (GPa) = 28.21485 74.10492 51.15988
# Shear Modulus (GPa) = 21.27386 47.86630 34.57008
#
# Velocity S-wave (km/s) = 2.83672 4.25508 3.61612
# Velocity P-wave (km/s) = 4.62620 7.22299 6.06520
#
# Compressibility (1/GPa) = 0.03544234
#
# Stress axis : x y z
#
# Youngs Moduli (GPa) = 136.64737 18.48213 37.76569
#
# Poissons Ratio (x) = 0.05359 0.12406
# Poissons Ratio (y) = 0.39619 0.75706
# Poissons Ratio (z) = 0.44890 0.37050
#
# Static dielectric constant tensor:
#      x y z
#    x 2.139900 -0.034800 0.043680 
#    y -0.034800 2.867980 0.021850 
#    z 0.043680 0.021850 2.052340 
# 
# From -- ./inp_files/466574.got.cif
#   From: 2010.05.17/outbox.cif.g08.bks.cpg/sg2_234_cif.got.tgz:466574.got - 2010.06.03 11:33:40.
