data_PCOD9065570
_publ_section_title
;
Structure prediction by ZEFSAII (Michael W. Deem and Ramdas Pophale) SiO2 
 PCOD9065570
Probable space group: P -1
;
_chemical_formula_sum "Si O2"
_cell_formula_units_Z 15
_cell_length_a 6.430091
_cell_length_b 14.478423
_cell_length_c 12.544829
_cell_angle_alpha 141.464227
_cell_angle_beta 65.326639
_cell_angle_gamma 101.033219
_cell_volume 642.054469
_symmetry_space_group_name_H-M "P -1"
_symmetry_group_IT_number 2
_symmetry_cell_setting 'triclinic'
loop_
_space_group_symop_operation_xyz
x,y,z
-x,-y,-z
loop_
_atom_site_type_symbol
_atom_site_label
_atom_site_fract_x
_atom_site_fract_y
_atom_site_fract_z
Si Si1 0.097616 0.597006 0.154906
Si Si2 0.261101 0.820442 0.633717
Si Si3 0.475893 0.326125 0.352760
Si Si4 0.464493 0.789264 0.209073
Si Si5 0.948630 0.444340 0.636968
Si Si6 0.000000 0.000000 0.000000
Si Si7 0.313870 0.131128 0.555201
Si Si8 0.307089 0.241283 0.099679
O O1 0.333208 0.652726 0.128728
O O2 0.103357 0.514000 0.191381
O O3 0.902704 0.755742 0.351439
O O4 0.000000 0.500000 0.000000
O O5 0.337731 0.785858 0.711396
O O6 0.221979 0.662934 0.455888
O O7 0.454239 0.869332 0.565077
O O8 0.023347 0.945917 0.816772
O O9 0.500000 0.500000 0.500000
O O10 0.483025 0.260449 0.173754
O O11 0.214088 0.348434 0.476409
O O12 0.645468 0.798286 0.274452
O O13 0.291801 0.958260 0.411764
O O14 0.569169 0.781386 0.061533
O O15 0.888895 0.597840 0.719578
O O16 0.819913 0.889833 0.962971
#
# Coordination Sequence:
#
# PCOD9065570 Si02
#       8
#     2   2   2   2   2   1   2   2
#     4  12  27  44  72 110 139 185 240 293 349 424
#     4  12  24  48  74 102 142 186 238 287 358 419
#     4  12  25  44  72 100 141 189 237 288 349 421
#     4  11  26  47  72 103 144 188 229 297 352 419
#     4  12  25  46  72 101 145 186 236 298 353 416
#     4  12  26  48  70 106 146 182 236 288 354 426
#     4  11  24  49  73 101 141 188 234 288 360 418
#     4  12  26  46  70 108 143 187 238 292 354 418
#
# _framework density 23.362503
#
# number of rings (size 3 to 8) (size 9 to 14) (size 15 to 20)
#    0.000    0.267    6.667    2.400    3.733    1.600 
#    4.800    0.000    0.000    0.000    0.000    0.000 
#    0.000    0.000    0.000    0.000    0.000    0.000 
#
# Total GULP energy -83739.100283 kJ/mol
# GULP energy per Si atom -5582.606686 kJ/mol
# Density = 2.330933 g / cm^3
# Si number density = 23.362503 Si / 1000 Ang^3
#
#
#
# Elastic Constant Matrix: (Units=GPa)
#
#
# Indices 1 2 3 4 5 6 
#
# 1 47.4732 35.6562 17.6717 -8.1513 18.3984 4.1497
# 2 35.6562 96.6897 27.7243 -5.9024 24.5189 14.7190
# 3 17.6717 27.7243 99.9936 -20.0056 32.5351 7.9853
# 4 -8.1513 -5.9024 -20.0056 63.8880 0.8856 3.3324
# 5 18.3984 24.5189 32.5351 0.8856 43.9749 -3.7279
# 6 4.1497 14.7190 7.9853 3.3324 -3.7279 39.5356
#
#
#
# Elastic Compliance Matrix: (Units=1/GPa)
#
#
# Indices 1 2 3 4 5 6 
#
# 1 0.031979 -0.009348 0.000606 0.003587 -0.008783 -0.001129
# 2 -0.009348 0.016107 -0.000649 0.000444 -0.005056 -0.005398
# 3 0.000606 -0.000649 0.015262 0.005190 -0.011664 -0.004442
# 4 0.003587 0.000444 0.005190 0.018056 -0.006265 -0.003703
# 5 -0.008783 -0.005056 -0.011664 -0.006265 0.038783 0.009345
# 6 -0.001129 -0.005398 -0.004442 -0.003703 0.009345 0.029512
#
#
# Mechanical properties :
#
#
# Convention : Reuss Voigt Hill
#
# Bulk Modulus (GPa) = 22.43898 45.14012 33.78955
# Shear Modulus (GPa) = 27.27234 40.35332 33.81283
#
# Velocity S-wave (km/s) = 3.42037 4.16055 3.80848
# Velocity P-wave (km/s) = 5.02236 6.51489 5.81669
#
# Compressibility (1/GPa) = 0.04456531
#
# Stress axis : x y z
#
# Youngs Moduli (GPa) = 31.27053 62.08561 65.52345
#
# Poissons Ratio (x) = 0.58041 -0.03971
# Poissons Ratio (y) = 0.29233 0.04250
# Poissons Ratio (z) = -0.01895 0.04027
#
# Static dielectric constant tensor:
#      x y z
#    x 1.824820 0.014840 0.085350 
#    y 0.014840 1.838500 -0.030420 
#    z 0.085350 -0.030420 1.765840 
# 
# From -- ./inp_files/40439.got.cif
#   From: 2010.05.17/outbox.cif.g08.bks.cpg/sg2_21_cif.got.tgz:40439.got - 2010.06.03 11:33:40.
