data_PCOD9065267
_publ_section_title
;
Structure prediction by ZEFSAII (Michael W. Deem and Ramdas Pophale) SiO2 
 PCOD9065267
Probable space group: P -1
;
_chemical_formula_sum "Si O2"
_cell_formula_units_Z 14
_cell_length_a 10.556870
_cell_length_b 8.085841
_cell_length_c 13.369797
_cell_angle_alpha 64.245415
_cell_angle_beta 149.288225
_cell_angle_gamma 114.657869
_cell_volume 522.598787
_symmetry_space_group_name_H-M "P -1"
_symmetry_group_IT_number 2
_symmetry_cell_setting 'triclinic'
loop_
_space_group_symop_operation_xyz
x,y,z
-x,-y,-z
loop_
_atom_site_type_symbol
_atom_site_label
_atom_site_fract_x
_atom_site_fract_y
_atom_site_fract_z
Si Si1 0.352348 0.319747 0.079888
Si Si2 0.116000 0.695753 0.123909
Si Si3 0.728439 0.647538 0.316214
Si Si4 0.263817 0.824918 0.972798
Si Si5 0.163957 0.357451 0.382647
Si Si6 0.020726 0.811363 0.301869
Si Si7 0.479956 0.016067 0.634016
O O1 0.554266 0.491483 0.180619
O O2 0.483721 0.131661 0.215326
O O3 0.133898 0.316459 0.850293
O O4 0.181484 0.310156 0.066659
O O5 0.211788 0.521467 0.291739
O O6 0.244877 0.879265 0.217991
O O7 0.195075 0.711691 0.058339
O O8 0.780153 0.587363 0.479797
O O9 0.970761 0.711092 0.400566
O O10 0.557214 0.819480 0.161124
O O11 0.121042 0.720388 0.810927
O O12 0.135736 0.011085 0.849322
O O13 0.322122 0.185299 0.510878
O O14 0.310516 0.890921 0.473034
#
# Coordination Sequence:
#
# PCOD9065267 Si02
#       7
#     2   2   2   2   2   2   2
#     4  12  27  47  72 107 147 192 227 300 358 424
#     4  12  24  48  73 108 147 180 243 287 370 419
#     4  12  26  46  75 105 143 190 241 291 354 422
#     4  11  24  47  77 106 141 188 236 304 350 420
#     4  11  25  46  74 108 140 188 236 299 348 421
#     4  11  27  48  71 106 143 193 241 285 357 423
#     4  11  26  45  73 105 144 185 235 297 351 423
#
# _framework density 26.789196
#
# number of rings (size 3 to 8) (size 9 to 14) (size 15 to 20)
#    0.000    0.571    4.286    2.143    2.000    5.714 
#    0.000    0.000    0.000    0.000    0.000    0.000 
#    0.000    0.000    0.000    0.000    0.000    0.000 
#
# Total GULP energy -78403.435866 kJ/mol
# GULP energy per Si atom -5600.245419 kJ/mol
# Density = 2.672822 g / cm^3
# Si number density = 26.789196 Si / 1000 Ang^3
#
#
#
# Elastic Constant Matrix: (Units=GPa)
#
#
# Indices 1 2 3 4 5 6 
#
# 1 54.7703 13.2999 14.6222 11.8666 -1.3363 10.5903
# 2 13.2999 99.8730 46.9510 6.9256 -8.6321 -9.9159
# 3 14.6222 46.9510 144.0166 10.5017 -4.8355 3.3322
# 4 11.8666 6.9256 10.5017 71.0165 -7.6960 -1.0527
# 5 -1.3363 -8.6321 -4.8355 -7.6960 48.2751 5.0310
# 6 10.5903 -9.9159 3.3322 -1.0527 5.0310 26.3675
#
#
#
# Elastic Compliance Matrix: (Units=1/GPa)
#
#
# Indices 1 2 3 4 5 6 
#
# 1 0.021961 -0.003369 -0.000635 -0.003347 0.000475 -0.010231
# 2 -0.003369 0.013114 -0.004054 0.000109 0.001178 0.006577
# 3 -0.000635 -0.004054 0.008449 -0.000758 0.000234 -0.002412
# 4 -0.003347 0.000109 -0.000758 0.014991 0.002065 0.001686
# 5 0.000475 0.001178 0.000234 0.002065 0.021690 -0.003834
# 6 -0.010231 0.006577 -0.002412 0.001686 -0.003834 0.045612
#
#
# Mechanical properties :
#
#
# Convention : Reuss Voigt Hill
#
# Bulk Modulus (GPa) = 36.48445 49.82290 43.15368
# Shear Modulus (GPa) = 33.09770 44.05095 38.57432
#
# Velocity S-wave (km/s) = 3.51876 4.05946 3.79875
# Velocity P-wave (km/s) = 5.49159 6.37266 5.94846
#
# Compressibility (1/GPa) = 0.02740893
#
# Stress axis : x y z
#
# Youngs Moduli (GPa) = 45.53589 76.25238 118.36154
#
# Poissons Ratio (x) = 0.25688 0.07512
# Poissons Ratio (y) = 0.15340 0.47983
# Poissons Ratio (z) = 0.02890 0.30912
#
# Static dielectric constant tensor:
#      x y z
#    x 2.109440 -0.060050 -0.022620 
#    y -0.060050 2.143210 -0.000830 
#    z -0.022620 -0.000830 2.071770 
# 
# From -- ./inp_files/514148.got.cif
#   From: 2010.05.17/outbox.cif.g08.bks.cpg/sg2_258_cif.got.tgz:514148.got - 2010.06.03 11:33:40.
