data_PCOD9065970
_publ_section_title
;
Structure prediction by ZEFSAII (Michael W. Deem and Ramdas Pophale) SiO2 
 PCOD9065970
Probable space group: P -1
;
_chemical_formula_sum "Si O2"
_cell_formula_units_Z 14
_cell_length_a 19.781310
_cell_length_b 13.551603
_cell_length_c 9.360151
_cell_angle_alpha 134.085920
_cell_angle_beta 32.849257
_cell_angle_gamma 152.237464
_cell_volume 622.607107
_symmetry_space_group_name_H-M "P -1"
_symmetry_group_IT_number 2
_symmetry_cell_setting 'triclinic'
loop_
_space_group_symop_operation_xyz
x,y,z
-x,-y,-z
loop_
_atom_site_type_symbol
_atom_site_label
_atom_site_fract_x
_atom_site_fract_y
_atom_site_fract_z
Si Si1 0.955681 0.767986 0.628452
Si Si2 0.700115 0.755501 0.896060
Si Si3 0.628205 0.005506 0.377006
Si Si4 0.607757 0.193712 0.110317
Si Si5 0.280535 0.442132 0.894668
Si Si6 0.033229 0.504867 0.779273
Si Si7 0.705613 0.775325 0.582526
O O1 0.846652 0.810148 0.803601
O O2 0.878279 0.570342 0.480528
O O3 0.901289 0.695185 0.815545
O O4 0.183971 0.991267 0.421100
O O5 0.770614 0.797282 0.649651
O O6 0.500000 0.500000 0.000000
O O7 0.663871 0.885858 0.124282
O O8 0.832325 0.260653 0.286168
O O9 0.500000 0.000000 0.500000
O O10 0.518032 0.894736 0.611397
O O11 0.651118 0.372542 0.134079
O O12 0.822063 0.322727 0.899624
O O13 0.500000 0.000000 0.000000
O O14 0.470139 0.577561 0.795003
O O15 0.240415 0.286184 0.698553
O O16 0.000000 0.500000 0.000000
#
# Coordination Sequence:
#
# PCOD9065970 Si02
#       7
#     2   2   2   2   2   2   2
#     4  12  26  46  74 105 145 184 242 293 356 429
#     4  12  25  46  77 106 142 190 241 297 358 426
#     4  12  27  48  76 105 147 192 244 301 361 432
#     4  12  28  47  75 106 149 193 243 298 368 431
#     4  11  26  45  70 103 146 187 234 296 358 428
#     4  12  27  47  77 107 146 193 245 298 363 432
#     4  11  25  44  70 103 146 184 234 294 359 421
#
# _framework density 22.486093
#
# number of rings (size 3 to 8) (size 9 to 14) (size 15 to 20)
#    0.000    0.286    2.857    5.143    8.000    3.429 
#    0.000    0.000    0.000    0.000    0.000    0.000 
#    0.000    0.000    0.000    0.000    0.000    0.000 
#
# Total GULP energy -78381.941115 kJ/mol
# GULP energy per Si atom -5598.710080 kJ/mol
# Density = 2.243491 g / cm^3
# Si number density = 22.486093 Si / 1000 Ang^3
#
#
#
# Elastic Constant Matrix: (Units=GPa)
#
#
# Indices 1 2 3 4 5 6 
#
# 1 102.0040 33.0998 24.4858 3.0980 12.9725 -4.5372
# 2 33.0998 165.1501 32.9867 1.9793 5.8695 -6.2856
# 3 24.4858 32.9867 62.0436 -0.1770 13.8626 -11.1064
# 4 3.0980 1.9793 -0.1770 50.0946 -17.1494 -0.5699
# 5 12.9725 5.8695 13.8626 -17.1494 40.6705 -13.4602
# 6 -4.5372 -6.2856 -11.1064 -0.5699 -13.4602 42.5556
#
#
#
# Elastic Compliance Matrix: (Units=1/GPa)
#
#
# Indices 1 2 3 4 5 6 
#
# 1 0.011519 -0.001579 -0.003101 -0.001866 -0.003488 -0.000943
# 2 -0.001579 0.006996 -0.003206 0.000048 0.000689 0.000247
# 3 -0.003101 -0.003206 0.020734 -0.001361 -0.005216 0.002939
# 4 -0.001866 0.000048 -0.001361 0.024426 0.012598 0.003765
# 5 -0.003488 0.000689 -0.005216 0.012598 0.035972 0.009915
# 6 -0.000943 0.000247 0.002939 0.003765 0.009915 0.027388
#
#
# Mechanical properties :
#
#
# Convention : Reuss Voigt Hill
#
# Bulk Modulus (GPa) = 42.59605 56.70470 49.65038
# Shear Modulus (GPa) = 33.19309 42.57250 37.88280
#
# Velocity S-wave (km/s) = 3.84625 4.35591 4.10899
# Velocity P-wave (km/s) = 6.22168 7.11133 6.68133
#
# Compressibility (1/GPa) = 0.02347636
#
# Stress axis : x y z
#
# Youngs Moduli (GPa) = 86.81632 142.93389 48.22993
#
# Poissons Ratio (x) = 0.22565 0.14958
# Poissons Ratio (y) = 0.13706 0.15464
# Poissons Ratio (z) = 0.26924 0.45828
#
# Static dielectric constant tensor:
#      x y z
#    x 1.844810 0.022620 -0.063060 
#    y 0.022620 1.845140 0.001280 
#    z -0.063060 0.001280 1.837200 
# 
# From -- ./inp_files/333689.got.cif
#   From: 2010.05.17/outbox.cif.g08.bks.cpg/sg2_167_cif.got.tgz:333689.got - 2010.06.03 11:33:40.
