data_PCOD9065485
_publ_section_title
;
Structure prediction by ZEFSAII (Michael W. Deem and Ramdas Pophale) SiO2 
 PCOD9065485
Probable space group: P -1
;
_chemical_formula_sum "Si O2"
_cell_formula_units_Z 12
_cell_length_a 6.291482
_cell_length_b 12.316510
_cell_length_c 8.999931
_cell_angle_alpha 126.892917
_cell_angle_beta 99.170238
_cell_angle_gamma 65.284159
_cell_volume 502.608502
_symmetry_space_group_name_H-M "P -1"
_symmetry_group_IT_number 2
_symmetry_cell_setting 'triclinic'
loop_
_space_group_symop_operation_xyz
x,y,z
-x,-y,-z
loop_
_atom_site_type_symbol
_atom_site_label
_atom_site_fract_x
_atom_site_fract_y
_atom_site_fract_z
Si Si1 0.469334 0.658828 0.692697
Si Si2 0.230242 0.033100 0.465022
Si Si3 0.900022 0.121694 0.955972
Si Si4 0.135717 0.329577 0.059672
Si Si5 0.351410 0.407564 0.858482
Si Si6 0.749177 0.198775 0.510371
O O1 0.500000 0.500000 0.500000
O O2 0.716960 0.652324 0.769881
O O3 0.347180 0.772087 0.639987
O O4 0.296091 0.729176 0.869256
O O5 0.210000 0.945561 0.240947
O O6 0.188417 0.964403 0.557575
O O7 0.500000 0.000000 0.500000
O O8 0.012277 0.197335 0.555517
O O9 0.082566 0.184934 0.961903
O O10 0.000000 0.000000 0.000000
O O11 0.892002 0.474814 0.139008
O O12 0.278772 0.330521 0.925624
O O13 0.534393 0.298728 0.672129
O O14 0.500000 0.500000 0.000000
#
# Coordination Sequence:
#
# PCOD9065485 Si02
#       6
#     2   2   2   2   2   2
#     4  12  27  47  77 117 157 202 265 332 399 475
#     4  11  27  49  75 109 154 215 264 319 391 474
#     4  12  27  51  76 113 163 209 265 324 399 478
#     4  11  26  46  80 111 156 211 262 323 408 464
#     4  11  24  48  76 110 150 202 264 329 390 473
#     4  11  25  44  71 109 151 195 263 323 386 463
#
# _framework density 23.875440999999999
#
# number of rings (size 3 to 8) (size 9 to 14) (size 15 to 20)
#    0.000    0.667    1.667    5.000    2.333   15.333 
#    0.000    0.000    0.000    0.000    0.000    0.000 
#    0.000    0.000    0.000    0.000    0.000    0.000 
#
# Total GULP energy -67019.687729 kJ/mol
# GULP energy per Si atom -5584.973977 kJ/mol
# Density = 2.382110 g / cm^3
# Si number density = 23.875441 Si / 1000 Ang^3
#
#
#
# Elastic Constant Matrix: (Units=GPa)
#
#
# Indices 1 2 3 4 5 6 
#
# 1 185.9149 86.8277 90.8643 -16.0018 8.7919 -27.6651
# 2 86.8277 156.8502 59.3234 -36.3237 15.2920 -12.7878
# 3 90.8643 59.3234 179.9561 -1.1272 -1.6755 -14.8021
# 4 -16.0018 -36.3237 -1.1272 41.5833 -15.4318 6.1272
# 5 8.7919 15.2920 -1.6755 -15.4318 55.0608 2.0629
# 6 -27.6651 -12.7878 -14.8021 6.1272 2.0629 54.1297
#
#
#
# Elastic Compliance Matrix: (Units=1/GPa)
#
#
# Indices 1 2 3 4 5 6 
#
# 1 0.009039 -0.003610 -0.003138 -0.000494 -0.000787 0.002995
# 2 -0.003610 0.010883 -0.001771 0.008091 -0.000208 -0.000666
# 3 -0.003138 -0.001771 0.007744 -0.002393 0.000545 0.000346
# 4 -0.000494 0.008091 -0.002393 0.034079 0.007428 -0.003136
# 5 -0.000787 -0.000208 0.000545 0.007428 0.020515 -0.001925
# 6 0.002995 -0.000666 0.000346 -0.003136 -0.001925 0.020370
#
#
# Mechanical properties :
#
#
# Convention : Reuss Voigt Hill
#
# Bulk Modulus (GPa) = 94.09386 110.75023 102.42205
# Shear Modulus (GPa) = 40.58067 49.20182 44.89124
#
# Velocity S-wave (km/s) = 4.12719 4.54450 4.34086
# Velocity P-wave (km/s) = 7.88717 8.60372 8.25323
#
# Compressibility (1/GPa) = 0.01062769
#
# Stress axis : x y z
#
# Youngs Moduli (GPa) = 110.63328 91.88264 129.13898
#
# Poissons Ratio (x) = 0.33173 0.40522
# Poissons Ratio (y) = 0.39942 0.22869
# Poissons Ratio (z) = 0.34715 0.16271
#
# Static dielectric constant tensor:
#      x y z
#    x 2.338820 0.001140 -0.030300 
#    y 0.001140 1.913110 0.011090 
#    z -0.030300 0.011090 1.876300 
# 
# From -- ./inp_files/26041.got.cif
#   From: 2010.05.17/outbox.cif.g08.bks.cpg/sg2_14_cif.got.tgz:26041.got - 2010.06.03 11:33:40.
