data_PCOD9065568
_publ_section_title
;
Structure prediction by ZEFSAII (Michael W. Deem and Ramdas Pophale) SiO2 
 PCOD9065568
Probable space group: P -1
;
_chemical_formula_sum "Si O2"
_cell_formula_units_Z 15
_cell_length_a 6.214523
_cell_length_b 6.266421
_cell_length_c 16.399098
_cell_angle_alpha 102.302411
_cell_angle_beta 87.023377
_cell_angle_gamma 99.944109
_cell_volume 614.512054
_symmetry_space_group_name_H-M "P -1"
_symmetry_group_IT_number 2
_symmetry_cell_setting 'triclinic'
loop_
_space_group_symop_operation_xyz
x,y,z
-x,-y,-z
loop_
_atom_site_type_symbol
_atom_site_label
_atom_site_fract_x
_atom_site_fract_y
_atom_site_fract_z
Si Si1 0.660195 0.685858 0.632935
Si Si2 0.170776 0.924490 0.882370
Si Si3 0.465715 0.761312 0.180670
Si Si4 0.649649 0.080320 0.427493
Si Si5 0.147772 0.732541 0.040324
Si Si6 0.908333 0.547787 0.753749
Si Si7 0.000000 0.500000 0.500000
Si Si8 0.714026 0.656103 0.319102
O O1 0.521017 0.875504 0.634819
O O2 0.486405 0.462743 0.633396
O O3 0.784285 0.710118 0.718049
O O4 0.820852 0.648975 0.554924
O O5 0.032535 0.697072 0.833527
O O6 0.382221 0.008059 0.829021
O O7 0.232412 0.869099 0.968581
O O8 0.013854 0.113131 0.902611
O O9 0.350732 0.691539 0.089647
O O10 0.637585 0.653938 0.225721
O O11 0.248880 0.674517 0.232235
O O12 0.803614 0.298979 0.468602
O O13 0.500000 0.000000 0.500000
O O14 0.778480 0.900298 0.372237
O O15 0.000000 0.500000 0.000000
O O16 0.084820 0.471051 0.684229
#
# Coordination Sequence:
#
# PCOD9065568 Si02
#       8
#     2   2   2   2   2   2   1   2
#     4  11  27  48  76 109 149 196 248 310 374 452
#     4  11  26  46  76 108 149 200 252 306 375 438
#     4  11  25  45  76 105 149 199 249 308 371 438
#     4  12  28  51  75 112 150 195 249 307 381 447
#     4  11  24  49  72 111 154 197 251 309 370 444
#     4  11  26  51  73 109 154 194 253 313 373 445
#     4  12  26  48  80 104 150 190 248 306 374 446
#     4  11  27  50  73 111 152 195 253 313 376 445
#
# _framework density 24.409609
#
# number of rings (size 3 to 8) (size 9 to 14) (size 15 to 20)
#    0.000    0.800    2.667    2.400    7.467    4.267 
#    0.000    0.000    0.000    0.000    0.000    0.000 
#    0.000    0.000    0.000    0.000    0.000    0.000 
#
# Total GULP energy -83566.694455 kJ/mol
# GULP energy per Si atom -5571.112964 kJ/mol
# Density = 2.435405 g / cm^3
# Si number density = 24.409609 Si / 1000 Ang^3
#
#
#
# Elastic Constant Matrix: (Units=GPa)
#
#
# Indices 1 2 3 4 5 6 
#
# 1 83.8346 37.2509 40.2151 -9.5917 -0.9472 27.9468
# 2 37.2509 67.3411 46.7784 -5.7731 4.8983 7.5756
# 3 40.2151 46.7784 58.3341 -2.9578 0.3954 5.7516
# 4 -9.5917 -5.7731 -2.9578 45.7283 -0.1774 -4.8736
# 5 -0.9472 4.8983 0.3954 -0.1774 45.2172 -0.7307
# 6 27.9468 7.5756 5.7516 -4.8736 -0.7307 34.9192
#
#
#
# Elastic Compliance Matrix: (Units=1/GPa)
#
#
# Indices 1 2 3 4 5 6 
#
# 1 0.025853 -0.002429 -0.014034 0.002345 0.000654 -0.017511
# 2 -0.002429 0.034832 -0.026018 0.002072 -0.003606 -0.001114
# 3 -0.014034 -0.026018 0.046673 -0.002250 0.002252 0.008922
# 4 0.002345 0.002072 -0.002250 0.022604 -0.000048 0.001198
# 5 0.000654 -0.003606 0.002252 -0.000048 0.022506 0.000353
# 6 -0.017511 -0.001114 0.008922 0.001198 0.000353 0.041599
#
#
# Mechanical properties :
#
#
# Convention : Reuss Voigt Hill
#
# Bulk Modulus (GPa) = 44.65213 50.88875 47.77044
# Shear Modulus (GPa) = 17.45246 30.85730 24.15488
#
# Velocity S-wave (km/s) = 2.67682 3.55934 3.14915
# Velocity P-wave (km/s) = 5.28075 6.14695 5.73024
#
# Compressibility (1/GPa) = 0.02239535
#
# Stress axis : x y z
#
# Youngs Moduli (GPa) = 38.68089 28.70916 21.42585
#
# Poissons Ratio (x) = 0.06973 0.30069
# Poissons Ratio (y) = 0.09395 0.55746
# Poissons Ratio (z) = 0.54284 0.74696
#
# Static dielectric constant tensor:
#      x y z
#    x 1.916420 -0.024640 0.007970 
#    y -0.024640 1.883820 -0.055450 
#    z 0.007970 -0.055450 2.014480 
# 
# From -- ./inp_files/546017.got.cif
#   From: 2010.05.17/outbox.cif.g08.bks.cpg/sg2_274_cif.got.tgz:546017.got - 2010.06.03 11:33:40.
