data_PCOD9065245
_publ_section_title
;
Structure prediction by ZEFSAII (Michael W. Deem and Ramdas Pophale) SiO2 
 PCOD9065245
Probable space group: P -1
;
_chemical_formula_sum "Si O2"
_cell_formula_units_Z 14
_cell_length_a 28.598388
_cell_length_b 13.892092
_cell_length_c 14.722664
_cell_angle_alpha 19.890859
_cell_angle_beta 160.799452
_cell_angle_gamma 159.324476
_cell_volume 592.418203
_symmetry_space_group_name_H-M "P -1"
_symmetry_group_IT_number 2
_symmetry_cell_setting 'triclinic'
loop_
_space_group_symop_operation_xyz
x,y,z
-x,-y,-z
loop_
_atom_site_type_symbol
_atom_site_label
_atom_site_fract_x
_atom_site_fract_y
_atom_site_fract_z
Si Si1 0.365732 0.086167 0.510850
Si Si2 0.846713 0.813666 0.823633
Si Si3 0.127831 0.694059 0.269940
Si Si4 0.849742 0.182964 0.324454
Si Si5 0.474396 0.365362 0.809066
Si Si6 0.069167 0.858131 0.831592
Si Si7 0.632012 0.600968 0.078221
O O1 0.297960 0.170914 0.401137
O O2 0.503134 0.381216 0.452138
O O3 0.223943 0.936941 0.309320
O O4 0.424331 0.819384 0.872355
O O5 0.883595 0.002511 0.629841
O O6 0.814203 0.456913 0.062867
O O7 0.000000 0.000000 0.000000
O O8 0.253716 0.578263 0.559967
O O9 0.989102 0.388494 0.329707
O O10 0.054242 0.843796 0.927411
O O11 0.698369 0.904271 0.249181
O O12 0.551537 0.553758 0.874470
O O13 0.254843 0.048619 0.997538
O O14 0.000000 0.000000 0.500000
O O15 0.000000 0.500000 0.000000
O O16 0.500000 0.500000 0.000000
#
# Coordination Sequence:
#
# PCOD9065245 Si02
#       7
#     2   2   2   2   2   2   2
#     4  11  24  47  76 101 153 194 240 295 369 426
#     4  12  26  45  75 113 146 194 249 300 356 432
#     4  11  26  49  76 106 150 197 243 300 370 439
#     4  12  28  45  76 111 147 192 249 299 361 436
#     4  11  26  48  71 108 147 195 238 304 366 431
#     4  12  26  49  75 110 139 191 244 306 360 440
#     4  11  27  50  74 107 145 193 242 306 372 437
#
# _framework density 23.631955000000001
#
# number of rings (size 3 to 8) (size 9 to 14) (size 15 to 20)
#    0.000    0.571    4.286    2.143    8.000    4.000 
#    2.571    0.000    0.000    0.000    0.000    0.000 
#    0.000    0.000    0.000    0.000    0.000    0.000 
#
# Total GULP energy -78320.443355 kJ/mol
# GULP energy per Si atom -5594.317383 kJ/mol
# Density = 2.357817 g / cm^3
# Si number density = 23.631955 Si / 1000 Ang^3
#
#
#
# Elastic Constant Matrix: (Units=GPa)
#
#
# Indices 1 2 3 4 5 6 
#
# 1 101.7227 30.8300 14.6310 12.8851 4.8473 25.0240
# 2 30.8300 191.1788 27.2800 3.5285 -11.8686 10.2058
# 3 14.6310 27.2800 63.9256 -3.9640 -25.1559 -8.7272
# 4 12.8851 3.5285 -3.9640 36.8698 -1.4179 -7.9664
# 5 4.8473 -11.8686 -25.1559 -1.4179 44.2816 0.9411
# 6 25.0240 10.2058 -8.7272 -7.9664 0.9411 40.9330
#
#
#
# Elastic Compliance Matrix: (Units=1/GPa)
#
#
# Indices 1 2 3 4 5 6 
#
# 1 0.016035 -0.000953 -0.008282 -0.009476 -0.006742 -0.013020
# 2 -0.000953 0.005847 -0.002420 -0.000811 0.000303 -0.001556
# 3 -0.008282 -0.002420 0.027088 0.009432 0.015674 0.012917
# 4 -0.009476 -0.000811 0.009432 0.034960 0.006986 0.014649
# 5 -0.006742 0.000303 0.015674 0.006986 0.032360 0.008003
# 6 -0.013020 -0.001556 0.012917 0.014649 0.008003 0.038199
#
#
# Mechanical properties :
#
#
# Convention : Reuss Voigt Hill
#
# Bulk Modulus (GPa) = 38.97138 55.81215 47.39176
# Shear Modulus (GPa) = 26.83120 43.35597 35.09358
#
# Velocity S-wave (km/s) = 3.37319 4.28791 3.85776
# Velocity P-wave (km/s) = 5.63010 6.94143 6.31987
#
# Compressibility (1/GPa) = 0.02565986
#
# Stress axis : x y z
#
# Youngs Moduli (GPa) = 62.36314 171.03970 36.91726
#
# Poissons Ratio (x) = 0.16295 0.30574
# Poissons Ratio (y) = 0.05941 0.08935
# Poissons Ratio (z) = 0.51647 0.41397
#
# Static dielectric constant tensor:
#      x y z
#    x 1.917980 -0.021570 0.020830 
#    y -0.021570 1.904880 0.016160 
#    z 0.020830 0.016160 1.924560 
# 
# From -- ./inp_files/545038.got.cif
#   From: 2010.05.17/outbox.cif.g08.bks.cpg/sg2_273_cif.got.tgz:545038.got - 2010.06.03 11:33:40.
