data_PCOD9066598
_publ_section_title
;
Structure prediction by ZEFSAII (Michael W. Deem and Ramdas Pophale) SiO2 
 PCOD9066598
Probable space group: P -1
;
_chemical_formula_sum "Si O2"
_cell_formula_units_Z 13
_cell_length_a 5.591489
_cell_length_b 18.755239
_cell_length_c 9.104617
_cell_angle_alpha 34.959943
_cell_angle_beta 104.141494
_cell_angle_gamma 89.377682
_cell_volume 490.746655
_symmetry_space_group_name_H-M "P -1"
_symmetry_group_IT_number 2
_symmetry_cell_setting 'triclinic'
loop_
_space_group_symop_operation_xyz
x,y,z
-x,-y,-z
loop_
_atom_site_type_symbol
_atom_site_label
_atom_site_fract_x
_atom_site_fract_y
_atom_site_fract_z
Si Si1 0.505064 0.373090 0.499301
Si Si2 0.000000 0.500000 0.000000
Si Si3 0.700381 0.590140 0.260986
Si Si4 0.036951 0.845252 0.235754
Si Si5 0.325611 0.860773 0.704986
Si Si6 0.529094 0.977010 0.785328
Si Si7 0.065807 0.235267 0.342006
O O1 0.253486 0.406452 0.299425
O O2 0.600436 0.499372 0.292966
O O3 0.446080 0.374575 0.661344
O O4 0.739579 0.238425 0.704349
O O5 0.075307 0.379693 0.091158
O O6 0.000000 0.500000 0.500000
O O7 0.613798 0.739701 0.930350
O O8 0.097713 0.762047 0.536306
O O9 0.746461 0.862276 0.103630
O O10 0.000000 0.000000 0.000000
O O11 0.334644 0.925290 0.753153
O O12 0.104966 0.798713 0.752404
O O13 0.306052 0.972838 0.392572
O O14 0.343357 0.110167 0.615991
#
# Coordination Sequence:
#
# PCOD9066598 Si02
#       7
#     2   1   2   2   2   2   2
#     4  11  28  47  71 110 145 187 249 303 356 448
#     4  12  28  48  74 106 146 196 242 302 378 430
#     4  11  26  48  76 103 145 194 246 301 366 430
#     4  12  26  48  73 109 149 192 241 301 374 433
#     4  11  25  46  72 105 143 192 246 306 362 432
#     4  11  26  46  73 107 145 192 249 297 368 439
#     4  12  27  46  74 105 149 194 241 306 364 442
#
# _framework density 26.490247
#
# number of rings (size 3 to 8) (size 9 to 14) (size 15 to 20)
#    0.000    0.615    3.077    2.769    8.615    3.077 
#    0.000    0.000    0.000    0.000    0.000    0.000 
#    0.000    0.000    0.000    0.000    0.000    0.000 
#
# Total GULP energy -72652.148571 kJ/mol
# GULP energy per Si atom -5588.626813 kJ/mol
# Density = 2.642995 g / cm^3
# Si number density = 26.490247 Si / 1000 Ang^3
#
#
#
# Elastic Constant Matrix: (Units=GPa)
#
#
# Indices 1 2 3 4 5 6 
#
# 1 66.4596 50.7835 29.1067 -4.7880 20.6106 -9.1866
# 2 50.7835 169.5630 42.1762 -26.5345 29.0091 -0.6890
# 3 29.1067 42.1762 114.7712 -12.7126 40.4749 -6.9688
# 4 -4.7880 -26.5345 -12.7126 52.0723 -5.4780 19.8126
# 5 20.6106 29.0091 40.4749 -5.4780 42.4761 -3.7704
# 6 -9.1866 -0.6890 -6.9688 19.8126 -3.7704 53.2262
#
#
#
# Elastic Compliance Matrix: (Units=1/GPa)
#
#
# Indices 1 2 3 4 5 6 
#
# 1 0.022309 -0.005909 -0.001804 -0.003668 -0.005141 0.004539
# 2 -0.005909 0.008944 -0.000636 0.004725 -0.002284 -0.002908
# 3 -0.001804 -0.000636 0.013629 0.001611 -0.011465 0.000053
# 4 -0.003668 0.004725 0.001611 0.025350 -0.000587 -0.009838
# 5 -0.005141 -0.002284 -0.011465 -0.000587 0.038492 0.000527
# 6 0.004539 -0.002908 0.000053 -0.009838 0.000527 0.023240
#
#
# Mechanical properties :
#
#
# Convention : Reuss Voigt Hill
#
# Bulk Modulus (GPa) = 35.48109 66.10296 50.79202
# Shear Modulus (GPa) = 31.63420 44.80343 38.21881
#
# Velocity S-wave (km/s) = 3.45944 4.11703 3.80248
# Velocity P-wave (km/s) = 5.42034 6.89984 6.20435
#
# Compressibility (1/GPa) = 0.02818403
#
# Stress axis : x y z
#
# Youngs Moduli (GPa) = 44.82408 111.81069 73.37295
#
# Poissons Ratio (x) = 0.66068 0.13238
# Poissons Ratio (y) = 0.26486 0.04666
# Poissons Ratio (z) = 0.08087 0.07110
#
# Static dielectric constant tensor:
#      x y z
#    x 2.174900 0.032060 -0.085230 
#    y 0.032060 2.045140 0.004910 
#    z -0.085230 0.004910 2.077840 
# 
# From -- ./inp_files/25106.got.cif
#   From: 2010.05.17/outbox.cif.g08.bks.cpg/sg2_13_cif.got.tgz:25106.got - 2010.06.03 11:33:40.
