data_PCOD9066215
_publ_section_title
;
Structure prediction by ZEFSAII (Michael W. Deem and Ramdas Pophale) SiO2 
 PCOD9066215
Probable space group: P -1
;
_chemical_formula_sum "Si O2"
_cell_formula_units_Z 15
_cell_length_a 11.773635
_cell_length_b 6.101421
_cell_length_c 12.427033
_cell_angle_alpha 133.133417
_cell_angle_beta 89.100711
_cell_angle_gamma 98.128074
_cell_volume 640.857341
_symmetry_space_group_name_H-M "P -1"
_symmetry_group_IT_number 2
_symmetry_cell_setting 'triclinic'
loop_
_space_group_symop_operation_xyz
x,y,z
-x,-y,-z
loop_
_atom_site_type_symbol
_atom_site_label
_atom_site_fract_x
_atom_site_fract_y
_atom_site_fract_z
Si Si1 0.274335 0.313108 0.409812
Si Si2 0.796417 0.634667 0.177582
Si Si3 0.000000 0.500000 0.000000
Si Si4 0.898587 0.267658 0.478021
Si Si5 0.400837 0.202568 0.918172
Si Si6 0.608197 0.483336 0.311622
Si Si7 0.370885 0.422518 0.216771
Si Si8 0.145503 0.695569 0.262987
O O1 0.221860 0.622229 0.510546
O O2 0.355163 0.332059 0.518585
O O3 0.333055 0.278692 0.284200
O O4 0.168146 0.037276 0.331757
O O5 0.708940 0.740297 0.128610
O O6 0.718174 0.512510 0.240357
O O7 0.885891 0.930027 0.317926
O O8 0.874957 0.433767 0.046896
O O9 0.929671 0.517339 0.893036
O O10 0.909749 0.296235 0.615783
O O11 0.000000 0.500000 0.500000
O O12 0.429916 0.874164 0.779183
O O13 0.500000 0.500000 0.000000
O O14 0.375885 0.190337 0.042053
O O15 0.501848 0.595358 0.291397
O O16 0.272499 0.611544 0.248396
#
# Coordination Sequence:
#
# PCOD9066215 Si02
#       8
#     2   2   1   2   2   2   2   2
#     4  11  25  45  71 109 145 189 244 294 360 429
#     4  12  26  48  73 106 144 190 249 296 361 431
#     4  12  28  44  74 104 136 198 234 308 364 416
#     4  11  25  49  73 104 142 196 247 301 354 428
#     4  12  26  47  72 107 149 190 238 298 361 436
#     4  12  26  46  78 104 144 197 242 288 368 441
#     4  11  26  44  72 110 145 189 234 299 358 436
#     4  11  26  48  71 105 152 185 243 303 360 425
#
# _framework density 23.406144000000001
#
# number of rings (size 3 to 8) (size 9 to 14) (size 15 to 20)
#    0.000    0.533    5.333    1.600    5.600    1.600 
#    0.000    2.667    0.000    0.000    0.000    0.000 
#    0.000    0.000    0.000    0.000    0.000    0.000 
#
# Total GULP energy -83678.090716 kJ/mol
# GULP energy per Si atom -5578.539381 kJ/mol
# Density = 2.335287 g / cm^3
# Si number density = 23.406144 Si / 1000 Ang^3
#
#
#
# Elastic Constant Matrix: (Units=GPa)
#
#
# Indices 1 2 3 4 5 6 
#
# 1 125.5745 35.6397 40.1124 -11.9148 17.0438 -2.7962
# 2 35.6397 60.0758 34.5755 -16.7617 -1.5190 21.6845
# 3 40.1124 34.5755 80.3000 -31.3010 20.7433 6.0651
# 4 -11.9148 -16.7617 -31.3010 42.2519 -2.7847 1.5828
# 5 17.0438 -1.5190 20.7433 -2.7847 31.6250 -12.5775
# 6 -2.7962 21.6845 6.0651 1.5828 -12.5775 46.0420
#
#
#
# Elastic Compliance Matrix: (Units=1/GPa)
#
#
# Indices 1 2 3 4 5 6 
#
# 1 0.011148 -0.006904 -0.002782 -0.002004 -0.003316 0.003458
# 2 -0.006904 0.032203 -0.009318 0.004846 0.006764 -0.012677
# 3 -0.002782 -0.009318 0.029579 0.016378 -0.019075 -0.005451
# 4 -0.002004 0.004846 0.016378 0.036846 -0.009540 -0.008434
# 5 -0.003316 0.006764 -0.019075 -0.009540 0.050694 0.013302
# 6 0.003458 -0.012677 -0.005451 -0.008434 0.013302 0.032542
#
#
# Mechanical properties :
#
#
# Convention : Reuss Voigt Hill
#
# Bulk Modulus (GPa) = 28.63503 54.06728 41.35115
# Shear Modulus (GPa) = 20.60489 34.35863 27.48176
#
# Velocity S-wave (km/s) = 2.97024 3.83552 3.43027
# Velocity P-wave (km/s) = 4.90139 6.53947 5.77877
#
# Compressibility (1/GPa) = 0.03492226
#
# Stress axis : x y z
#
# Youngs Moduli (GPa) = 89.69887 31.05275 33.80809
#
# Poissons Ratio (x) = 0.21438 0.09406
# Poissons Ratio (y) = 0.61926 0.31503
# Poissons Ratio (z) = 0.24955 0.28936
#
# Static dielectric constant tensor:
#      x y z
#    x 1.945220 -0.002430 -0.025160 
#    y -0.002430 1.862260 0.015790 
#    z -0.025160 0.015790 1.874500 
# 
# From -- ./inp_files/68241.got.cif
#   From: 2010.05.17/outbox.cif.g08.bks.cpg/sg2_35_cif.got.tgz:68241.got - 2010.06.03 11:33:40.
