data_PCOD9066636
_publ_section_title
;
Structure prediction by ZEFSAII (Michael W. Deem and Ramdas Pophale) SiO2 
 PCOD9066636
Probable space group: P -1
;
_chemical_formula_sum "Si O2"
_cell_formula_units_Z 13
_cell_length_a 12.016520
_cell_length_b 8.942747
_cell_length_c 11.870864
_cell_angle_alpha 39.047722
_cell_angle_beta 44.781122
_cell_angle_gamma 63.981804
_cell_volume 547.545137
_symmetry_space_group_name_H-M "P -1"
_symmetry_group_IT_number 2
_symmetry_cell_setting 'triclinic'
loop_
_space_group_symop_operation_xyz
x,y,z
-x,-y,-z
loop_
_atom_site_type_symbol
_atom_site_label
_atom_site_fract_x
_atom_site_fract_y
_atom_site_fract_z
Si Si1 0.500000 0.000000 0.000000
Si Si2 0.119530 0.139987 0.930508
Si Si3 0.580419 0.713885 0.730138
Si Si4 0.355779 0.455745 0.849143
Si Si5 0.943290 0.906982 0.410787
Si Si6 0.497335 0.169539 0.642726
Si Si7 0.994363 0.368075 0.253835
O O1 0.619408 0.814901 0.999073
O O2 0.475016 0.894474 0.210721
O O3 0.307169 0.152718 0.766768
O O4 0.084274 0.405346 0.814857
O O5 0.000000 0.000000 0.000000
O O6 0.069497 0.995673 0.168117
O O7 0.497128 0.626189 0.723612
O O8 0.774191 0.754597 0.568611
O O9 0.542242 0.960821 0.656004
O O10 0.500000 0.500000 0.000000
O O11 0.391837 0.571224 0.632263
O O12 0.180489 0.461127 0.020677
O O13 0.002388 0.748945 0.556571
O O14 0.915499 0.147100 0.354678
#
# Coordination Sequence:
#
# PCOD9066636 Si02
#       7
#     1   2   2   2   2   2   2
#     4  12  26  44  70 110 146 178 244 300 360 412
#     4  12  27  45  71 111 152 186 233 297 368 438
#     4  12  23  48  76 102 140 193 251 295 354 432
#     4  12  25  47  79 105 144 190 245 301 355 438
#     4  11  25  46  73 101 142 195 237 296 357 429
#     4  12  27  46  73 109 144 190 242 301 362 426
#     4  11  25  48  73 104 144 192 240 290 363 433
#
# _framework density 23.742334
#
# number of rings (size 3 to 8) (size 9 to 14) (size 15 to 20)
#    0.000    0.308    3.077    5.077    0.000    8.000 
#    0.000    0.000    0.000    0.000    0.000    0.000 
#    0.000    0.000    0.000    0.000    0.000    0.000 
#
# Total GULP energy -72699.046693 kJ/mol
# GULP energy per Si atom -5592.234361 kJ/mol
# Density = 2.368830 g / cm^3
# Si number density = 23.742334 Si / 1000 Ang^3
#
#
#
# Elastic Constant Matrix: (Units=GPa)
#
#
# Indices 1 2 3 4 5 6 
#
# 1 142.3683 35.1593 76.8110 -1.2964 14.4510 6.2542
# 2 35.1593 47.2050 36.2549 12.1870 3.9079 -25.8513
# 3 76.8110 36.2549 141.1958 -0.7404 26.8179 -23.3738
# 4 -1.2964 12.1870 -0.7404 26.7660 7.5349 3.3297
# 5 14.4510 3.9079 26.8179 7.5349 52.0353 -1.7564
# 6 6.2542 -25.8513 -23.3738 3.3297 -1.7564 46.9909
#
#
#
# Elastic Compliance Matrix: (Units=1/GPa)
#
#
# Indices 1 2 3 4 5 6 
#
# 1 0.016314 -0.019825 -0.006118 0.012410 -0.002262 -0.017085
# 2 -0.019825 0.072149 -0.002270 -0.041894 0.008826 0.044500
# 3 -0.006118 -0.002270 0.012854 0.001745 -0.004817 0.005655
# 4 0.012410 -0.041894 0.001745 0.063881 -0.011421 -0.028784
# 5 -0.002262 0.008826 -0.004817 -0.011421 0.023470 0.004447
# 6 -0.017085 0.044500 0.005655 -0.028784 0.004447 0.053054
#
#
# Mechanical properties :
#
#
# Convention : Reuss Voigt Hill
#
# Bulk Modulus (GPa) = 22.27664 69.69104 45.98384
# Shear Modulus (GPa) = 15.96877 37.32805 26.64841
#
# Velocity S-wave (km/s) = 2.59624 3.96942 3.35386
# Velocity P-wave (km/s) = 4.28839 7.10107 5.86581
#
# Compressibility (1/GPa) = 0.04489008
#
# Stress axis : x y z
#
# Youngs Moduli (GPa) = 61.29716 13.86023 77.79949
#
# Poissons Ratio (x) = 0.27478 0.47596
# Poissons Ratio (y) = 1.21524 0.17661
# Poissons Ratio (z) = 0.37500 0.03146
#
# Static dielectric constant tensor:
#      x y z
#    x 1.899240 0.025830 -0.010910 
#    y 0.025830 1.623280 -0.023780 
#    z -0.010910 -0.023780 1.880320 
# 
# From -- ./inp_files/237499.got.cif
#   From: 2010.05.17/outbox.cif.g08.bks.cpg/sg2_119_cif.got.tgz:237499.got - 2010.06.03 11:33:40.
