data_PCOD9066680
_publ_section_title
;
Structure prediction by ZEFSAII (Michael W. Deem and Ramdas Pophale) SiO2 
 PCOD9066680
Probable space group: P -1
;
_chemical_formula_sum "Si O2"
_cell_formula_units_Z 16
_cell_length_a 14.591013
_cell_length_b 12.114735
_cell_length_c 14.067206
_cell_angle_alpha 147.841756
_cell_angle_beta 30.474459
_cell_angle_gamma 130.259456
_cell_volume 638.404591
_symmetry_space_group_name_H-M "P -1"
_symmetry_group_IT_number 2
_symmetry_cell_setting 'triclinic'
loop_
_space_group_symop_operation_xyz
x,y,z
-x,-y,-z
loop_
_atom_site_type_symbol
_atom_site_label
_atom_site_fract_x
_atom_site_fract_y
_atom_site_fract_z
Si Si1 0.926036 0.077881 0.847476
Si Si2 0.310223 0.623802 0.444813
Si Si3 0.023102 0.745296 0.362299
Si Si4 0.306003 0.191932 0.035425
Si Si5 0.685295 0.038584 0.469706
Si Si6 0.897744 0.667664 0.874597
Si Si7 0.275522 0.404150 0.596914
Si Si8 0.596615 0.489596 0.253976
O O1 0.962916 0.977228 0.635906
O O2 0.126838 0.001937 0.665326
O O3 0.784679 0.969999 0.948073
O O4 0.840213 0.337790 0.116087
O O5 0.346301 0.746964 0.409854
O O6 0.452997 0.623396 0.400975
O O7 0.092785 0.730039 0.749603
O O8 0.331571 0.375241 0.217399
O O9 0.054866 0.567435 0.290328
O O10 0.857344 0.716463 0.421663
O O11 0.223935 0.672141 0.076574
O O12 0.504387 0.072739 0.721646
O O13 0.168669 0.315451 0.162303
O O14 0.736473 0.837641 0.204033
O O15 0.471386 0.371042 0.340636
O O16 0.326453 0.367495 0.635623
#
# Coordination Sequence:
#
# PCOD9066680 Si02
#       8
#     2   2   2   2   2   2   2   2
#     4  12  25  44  72 100 139 179 220 282 337 397
#     4  12  22  45  68  96 141 177 222 277 334 403
#     4  12  24  46  71 101 134 181 223 280 341 394
#     4  12  25  41  64 104 136 179 222 271 337 405
#     4  12  25  40  68 104 134 180 224 268 339 408
#     4  12  23  41  67  98 141 173 220 274 333 402
#     4  11  26  48  70 101 134 177 231 281 335 397
#     4  11  25  46  73  97 136 180 225 284 335 394
#
# _framework density 25.062477999999999
#
# number of rings (size 3 to 8) (size 9 to 14) (size 15 to 20)
#    0.000    0.250    5.000    4.125    3.500    0.500 
#    0.000    5.625    0.000    0.000    0.000    0.000 
#    0.000    0.000    0.000    0.000    0.000    0.000 
#
# Total GULP energy -89897.493884 kJ/mol
# GULP energy per Si atom -5618.593368 kJ/mol
# Density = 2.500543 g / cm^3
# Si number density = 25.062478 Si / 1000 Ang^3
#
#
#
# Elastic Constant Matrix: (Units=GPa)
#
#
# Indices 1 2 3 4 5 6 
#
# 1 156.0956 34.8397 25.1800 0.7250 -2.5621 2.2216
# 2 34.8397 92.8141 41.4584 -8.4486 -0.5354 -5.1257
# 3 25.1800 41.4584 115.8052 -47.1436 26.2952 -1.7068
# 4 0.7250 -8.4486 -47.1436 49.3329 5.0134 0.4978
# 5 -2.5621 -0.5354 26.2952 5.0134 38.9152 7.9998
# 6 2.2216 -5.1257 -1.7068 0.4978 7.9998 30.4397
#
#
#
# Elastic Compliance Matrix: (Units=1/GPa)
#
#
# Indices 1 2 3 4 5 6 
#
# 1 0.007488 -0.001615 -0.003764 -0.004369 0.003989 -0.002006
# 2 -0.001615 0.015209 -0.010026 -0.007752 0.007839 0.000183
# 3 -0.003764 -0.010026 0.032758 0.032434 -0.028200 0.007304
# 4 -0.004369 -0.007752 0.032434 0.053051 -0.030801 0.008059
# 5 0.003989 0.007839 -0.028200 -0.030801 0.051905 -0.013690
# 6 -0.002006 0.000183 0.007304 0.008059 -0.013690 0.036905
#
#
# Mechanical properties :
#
#
# Convention : Reuss Voigt Hill
#
# Bulk Modulus (GPa) = 40.57744 63.07456 51.82600
# Shear Modulus (GPa) = 21.15593 41.28669 31.22131
#
# Velocity S-wave (km/s) = 2.90854 4.06316 3.53333
# Velocity P-wave (km/s) = 5.24453 6.87269 6.11306
#
# Compressibility (1/GPa) = 0.02464423
#
# Stress axis : x y z
#
# Youngs Moduli (GPa) = 133.54190 65.75120 30.52715
#
# Poissons Ratio (x) = 0.10620 0.11490
# Poissons Ratio (y) = 0.21568 0.30608
# Poissons Ratio (z) = 0.50263 0.65925
#
# Static dielectric constant tensor:
#      x y z
#    x 1.976040 -0.030080 0.003230 
#    y -0.030080 1.955740 0.004090 
#    z 0.003230 0.004090 1.932080 
# 
# From -- ./inp_files/534493.got.cif
#   From: 2010.05.17/outbox.cif.g08.bks.cpg/sg2_268_cif.got.tgz:534493.got - 2010.06.03 11:33:40.
