data_PCOD9066432
_publ_section_title
;
Structure prediction by ZEFSAII (Michael W. Deem and Ramdas Pophale) SiO2 
 PCOD9066432
Probable space group: P -1
;
_chemical_formula_sum "Si O2"
_cell_formula_units_Z 14
_cell_length_a 12.059974
_cell_length_b 21.338697
_cell_length_c 9.315402
_cell_angle_alpha 28.256668
_cell_angle_beta 55.565131
_cell_angle_gamma 38.084590
_cell_volume 629.400427
_symmetry_space_group_name_H-M "P -1"
_symmetry_group_IT_number 2
_symmetry_cell_setting 'triclinic'
loop_
_space_group_symop_operation_xyz
x,y,z
-x,-y,-z
loop_
_atom_site_type_symbol
_atom_site_label
_atom_site_fract_x
_atom_site_fract_y
_atom_site_fract_z
Si Si1 0.658503 0.903200 0.208775
Si Si2 0.322562 0.689452 0.851671
Si Si3 0.527026 0.607548 0.167421
Si Si4 0.852233 0.520506 0.971092
Si Si5 0.097021 0.346024 0.870188
Si Si6 0.488111 0.141650 0.129210
Si Si7 0.092368 0.128422 0.113821
O O1 0.683651 0.744594 0.587219
O O2 0.602707 0.043436 0.093751
O O3 0.863585 0.808129 0.181203
O O4 0.500000 0.000000 0.000000
O O5 0.135949 0.730539 0.952700
O O6 0.208934 0.906473 0.443811
O O7 0.500000 0.500000 0.000000
O O8 0.422514 0.659950 0.986841
O O9 0.500000 0.500000 0.500000
O O10 0.754704 0.477243 0.222609
O O11 0.449396 0.785488 0.961406
O O12 0.952014 0.404207 0.984888
O O13 0.000000 0.500000 0.000000
O O14 0.000000 0.500000 0.500000
O O15 0.260817 0.316072 0.888714
O O16 0.185884 0.147754 0.135832
O O17 0.500000 0.000000 0.500000
#
# Coordination Sequence:
#
# PCOD9066432 Si02
#       7
#     2   2   2   2   2   2   2
#     4  12  23  43  76 106 141 190 257 312 370 441
#     4  11  27  51  75 103 156 201 253 308 390 462
#     4  12  28  45  70 107 155 198 242 308 397 450
#     4  12  24  44  71 108 145 189 249 311 374 450
#     4  12  23  42  77 107 142 186 256 313 372 440
#     4  12  24  46  71 104 148 193 246 313 376 444
#     4  11  25  45  78 110 143 196 259 312 376 452
#
# _framework density 22.243390999999999
#
# number of rings (size 3 to 8) (size 9 to 14) (size 15 to 20)
#    0.000    0.286    5.714    2.571    6.000    0.000 
#    0.000    0.714    0.000    0.000    0.000    0.000 
#    0.000    0.000    0.000    0.000    0.000    0.000 
#
# Total GULP energy -78191.439660 kJ/mol
# GULP energy per Si atom -5585.102833 kJ/mol
# Density = 2.219276 g / cm^3
# Si number density = 22.243391 Si / 1000 Ang^3
#
#
#
# Elastic Constant Matrix: (Units=GPa)
#
#
# Indices 1 2 3 4 5 6 
#
# 1 127.5701 60.2133 45.0488 10.0143 2.9704 19.1762
# 2 60.2133 209.0259 43.2767 7.2255 -16.4180 15.4781
# 3 45.0488 43.2767 90.1485 9.9882 -1.8098 -1.8101
# 4 10.0143 7.2255 9.9882 39.2887 -0.6352 -9.8762
# 5 2.9704 -16.4180 -1.8098 -0.6352 42.8651 1.5986
# 6 19.1762 15.4781 -1.8101 -9.8762 1.5986 52.4631
#
#
#
# Elastic Compliance Matrix: (Units=1/GPa)
#
#
# Indices 1 2 3 4 5 6 
#
# 1 0.011221 -0.002053 -0.004471 -0.002391 -0.001637 -0.004050
# 2 -0.002053 0.006046 -0.001809 -0.000403 0.002422 -0.001246
# 3 -0.004471 -0.001809 0.014422 -0.001599 0.000114 0.002361
# 4 -0.002391 -0.000403 -0.001599 0.028109 0.000128 0.006225
# 5 -0.001637 0.002422 0.000114 0.000128 0.024408 -0.000832
# 6 -0.004050 -0.001246 0.002361 0.006225 -0.000832 0.022188
#
#
# Mechanical properties :
#
#
# Convention : Reuss Voigt Hill
#
# Bulk Modulus (GPa) = 66.55752 80.42465 73.49109
# Shear Modulus (GPa) = 39.04163 45.47042 42.25603
#
# Velocity S-wave (km/s) = 4.19406 4.52621 4.36330
# Velocity P-wave (km/s) = 7.31032 7.97186 7.64825
#
# Compressibility (1/GPa) = 0.01502460
#
# Stress axis : x y z
#
# Youngs Moduli (GPa) = 89.11595 165.39121 69.33717
#
# Poissons Ratio (x) = 0.33951 0.31003
# Poissons Ratio (y) = 0.18293 0.12540
# Poissons Ratio (z) = 0.39847 0.29911
#
# Static dielectric constant tensor:
#      x y z
#    x 1.784700 -0.018220 0.016580 
#    y -0.018220 1.951950 -0.045630 
#    z 0.016580 -0.045630 1.825580 
# 
# From -- ./inp_files/282621.got.cif
#   From: 2010.05.17/outbox.cif.g08.bks.cpg/sg2_142_cif.got.tgz:282621.got - 2010.06.03 11:33:40.
