data_PCOD9066746
_publ_section_title
;
Structure prediction by ZEFSAII (Michael W. Deem and Ramdas Pophale) SiO2 
 PCOD9066746
Probable space group: P -1
;
_chemical_formula_sum "Si O2"
_cell_formula_units_Z 14
_cell_length_a 14.417586
_cell_length_b 9.569370
_cell_length_c 9.097354
_cell_angle_alpha 144.320107
_cell_angle_beta 57.066832
_cell_angle_gamma 106.081603
_cell_volume 578.651367
_symmetry_space_group_name_H-M "P -1"
_symmetry_group_IT_number 2
_symmetry_cell_setting 'triclinic'
loop_
_space_group_symop_operation_xyz
x,y,z
-x,-y,-z
loop_
_atom_site_type_symbol
_atom_site_label
_atom_site_fract_x
_atom_site_fract_y
_atom_site_fract_z
Si Si1 0.377805 0.212279 0.250417
Si Si2 0.306174 0.152652 0.687938
Si Si3 0.040809 0.705188 0.556647
Si Si4 0.180384 0.892576 0.787320
Si Si5 0.897482 0.429154 0.943361
Si Si6 0.727490 0.224155 0.082713
Si Si7 0.539261 0.719158 0.080834
O O1 0.355948 0.472582 0.587851
O O2 0.388020 0.297592 0.145689
O O3 0.500000 0.000000 0.000000
O O4 0.294717 0.032150 0.175505
O O5 0.382757 0.235840 0.814582
O O6 0.217588 0.066595 0.790957
O O7 0.411963 0.928998 0.332128
O O8 0.219274 0.337738 0.805008
O O9 0.160430 0.685479 0.519744
O O10 0.053588 0.679101 0.350541
O O11 0.000000 0.500000 0.500000
O O12 0.941642 0.971150 0.907218
O O13 0.268026 0.817197 0.781279
O O14 0.845556 0.246320 0.926244
O O15 0.000000 0.500000 0.000000
O O16 0.500000 0.500000 0.000000
#
# Coordination Sequence:
#
# PCOD9066746 Si02
#       7
#     2   2   2   2   2   2   2
#     4  12  28  51  78 112 162 209 260 330 407 474
#     4  11  25  47  72 112 148 197 265 320 393 467
#     4  11  25  46  75 105 149 199 262 318 393 462
#     4  11  25  47  76 108 148 203 262 327 385 476
#     4  12  29  48  78 115 161 207 264 329 401 482
#     4  12  29  49  78 116 159 208 265 326 405 477
#     4  11  26  45  79 110 147 201 266 328 389 467
#
# _framework density 24.194189999999999
#
# number of rings (size 3 to 8) (size 9 to 14) (size 15 to 20)
#    0.000    0.571    2.857    3.000   14.000    1.714 
#    0.000    0.000    0.000    0.000    0.000    0.000 
#    0.000    0.000    0.000    0.000    0.000    0.000 
#
# Total GULP energy -78052.171609 kJ/mol
# GULP energy per Si atom -5575.155115 kJ/mol
# Density = 2.413912 g / cm^3
# Si number density = 24.194190 Si / 1000 Ang^3
#
#
#
# Elastic Constant Matrix: (Units=GPa)
#
#
# Indices 1 2 3 4 5 6 
#
# 1 97.1810 38.3527 9.7155 2.3300 4.8427 1.1256
# 2 38.3527 160.3537 11.5156 -14.7598 16.8708 16.2604
# 3 9.7155 11.5156 103.0146 -10.1835 -6.5021 -4.4618
# 4 2.3300 -14.7598 -10.1835 36.6622 -9.4215 -3.6949
# 5 4.8427 16.8708 -6.5021 -9.4215 35.4702 8.2199
# 6 1.1256 16.2604 -4.4618 -3.6949 8.2199 45.9236
#
#
#
# Elastic Compliance Matrix: (Units=1/GPa)
#
#
# Indices 1 2 3 4 5 6 
#
# 1 0.011641 -0.002870 -0.001067 -0.002439 -0.001218 0.000649
# 2 -0.002870 0.007626 -0.000587 0.002301 -0.002245 -0.002100
# 3 -0.001067 -0.000587 0.010470 0.003631 0.003079 0.000992
# 4 -0.002439 0.002301 0.003631 0.031521 0.008119 0.000681
# 5 -0.001218 -0.002245 0.003079 0.008119 0.033109 -0.004149
# 6 0.000649 -0.002100 0.000992 0.000681 -0.004149 0.023397
#
#
# Mechanical properties :
#
#
# Convention : Reuss Voigt Hill
#
# Bulk Modulus (GPa) = 48.33498 53.30187 50.81843
# Shear Modulus (GPa) = 37.39518 43.67557 40.53537
#
# Velocity S-wave (km/s) = 3.93571 4.25338 4.09763
# Velocity P-wave (km/s) = 6.37765 6.79709 6.59070
#
# Compressibility (1/GPa) = 0.02068895
#
# Stress axis : x y z
#
# Youngs Moduli (GPa) = 85.90349 131.13644 95.51256
#
# Poissons Ratio (x) = 0.37633 0.10191
# Poissons Ratio (y) = 0.24652 0.05607
# Poissons Ratio (z) = 0.09166 0.07698
#
# Static dielectric constant tensor:
#      x y z
#    x 1.944420 -0.082270 -0.007810 
#    y -0.082270 1.826510 0.035950 
#    z -0.007810 0.035950 2.072870 
# 
# From -- ./inp_files/299798.got.cif
#   From: 2010.05.17/outbox.cif.g08.bks.cpg/sg2_150_cif.got.tgz:299798.got - 2010.06.03 11:33:40.
