data_PCOD9066961
_publ_section_title
;
Structure prediction by ZEFSAII (Michael W. Deem and Ramdas Pophale) SiO2 
 PCOD9066961
Probable space group: P -1
;
_chemical_formula_sum "Si O2"
_cell_formula_units_Z 14
_cell_length_a 11.742808
_cell_length_b 12.217316
_cell_length_c 11.829682
_cell_angle_alpha 36.912521
_cell_angle_beta 39.368139
_cell_angle_gamma 54.888702
_cell_volume 642.419875
_symmetry_space_group_name_H-M "P -1"
_symmetry_group_IT_number 2
_symmetry_cell_setting 'triclinic'
loop_
_space_group_symop_operation_xyz
x,y,z
-x,-y,-z
loop_
_atom_site_type_symbol
_atom_site_label
_atom_site_fract_x
_atom_site_fract_y
_atom_site_fract_z
Si Si1 0.390189 0.678115 0.038833
Si Si2 0.141192 0.485243 0.735514
Si Si3 0.785929 0.998757 0.162496
Si Si4 0.755236 0.919625 0.495925
Si Si5 0.912051 0.561206 0.632735
Si Si6 0.565784 0.620864 0.557530
Si Si7 0.823948 0.264474 0.299333
O O1 0.287958 0.548720 0.128758
O O2 0.415402 0.549914 0.232407
O O3 0.573697 0.791171 0.766546
O O4 0.266214 0.843661 0.010842
O O5 0.329015 0.417217 0.607820
O O6 0.168444 0.676431 0.624608
O O7 0.027303 0.499678 0.697638
O O8 0.010884 0.350897 0.026603
O O9 0.734475 0.035713 0.301922
O O10 0.677512 0.804034 0.372889
O O11 0.000000 0.000000 0.000000
O O12 0.895591 0.775438 0.480073
O O13 0.800891 0.053435 0.455052
O O14 0.000000 0.500000 0.500000
O O15 0.356624 0.652107 0.676324
#
# Coordination Sequence:
#
# PCOD9066961 Si02
#       7
#     2   2   2   2   2   2   2
#     4  12  24  40  69 108 136 184 226 294 369 404
#     4  11  25  47  73  98 144 192 239 289 349 427
#     4  12  25  40  68 107 144 183 234 298 357 415
#     4  12  24  42  68 104 144 179 237 293 350 435
#     4  12  23  42  70 103 138 180 229 296 358 408
#     4  12  24  47  72 103 144 183 241 294 352 422
#     4  11  26  47  71 102 140 200 234 284 358 417
#
# _framework density 21.792601999999999
#
# number of rings (size 3 to 8) (size 9 to 14) (size 15 to 20)
#    0.000    0.286    4.286    5.571    2.000    0.571 
#    0.000    0.714    0.000    0.000    0.000    0.000 
#    0.000    0.000    0.000    0.000    0.000    0.000 
#
# Total GULP energy -78301.673964 kJ/mol
# GULP energy per Si atom -5592.976712 kJ/mol
# Density = 2.174300 g / cm^3
# Si number density = 21.792602 Si / 1000 Ang^3
#
#
#
# Elastic Constant Matrix: (Units=GPa)
#
#
# Indices 1 2 3 4 5 6 
#
# 1 33.7171 12.9243 16.0439 -1.2296 -6.8051 14.6776
# 2 12.9243 128.3386 35.0064 -3.6118 -8.1123 10.5129
# 3 16.0439 35.0064 96.8366 -0.6512 -14.2098 -3.3339
# 4 -1.2296 -3.6118 -0.6512 39.8482 -2.4628 -4.1692
# 5 -6.8051 -8.1123 -14.2098 -2.4628 27.6171 -5.7946
# 6 14.6776 10.5129 -3.3339 -4.1692 -5.7946 49.2156
#
#
#
# Elastic Compliance Matrix: (Units=1/GPa)
#
#
# Indices 1 2 3 4 5 6 
#
# 1 0.038487 -0.001138 -0.005787 0.000058 0.003833 -0.011171
# 2 -0.001138 0.008912 -0.003015 0.000580 0.000489 -0.001662
# 3 -0.005787 -0.003015 0.013309 0.000514 0.005411 0.003952
# 4 0.000058 0.000580 0.000514 0.025615 0.003246 0.002446
# 5 0.003833 0.000489 0.005411 0.003246 0.041264 0.004252
# 6 -0.011171 -0.001662 0.003952 0.002446 0.004252 0.024981
#
#
# Mechanical properties :
#
#
# Convention : Reuss Voigt Hill
#
# Bulk Modulus (GPa) = 24.49283 42.98238 33.73761
# Shear Modulus (GPa) = 26.87369 36.33069 31.60219
#
# Velocity S-wave (km/s) = 3.51544 4.08746 3.81219
# Velocity P-wave (km/s) = 5.26700 6.48403 5.90694
#
# Compressibility (1/GPa) = 0.04082828
#
# Stress axis : x y z
#
# Youngs Moduli (GPa) = 25.98289 112.20579 75.13833
#
# Poissons Ratio (x) = 0.12774 0.43480
# Poissons Ratio (y) = 0.02958 0.22652
# Poissons Ratio (z) = 0.15036 0.33826
#
# Static dielectric constant tensor:
#      x y z
#    x 1.803650 -0.043070 -0.016390 
#    y -0.043070 1.872910 0.038770 
#    z -0.016390 0.038770 1.823160 
# 
# From -- ./inp_files/280033.got.cif
#   From: 2010.05.17/outbox.cif.g08.bks.cpg/sg2_141_cif.got.tgz:280033.got - 2010.06.03 11:33:40.
