data_PCOD9066744
_publ_section_title
;
Structure prediction by ZEFSAII (Michael W. Deem and Ramdas Pophale) SiO2 
 PCOD9066744
Probable space group: P -1
;
_chemical_formula_sum "Si O2"
_cell_formula_units_Z 15
_cell_length_a 9.788779
_cell_length_b 8.766507
_cell_length_c 11.610271
_cell_angle_alpha 52.658266
_cell_angle_beta 124.368518
_cell_angle_gamma 103.179442
_cell_volume 643.807275
_symmetry_space_group_name_H-M "P -1"
_symmetry_group_IT_number 2
_symmetry_cell_setting 'triclinic'
loop_
_space_group_symop_operation_xyz
x,y,z
-x,-y,-z
loop_
_atom_site_type_symbol
_atom_site_label
_atom_site_fract_x
_atom_site_fract_y
_atom_site_fract_z
Si Si1 0.955758 0.199804 0.810386
Si Si2 0.497409 0.123057 0.058684
Si Si3 0.345141 0.991188 0.266256
Si Si4 0.355004 0.545140 0.708791
Si Si5 0.000000 0.500000 0.500000
Si Si6 0.639185 0.749522 0.642030
Si Si7 0.020097 0.460080 0.161798
Si Si8 0.169872 0.842041 0.675090
O O1 0.763711 0.178197 0.702358
O O2 0.024128 0.284395 0.686094
O O3 0.996400 0.356865 0.848147
O O4 0.000000 0.000000 0.000000
O O5 0.683085 0.081570 0.221626
O O6 0.366558 0.061645 0.115837
O O7 0.441132 0.354428 0.907538
O O8 0.500000 0.000000 0.000000
O O9 0.530406 0.915424 0.438465
O O10 0.280896 0.159834 0.250614
O O11 0.508973 0.617049 0.685355
O O12 0.255668 0.722742 0.659061
O O13 0.203187 0.481684 0.593864
O O14 0.788393 0.644590 0.683686
O O15 0.893239 0.323063 0.203398
O O16 0.000000 0.500000 0.000000
O O17 0.000000 0.000000 0.500000
#
# Coordination Sequence:
#
# PCOD9066744 Si02
#       8
#     2   2   2   2   1   2   2   2
#     4  12  27  48  77 112 158 205 259 333 400 470
#     4  12  29  48  78 117 157 207 267 335 409 486
#     4  11  25  46  75 104 148 201 253 310 398 471
#     4  12  26  50  78 109 160 208 263 327 407 487
#     4  12  26  50  78 116 152 214 272 332 402 482
#     4  11  25  48  76 107 148 207 251 321 394 480
#     4  12  28  46  74 113 154 197 267 323 395 477
#     4  12  28  51  79 112 158 212 273 330 398 490
#
# _framework density 23.298898000000001
#
# number of rings (size 3 to 8) (size 9 to 14) (size 15 to 20)
#    0.000    0.267    4.000    3.600    9.333    2.667 
#    0.000    0.000    0.000    0.000    0.000    0.000 
#    0.000    0.000    0.000    0.000    0.000    0.000 
#
# Total GULP energy -83565.397568 kJ/mol
# GULP energy per Si atom -5571.026505 kJ/mol
# Density = 2.324587 g / cm^3
# Si number density = 23.298898 Si / 1000 Ang^3
#
#
#
# Elastic Constant Matrix: (Units=GPa)
#
#
# Indices 1 2 3 4 5 6 
#
# 1 109.4869 42.1965 18.0464 -5.3228 -19.5095 30.4659
# 2 42.1965 90.1021 27.6790 0.1164 -14.8840 14.8824
# 3 18.0464 27.6790 82.6909 -7.1212 1.5814 3.2916
# 4 -5.3228 0.1164 -7.1212 29.7281 9.8183 1.4573
# 5 -19.5095 -14.8840 1.5814 9.8183 53.9253 -12.5821
# 6 30.4659 14.8824 3.2916 1.4573 -12.5821 40.9263
#
#
#
# Elastic Compliance Matrix: (Units=1/GPa)
#
#
# Indices 1 2 3 4 5 6 
#
# 1 0.013644 -0.004518 -0.000987 0.002142 0.001446 -0.008066
# 2 -0.004518 0.015190 -0.004374 -0.002879 0.003030 -0.000775
# 3 -0.000987 -0.004374 0.014169 0.004108 -0.002677 0.000217
# 4 0.002142 -0.002879 0.004108 0.037942 -0.008153 -0.004736
# 5 0.001446 0.003030 -0.002677 -0.008153 0.022705 0.005308
# 6 -0.008066 -0.000775 0.000217 -0.004736 0.005308 0.032503
#
#
# Mechanical properties :
#
#
# Convention : Reuss Voigt Hill
#
# Bulk Modulus (GPa) = 43.01999 50.90262 46.96130
# Shear Modulus (GPa) = 30.55131 37.87316 34.21223
#
# Velocity S-wave (km/s) = 3.62508 4.03617 3.83614
# Velocity P-wave (km/s) = 6.00218 6.60424 6.31039
#
# Compressibility (1/GPa) = 0.02324501
#
# Stress axis : x y z
#
# Youngs Moduli (GPa) = 73.29391 65.83259 70.57632
#
# Poissons Ratio (x) = 0.29742 0.06969
# Poissons Ratio (y) = 0.33113 0.30867
# Poissons Ratio (z) = 0.07238 0.28792
#
# Static dielectric constant tensor:
#      x y z
#    x 1.872340 0.041510 0.011280 
#    y 0.041510 0.537440 0.752480 
#    z 0.011280 0.752480 1.580980 
# 
# From -- ./inp_files/381126.got.cif
#   From: 2010.05.17/outbox.cif.g08.bks.cpg/sg2_191_cif.got.tgz:381126.got - 2010.06.03 11:33:40.
