data_PCOD9066420
_publ_section_title
;
Structure prediction by ZEFSAII (Michael W. Deem and Ramdas Pophale) SiO2 
 PCOD9066420
Probable space group: P -1
;
_chemical_formula_sum "Si O2"
_cell_formula_units_Z 14
_cell_length_a 12.605865
_cell_length_b 9.453524
_cell_length_c 7.907375
_cell_angle_alpha 107.822338
_cell_angle_beta 83.684700
_cell_angle_gamma 41.126183
_cell_volume 495.142488
_symmetry_space_group_name_H-M "P -1"
_symmetry_group_IT_number 2
_symmetry_cell_setting 'triclinic'
loop_
_space_group_symop_operation_xyz
x,y,z
-x,-y,-z
loop_
_atom_site_type_symbol
_atom_site_label
_atom_site_fract_x
_atom_site_fract_y
_atom_site_fract_z
Si Si1 0.940184 0.208134 0.200572
Si Si2 0.697219 0.822244 0.748506
Si Si3 0.245772 0.972707 0.657658
Si Si4 0.056163 0.466401 0.747600
Si Si5 0.142902 0.766844 0.201834
Si Si6 0.517546 0.320365 0.839639
Si Si7 0.597218 0.616530 0.663681
O O1 0.941949 0.911796 0.288183
O O2 0.733145 0.445380 0.411794
O O3 0.982345 0.315303 0.144558
O O4 0.000000 0.000000 0.000000
O O5 0.856829 0.619744 0.789877
O O6 0.564686 0.830864 0.773832
O O7 0.814052 0.683083 0.500031
O O8 0.605053 0.090820 0.858692
O O9 0.371901 0.808352 0.403734
O O10 0.395738 0.771739 0.710565
O O11 0.170484 0.230512 0.770027
O O12 0.085766 0.004546 0.259622
O O13 0.265600 0.600002 0.289512
O O14 0.500000 0.500000 0.000000
O O15 0.292238 0.536939 0.948284
#
# Coordination Sequence:
#
# PCOD9066420 Si02
#       7
#     2   2   2   2   2   2   2
#     4  11  25  45  77 114 158 202 259 318 385 464
#     4   9  19  41  72 106 150 198 256 309 380 462
#     4  11  26  51  82 112 154 203 262 317 379 466
#     4   9  19  43  78 108 147 210 250 311 393 447
#     4  12  27  51  80 113 159 203 252 325 388 450
#     4  11  26  45  79 116 153 207 256 313 393 460
#     4  11  25  47  78 112 153 205 257 317 389 455
#
# _framework density 28.274688999999999
#
# number of rings (size 3 to 8) (size 9 to 14) (size 15 to 20)
#    0.000    1.429    1.429    2.143    6.000    7.429 
#    5.143    2.857    3.143    0.000    0.000    0.000 
#    0.000    0.000    0.000    0.000    0.000    0.000 
#
# Total GULP energy -78517.352967 kJ/mol
# GULP energy per Si atom -5608.382355 kJ/mol
# Density = 2.821033 g / cm^3
# Si number density = 28.274689 Si / 1000 Ang^3
#
#
#
# Elastic Constant Matrix: (Units=GPa)
#
#
# Indices 1 2 3 4 5 6 
#
# 1 179.7601 90.9730 49.9846 4.2244 -14.5498 -11.0702
# 2 90.9730 199.0248 46.5793 18.7541 16.1441 5.7003
# 3 49.9846 46.5793 148.2738 1.9773 -11.7122 3.1793
# 4 4.2244 18.7541 1.9773 52.4327 6.0542 6.9793
# 5 -14.5498 16.1441 -11.7122 6.0542 54.6103 9.8379
# 6 -11.0702 5.7003 3.1793 6.9793 9.8379 54.4303
#
#
#
# Elastic Compliance Matrix: (Units=1/GPa)
#
#
# Indices 1 2 3 4 5 6 
#
# 1 0.008114 -0.003654 -0.001417 0.000188 0.002626 0.001617
# 2 -0.003654 0.007453 -0.001318 -0.001874 -0.003137 -0.000639
# 3 -0.001417 -0.001318 0.007799 0.000208 0.001835 -0.000964
# 4 0.000188 -0.001874 0.000208 0.020143 -0.001198 -0.002144
# 5 0.002626 -0.003137 0.001835 -0.001198 0.020984 -0.002884
# 6 0.001617 -0.000639 -0.000964 -0.002144 -0.002884 0.019620
#
#
# Mechanical properties :
#
#
# Convention : Reuss Voigt Hill
#
# Bulk Modulus (GPa) = 94.46189 100.23693 97.34941
# Shear Modulus (GPa) = 49.78974 54.92945 52.35959
#
# Velocity S-wave (km/s) = 4.20090 4.41240 4.30794
# Velocity P-wave (km/s) = 7.55058 7.84137 7.69735
#
# Compressibility (1/GPa) = 0.01058628
#
# Stress axis : x y z
#
# Youngs Moduli (GPa) = 123.24224 134.17822 128.22074
#
# Poissons Ratio (x) = 0.49033 0.18170
# Poissons Ratio (y) = 0.45037 0.16904
# Poissons Ratio (z) = 0.17465 0.17690
#
# Static dielectric constant tensor:
#      x y z
#    x 2.219230 -0.031450 0.022610 
#    y -0.031450 2.234010 -0.078970 
#    z 0.022610 -0.078970 2.336390 
# 
# From -- ./inp_files/245410.got.cif
#   From: 2010.05.17/outbox.cif.g08.bks.cpg/sg2_123_cif.got.tgz:245410.got - 2010.06.03 11:33:40.
