data_PCOD9066444
_publ_section_title
;
Structure prediction by ZEFSAII (Michael W. Deem and Ramdas Pophale) SiO2 
 PCOD9066444
Probable space group: P -1
;
_chemical_formula_sum "Si O2"
_cell_formula_units_Z 16
_cell_length_a 21.868838
_cell_length_b 5.194100
_cell_length_c 9.697929
_cell_angle_alpha 123.863508
_cell_angle_beta 45.449193
_cell_angle_gamma 116.391065
_cell_volume 649.173181
_symmetry_space_group_name_H-M "P -1"
_symmetry_group_IT_number 2
_symmetry_cell_setting 'triclinic'
loop_
_space_group_symop_operation_xyz
x,y,z
-x,-y,-z
loop_
_atom_site_type_symbol
_atom_site_label
_atom_site_fract_x
_atom_site_fract_y
_atom_site_fract_z
Si Si1 0.600677 0.089737 0.836191
Si Si2 0.014635 0.842971 0.780075
Si Si3 0.404798 0.232435 0.838471
Si Si4 0.403240 0.956746 0.484347
Si Si5 0.820953 0.697598 0.984402
Si Si6 0.732161 0.074278 0.853951
Si Si7 0.766446 0.383364 0.260881
Si Si8 0.875211 0.667922 0.432012
O O1 0.617617 0.992894 0.625607
O O2 0.671732 0.970980 0.789168
O O3 0.610142 0.457793 0.963185
O O4 0.500000 0.000000 0.000000
O O5 0.081406 0.587837 0.624837
O O6 0.923466 0.689888 0.824442
O O7 0.052728 0.101105 0.689033
O O8 0.000000 0.000000 0.000000
O O9 0.500396 0.144053 0.692877
O O10 0.398986 0.239389 0.683623
O O11 0.334186 0.972137 0.929129
O O12 0.333992 0.686032 0.566086
O O13 0.772741 0.428456 0.887638
O O14 0.811108 0.864965 0.677301
O O15 0.800226 0.042752 0.080771
O O16 0.788301 0.609857 0.165422
O O17 0.818573 0.508358 0.350092
#
# Coordination Sequence:
#
# PCOD9066444 Si02
#       8
#     2   2   2   2   2   2   2   2
#     4  12  27  46  73 110 157 208 259 330 393 461
#     4  12  24  49  76 115 149 195 267 325 403 468
#     4  11  25  51  70 113 157 203 265 328 385 475
#     4  11  25  45  79 108 150 210 265 320 391 464
#     4  12  27  47  79 106 159 200 250 340 389 471
#     4  12  29  49  71 113 160 203 262 322 403 465
#     4  12  24  45  75 116 144 202 264 311 393 467
#     4  12  27  44  80 111 150 202 259 326 392 486
#
# _framework density 24.646735
#
# number of rings (size 3 to 8) (size 9 to 14) (size 15 to 20)
#    0.000    0.250    5.000    3.000    7.000    1.500 
#    0.000    0.000    0.000    0.000    0.000    0.000 
#    0.000    0.000    0.000    0.000    0.000    0.000 
#
# Total GULP energy -89767.059552 kJ/mol
# GULP energy per Si atom -5610.441222 kJ/mol
# Density = 2.459064 g / cm^3
# Si number density = 24.646735 Si / 1000 Ang^3
#
#
#
# Elastic Constant Matrix: (Units=GPa)
#
#
# Indices 1 2 3 4 5 6 
#
# 1 102.5709 24.5069 48.3356 6.1105 7.2291 19.8405
# 2 24.5069 90.4123 24.1094 1.0872 -3.6922 18.0895
# 3 48.3356 24.1094 101.0819 -1.2127 0.5503 5.1673
# 4 6.1105 1.0872 -1.2127 38.1678 -1.4874 -13.7237
# 5 7.2291 -3.6922 0.5503 -1.4874 53.8901 -5.5756
# 6 19.8405 18.0895 5.1673 -13.7237 -5.5756 45.9788
#
#
#
# Elastic Compliance Matrix: (Units=1/GPa)
#
#
# Indices 1 2 3 4 5 6 
#
# 1 0.015042 -0.000888 -0.006654 -0.005349 -0.002918 -0.007344
# 2 -0.000888 0.013004 -0.002447 -0.002096 0.000457 -0.005028
# 3 -0.006654 -0.002447 0.013519 0.002778 0.001001 0.003265
# 4 -0.005349 -0.002096 0.002778 0.031864 0.002735 0.012663
# 5 -0.002918 0.000457 0.001001 0.002735 0.019473 0.004145
# 6 -0.007344 -0.005028 0.003265 0.012663 0.004145 0.030811
#
#
# Mechanical properties :
#
#
# Convention : Reuss Voigt Hill
#
# Bulk Modulus (GPa) = 46.32647 54.21876 50.27261
# Shear Modulus (GPa) = 33.13718 40.74823 36.94270
#
# Velocity S-wave (km/s) = 3.67070 4.07048 3.87575
# Velocity P-wave (km/s) = 6.06650 6.64363 6.36161
#
# Compressibility (1/GPa) = 0.02158593
#
# Stress axis : x y z
#
# Youngs Moduli (GPa) = 66.48058 76.90131 73.96804
#
# Poissons Ratio (x) = 0.06832 0.49217
# Poissons Ratio (y) = 0.05907 0.18102
# Poissons Ratio (z) = 0.44235 0.18820
#
# Static dielectric constant tensor:
#      x y z
#    x 1.962170 0.003560 0.033760 
#    y 0.003560 1.932590 0.031860 
#    z 0.033760 0.031860 1.957730 
# 
# From -- ./inp_files/340634.got.cif
#   From: 2010.05.17/outbox.cif.g08.bks.cpg/sg2_171_cif.got.tgz:340634.got - 2010.06.03 11:33:40.
