data_PCOD9066580
_publ_section_title
;
Structure prediction by ZEFSAII (Michael W. Deem and Ramdas Pophale) SiO2 
 PCOD9066580
Probable space group: P -1
;
_chemical_formula_sum "Si O2"
_cell_formula_units_Z 16
_cell_length_a 21.907740
_cell_length_b 5.097561
_cell_length_c 12.531323
_cell_angle_alpha 63.139862
_cell_angle_beta 147.997609
_cell_angle_gamma 107.639210
_cell_volume 652.058082
_symmetry_space_group_name_H-M "P -1"
_symmetry_group_IT_number 2
_symmetry_cell_setting 'triclinic'
loop_
_space_group_symop_operation_xyz
x,y,z
-x,-y,-z
loop_
_atom_site_type_symbol
_atom_site_label
_atom_site_fract_x
_atom_site_fract_y
_atom_site_fract_z
Si Si1 0.488980 0.447876 0.722667
Si Si2 0.693914 0.525850 0.860440
Si Si3 0.730064 0.172803 0.764957
Si Si4 0.463121 0.799350 0.821355
Si Si5 0.847126 0.341396 0.320914
Si Si6 0.072723 0.328099 0.435226
Si Si7 0.982850 0.243483 0.102480
Si Si8 0.218943 0.757473 0.540959
O O1 0.574898 0.463054 0.748901
O O2 0.355781 0.559719 0.468454
O O3 0.509747 0.695458 0.793377
O O4 0.502096 0.111850 0.849171
O O5 0.728952 0.279289 0.866858
O O6 0.682668 0.862693 0.739445
O O7 0.787813 0.504633 0.100560
O O8 0.861425 0.133024 0.922694
O O9 0.322271 0.847458 0.610919
O O10 0.500000 0.500000 0.000000
O O11 0.752211 0.286602 0.281731
O O12 0.065572 0.513061 0.499806
O O13 0.902826 0.011265 0.432638
O O14 0.184039 0.436162 0.521286
O O15 0.978408 0.364601 0.195724
O O16 0.096767 0.986315 0.310176
O O17 0.000000 0.500000 0.000000
#
# Coordination Sequence:
#
# PCOD9066580 Si02
#       8
#     2   2   2   2   2   2   2   2
#     4  12  27  47  69 103 147 186 230 298 346 399
#     4  12  25  48  73  98 140 188 238 292 345 411
#     4  12  28  45  73 104 136 186 247 276 347 425
#     4  12  26  42  75 111 140 184 236 281 357 430
#     4   9  20  39  69  92 133 180 220 280 350 389
#     4   9  21  40  65  98 136 175 220 278 349 400
#     4  11  25  46  72 101 143 184 226 288 355 418
#     4   9  23  41  68 101 148 169 232 281 356 402
#
# _framework density 24.537690999999999
#
# number of rings (size 3 to 8) (size 9 to 14) (size 15 to 20)
#    0.750    0.500    0.000    4.875    8.750    0.500 
#    0.000    8.750    0.000    0.000    0.000    0.000 
#    0.000    0.000    0.000    0.000    0.000    0.000 
#
# Total GULP energy -89450.403119 kJ/mol
# GULP energy per Si atom -5590.650195 kJ/mol
# Density = 2.448184 g / cm^3
# Si number density = 24.537691 Si / 1000 Ang^3
#
#
#
# Elastic Constant Matrix: (Units=GPa)
#
#
# Indices 1 2 3 4 5 6 
#
# 1 64.0468 15.3167 13.3271 -11.9857 27.5670 3.9129
# 2 15.3167 138.3391 19.4452 -18.9478 15.1513 -4.4208
# 3 13.3271 19.4452 98.9613 -14.4303 2.3723 2.2177
# 4 -11.9857 -18.9478 -14.4303 31.2409 13.0214 -1.3988
# 5 27.5670 15.1513 2.3723 13.0214 38.1720 8.7057
# 6 3.9129 -4.4208 2.2177 -1.3988 8.7057 33.2468
#
#
#
# Elastic Compliance Matrix: (Units=1/GPa)
#
#
# Indices 1 2 3 4 5 6 
#
# 1 0.043155 0.006974 -0.000009 0.042503 -0.050935 0.010975
# 2 0.006974 0.010576 -0.000471 0.015698 -0.015794 0.005413
# 3 -0.000009 -0.000471 0.011119 0.005910 -0.002539 0.000110
# 4 0.042503 0.015698 0.005910 0.091940 -0.073152 0.019714
# 5 -0.050935 -0.015794 -0.002539 -0.073152 0.100116 -0.025230
# 6 0.010975 0.005413 0.000110 0.019714 -0.025230 0.036935
#
#
# Mechanical properties :
#
#
# Convention : Reuss Voigt Hill
#
# Bulk Modulus (GPa) = 12.84737 44.16948 28.50842
# Shear Modulus (GPa) = 16.29741 37.41583 26.85662
#
# Velocity S-wave (km/s) = 2.57996 3.90914 3.31192
# Velocity P-wave (km/s) = 3.75794 6.19798 5.12528
#
# Compressibility (1/GPa) = 0.07783697
#
# Stress axis : x y z
#
# Youngs Moduli (GPa) = 23.17250 94.55777 89.93737
#
# Poissons Ratio (x) = -0.65945 0.00082
# Poissons Ratio (y) = -0.16161 0.04235
# Poissons Ratio (z) = 0.00021 0.04453
#
# Static dielectric constant tensor:
#      x y z
#    x 1.988880 -0.000630 -0.007240 
#    y -0.000630 1.926090 0.021560 
#    z -0.007240 0.021560 1.974120 
# 
# From -- ./inp_files/542006.got.cif
#   From: 2010.05.17/outbox.cif.g08.bks.cpg/sg2_272_cif.got.tgz:542006.got - 2010.06.03 11:33:40.
