data_PCOD9066702
_publ_section_title
;
Structure prediction by ZEFSAII (Michael W. Deem and Ramdas Pophale) SiO2 
 PCOD9066702
Probable space group: P -1
;
_chemical_formula_sum "Si O2"
_cell_formula_units_Z 12
_cell_length_a 8.847494
_cell_length_b 10.825662
_cell_length_c 14.358295
_cell_angle_alpha 30.130315
_cell_angle_beta 56.575948
_cell_angle_gamma 70.287275
_cell_volume 543.472487
_symmetry_space_group_name_H-M "P -1"
_symmetry_group_IT_number 2
_symmetry_cell_setting 'triclinic'
loop_
_space_group_symop_operation_xyz
x,y,z
-x,-y,-z
loop_
_atom_site_type_symbol
_atom_site_label
_atom_site_fract_x
_atom_site_fract_y
_atom_site_fract_z
Si Si1 0.328771 0.864049 0.422269
Si Si2 0.314982 0.319586 0.236710
Si Si3 0.973759 0.842383 0.258461
Si Si4 0.369663 0.071751 0.073690
Si Si5 0.421907 0.327566 0.400678
Si Si6 0.026673 0.628483 0.181904
O O1 0.485784 0.838916 0.457775
O O2 0.178512 0.580958 0.637353
O O3 0.231341 0.062182 0.370160
O O4 0.416435 0.983150 0.216361
O O5 0.369951 0.232664 0.375152
O O6 0.179945 0.490451 0.192537
O O7 0.500000 0.500000 0.000000
O O8 0.773579 0.673007 0.482477
O O9 0.028400 0.701921 0.242344
O O10 0.147686 0.927710 0.217174
O O11 0.946335 0.107040 0.056241
O O12 0.426591 0.382462 0.848742
O O13 0.500000 0.000000 0.000000
#
# Coordination Sequence:
#
# PCOD9066702 Si02
#       6
#     2   2   2   2   2   2
#     4  12  26  47  74 108 146 193 242 295 361 433
#     4  12  25  47  72 105 147 193 242 295 361 432
#     4  11  26  47  73 109 148 187 242 302 361 423
#     4  12  26  45  74 108 145 190 242 297 360 427
#     4  12  26  48  74 109 144 190 243 299 360 426
#     4  11  25  46  74 107 146 193 242 297 360 429
#
# _framework density 22.080234000000001
#
# number of rings (size 3 to 8) (size 9 to 14) (size 15 to 20)
#    0.000    0.333    3.333    5.000    4.667    3.333 
#    0.000    2.500    0.000    0.000    0.000    0.000 
#    0.000    0.000    0.000    0.000    0.000    0.000 
#
# Total GULP energy -67236.576751 kJ/mol
# GULP energy per Si atom -5603.048063 kJ/mol
# Density = 2.202998 g / cm^3
# Si number density = 22.080234 Si / 1000 Ang^3
#
#
#
# Elastic Constant Matrix: (Units=GPa)
#
#
# Indices 1 2 3 4 5 6 
#
# 1 84.1562 20.1140 34.5063 18.4773 21.9265 -10.5171
# 2 20.1140 114.2826 26.5651 6.8049 20.4522 -0.5885
# 3 34.5063 26.5651 98.1030 7.6973 16.4715 -1.1387
# 4 18.4773 6.8049 7.6973 46.4879 9.3681 0.7900
# 5 21.9265 20.4522 16.4715 9.3681 42.2436 4.7394
# 6 -10.5171 -0.5885 -1.1387 0.7900 4.7394 33.9131
#
#
#
# Elastic Compliance Matrix: (Units=1/GPa)
#
#
# Indices 1 2 3 4 5 6 
#
# 1 0.017414 -0.000520 -0.004405 -0.004874 -0.006694 0.006292
# 2 -0.000520 0.009975 -0.001851 -0.000179 -0.003853 0.000492
# 3 -0.004405 -0.001851 0.012492 0.000303 -0.001671 -0.000752
# 4 -0.004874 -0.000179 0.000303 0.023983 -0.002630 -0.001695
# 5 -0.006694 -0.003853 -0.001671 -0.002630 0.030973 -0.006466
# 6 0.006292 0.000492 -0.000752 -0.001695 -0.006466 0.032365
#
#
# Mechanical properties :
#
#
# Convention : Reuss Voigt Hill
#
# Bulk Modulus (GPa) = 37.98269 50.99028 44.48649
# Shear Modulus (GPa) = 33.43811 38.88603 36.16207
#
# Velocity S-wave (km/s) = 3.89574 4.20113 4.05131
# Velocity P-wave (km/s) = 6.12170 6.83198 6.48657
#
# Compressibility (1/GPa) = 0.02632778
#
# Stress axis : x y z
#
# Youngs Moduli (GPa) = 57.42607 100.25174 80.05083
#
# Poissons Ratio (x) = 0.05216 0.35260
# Poissons Ratio (y) = 0.02988 0.14821
# Poissons Ratio (z) = 0.25294 0.18561
#
# Static dielectric constant tensor:
#      x y z
#    x 1.808850 -0.001050 -0.000720 
#    y -0.001050 1.773540 -0.022760 
#    z -0.000720 -0.022760 1.796940 
# 
# From -- ./inp_files/236928.got.cif
#   From: 2010.05.17/outbox.cif.g08.bks.cpg/sg2_119_cif.got.tgz:236928.got - 2010.06.03 11:33:40.
