data_PCOD9066949
_publ_section_title
;
Structure prediction by ZEFSAII (Michael W. Deem and Ramdas Pophale) SiO2 
 PCOD9066949
Probable space group: P -1
;
_chemical_formula_sum "Si O2"
_cell_formula_units_Z 16
_cell_length_a 5.309467
_cell_length_b 11.214318
_cell_length_c 11.245729
_cell_angle_alpha 77.845281
_cell_angle_beta 84.249644
_cell_angle_gamma 68.207924
_cell_volume 607.625847
_symmetry_space_group_name_H-M "P -1"
_symmetry_group_IT_number 2
_symmetry_cell_setting 'triclinic'
loop_
_space_group_symop_operation_xyz
x,y,z
-x,-y,-z
loop_
_atom_site_type_symbol
_atom_site_label
_atom_site_fract_x
_atom_site_fract_y
_atom_site_fract_z
Si Si1 0.849704 0.211240 0.799991
Si Si2 0.461974 0.336151 0.992676
Si Si3 0.326323 0.970458 0.316488
Si Si4 0.064764 0.478598 0.146534
Si Si5 0.657351 0.029987 0.099349
Si Si6 0.006977 0.750928 0.690107
Si Si7 0.907778 0.607586 0.379888
Si Si8 0.506513 0.764971 0.536042
O O1 0.688316 0.134903 0.755927
O O2 0.981741 0.276109 0.680590
O O3 0.663855 0.322623 0.874582
O O4 0.060689 0.093452 0.890940
O O5 0.582215 0.185809 0.060922
O O6 0.375389 0.428948 0.094398
O O7 0.156163 0.400460 0.937789
O O8 0.365118 0.909805 0.458115
O O9 0.560641 0.012806 0.241329
O O10 0.065041 0.101367 0.293628
O O11 0.993668 0.525412 0.274153
O O12 0.997604 0.345243 0.183423
O O13 0.500000 0.000000 0.000000
O O14 0.763791 0.757323 0.607451
O O15 0.296114 0.713357 0.621552
O O16 0.609030 0.681802 0.428329
O O17 0.000000 0.500000 0.500000
#
# Coordination Sequence:
#
# PCOD9066949 Si02
#       8
#     2   2   2   2   2   2   2   2
#     4  12  27  49  81 115 151 213 265 334 397 481
#     4  11  25  47  73 110 158 202 268 325 395 475
#     4  12  26  46  79 111 154 202 264 324 406 470
#     4  11  26  48  75 113 157 209 262 326 398 479
#     4  12  24  47  73 113 150 198 265 331 395 463
#     4  12  28  49  80 117 162 205 264 328 407 476
#     4  12  26  48  75 112 155 201 266 319 400 477
#     4  12  27  50  76 116 158 209 260 335 396 481
#
# _framework density 26.331992
#
# number of rings (size 3 to 8) (size 9 to 14) (size 15 to 20)
#    0.000    0.250    5.000    3.375    3.500    1.000 
#    0.000    0.000    0.000    0.000    0.000    0.000 
#    0.000    0.000    0.000    0.000    0.000    0.000 
#
# Total GULP energy -89356.953517 kJ/mol
# GULP energy per Si atom -5584.809595 kJ/mol
# Density = 2.627206 g / cm^3
# Si number density = 26.331992 Si / 1000 Ang^3
#
#
#
# Elastic Constant Matrix: (Units=GPa)
#
#
# Indices 1 2 3 4 5 6 
#
# 1 91.9698 36.3519 57.2949 -7.3065 -13.2124 -29.5539
# 2 36.3519 166.9664 66.7151 -0.8328 -10.7645 -26.3164
# 3 57.2949 66.7151 170.4315 -22.6608 -31.0390 -10.7237
# 4 -7.3065 -0.8328 -22.6608 72.3897 -9.2134 -11.5249
# 5 -13.2124 -10.7645 -31.0390 -9.2134 59.3605 6.7841
# 6 -29.5539 -26.3164 -10.7237 -11.5249 6.7841 35.7686
#
#
#
# Elastic Compliance Matrix: (Units=1/GPa)
#
#
# Indices 1 2 3 4 5 6 
#
# 1 0.019181 0.000360 -0.005194 0.002804 0.000294 0.015404
# 2 0.000360 0.007910 -0.003013 -0.000054 -0.000678 0.005325
# 3 -0.005194 -0.003013 0.009635 0.002405 0.004124 -0.003626
# 4 0.002804 -0.000054 0.002405 0.016520 0.003562 0.007645
# 5 0.000294 -0.000678 0.004124 0.003562 0.019681 -0.001605
# 6 0.015404 0.005325 -0.003626 0.007645 -0.001605 0.046283
#
#
# Mechanical properties :
#
#
# Convention : Reuss Voigt Hill
#
# Bulk Modulus (GPa) = 47.54339 83.34349 65.44344
# Shear Modulus (GPa) = 35.23214 51.43750 43.33482
#
# Velocity S-wave (km/s) = 3.66183 4.42455 4.06114
# Velocity P-wave (km/s) = 5.99777 7.60407 6.84818
#
# Compressibility (1/GPa) = 0.02103342
#
# Stress axis : x y z
#
# Youngs Moduli (GPa) = 52.13393 126.42073 103.78360
#
# Poissons Ratio (x) = -0.04550 0.53901
# Poissons Ratio (y) = -0.01876 0.31270
# Poissons Ratio (z) = 0.27076 0.38091
#
# Static dielectric constant tensor:
#      x y z
#    x 2.236010 -0.033530 0.045580 
#    y -0.033530 2.261820 -0.096750 
#    z 0.045580 -0.096750 2.302470 
# 
# From -- ./inp_files/364266.got.cif
#   From: 2010.05.17/outbox.cif.g08.bks.cpg/sg2_183_cif.got.tgz:364266.got - 2010.06.03 11:33:40.
