data_PCOD9066334
_publ_section_title
;
Structure prediction by ZEFSAII (Michael W. Deem and Ramdas Pophale) SiO2 
 PCOD9066334
Probable space group: P -1
;
_chemical_formula_sum "Si O2"
_cell_formula_units_Z 16
_cell_length_a 18.624633
_cell_length_b 6.588997
_cell_length_c 9.700697
_cell_angle_alpha 51.785792
_cell_angle_beta 45.218499
_cell_angle_gamma 58.708993
_cell_volume 656.392866
_symmetry_space_group_name_H-M "P -1"
_symmetry_group_IT_number 2
_symmetry_cell_setting 'triclinic'
loop_
_space_group_symop_operation_xyz
x,y,z
-x,-y,-z
loop_
_atom_site_type_symbol
_atom_site_label
_atom_site_fract_x
_atom_site_fract_y
_atom_site_fract_z
Si Si1 0.673047 0.439188 0.509731
Si Si2 0.976299 0.356867 0.729331
Si Si3 0.602862 0.909824 0.813863
Si Si4 0.212191 0.619912 0.875495
Si Si5 0.038281 0.786219 0.823545
Si Si6 0.499371 0.187232 0.292965
Si Si7 0.289669 0.666871 0.037087
Si Si8 0.150573 0.599552 0.502490
O O1 0.674909 0.130514 0.628704
O O2 0.702121 0.529672 0.279457
O O3 0.561660 0.547398 0.672801
O O4 0.754899 0.506943 0.481326
O O5 0.078029 0.381851 0.667262
O O6 0.000000 0.500000 0.500000
O O7 0.966087 0.053040 0.848386
O O8 0.872925 0.511619 0.870565
O O9 0.564478 0.881832 0.721784
O O10 0.665751 0.641005 0.895464
O O11 0.500000 0.000000 0.000000
O O12 0.133555 0.771119 0.806949
O O13 0.264247 0.749684 0.878293
O O14 0.080756 0.812983 0.600618
O O15 0.000000 0.500000 0.000000
O O16 0.500000 0.000000 0.500000
O O17 0.615310 0.205658 0.088275
O O18 0.196802 0.698041 0.258288
#
# Coordination Sequence:
#
# PCOD9066334 Si02
#       8
#     2   2   2   2   2   2   2   2
#     4  11  26  47  70 108 140 191 244 293 369 435
#     4  12  26  50  74 109 153 191 246 312 366 436
#     4  12  25  46  77  98 149 190 239 305 364 430
#     4  11  26  45  73 107 145 193 239 299 364 438
#     4  11  26  49  76 103 150 199 243 302 373 432
#     4  12  27  48  70 104 148 192 238 302 364 442
#     4  12  25  47  72 109 144 189 245 297 369 432
#     4  11  25  45  74 107 143 192 243 300 362 447
#
# _framework density 24.375644000000001
#
# number of rings (size 3 to 8) (size 9 to 14) (size 15 to 20)
#    0.000    0.500    5.000    2.250    5.250    2.500 
#    6.750    0.000    0.000    0.000    0.000    0.000 
#    0.000    0.000    0.000    0.000    0.000    0.000 
#
# Total GULP energy -89389.162142 kJ/mol
# GULP energy per Si atom -5586.822634 kJ/mol
# Density = 2.432016 g / cm^3
# Si number density = 24.375644 Si / 1000 Ang^3
#
#
#
# Elastic Constant Matrix: (Units=GPa)
#
#
# Indices 1 2 3 4 5 6 
#
# 1 105.9455 30.5536 20.2529 0.6862 -1.4967 16.4466
# 2 30.5536 74.7698 36.9928 -0.5121 10.1832 12.5077
# 3 20.2529 36.9928 119.5673 26.7618 -2.4636 11.8827
# 4 0.6862 -0.5121 26.7618 48.8400 8.8054 3.2554
# 5 -1.4967 10.1832 -2.4636 8.8054 48.7493 3.4097
# 6 16.4466 12.5077 11.8827 3.2554 3.4097 19.9265
#
#
#
# Elastic Compliance Matrix: (Units=1/GPa)
#
#
# Indices 1 2 3 4 5 6 
#
# 1 0.011725 -0.003719 -0.000053 0.000033 0.001660 -0.007600
# 2 -0.003719 0.019520 -0.006047 0.004837 -0.004985 -0.005514
# 3 -0.000053 -0.006047 0.012199 -0.007165 0.003371 -0.002841
# 4 0.000033 0.004837 -0.007165 0.025641 -0.005865 -0.001975
# 5 0.001660 -0.004985 0.003371 -0.005865 0.023062 -0.003239
# 6 -0.007600 -0.005514 -0.002841 -0.001975 -0.003239 0.062490
#
#
# Mechanical properties :
#
#
# Convention : Reuss Voigt Hill
#
# Bulk Modulus (GPa) = 42.00643 52.87569 47.44106
# Shear Modulus (GPa) = 27.44097 37.66871 32.55484
#
# Velocity S-wave (km/s) = 3.35887 3.93535 3.65848
# Velocity P-wave (km/s) = 5.68445 6.51064 6.11152
#
# Compressibility (1/GPa) = 0.02380588
#
# Stress axis : x y z
#
# Youngs Moduli (GPa) = 85.29055 51.22857 81.97509
#
# Poissons Ratio (x) = 0.19053 0.00435
# Poissons Ratio (y) = 0.31722 0.49567
# Poissons Ratio (z) = 0.00453 0.30976
#
# Static dielectric constant tensor:
#      x y z
#    x 1.961200 0.003420 -0.000380 
#    y 0.003420 2.038110 0.001600 
#    z -0.000380 0.001600 2.009520 
# 
# From -- ./inp_files/340108.got.cif
#   From: 2010.05.17/outbox.cif.g08.bks.cpg/sg2_171_cif.got.tgz:340108.got - 2010.06.03 11:33:40.
