data_PCOD9066551
_publ_section_title
;
Structure prediction by ZEFSAII (Michael W. Deem and Ramdas Pophale) SiO2 
 PCOD9066551
Probable space group: P -1
;
_chemical_formula_sum "Si O2"
_cell_formula_units_Z 16
_cell_length_a 11.624682
_cell_length_b 11.691176
_cell_length_c 14.091045
_cell_angle_alpha 94.678627
_cell_angle_beta 159.269794
_cell_angle_gamma 86.144452
_cell_volume 675.389208
_symmetry_space_group_name_H-M "P -1"
_symmetry_group_IT_number 2
_symmetry_cell_setting 'triclinic'
loop_
_space_group_symop_operation_xyz
x,y,z
-x,-y,-z
loop_
_atom_site_type_symbol
_atom_site_label
_atom_site_fract_x
_atom_site_fract_y
_atom_site_fract_z
Si Si1 0.291637 0.173490 0.962538
Si Si2 0.337491 0.729040 0.923163
Si Si3 0.933714 0.513916 0.562038
Si Si4 0.964250 0.939991 0.693960
Si Si5 0.780361 0.577307 0.768347
Si Si6 0.334355 0.718020 0.565566
Si Si7 0.769503 0.074195 0.892119
Si Si8 0.372601 0.690064 0.153542
O O1 0.230477 0.039789 0.882743
O O2 0.929463 0.220051 0.698168
O O3 0.436682 0.237562 0.987187
O O4 0.512760 0.205678 0.225752
O O5 0.232333 0.595796 0.830677
O O6 0.474780 0.745680 0.135481
O O7 0.047455 0.819774 0.700750
O O8 0.854067 0.391878 0.539490
O O9 0.625517 0.590843 0.356561
O O10 0.000000 0.500000 0.500000
O O11 0.599354 0.976866 0.391542
O O12 0.029224 0.921384 0.854353
O O13 0.500000 0.500000 0.500000
O O14 0.617346 0.672503 0.714145
O O15 0.000000 0.500000 0.000000
O O16 0.015322 0.630500 0.872774
O O17 0.682428 0.206156 0.808244
O O18 0.000000 0.000000 0.000000
#
# Coordination Sequence:
#
# PCOD9066551 Si02
#       8
#     2   2   2   2   2   2   2   2
#     4  12  27  46  72 104 146 186 238 298 355 429
#     4  11  25  46  71 106 139 192 240 295 361 418
#     4  12  23  43  71 100 147 185 238 293 347 431
#     4  11  25  47  72 104 143 181 245 292 362 421
#     4  12  26  46  70  99 145 186 233 293 352 425
#     4  12  27  45  69 108 140 190 240 288 364 423
#     4  11  25  47  72 106 139 190 236 296 357 420
#     4  11  26  44  72 104 143 188 238 298 355 427
#
# _framework density 23.690045000000001
#
# number of rings (size 3 to 8) (size 9 to 14) (size 15 to 20)
#    0.000    0.500    3.750    3.750    5.250    1.000 
#    0.000    3.125    0.000    0.000    0.000    0.000 
#    0.000    0.000    0.000    0.000    0.000    0.000 
#
# Total GULP energy -89467.097152 kJ/mol
# GULP energy per Si atom -5591.693572 kJ/mol
# Density = 2.363613 g / cm^3
# Si number density = 23.690045 Si / 1000 Ang^3
#
#
#
# Elastic Constant Matrix: (Units=GPa)
#
#
# Indices 1 2 3 4 5 6 
#
# 1 74.3009 12.7676 20.5761 -1.4244 5.9823 -19.7705
# 2 12.7676 108.1519 45.4337 6.9528 0.7222 -11.9680
# 3 20.5761 45.4337 103.1495 3.5993 -0.8141 -14.1366
# 4 -1.4244 6.9528 3.5993 52.1585 -4.9031 6.9512
# 5 5.9823 0.7222 -0.8141 -4.9031 31.2758 -3.4823
# 6 -19.7705 -11.9680 -14.1366 6.9512 -3.4823 34.0348
#
#
#
# Elastic Compliance Matrix: (Units=1/GPa)
#
#
# Indices 1 2 3 4 5 6 
#
# 1 0.016516 -0.000056 -0.002079 -0.000770 -0.002372 0.008625
# 2 -0.000056 0.011603 -0.004723 -0.001572 -0.000363 0.002370
# 3 -0.002079 -0.004723 0.012569 -0.000540 0.001035 0.002568
# 4 -0.000770 -0.001572 -0.000540 0.020339 0.002791 -0.005093
# 5 -0.002372 -0.000363 0.001035 0.002791 0.033094 0.001740
# 6 0.008625 0.002370 0.002568 -0.005093 0.001740 0.037510
#
#
# Mechanical properties :
#
#
# Convention : Reuss Voigt Hill
#
# Bulk Modulus (GPa) = 37.07843 49.23969 43.15906
# Shear Modulus (GPa) = 32.39679 37.28214 34.83946
#
# Velocity S-wave (km/s) = 3.70202 3.97135 3.83905
# Velocity P-wave (km/s) = 5.82741 6.46985 6.15702
#
# Compressibility (1/GPa) = 0.02696985
#
# Stress axis : x y z
#
# Youngs Moduli (GPa) = 60.54909 86.18828 79.56392
#
# Poissons Ratio (x) = 0.00486 0.16545
# Poissons Ratio (y) = 0.00341 0.37574
# Poissons Ratio (z) = 0.12591 0.40702
#
# Static dielectric constant tensor:
#      x y z
#    x 1.880800 0.005390 0.011990 
#    y 0.005390 1.981500 0.002480 
#    z 0.011990 0.002480 1.952910 
# 
# From -- ./inp_files/68473.got.cif
#   From: 2010.05.17/outbox.cif.g08.bks.cpg/sg2_35_cif.got.tgz:68473.got - 2010.06.03 11:33:40.
