data_PCOD9066917
_publ_section_title
;
Structure prediction by ZEFSAII (Michael W. Deem and Ramdas Pophale) SiO2 
 PCOD9066917
Probable space group: P -1
;
_chemical_formula_sum "Si O2"
_cell_formula_units_Z 14
_cell_length_a 16.892669
_cell_length_b 17.308966
_cell_length_c 20.666889
_cell_angle_alpha 19.121388
_cell_angle_beta 21.580968
_cell_angle_gamma 17.745159
_cell_volume 575.381478
_symmetry_space_group_name_H-M "P -1"
_symmetry_group_IT_number 2
_symmetry_cell_setting 'triclinic'
loop_
_space_group_symop_operation_xyz
x,y,z
-x,-y,-z
loop_
_atom_site_type_symbol
_atom_site_label
_atom_site_fract_x
_atom_site_fract_y
_atom_site_fract_z
Si Si1 0.891902 0.270460 0.916750
Si Si2 0.306271 0.053576 0.889397
Si Si3 0.220535 0.787381 0.286656
Si Si4 0.085016 0.173757 0.207171
Si Si5 0.464983 0.179708 0.321733
Si Si6 0.398499 0.780996 0.397201
Si Si7 0.592481 0.079805 0.548299
O O1 0.820799 0.540179 0.712355
O O2 0.072277 0.194041 0.902844
O O3 0.616433 0.324215 0.107138
O O4 0.000000 0.000000 0.000000
O O5 0.746951 0.945936 0.758881
O O6 0.577497 0.899821 0.760719
O O7 0.334222 0.276033 0.731977
O O8 0.290379 0.864814 0.104290
O O9 0.414711 0.429041 0.425036
O O10 0.900193 0.938818 0.409493
O O11 0.243079 0.947199 0.205560
O O12 0.825432 0.177761 0.416521
O O13 0.000000 0.500000 0.000000
O O14 0.500000 0.000000 0.500000
O O15 0.554817 0.951606 0.374759
O O16 0.500000 0.500000 0.500000
#
# Coordination Sequence:
#
# PCOD9066917 Si02
#       7
#     2   2   2   2   2   2   2
#     4  11  25  47  72 112 150 202 263 326 392 475
#     4  12  26  48  79 109 162 202 265 327 405 459
#     4  12  29  47  79 117 159 213 271 326 407 486
#     4  11  26  48  75 116 156 202 269 324 399 483
#     4  11  26  47  78 106 156 205 268 328 400 472
#     4  11  25  48  79 109 155 208 256 331 402 470
#     4  12  27  50  75 117 159 209 271 333 398 485
#
# _framework density 24.331683999999999
#
# number of rings (size 3 to 8) (size 9 to 14) (size 15 to 20)
#    0.000    0.571    2.857    3.429    4.000    5.143 
#    0.000    0.000    0.000    0.000    0.000    0.000 
#    0.000    0.000    0.000    0.000    0.000    0.000 
#
# Total GULP energy -78279.240593 kJ/mol
# GULP energy per Si atom -5591.374328 kJ/mol
# Density = 2.427630 g / cm^3
# Si number density = 24.331684 Si / 1000 Ang^3
#
#
#
# Elastic Constant Matrix: (Units=GPa)
#
#
# Indices 1 2 3 4 5 6 
#
# 1 185.0777 49.7935 79.2353 -18.4934 2.0979 -7.4990
# 2 49.7935 118.6420 59.3162 -25.6789 9.5781 -2.1295
# 3 79.2353 59.3162 153.9811 -5.6380 33.8377 -11.6287
# 4 -18.4934 -25.6789 -5.6380 46.6983 -1.2815 -4.0737
# 5 2.0979 9.5781 33.8377 -1.2815 66.4085 3.7201
# 6 -7.4990 -2.1295 -11.6287 -4.0737 3.7201 40.0987
#
#
#
# Elastic Compliance Matrix: (Units=1/GPa)
#
#
# Indices 1 2 3 4 5 6 
#
# 1 0.007478 -0.000938 -0.003798 0.002063 0.001858 0.000284
# 2 -0.000938 0.012066 -0.004074 0.005769 0.000486 -0.000175
# 3 -0.003798 -0.004074 0.011279 -0.002300 -0.005229 0.002596
# 4 0.002063 0.005769 -0.002300 0.025365 0.000621 0.002544
# 5 0.001858 0.000486 -0.005229 0.000621 0.017759 -0.002728
# 6 0.000284 -0.000175 0.002596 0.002544 -0.002728 0.026247
#
#
# Mechanical properties :
#
#
# Convention : Reuss Voigt Hill
#
# Bulk Modulus (GPa) = 75.74332 92.71007 84.22670
# Shear Modulus (GPa) = 40.91173 48.59816 44.75494
#
# Velocity S-wave (km/s) = 4.10496 4.47399 4.29344
# Velocity P-wave (km/s) = 7.32562 8.05444 7.69866
#
# Compressibility (1/GPa) = 0.01320248
#
# Stress axis : x y z
#
# Youngs Moduli (GPa) = 133.72333 82.88025 88.65968
#
# Poissons Ratio (x) = 0.07775 0.33673
# Poissons Ratio (y) = 0.12544 0.36120
# Poissons Ratio (z) = 0.50789 0.33766
#
# Static dielectric constant tensor:
#      x y z
#    x 2.041760 -0.007910 -0.027340 
#    y -0.007910 2.076480 0.060430 
#    z -0.027340 0.060430 1.999020 
# 
# From -- ./inp_files/600449.got.cif
#   From: 2010.05.17/outbox.cif.g08.bks.cpg/sg2_301_cif.got.tgz:600449.got - 2010.06.03 11:33:40.
