data_PCOD9066988
_publ_section_title
;
Structure prediction by ZEFSAII (Michael W. Deem and Ramdas Pophale) SiO2 
 PCOD9066988
Probable space group: P -1
;
_chemical_formula_sum "Si O2"
_cell_formula_units_Z 14
_cell_length_a 5.461553
_cell_length_b 9.409692
_cell_length_c 11.514895
_cell_angle_alpha 92.801561
_cell_angle_beta 85.695776
_cell_angle_gamma 83.401250
_cell_volume 585.201358
_symmetry_space_group_name_H-M "P -1"
_symmetry_group_IT_number 2
_symmetry_cell_setting 'triclinic'
loop_
_space_group_symop_operation_xyz
x,y,z
-x,-y,-z
loop_
_atom_site_type_symbol
_atom_site_label
_atom_site_fract_x
_atom_site_fract_y
_atom_site_fract_z
Si Si1 0.985699 0.141352 0.215957
Si Si2 0.877655 0.564803 0.863781
Si Si3 0.698465 0.644315 0.103995
Si Si4 0.965853 0.165823 0.488922
Si Si5 0.484046 0.463995 0.305354
Si Si6 0.473520 0.022408 0.863583
Si Si7 0.557533 0.699752 0.485895
O O1 0.991022 0.289736 0.150162
O O2 0.965459 0.187509 0.352096
O O3 0.252879 0.043153 0.192603
O O4 0.753973 0.059170 0.180180
O O5 0.790550 0.526962 0.736847
O O6 0.008581 0.412056 0.899568
O O7 0.662580 0.619678 0.967035
O O8 0.607276 0.529084 0.191130
O O9 0.600707 0.806484 0.147817
O O10 0.700465 0.225773 0.550471
O O11 0.199208 0.226671 0.538136
O O12 0.000000 0.000000 0.500000
O O13 0.593742 0.555205 0.405652
O O14 0.481566 0.318857 0.374892
O O15 0.500000 0.000000 0.000000
#
# Coordination Sequence:
#
# PCOD9066988 Si02
#       7
#     2   2   2   2   2   2   2
#     4  12  27  49  76 103 154 195 242 301 378 431
#     4  11  25  47  74 109 145 197 246 308 359 447
#     4  11  27  43  76 108 147 190 255 294 373 434
#     4  12  27  47  74 107 143 192 245 296 367 441
#     4  11  26  45  74 102 148 187 245 308 366 428
#     4  12  28  48  74 110 151 195 239 304 371 444
#     4  11  27  47  74 107 144 189 243 306 367 422
#
# _framework density 23.923390000000001
#
# number of rings (size 3 to 8) (size 9 to 14) (size 15 to 20)
#    0.000    0.571    2.857    3.000   10.000    2.286 
#    0.000    0.000    0.000    0.000    0.000    0.000 
#    0.000    0.000    0.000    0.000    0.000    0.000 
#
# Total GULP energy -77974.042350 kJ/mol
# GULP energy per Si atom -5569.574454 kJ/mol
# Density = 2.386894 g / cm^3
# Si number density = 23.923390 Si / 1000 Ang^3
#
#
#
# Elastic Constant Matrix: (Units=GPa)
#
#
# Indices 1 2 3 4 5 6 
#
# 1 161.6503 60.3482 8.0941 20.8629 10.4920 15.0603
# 2 60.3482 126.2648 -10.1215 -7.0809 -20.1258 12.0171
# 3 8.0941 -10.1215 48.2891 -7.0246 19.7174 14.5145
# 4 20.8629 -7.0809 -7.0246 33.9390 7.8759 3.1087
# 5 10.4920 -20.1258 19.7174 7.8759 76.0967 -15.3212
# 6 15.0603 12.0171 14.5145 3.1087 -15.3212 47.8110
#
#
#
# Elastic Compliance Matrix: (Units=1/GPa)
#
#
# Indices 1 2 3 4 5 6 
#
# 1 0.009361 -0.005253 -0.002954 -0.007092 -0.001320 -0.000693
# 2 -0.005253 0.011626 0.004430 0.006466 0.001466 -0.002563
# 3 -0.002954 0.004430 0.033235 0.013629 -0.011427 -0.014820
# 4 -0.007092 0.006466 0.013629 0.040305 -0.006684 -0.008291
# 5 -0.001320 0.001466 -0.011427 -0.006684 0.019412 0.010171
# 6 -0.000693 -0.002563 -0.014820 -0.008291 0.010171 0.030076
#
#
# Mechanical properties :
#
#
# Convention : Reuss Voigt Hill
#
# Bulk Modulus (GPa) = 21.42859 50.31620 35.87239
# Shear Modulus (GPa) = 29.91778 50.09489 40.00634
#
# Velocity S-wave (km/s) = 3.54017 4.58096 4.09377
# Velocity P-wave (km/s) = 5.06824 7.00415 6.11331
#
# Compressibility (1/GPa) = 0.04666662
#
# Stress axis : x y z
#
# Youngs Moduli (GPa) = 106.82956 86.01595 30.08838
#
# Poissons Ratio (x) = 0.45183 0.08889
# Poissons Ratio (y) = 0.56116 -0.13328
# Poissons Ratio (z) = 0.31561 -0.38101
#
# Static dielectric constant tensor:
#      x y z
#    x 2.094080 0.000890 -0.054480 
#    y 0.000890 1.909460 -0.038660 
#    z -0.054480 -0.038660 1.997690 
# 
# From -- ./inp_files/82936.got.cif
#   From: 2010.05.17/outbox.cif.g08.bks.cpg/sg2_42_cif.got.tgz:82936.got - 2010.06.03 11:33:40.
