data_PCOD9066561
_publ_section_title
;
Structure prediction by ZEFSAII (Michael W. Deem and Ramdas Pophale) SiO2 
 PCOD9066561
Probable space group: P -1
;
_chemical_formula_sum "Si O2"
_cell_formula_units_Z 16
_cell_length_a 11.712129
_cell_length_b 9.423326
_cell_length_c 19.611039
_cell_angle_alpha 140.659730
_cell_angle_beta 30.370495
_cell_angle_gamma 128.219038
_cell_volume 685.687215
_symmetry_space_group_name_H-M "P -1"
_symmetry_group_IT_number 2
_symmetry_cell_setting 'triclinic'
loop_
_space_group_symop_operation_xyz
x,y,z
-x,-y,-z
loop_
_atom_site_type_symbol
_atom_site_label
_atom_site_fract_x
_atom_site_fract_y
_atom_site_fract_z
Si Si1 0.692514 0.287648 0.397576
Si Si2 0.074468 0.693666 0.151676
Si Si3 0.476275 0.410182 0.196531
Si Si4 0.128063 0.411212 0.265949
Si Si5 0.685537 0.844168 0.301306
Si Si6 0.420242 0.974766 0.890662
Si Si7 0.849239 0.175789 0.691560
Si Si8 0.772788 0.374568 0.233339
O O1 0.778540 0.341866 0.298746
O O2 0.436981 0.416287 0.589706
O O3 0.861340 0.390592 0.400498
O O4 0.715102 0.018207 0.290715
O O5 0.916121 0.791334 0.206874
O O6 0.999512 0.449490 0.113563
O O7 0.035129 0.813778 0.289765
O O8 0.335034 0.685802 0.993356
O O9 0.241261 0.476685 0.301949
O O10 0.584682 0.620273 0.249362
O O11 0.468123 0.215626 0.183995
O O12 0.172010 0.587240 0.249567
O O13 0.250279 0.163802 0.088261
O O14 0.500000 0.000000 0.500000
O O15 0.290740 0.840453 0.852818
O O16 0.608813 0.093947 0.799409
O O17 0.000000 0.000000 0.500000
#
# Coordination Sequence:
#
# PCOD9066561 Si02
#       8
#     2   2   2   2   2   2   2   2
#     4  11  25  46  71 107 146 190 245 302 363 435
#     4  12  25  50  73 104 150 192 243 304 365 427
#     4  12  28  48  73 111 151 193 240 303 366 439
#     4  12  27  46  73 108 143 191 246 296 365 441
#     4  12  26  45  75 110 142 195 250 296 362 434
#     4  12  26  48  72 106 147 194 242 299 366 434
#     4  12  29  48  75 107 148 195 240 306 367 434
#     4  11  25  46  73 101 148 192 243 306 362 422
#
# _framework density 23.334254000000001
#
# number of rings (size 3 to 8) (size 9 to 14) (size 15 to 20)
#    0.000    0.250    5.000    2.625    8.750    0.500 
#    0.000    1.875    0.000    0.000    0.000    0.000 
#    0.000    0.000    0.000    0.000    0.000    0.000 
#
# Total GULP energy -89658.332779 kJ/mol
# GULP energy per Si atom -5603.645799 kJ/mol
# Density = 2.328114 g / cm^3
# Si number density = 23.334254 Si / 1000 Ang^3
#
#
#
# Elastic Constant Matrix: (Units=GPa)
#
#
# Indices 1 2 3 4 5 6 
#
# 1 108.6418 6.7254 12.8662 22.9514 -4.0558 11.8077
# 2 6.7254 110.0312 8.0574 17.8967 -6.5699 -5.1725
# 3 12.8662 8.0574 42.0510 10.2304 8.0727 -4.5899
# 4 22.9514 17.8967 10.2304 36.8651 5.7241 -1.3802
# 5 -4.0558 -6.5699 8.0727 5.7241 25.7756 3.4817
# 6 11.8077 -5.1725 -4.5899 -1.3802 3.4817 38.2571
#
#
#
# Elastic Compliance Matrix: (Units=1/GPa)
#
#
# Indices 1 2 3 4 5 6 
#
# 1 0.011984 0.000937 -0.003508 -0.007999 0.005647 -0.004795
# 2 0.000937 0.010397 -0.001704 -0.005861 0.004595 0.000282
# 3 -0.003508 -0.001704 0.028389 -0.003147 -0.009860 0.005042
# 4 -0.007999 -0.005861 -0.003147 0.037607 -0.010607 0.003621
# 5 0.005647 0.004595 -0.009860 -0.010607 0.047243 -0.006987
# 6 -0.004795 0.000282 0.005042 0.003621 -0.006987 0.029029
#
#
# Mechanical properties :
#
#
# Convention : Reuss Voigt Hill
#
# Bulk Modulus (GPa) = 23.68545 35.11357 29.39951
# Shear Modulus (GPa) = 26.69917 35.71788 31.20853
#
# Velocity S-wave (km/s) = 3.38628 3.91667 3.66109
# Velocity P-wave (km/s) = 5.04596 5.96108 5.52251
#
# Compressibility (1/GPa) = 0.04222002
#
# Stress axis : x y z
#
# Youngs Moduli (GPa) = 83.44629 96.18444 35.22446
#
# Poissons Ratio (x) = -0.09014 0.12356
# Poissons Ratio (y) = -0.07820 0.06003
# Poissons Ratio (z) = 0.29271 0.16393
#
# Static dielectric constant tensor:
#      x y z
#    x 1.898730 -0.008100 -0.005280 
#    y -0.008100 1.891750 -0.001430 
#    z -0.005280 -0.001430 1.847220 
# 
# From -- ./inp_files/262456.got.cif
#   From: 2010.05.17/outbox.cif.g08.bks.cpg/sg2_132_cif.got.tgz:262456.got - 2010.06.03 11:33:40.
