data_PCOD9066390
_publ_section_title
;
Structure prediction by ZEFSAII (Michael W. Deem and Ramdas Pophale) SiO2 
 PCOD9066390
Probable space group: P -1
;
_chemical_formula_sum "Si O2"
_cell_formula_units_Z 10
_cell_length_a 12.730045
_cell_length_b 4.982294
_cell_length_c 12.568707
_cell_angle_alpha 96.695596
_cell_angle_beta 25.471157
_cell_angle_gamma 95.749708
_cell_volume 340.465163
_symmetry_space_group_name_H-M "P -1"
_symmetry_group_IT_number 2
_symmetry_cell_setting 'triclinic'
loop_
_space_group_symop_operation_xyz
x,y,z
-x,-y,-z
loop_
_atom_site_type_symbol
_atom_site_label
_atom_site_fract_x
_atom_site_fract_y
_atom_site_fract_z
Si Si1 0.220388 0.159109 0.859676
Si Si2 0.398880 0.503139 0.876116
Si Si3 0.042395 0.877979 0.280166
Si Si4 0.693432 0.208761 0.772347
Si Si5 0.352029 0.288499 0.529943
O O1 0.186725 0.317707 0.010441
O O2 0.278136 0.371036 0.720276
O O3 0.438767 0.940143 0.660230
O O4 0.000000 0.000000 0.000000
O O5 0.530583 0.404890 0.857388
O O6 0.581749 0.490599 0.609046
O O7 0.308270 0.813814 0.980914
O O8 0.123448 0.680356 0.297824
O O9 0.874868 0.837378 0.330521
O O10 0.883156 0.080817 0.507221
O O11 0.500000 0.000000 0.000000
#
# Coordination Sequence:
#
# PCOD9066390 Si02
#       5
#     2   2   2   2   2
#     4  11  26  48  75 108 151 194 246 310 363 437
#     4  12  26  47  77 108 149 196 245 302 372 438
#     4  11  25  45  76 107 146 195 244 297 373 434
#     4  11  26  47  74 110 152 189 247 308 361 443
#     4  11  25  46  73 110 149 191 250 298 371 438
#
# _framework density 29.371579000000001
#
# number of rings (size 3 to 8) (size 9 to 14) (size 15 to 20)
#    0.000    0.800    2.000    3.600    2.800   11.200 
#    0.000    0.000    0.000    0.000    0.000    0.000 
#    0.000    0.000    0.000    0.000    0.000    0.000 
#
# Total GULP energy -55712.895406 kJ/mol
# GULP energy per Si atom -5571.289541 kJ/mol
# Density = 2.930473 g / cm^3
# Si number density = 29.371579 Si / 1000 Ang^3
#
#
#
# Elastic Constant Matrix: (Units=GPa)
#
#
# Indices 1 2 3 4 5 6 
#
# 1 281.2479 12.7632 44.4828 3.5641 -7.8628 -29.1813
# 2 12.7632 89.5040 38.2499 -10.3582 -11.3764 -22.1010
# 3 44.4828 38.2499 103.9802 35.8013 -13.8274 -22.2320
# 4 3.5641 -10.3582 35.8013 56.8928 -14.9388 -1.7386
# 5 -7.8628 -11.3764 -13.8274 -14.9388 60.7563 -0.2261
# 6 -29.1813 -22.1010 -22.2320 -1.7386 -0.2261 45.6360
#
#
#
# Elastic Compliance Matrix: (Units=1/GPa)
#
#
# Indices 1 2 3 4 5 6 
#
# 1 0.004064 0.001121 -0.002127 0.001521 0.000634 0.002167
# 2 0.001121 0.017704 -0.008684 0.009813 0.003917 0.005453
# 3 -0.002127 -0.008684 0.018917 -0.013493 -0.000902 0.003131
# 4 0.001521 0.009813 -0.013493 0.029394 0.006192 0.000302
# 5 0.000634 0.003917 -0.000902 0.006192 0.018600 0.002191
# 6 0.002167 0.005453 0.003131 0.000302 0.002191 0.027487
#
#
# Mechanical properties :
#
#
# Convention : Reuss Voigt Hill
#
# Bulk Modulus (GPa) = 46.93673 73.96929 60.45301
# Shear Modulus (GPa) = 35.05137 57.93944 46.49541
#
# Velocity S-wave (km/s) = 3.45828 4.44626 3.98302
# Velocity P-wave (km/s) = 5.65343 7.18314 6.46370
#
# Compressibility (1/GPa) = 0.02130528
#
# Stress axis : x y z
#
# Youngs Moduli (GPa) = 246.03884 56.48458 52.86274
#
# Poissons Ratio (x) = -0.06332 0.11245
# Poissons Ratio (y) = -0.27582 0.45905
# Poissons Ratio (z) = 0.52337 0.49050
#
# Static dielectric constant tensor:
#      x y z
#    x 2.471380 0.468310 -0.068530 
#    y 0.468310 3.223390 -0.563680 
#    z -0.068530 -0.563680 2.697290 
# 
# From -- ./inp_files/1563.got.cif
#   From: 2010.05.17/outbox.cif.g08.bks.cpg/sg2_1_cif.got.tgz:1563.got - 2010.06.03 11:33:40.
