data_PCOD9066345
_publ_section_title
;
Structure prediction by ZEFSAII (Michael W. Deem and Ramdas Pophale) SiO2 
 PCOD9066345
Probable space group: P -1
;
_chemical_formula_sum "Si O2"
_cell_formula_units_Z 13
_cell_length_a 9.004053
_cell_length_b 11.176781
_cell_length_c 8.980007
_cell_angle_alpha 88.265343
_cell_angle_beta 111.544011
_cell_angle_gamma 139.587759
_cell_volume 496.166560
_symmetry_space_group_name_H-M "P -1"
_symmetry_group_IT_number 2
_symmetry_cell_setting 'triclinic'
loop_
_space_group_symop_operation_xyz
x,y,z
-x,-y,-z
loop_
_atom_site_type_symbol
_atom_site_label
_atom_site_fract_x
_atom_site_fract_y
_atom_site_fract_z
Si Si1 0.000000 0.000000 0.500000
Si Si2 0.276674 0.190852 0.004960
Si Si3 0.944186 0.685910 0.496736
Si Si4 0.467177 0.906337 0.838617
Si Si5 0.107617 0.709951 0.232260
Si Si6 0.400620 0.535420 0.128327
Si Si7 0.565612 0.329687 0.561980
O O1 0.745061 0.887716 0.520574
O O2 0.948268 0.826579 0.536162
O O3 0.459329 0.186434 0.103358
O O4 0.375149 0.381430 0.084119
O O5 0.315228 0.232442 0.834479
O O6 0.000000 0.000000 0.000000
O O7 0.173052 0.753771 0.670961
O O8 0.009828 0.710964 0.347381
O O9 0.666899 0.450395 0.444353
O O10 0.679394 0.082929 0.788946
O O11 0.500000 0.000000 0.000000
O O12 0.258175 0.679932 0.332927
O O13 0.843664 0.542050 0.037631
O O14 0.368917 0.535627 0.289442
#
# Coordination Sequence:
#
# PCOD9066345 Si02
#       7
#     1   2   2   2   2   2   2
#     4  12  30  50  76 108 162 188 256 310 382 442
#     4  11  25  45  74 111 150 190 249 312 368 432
#     4  12  29  50  76 112 149 204 247 310 382 444
#     4  12  25  47  78 111 150 202 251 304 374 449
#     4  12  25  51  77 111 156 192 253 311 373 448
#     4  11  26  47  78 114 144 196 256 306 367 446
#     4  12  27  52  77 110 152 202 250 308 377 449
#
# _framework density 26.200880000000002
#
# number of rings (size 3 to 8) (size 9 to 14) (size 15 to 20)
#    0.000    0.308    3.077    4.615    4.308    1.231 
#    2.769    0.000    0.000    0.000    0.000    0.000 
#    0.000    0.000    0.000    0.000    0.000    0.000 
#
# Total GULP energy -72759.608909 kJ/mol
# GULP energy per Si atom -5596.892993 kJ/mol
# Density = 2.614125 g / cm^3
# Si number density = 26.200880 Si / 1000 Ang^3
#
#
#
# Elastic Constant Matrix: (Units=GPa)
#
#
# Indices 1 2 3 4 5 6 
#
# 1 167.2735 64.8420 34.9078 -14.2800 25.5314 -4.3197
# 2 64.8420 211.9019 32.8799 -41.6530 15.8042 15.4475
# 3 34.9078 32.8799 66.6597 -16.3572 -1.2256 27.9968
# 4 -14.2800 -41.6530 -16.3572 49.9385 9.6566 4.5454
# 5 25.5314 15.8042 -1.2256 9.6566 68.5585 -0.5120
# 6 -4.3197 15.4475 27.9968 4.5454 -0.5120 47.9755
#
#
#
# Elastic Compliance Matrix: (Units=1/GPa)
#
#
# Indices 1 2 3 4 5 6 
#
# 1 0.008396 -0.002068 -0.005747 -0.001155 -0.002554 0.004858
# 2 -0.002068 0.006779 0.000498 0.005835 -0.001629 -0.003229
# 3 -0.005747 0.000498 0.027376 0.009119 0.001100 -0.017506
# 4 -0.001155 0.005835 0.009119 0.029433 -0.004973 -0.010146
# 5 -0.002554 -0.001629 0.001100 -0.004973 0.016635 0.000302
# 6 0.004858 -0.003229 -0.017506 -0.010146 0.000302 0.033501
#
#
# Mechanical properties :
#
#
# Convention : Reuss Voigt Hill
#
# Bulk Modulus (GPa) = 35.82320 79.01050 57.41685
# Shear Modulus (GPa) = 34.23226 54.17489 44.20357
#
# Velocity S-wave (km/s) = 3.61852 4.55210 4.11189
# Velocity P-wave (km/s) = 5.58215 7.60592 6.67122
#
# Compressibility (1/GPa) = 0.02791487
#
# Stress axis : x y z
#
# Youngs Moduli (GPa) = 119.10534 147.52206 36.52819
#
# Poissons Ratio (x) = 0.30509 0.20994
# Poissons Ratio (y) = 0.24632 -0.01817
# Poissons Ratio (z) = 0.68454 -0.07339
#
# Static dielectric constant tensor:
#      x y z
#    x 2.065680 -0.004460 0.008030 
#    y -0.004460 2.040210 -0.040540 
#    z 0.008030 -0.040540 1.866800 
# 
# From -- ./inp_files/178142.got.cif
#   From: 2010.05.17/outbox.cif.g08.bks.cpg/sg2_90_cif.got.tgz:178142.got - 2010.06.03 11:33:40.
