data_PCOD9066786
_publ_section_title
;
Structure prediction by ZEFSAII (Michael W. Deem and Ramdas Pophale) SiO2 
 PCOD9066786
Probable space group: P -1
;
_chemical_formula_sum "Si O2"
_cell_formula_units_Z 16
_cell_length_a 23.971698
_cell_length_b 5.143382
_cell_length_c 8.246076
_cell_angle_alpha 81.751446
_cell_angle_beta 42.441966
_cell_angle_gamma 64.215051
_cell_volume 590.843585
_symmetry_space_group_name_H-M "P -1"
_symmetry_group_IT_number 2
_symmetry_cell_setting 'triclinic'
loop_
_space_group_symop_operation_xyz
x,y,z
-x,-y,-z
loop_
_atom_site_type_symbol
_atom_site_label
_atom_site_fract_x
_atom_site_fract_y
_atom_site_fract_z
Si Si1 0.794435 0.726975 0.101883
Si Si2 0.675431 0.551472 0.572019
Si Si3 0.018251 0.594593 0.122149
Si Si4 0.172128 0.819762 0.475716
Si Si5 0.075301 0.664165 0.432307
Si Si6 0.588424 0.871561 0.060548
Si Si7 0.300544 0.695013 0.924789
Si Si8 0.460960 0.561409 0.344537
O O1 0.703248 0.701989 0.352192
O O2 0.770445 0.066602 0.080297
O O3 0.869351 0.556856 0.097952
O O4 0.850527 0.514428 0.850977
O O5 0.768296 0.279378 0.479530
O O6 0.606497 0.435259 0.659022
O O7 0.635490 0.782323 0.789362
O O8 0.991327 0.458686 0.346113
O O9 0.936869 0.936807 0.277494
O O10 0.000000 0.500000 0.000000
O O11 0.145269 0.616618 0.437200
O O12 0.240827 0.875411 0.198657
O O13 0.000000 0.000000 0.500000
O O14 0.660746 0.646065 0.061119
O O15 0.506288 0.778384 0.224356
O O16 0.545390 0.214124 0.177489
O O17 0.398358 0.637634 0.635097
#
# Coordination Sequence:
#
# PCOD9066786 Si02
#       8
#     2   2   2   2   2   2   2   2
#     4  12  25  47  74 111 150 197 258 309 376 446
#     4  11  27  45  73 111 148 194 252 312 377 456
#     4  12  27  45  71 103 153 199 242 303 379 447
#     4  11  25  48  67 108 149 196 249 305 375 444
#     4  12  24  44  73 100 143 201 254 307 363 445
#     4  11  27  51  78 110 153 197 250 317 397 459
#     4  11  25  46  76 113 146 194 255 315 374 456
#     4  12  25  50  80 111 150 199 252 319 391 462
#
# _framework density 27.079924999999999
#
# number of rings (size 3 to 8) (size 9 to 14) (size 15 to 20)
#    0.000    0.500    2.500    4.875    3.500    5.000 
#    4.500    0.000    0.000    0.000    0.000    0.000 
#    0.000    0.000    0.000    0.000    0.000    0.000 
#
# Total GULP energy -89399.530306 kJ/mol
# GULP energy per Si atom -5587.470644 kJ/mol
# Density = 2.701829 g / cm^3
# Si number density = 27.079925 Si / 1000 Ang^3
#
#
#
# Elastic Constant Matrix: (Units=GPa)
#
#
# Indices 1 2 3 4 5 6 
#
# 1 100.0286 16.2143 2.9481 3.8457 -7.0011 -17.7269
# 2 16.2143 78.3237 27.1636 13.6850 -12.3574 -20.8959
# 3 2.9481 27.1636 144.1082 -4.7252 -0.7773 5.6686
# 4 3.8457 13.6850 -4.7252 39.6614 -12.5528 -7.1331
# 5 -7.0011 -12.3574 -0.7773 -12.5528 51.2295 9.3159
# 6 -17.7269 -20.8959 5.6686 -7.1331 9.3159 46.3431
#
#
#
# Elastic Compliance Matrix: (Units=1/GPa)
#
#
# Indices 1 2 3 4 5 6 
#
# 1 0.010856 -0.001196 -0.000127 0.000168 0.000591 0.003536
# 2 -0.001196 0.017079 -0.003596 -0.004504 0.001585 0.006672
# 3 -0.000127 -0.003596 0.007772 0.001786 0.000101 -0.002366
# 4 0.000168 -0.004504 0.001786 0.029021 0.005874 0.001101
# 5 0.000591 0.001585 0.000101 0.005874 0.021891 -0.002568
# 6 0.003536 0.006672 -0.002366 0.001101 -0.002568 0.026914
#
#
# Mechanical properties :
#
#
# Convention : Reuss Voigt Hill
#
# Bulk Modulus (GPa) = 38.65718 46.12362 42.39040
# Shear Modulus (GPa) = 37.87997 45.85578 41.86787
#
# Velocity S-wave (km/s) = 3.74414 4.11950 3.93629
# Velocity P-wave (km/s) = 5.74436 6.30051 6.02885
#
# Compressibility (1/GPa) = 0.02586842
#
# Stress axis : x y z
#
# Youngs Moduli (GPa) = 92.11219 58.55018 128.66843
#
# Poissons Ratio (x) = 0.07003 0.01634
# Poissons Ratio (y) = 0.11018 0.46275
# Poissons Ratio (z) = 0.01170 0.21057
#
# Static dielectric constant tensor:
#      x y z
#    x 2.187070 0.025870 -0.054180 
#    y 0.025870 2.093320 -0.094180 
#    z -0.054180 -0.094180 1.981400 
# 
# From -- ./inp_files/355984.got.cif
#   From: 2010.05.17/outbox.cif.g08.bks.cpg/sg2_178_cif.got.tgz:355984.got - 2010.06.03 11:33:40.
