data_PCOD9066608
_publ_section_title
;
Structure prediction by ZEFSAII (Michael W. Deem and Ramdas Pophale) SiO2 
 PCOD9066608
Probable space group: P -1
;
_chemical_formula_sum "Si O2"
_cell_formula_units_Z 10
_cell_length_a 8.068579
_cell_length_b 8.165476
_cell_length_c 10.209802
_cell_angle_alpha 132.042939
_cell_angle_beta 108.332214
_cell_angle_gamma 49.045679
_cell_volume 367.872988
_symmetry_space_group_name_H-M "P -1"
_symmetry_group_IT_number 2
_symmetry_cell_setting 'triclinic'
loop_
_space_group_symop_operation_xyz
x,y,z
-x,-y,-z
loop_
_atom_site_type_symbol
_atom_site_label
_atom_site_fract_x
_atom_site_fract_y
_atom_site_fract_z
Si Si1 0.866049 0.909259 0.824161
Si Si2 0.328998 0.507311 0.802609
Si Si3 0.737651 0.270163 0.592876
Si Si4 0.462803 0.985100 0.708955
Si Si5 0.805161 0.685839 0.940671
O O1 0.130685 0.696816 0.746203
O O2 0.720074 0.849583 0.676691
O O3 0.866215 0.830836 0.934492
O O4 0.734257 0.247310 0.978815
O O5 0.575417 0.344767 0.716101
O O6 0.326841 0.261063 0.727667
O O7 0.615388 0.203116 0.424616
O O8 0.759196 0.514201 0.744473
O O9 0.000000 0.000000 0.500000
O O10 0.404632 0.106185 0.905640
O O11 0.000000 0.500000 0.000000
#
# Coordination Sequence:
#
# PCOD9066608 Si02
#       5
#     2   2   2   2   2
#     4  11  25  46  75 106 138 190 233 285 357 413
#     4  11  25  46  72 107 141 184 237 285 352 418
#     4  12  26  44  74 106 138 189 236 283 357 413
#     4  12  25  47  75 102 146 184 230 297 344 417
#     4  12  24  48  73 102 145 185 234 287 350 419
#
# _framework density 27.183295999999999
#
# number of rings (size 3 to 8) (size 9 to 14) (size 15 to 20)
#    0.000    0.400    6.000    1.800    0.000    1.600 
#    0.000    0.000    0.000    0.000    0.000    0.000 
#    0.000    0.000    0.000    0.000    0.000    0.000 
#
# Total GULP energy -55897.783515 kJ/mol
# GULP energy per Si atom -5589.778352 kJ/mol
# Density = 2.712143 g / cm^3
# Si number density = 27.183296 Si / 1000 Ang^3
#
#
#
# Elastic Constant Matrix: (Units=GPa)
#
#
# Indices 1 2 3 4 5 6 
#
# 1 141.3796 35.2768 49.9607 17.8983 14.6671 -34.9745
# 2 35.2768 116.2703 37.5607 20.4256 9.3473 -20.3028
# 3 49.9607 37.5607 168.1606 19.1098 31.8829 -17.1201
# 4 17.8983 20.4256 19.1098 35.1626 -9.7869 12.4334
# 5 14.6671 9.3473 31.8829 -9.7869 64.8850 0.2093
# 6 -34.9745 -20.3028 -17.1201 12.4334 0.2093 57.2580
#
#
#
# Elastic Compliance Matrix: (Units=1/GPa)
#
#
# Indices 1 2 3 4 5 6 
#
# 1 0.010959 0.000385 -0.000676 -0.009535 -0.003667 0.008712
# 2 0.000385 0.011731 -0.000348 -0.009981 -0.003132 0.006469
# 3 -0.000676 -0.000348 0.008207 -0.006432 -0.004811 0.003332
# 4 -0.009535 -0.009981 -0.006432 0.055033 0.015130 -0.023292
# 5 -0.003667 -0.003132 -0.004811 0.015130 0.021364 -0.008152
# 6 0.008712 0.006469 0.003332 -0.023292 -0.008152 0.031164
#
#
# Mechanical properties :
#
#
# Convention : Reuss Voigt Hill
#
# Bulk Modulus (GPa) = 33.76215 74.60077 54.18146
# Shear Modulus (GPa) = 33.42018 51.66194 42.54106
#
# Velocity S-wave (km/s) = 3.51014 4.36421 3.96026
# Velocity P-wave (km/s) = 5.37357 7.27312 6.39427
#
# Compressibility (1/GPa) = 0.02961897
#
# Stress axis : x y z
#
# Youngs Moduli (GPa) = 91.25030 85.24349 121.84037
#
# Poissons Ratio (x) = -0.03279 0.08236
# Poissons Ratio (y) = -0.03510 0.04239
# Poissons Ratio (z) = 0.06168 0.02965
#
# Static dielectric constant tensor:
#      x y z
#    x 2.215200 -0.091080 0.010270 
#    y -0.091080 2.270970 0.042000 
#    z 0.010270 0.042000 2.113250 
# 
# From -- ./inp_files/145744.got.cif
#   From: 2010.05.17/outbox.cif.g08.bks.cpg/sg2_73_cif.got.tgz:145744.got - 2010.06.03 11:33:40.
