data_PCOD9066262
_publ_section_title
;
Structure prediction by ZEFSAII (Michael W. Deem and Ramdas Pophale) SiO2 
 PCOD9066262
Probable space group: P -1
;
_chemical_formula_sum "Si O2"
_cell_formula_units_Z 12
_cell_length_a 5.005150
_cell_length_b 13.852985
_cell_length_c 11.328052
_cell_angle_alpha 131.965401
_cell_angle_beta 111.368371
_cell_angle_gamma 64.827359
_cell_volume 524.809887
_symmetry_space_group_name_H-M "P -1"
_symmetry_group_IT_number 2
_symmetry_cell_setting 'triclinic'
loop_
_space_group_symop_operation_xyz
x,y,z
-x,-y,-z
loop_
_atom_site_type_symbol
_atom_site_label
_atom_site_fract_x
_atom_site_fract_y
_atom_site_fract_z
Si Si1 0.932530 0.204094 0.242825
Si Si2 0.188217 0.062006 0.935858
Si Si3 0.746728 0.604756 0.421326
Si Si4 0.757025 0.739650 0.092037
Si Si5 0.342680 0.422729 0.280870
Si Si6 0.575958 0.348965 0.836523
O O1 0.002190 0.170487 0.088037
O O2 0.154665 0.279481 0.398995
O O3 0.596658 0.298115 0.270282
O O4 0.956739 0.062584 0.195501
O O5 0.247648 0.129833 0.880099
O O6 0.500000 0.000000 0.000000
O O7 0.498676 0.543479 0.389900
O O8 0.621650 0.652395 0.310908
O O9 0.040388 0.480793 0.350364
O O10 0.501793 0.744798 0.150068
O O11 0.075322 0.694986 0.170075
O O12 0.739200 0.626296 0.899978
O O13 0.500000 0.500000 0.000000
#
# Coordination Sequence:
#
# PCOD9066262 Si02
#       6
#     2   2   2   2   2   2
#     4  11  26  44  66 103 134 177 228 275 345 389
#     4  11  25  45  72  92 131 182 230 283 322 399
#     4  12  26  41  68 103 142 175 212 280 341 404
#     4  12  23  43  68 101 130 176 231 266 327 398
#     4  12  22  41  69 103 138 169 218 282 340 397
#     4  12  23  42  67  99 139 176 219 266 333 408
#
# _framework density 22.865421999999999
#
# number of rings (size 3 to 8) (size 9 to 14) (size 15 to 20)
#    0.000    0.333    5.000    4.500    4.667    0.000 
#    0.000    1.667    0.000    0.000    0.000    0.000 
#    0.000    0.000    0.000    0.000    0.000    0.000 
#
# Total GULP energy -67296.749732 kJ/mol
# GULP energy per Si atom -5608.062478 kJ/mol
# Density = 2.281338 g / cm^3
# Si number density = 22.865422 Si / 1000 Ang^3
#
#
#
# Elastic Constant Matrix: (Units=GPa)
#
#
# Indices 1 2 3 4 5 6 
#
# 1 95.3497 13.9118 24.9967 -0.3047 7.2694 4.2556
# 2 13.9118 112.5688 56.1734 2.1527 12.0805 15.0750
# 3 24.9967 56.1734 135.6355 5.1425 25.2245 6.5885
# 4 -0.3047 2.1527 5.1425 32.1039 2.8064 7.7955
# 5 7.2694 12.0805 25.2245 2.8064 37.3738 -1.3268
# 6 4.2556 15.0750 6.5885 7.7955 -1.3268 36.9024
#
#
#
# Elastic Compliance Matrix: (Units=1/GPa)
#
#
# Indices 1 2 3 4 5 6 
#
# 1 0.011106 -0.000279 -0.001722 0.000743 -0.001001 -0.001052
# 2 -0.000279 0.011813 -0.004496 0.001040 -0.000958 -0.004245
# 3 -0.001722 -0.004496 0.010559 -0.000988 -0.005258 0.000170
# 4 0.000743 0.001040 -0.000988 0.033280 -0.002578 -0.007457
# 5 -0.001001 -0.000958 -0.005258 -0.002578 0.031114 0.003109
# 6 -0.001052 -0.004245 0.000170 -0.007457 0.003109 0.030611
#
#
# Mechanical properties :
#
#
# Convention : Reuss Voigt Hill
#
# Bulk Modulus (GPa) = 48.81943 59.30195 54.06069
# Shear Modulus (GPa) = 33.71440 37.84084 35.77762
#
# Velocity S-wave (km/s) = 3.84405 4.07251 3.95993
# Velocity P-wave (km/s) = 6.41088 6.93579 6.67850
#
# Compressibility (1/GPa) = 0.02048365
#
# Stress axis : x y z
#
# Youngs Moduli (GPa) = 90.04540 84.65329 94.70488
#
# Poissons Ratio (x) = 0.02362 0.16309
# Poissons Ratio (y) = 0.02513 0.42578
# Poissons Ratio (z) = 0.15506 0.38059
#
# Static dielectric constant tensor:
#      x y z
#    x 1.857160 0.023780 -0.004020 
#    y 0.023780 1.872670 -0.003760 
#    z -0.004020 -0.003760 1.837750 
# 
# From -- ./inp_files/365871.got.cif
#   From: 2010.05.17/outbox.cif.g08.bks.cpg/sg2_183_cif.got.tgz:365871.got - 2010.06.03 11:33:40.
