data_PCOD9066784
_publ_section_title
;
Structure prediction by ZEFSAII (Michael W. Deem and Ramdas Pophale) SiO2 
 PCOD9066784
Probable space group: P -1
;
_chemical_formula_sum "Si O2"
_cell_formula_units_Z 16
_cell_length_a 10.660426
_cell_length_b 8.695021
_cell_length_c 15.216915
_cell_angle_alpha 60.818537
_cell_angle_beta 38.321891
_cell_angle_gamma 47.896209
_cell_volume 646.638253
_symmetry_space_group_name_H-M "P -1"
_symmetry_group_IT_number 2
_symmetry_cell_setting 'triclinic'
loop_
_space_group_symop_operation_xyz
x,y,z
-x,-y,-z
loop_
_atom_site_type_symbol
_atom_site_label
_atom_site_fract_x
_atom_site_fract_y
_atom_site_fract_z
Si Si1 0.018604 0.958802 0.326546
Si Si2 0.529497 0.676458 0.474793
Si Si3 0.559756 0.358681 0.920488
Si Si4 0.221315 0.641737 0.872484
Si Si5 0.724040 0.719320 0.180879
Si Si6 0.680889 0.870045 0.811050
Si Si7 0.889358 0.696790 0.569518
Si Si8 0.508695 0.164990 0.384451
O O1 0.162669 0.793125 0.216082
O O2 0.019531 0.822301 0.445588
O O3 0.153636 0.076741 0.239405
O O4 0.742416 0.130290 0.418564
O O5 0.500000 0.500000 0.500000
O O6 0.676410 0.716327 0.310984
O O7 0.630975 0.633404 0.529795
O O8 0.423879 0.504447 0.871291
O O9 0.500000 0.500000 0.000000
O O10 0.452312 0.214093 0.035382
O O11 0.248729 0.486905 0.821525
O O12 0.262203 0.825513 0.771811
O O13 0.963228 0.719208 0.032562
O O14 0.508021 0.918554 0.195061
O O15 0.839126 0.696727 0.699220
O O16 0.627442 0.823556 0.631760
O O17 0.000000 0.500000 0.500000
O O18 0.500000 0.000000 0.500000
#
# Coordination Sequence:
#
# PCOD9066784 Si02
#       8
#     2   2   2   2   2   2   2   2
#     4  12  26  46  76 107 150 198 259 314 367 452
#     4  12  27  45  76 112 151 199 259 307 375 444
#     4  12  28  50  74 111 154 197 249 311 390 454
#     4  11  26  47  76 109 151 194 249 311 373 448
#     4  11  25  46  76 112 146 193 255 311 366 443
#     4  12  26  46  75 108 147 198 255 305 375 450
#     4  12  27  45  73 109 151 198 247 311 383 440
#     4  12  25  49  72 106 153 194 250 305 376 453
#
# _framework density 24.743354
#
# number of rings (size 3 to 8) (size 9 to 14) (size 15 to 20)
#    0.000    0.250    5.000    3.000    5.250    1.000 
#    2.250    3.125    0.000    0.000    0.000    0.000 
#    0.000    0.000    0.000    0.000    0.000    0.000 
#
# Total GULP energy -89559.382831 kJ/mol
# GULP energy per Si atom -5597.461427 kJ/mol
# Density = 2.468704 g / cm^3
# Si number density = 24.743354 Si / 1000 Ang^3
#
#
#
# Elastic Constant Matrix: (Units=GPa)
#
#
# Indices 1 2 3 4 5 6 
#
# 1 82.3030 12.6923 31.5975 9.8286 8.0025 21.3396
# 2 12.6923 71.7610 46.2589 0.0291 -15.3189 13.4952
# 3 31.5975 46.2589 179.5484 -2.9123 -1.2616 10.2984
# 4 9.8286 0.0291 -2.9123 63.0269 9.2846 -0.1163
# 5 8.0025 -15.3189 -1.2616 9.2846 40.6447 -4.1897
# 6 21.3396 13.4952 10.2984 -0.1163 -4.1897 34.0029
#
#
#
# Elastic Compliance Matrix: (Units=1/GPa)
#
#
# Indices 1 2 3 4 5 6 
#
# 1 0.016269 -0.000420 -0.002251 -0.002074 -0.003974 -0.009859
# 2 -0.000420 0.019457 -0.004611 -0.001199 0.007010 -0.005202
# 3 -0.002251 -0.004611 0.007105 0.000856 -0.001172 0.000949
# 4 -0.002074 -0.001199 0.000856 0.016782 -0.003736 0.001115
# 5 -0.003974 0.007010 -0.001172 -0.003736 0.029222 0.003654
# 6 -0.009859 -0.005202 0.000949 0.001115 0.003654 0.037828
#
#
# Mechanical properties :
#
#
# Convention : Reuss Voigt Hill
#
# Bulk Modulus (GPa) = 35.37613 57.18996 46.28304
# Shear Modulus (GPa) = 33.18975 43.73914 38.46445
#
# Velocity S-wave (km/s) = 3.66643 4.20898 3.94704
# Velocity P-wave (km/s) = 5.67907 6.83989 6.28633
#
# Compressibility (1/GPa) = 0.02826765
#
# Stress axis : x y z
#
# Youngs Moduli (GPa) = 61.46510 51.39529 140.75007
#
# Poissons Ratio (x) = 0.02158 0.31683
# Poissons Ratio (y) = 0.02581 0.64897
# Poissons Ratio (z) = 0.13836 0.23697
#
# Static dielectric constant tensor:
#      x y z
#    x 2.021560 -0.028290 -0.026640 
#    y -0.028290 2.059110 0.030750 
#    z -0.026640 0.030750 1.920070 
# 
# From -- ./inp_files/566616.got.cif
#   From: 2010.05.17/outbox.cif.g08.bks.cpg/sg2_284_cif.got.tgz:566616.got - 2010.06.03 11:33:40.
