data_PCOD9066008
_publ_section_title
;
Structure prediction by ZEFSAII (Michael W. Deem and Ramdas Pophale) SiO2 
 PCOD9066008
Probable space group: P -1
;
_chemical_formula_sum "Si O2"
_cell_formula_units_Z 15
_cell_length_a 16.327532
_cell_length_b 6.571702
_cell_length_c 10.657896
_cell_angle_alpha 88.667805
_cell_angle_beta 146.758930
_cell_angle_gamma 84.996055
_cell_volume 614.716789
_symmetry_space_group_name_H-M "P -1"
_symmetry_group_IT_number 2
_symmetry_cell_setting 'triclinic'
loop_
_space_group_symop_operation_xyz
x,y,z
-x,-y,-z
loop_
_atom_site_type_symbol
_atom_site_label
_atom_site_fract_x
_atom_site_fract_y
_atom_site_fract_z
Si Si1 0.904938 0.684076 0.062431
Si Si2 0.323490 0.594333 0.269836
Si Si3 0.285442 0.836592 0.475729
Si Si4 0.469679 0.950029 0.107003
Si Si5 0.173022 0.918648 0.862960
Si Si6 0.643332 0.548833 0.258042
Si Si7 0.000000 0.000000 0.000000
Si Si8 0.062203 0.359271 0.463089
O O1 0.002450 0.486848 0.259587
O O2 0.978691 0.784891 0.041867
O O3 0.759054 0.599925 0.830386
O O4 0.863582 0.870259 0.107511
O O5 0.500000 0.500000 0.500000
O O6 0.278061 0.747121 0.327271
O O7 0.265977 0.736765 0.073939
O O8 0.277742 0.663077 0.571979
O O9 0.136871 0.017132 0.281826
O O10 0.447203 0.902961 0.704321
O O11 0.294432 0.948796 0.911775
O O12 0.568680 0.720053 0.260105
O O13 0.500000 0.000000 0.000000
O O14 0.019173 0.838362 0.631111
O O15 0.757978 0.646947 0.316539
O O16 0.500000 0.500000 0.000000
O O17 0.000000 0.500000 0.500000
#
# Coordination Sequence:
#
# PCOD9066008 Si02
#       8
#     2   2   2   2   2   2   1   2
#     4  11  26  46  73 106 148 188 246 305 374 440
#     4  11  25  44  71 105 141 189 240 301 371 438
#     4  12  27  45  76 106 149 193 247 307 374 446
#     4  12  28  47  75 108 149 198 253 308 375 446
#     4  11  26  47  71 107 148 190 244 309 374 440
#     4  12  26  48  73 105 150 195 245 307 371 439
#     4  12  26  46  72 110 150 192 250 302 378 444
#     4  11  27  46  75 104 144 197 248 305 368 442
#
# _framework density 24.401478999999998
#
# number of rings (size 3 to 8) (size 9 to 14) (size 15 to 20)
#    0.000    0.533    4.000    2.400    7.467    4.267 
#    0.000    0.000    0.000    0.000    0.000    0.000 
#    0.000    0.000    0.000    0.000    0.000    0.000 
#
# Total GULP energy -83747.918793 kJ/mol
# GULP energy per Si atom -5583.194586 kJ/mol
# Density = 2.434594 g / cm^3
# Si number density = 24.401479 Si / 1000 Ang^3
#
#
#
# Elastic Constant Matrix: (Units=GPa)
#
#
# Indices 1 2 3 4 5 6 
#
# 1 112.9428 43.8355 46.1966 17.3988 17.2910 26.9198
# 2 43.8355 128.7331 46.1065 23.8157 5.3243 30.0114
# 3 46.1966 46.1065 138.9578 25.5382 18.8010 38.8121
# 4 17.3988 23.8157 25.5382 67.3086 14.8392 -3.4963
# 5 17.2910 5.3243 18.8010 14.8392 41.7556 1.8578
# 6 26.9198 30.0114 38.8121 -3.4963 1.8578 48.8050
#
#
#
# Elastic Compliance Matrix: (Units=1/GPa)
#
#
# Indices 1 2 3 4 5 6 
#
# 1 0.011990 -0.002264 -0.001416 -0.001216 -0.003426 -0.004051
# 2 -0.002264 0.010562 -0.001012 -0.003332 0.001441 -0.004735
# 3 -0.001416 -0.001012 0.011084 -0.003260 -0.002781 -0.007539
# 4 -0.001216 -0.003332 -0.003260 0.018968 -0.004649 0.006847
# 5 -0.003426 0.001441 -0.002781 -0.004649 0.028008 0.001816
# 6 -0.004051 -0.004735 -0.007539 0.006847 0.001816 0.032052
#
#
# Mechanical properties :
#
#
# Convention : Reuss Voigt Hill
#
# Bulk Modulus (GPa) = 41.23556 72.54564 56.89060
# Shear Modulus (GPa) = 38.42259 47.87351 43.14805
#
# Velocity S-wave (km/s) = 3.97243 4.43415 4.20962
# Velocity P-wave (km/s) = 6.16245 7.48399 6.85514
#
# Compressibility (1/GPa) = 0.02425092
#
# Stress axis : x y z
#
# Youngs Moduli (GPa) = 83.40598 94.67901 90.21953
#
# Poissons Ratio (x) = 0.21438 0.12775
# Poissons Ratio (y) = 0.18886 0.09130
# Poissons Ratio (z) = 0.11810 0.09582
#
# Static dielectric constant tensor:
#      x y z
#    x 2.123600 -0.136680 0.203720 
#    y -0.136680 2.014230 -0.111810 
#    z 0.203720 -0.111810 2.165920 
# 
# From -- ./inp_files/459493.got.cif
#   From: 2010.05.17/outbox.cif.g08.bks.cpg/sg2_230_cif.got.tgz:459493.got - 2010.06.03 11:33:40.
