data_PCOD9066309
_publ_section_title
;
Structure prediction by ZEFSAII (Michael W. Deem and Ramdas Pophale) SiO2 
 PCOD9066309
Probable space group: P -1
;
_chemical_formula_sum "Si O2"
_cell_formula_units_Z 16
_cell_length_a 9.633906
_cell_length_b 11.924964
_cell_length_c 8.754995
_cell_angle_alpha 100.211400
_cell_angle_beta 76.314944
_cell_angle_gamma 124.947753
_cell_volume 799.929082
_symmetry_space_group_name_H-M "P -1"
_symmetry_group_IT_number 2
_symmetry_cell_setting 'triclinic'
loop_
_space_group_symop_operation_xyz
x,y,z
-x,-y,-z
loop_
_atom_site_type_symbol
_atom_site_label
_atom_site_fract_x
_atom_site_fract_y
_atom_site_fract_z
Si Si1 0.191277 0.097722 0.411516
Si Si2 0.020199 0.628140 0.437261
Si Si3 0.164226 0.589239 0.081437
Si Si4 0.519767 0.126742 0.936959
Si Si5 0.690799 0.586958 0.037180
Si Si6 0.337467 0.916400 0.414275
Si Si7 0.685952 0.614817 0.413215
Si Si8 0.822482 0.879354 0.942483
O O1 0.281196 0.238292 0.517839
O O2 0.177758 0.122182 0.241958
O O3 0.282659 0.016293 0.390526
O O4 0.000000 0.000000 0.500000
O O5 0.093172 0.625696 0.252705
O O6 0.168947 0.779668 0.496552
O O7 0.000000 0.500000 0.500000
O O8 0.839583 0.612506 0.455245
O O9 0.327733 0.726958 0.999086
O O10 0.226159 0.489446 0.072395
O O11 0.000000 0.500000 0.000000
O O12 0.588839 0.126589 0.752601
O O13 0.339828 0.112410 0.972231
O O14 0.500000 0.000000 0.000000
O O15 0.693142 0.592671 0.223565
O O16 0.500000 0.500000 0.000000
O O17 0.785575 0.739387 0.986327
O O18 0.500000 0.000000 0.500000
O O19 0.500000 0.500000 0.500000
O O20 0.000000 0.000000 0.000000
#
# Coordination Sequence:
#
# PCOD9066309 Si02
#       8
#     2   2   2   2   2   2   2   2
#     4  12  26  48  70 103 147 183 235 285 352 422
#     4  11  27  47  69 105 139 180 234 286 350 418
#     4  11  25  45  73  96 136 184 231 286 344 405
#     4  11  25  46  69 101 137 176 238 285 338 416
#     4  12  26  48  70 103 144 186 240 285 347 418
#     4  11  27  46  73 100 139 185 228 290 351 413
#     4  12  28  44  74 104 146 187 230 291 351 417
#     4  12  28  44  74 104 140 190 232 290 350 413
#
# _framework density 20.001774000000001
#
# number of rings (size 3 to 8) (size 9 to 14) (size 15 to 20)
#    0.000    0.500    5.000    1.500   10.500    1.000 
#    0.000    0.000    0.000    0.000    0.000    0.000 
#    0.000    0.000    0.000    0.000    0.000    0.000 
#
# Total GULP energy -89411.522717 kJ/mol
# GULP energy per Si atom -5588.220170 kJ/mol
# Density = 1.995625 g / cm^3
# Si number density = 20.001774 Si / 1000 Ang^3
#
#
#
# Elastic Constant Matrix: (Units=GPa)
#
#
# Indices 1 2 3 4 5 6 
#
# 1 137.3645 60.7928 5.5816 -2.3878 -9.3020 22.9342
# 2 60.7928 180.8822 13.2107 -3.4356 7.8811 21.0435
# 3 5.5816 13.2107 51.3026 -1.3670 -0.3555 18.7562
# 4 -2.3878 -3.4356 -1.3670 37.0265 0.3507 3.6931
# 5 -9.3020 7.8811 -0.3555 0.3507 40.6667 4.4615
# 6 22.9342 21.0435 18.7562 3.6931 4.4615 43.3003
#
#
#
# Elastic Compliance Matrix: (Units=1/GPa)
#
#
# Indices 1 2 3 4 5 6 
#
# 1 0.009513 -0.002886 0.001463 0.000835 0.003254 -0.004676
# 2 -0.002886 0.006802 -0.000997 0.000546 -0.001860 -0.001200
# 3 0.001463 -0.000997 0.023637 0.001943 0.001913 -0.010891
# 4 0.000835 0.000546 0.001943 0.027573 0.000296 -0.003931
# 5 0.003254 -0.001860 0.001913 0.000296 0.026189 -0.004372
# 6 -0.004676 -0.001200 -0.010891 -0.003931 -0.004372 0.031658
#
#
# Mechanical properties :
#
#
# Convention : Reuss Voigt Hill
#
# Bulk Modulus (GPa) = 28.48108 58.74662 43.61385
# Shear Modulus (GPa) = 35.23174 43.52964 39.38069
#
# Velocity S-wave (km/s) = 4.20149 4.67013 4.44200
# Velocity P-wave (km/s) = 6.14873 7.64949 6.93980
#
# Compressibility (1/GPa) = 0.03511103
#
# Stress axis : x y z
#
# Youngs Moduli (GPa) = 105.11534 147.00914 42.30704
#
# Poissons Ratio (x) = 0.42428 -0.06188
# Poissons Ratio (y) = 0.30337 0.04219
# Poissons Ratio (z) = -0.15374 0.14660
#
# Static dielectric constant tensor:
#      x y z
#    x 1.626040 -0.030910 -0.013090 
#    y -0.030910 1.752820 0.010000 
#    z -0.013090 0.010000 1.699360 
# 
# From -- ./inp_files/188468.got.cif
#   From: 2010.05.17/outbox.cif.g08.bks.cpg/sg2_95_cif.got.tgz:188468.got - 2010.06.03 11:33:40.
