data_PCOD9066185
_publ_section_title
;
Structure prediction by ZEFSAII (Michael W. Deem and Ramdas Pophale) SiO2 
 PCOD9066185
Probable space group: P -1
;
_chemical_formula_sum "Si O2"
_cell_formula_units_Z 16
_cell_length_a 12.042514
_cell_length_b 8.934186
_cell_length_c 19.990147
_cell_angle_alpha 149.486589
_cell_angle_beta 139.145468
_cell_angle_gamma 50.408262
_cell_volume 713.669755
_symmetry_space_group_name_H-M "P -1"
_symmetry_group_IT_number 2
_symmetry_cell_setting 'triclinic'
loop_
_space_group_symop_operation_xyz
x,y,z
-x,-y,-z
loop_
_atom_site_type_symbol
_atom_site_label
_atom_site_fract_x
_atom_site_fract_y
_atom_site_fract_z
Si Si1 0.606380 0.635445 0.161323
Si Si2 0.459624 0.657263 0.837130
Si Si3 0.832690 0.444318 0.445587
Si Si4 0.287434 0.593332 0.363039
Si Si5 0.410380 0.106061 0.326218
Si Si6 0.107450 0.956358 0.214852
Si Si7 0.058110 0.124805 0.645330
Si Si8 0.205129 0.390026 0.107808
O O1 0.593020 0.480259 0.168111
O O2 0.794898 0.642011 0.219771
O O3 0.525459 0.949501 0.263161
O O4 0.500000 0.500000 0.000000
O O5 0.321828 0.582798 0.687810
O O6 0.638120 0.568388 0.854432
O O7 0.500000 0.000000 0.000000
O O8 0.839946 0.725638 0.607207
O O9 0.000000 0.500000 0.500000
O O10 0.855606 0.134240 0.374002
O O11 0.327766 0.393735 0.368457
O O12 0.453139 0.815915 0.522701
O O13 0.273314 0.388030 0.213021
O O14 0.110343 0.752297 0.351073
O O15 0.248395 0.916066 0.206066
O O16 0.111875 0.698192 0.173146
O O17 0.919991 0.890605 0.073683
O O18 0.000000 0.000000 0.500000
#
# Coordination Sequence:
#
# PCOD9066185 Si02
#       8
#     2   2   2   2   2   2   2   2
#     4  12  28  47  75 106 149 188 244 302 368 436
#     4  12  27  48  73 107 145 196 244 302 367 437
#     4  12  26  44  75 108 147 192 248 298 366 435
#     4  11  26  45  76 103 145 187 242 297 363 436
#     4  11  25  48  71 107 139 192 240 294 366 436
#     4  11  25  45  70 105 144 189 240 299 357 437
#     4  12  25  47  73 109 148 195 243 301 359 436
#     4  11  26  45  72 104 147 188 243 300 364 426
#
# _framework density 22.419333999999999
#
# number of rings (size 3 to 8) (size 9 to 14) (size 15 to 20)
#    0.000    0.500    2.500    4.500    8.750    3.500 
#    0.000    0.000    0.000    0.000    0.000    0.000 
#    0.000    0.000    0.000    0.000    0.000    0.000 
#
# Total GULP energy -89381.938004 kJ/mol
# GULP energy per Si atom -5586.371125 kJ/mol
# Density = 2.236831 g / cm^3
# Si number density = 22.419334 Si / 1000 Ang^3
#
#
#
# Elastic Constant Matrix: (Units=GPa)
#
#
# Indices 1 2 3 4 5 6 
#
# 1 88.6555 39.3681 26.4600 -13.1611 16.1520 11.6476
# 2 39.3681 103.9331 59.2016 -11.5766 1.0531 6.6519
# 3 26.4600 59.2016 132.4864 -33.0364 5.7771 7.6765
# 4 -13.1611 -11.5766 -33.0364 40.7039 -5.8564 -3.8373
# 5 16.1520 1.0531 5.7771 -5.8564 46.4059 -2.3390
# 6 11.6476 6.6519 7.6765 -3.8373 -2.3390 30.4015
#
#
#
# Elastic Compliance Matrix: (Units=1/GPa)
#
#
# Indices 1 2 3 4 5 6 
#
# 1 0.015593 -0.005551 0.000554 0.002684 -0.005282 -0.004967
# 2 -0.005551 0.015003 -0.006276 -0.002291 0.002099 0.000301
# 3 0.000554 -0.006276 0.012386 0.008270 -0.000598 -0.000969
# 4 0.002684 -0.002291 0.008270 0.031962 0.002202 0.001588
# 5 -0.005282 0.002099 -0.000598 0.002202 0.023885 0.003831
# 6 -0.004967 0.000301 -0.000969 0.001588 0.003831 0.035470
#
#
# Mechanical properties :
#
#
# Convention : Reuss Voigt Hill
#
# Bulk Modulus (GPa) = 48.93448 63.90381 56.41914
# Shear Modulus (GPa) = 30.55151 36.83861 33.69506
#
# Velocity S-wave (km/s) = 3.69552 4.05799 3.88099
# Velocity P-wave (km/s) = 6.33115 7.10789 6.73074
#
# Compressibility (1/GPa) = 0.02043549
#
# Stress axis : x y z
#
# Youngs Moduli (GPa) = 64.13246 66.65150 80.73657
#
# Poissons Ratio (x) = 0.37001 -0.04472
# Poissons Ratio (y) = 0.35602 0.50669
# Poissons Ratio (z) = -0.03552 0.41829
#
# Static dielectric constant tensor:
#      x y z
#    x 2.152340 -0.050370 -0.095600 
#    y -0.050370 1.930310 0.080440 
#    z -0.095600 0.080440 1.842600 
# 
# From -- ./inp_files/594318.got.cif
#   From: 2010.05.17/outbox.cif.g08.bks.cpg/sg2_298_cif.got.tgz:594318.got - 2010.06.03 11:33:40.
