data_PCOD9066226
_publ_section_title
;
Structure prediction by ZEFSAII (Michael W. Deem and Ramdas Pophale) SiO2 
 PCOD9066226
Probable space group: P -1
;
_chemical_formula_sum "Si O2"
_cell_formula_units_Z 16
_cell_length_a 11.585821
_cell_length_b 9.152163
_cell_length_c 14.578397
_cell_angle_alpha 106.984445
_cell_angle_beta 27.983199
_cell_angle_gamma 100.832619
_cell_volume 685.188769
_symmetry_space_group_name_H-M "P -1"
_symmetry_group_IT_number 2
_symmetry_cell_setting 'triclinic'
loop_
_space_group_symop_operation_xyz
x,y,z
-x,-y,-z
loop_
_atom_site_type_symbol
_atom_site_label
_atom_site_fract_x
_atom_site_fract_y
_atom_site_fract_z
Si Si1 0.520343 0.910747 0.728378
Si Si2 0.549201 0.430216 0.852044
Si Si3 0.000069 0.356604 0.213136
Si Si4 0.061969 0.030321 0.196026
Si Si5 0.392928 0.140342 0.536048
Si Si6 0.898669 0.124311 0.517743
Si Si7 0.249876 0.488223 0.764522
Si Si8 0.320359 0.415693 0.392387
O O1 0.443260 0.867825 0.672673
O O2 0.707584 0.761511 0.604689
O O3 0.647740 0.060721 0.650510
O O4 0.311590 0.949271 0.958132
O O5 0.788873 0.295506 0.657856
O O6 0.609364 0.549161 0.753898
O O7 0.500000 0.500000 0.000000
O O8 0.290232 0.369507 0.995596
O O9 0.833733 0.426493 0.256723
O O10 0.905199 0.463211 0.386893
O O11 0.967897 0.181193 0.227285
O O12 0.079067 0.101016 0.298824
O O13 0.879629 0.902284 0.305528
O O14 0.354830 0.308892 0.637519
O O15 0.500000 0.000000 0.500000
O O16 0.000000 0.000000 0.500000
O O17 0.448078 0.557687 0.700266
O O18 0.000000 0.500000 0.000000
#
# Coordination Sequence:
#
# PCOD9066226 Si02
#       8
#     2   2   2   2   2   2   2   2
#     4  11  26  45  68 103 138 184 230 282 351 421
#     4  12  29  48  74 105 140 185 239 300 355 416
#     4  12  25  47  72 104 145 185 237 287 354 424
#     4  11  25  45  71  99 142 184 229 286 351 414
#     4  11  26  42  65 103 144 182 232 281 337 415
#     4  11  27  49  72 101 140 181 237 299 351 418
#     4  12  25  44  74 104 148 193 231 291 349 419
#     4  12  26  47  71 105 147 188 239 286 353 421
#
# _framework density 23.351229
#
# number of rings (size 3 to 8) (size 9 to 14) (size 15 to 20)
#    0.000    0.500    5.000    1.875    8.750    2.500 
#    0.000    0.000    0.000    0.000    0.000    0.000 
#    0.000    0.000    0.000    0.000    0.000    0.000 
#
# Total GULP energy -89540.946562 kJ/mol
# GULP energy per Si atom -5596.309160 kJ/mol
# Density = 2.329808 g / cm^3
# Si number density = 23.351229 Si / 1000 Ang^3
#
#
#
# Elastic Constant Matrix: (Units=GPa)
#
#
# Indices 1 2 3 4 5 6 
#
# 1 98.7401 33.6730 26.2702 13.7075 24.2765 -28.6614
# 2 33.6730 112.9058 10.1684 20.1961 13.7608 -16.4726
# 3 26.2702 10.1684 126.0510 7.8603 26.2792 -3.4996
# 4 13.7075 20.1961 7.8603 40.6885 -4.2009 1.4288
# 5 24.2765 13.7608 26.2792 -4.2009 44.1132 -5.9172
# 6 -28.6614 -16.4726 -3.4996 1.4288 -5.9172 43.0004
#
#
#
# Elastic Compliance Matrix: (Units=1/GPa)
#
#
# Indices 1 2 3 4 5 6 
#
# 1 0.016140 -0.001514 -0.001185 -0.005504 -0.006980 0.009304
# 2 -0.001514 0.011057 0.000479 -0.005489 -0.003017 0.003033
# 3 -0.001185 0.000479 0.009382 -0.002187 -0.005363 -0.000508
# 4 -0.005504 -0.005489 -0.002187 0.030628 0.008177 -0.005842
# 5 -0.006980 -0.003017 -0.005363 0.008177 0.031126 -0.002234
# 6 0.009304 0.003033 -0.000508 -0.005842 -0.002234 0.030464
#
#
# Mechanical properties :
#
#
# Convention : Reuss Voigt Hill
#
# Bulk Modulus (GPa) = 31.11403 53.10222 42.10812
# Shear Modulus (GPa) = 34.73427 43.39943 39.06685
#
# Velocity S-wave (km/s) = 3.86096 4.31577 4.09468
# Velocity P-wave (km/s) = 5.76449 6.90105 6.35821
#
# Compressibility (1/GPa) = 0.03213984
#
# Stress axis : x y z
#
# Youngs Moduli (GPa) = 61.95702 90.43693 106.58832
#
# Poissons Ratio (x) = 0.13694 0.12628
# Poissons Ratio (y) = 0.09381 -0.05107
# Poissons Ratio (z) = 0.07341 -0.04333
#
# Static dielectric constant tensor:
#      x y z
#    x 1.990120 0.097010 -0.013520 
#    y 0.097010 1.899280 -0.019320 
#    z -0.013520 -0.019320 1.864050 
# 
# From -- ./inp_files/188022.got.cif
#   From: 2010.05.17/outbox.cif.g08.bks.cpg/sg2_95_cif.got.tgz:188022.got - 2010.06.03 11:33:40.
