data_PCOD9066393
_publ_section_title
;
Structure prediction by ZEFSAII (Michael W. Deem and Ramdas Pophale) SiO2 
 PCOD9066393
Probable space group: P -1
;
_chemical_formula_sum "Si O2"
_cell_formula_units_Z 12
_cell_length_a 8.852556
_cell_length_b 9.754920
_cell_length_c 8.794155
_cell_angle_alpha 45.689816
_cell_angle_beta 84.281754
_cell_angle_gamma 106.677834
_cell_volume 468.018605
_symmetry_space_group_name_H-M "P -1"
_symmetry_group_IT_number 2
_symmetry_cell_setting 'triclinic'
loop_
_space_group_symop_operation_xyz
x,y,z
-x,-y,-z
loop_
_atom_site_type_symbol
_atom_site_label
_atom_site_fract_x
_atom_site_fract_y
_atom_site_fract_z
Si Si1 0.316245 0.975750 0.069034
Si Si2 0.842584 0.330159 0.957276
Si Si3 0.152181 0.039035 0.570585
Si Si4 0.463788 0.692134 0.798789
Si Si5 0.794913 0.352325 0.412342
Si Si6 0.828765 0.771844 0.252777
O O1 0.259979 0.874652 0.319111
O O2 0.193714 0.784030 0.113512
O O3 0.500000 0.000000 0.000000
O O4 0.317527 0.197396 0.847622
O O5 0.661365 0.297789 0.065942
O O6 0.900833 0.189135 0.163827
O O7 0.015157 0.565966 0.743018
O O8 0.340531 0.117722 0.412931
O O9 0.181915 0.203944 0.583058
O O10 0.000000 0.000000 0.500000
O O11 0.345403 0.660385 0.686191
O O12 0.500000 0.500000 0.000000
O O13 0.816178 0.544987 0.378008
O O14 0.000000 0.000000 0.000000
#
# Coordination Sequence:
#
# PCOD9066393 Si02
#       6
#     2   2   2   2   2   2
#     4  11  26  44  74 109 146 189 242 308 362 435
#     4  11  25  49  68 107 145 192 246 294 368 435
#     4  11  25  48  74 106 148 193 238 304 366 438
#     4  12  29  45  71 108 146 194 243 300 368 437
#     4  12  25  50  76 106 149 193 243 309 361 436
#     4  11  25  45  76 109 141 189 251 294 372 430
#
# _framework density 25.640008000000002
#
# number of rings (size 3 to 8) (size 9 to 14) (size 15 to 20)
#    0.000    0.667    3.333    4.500    4.667    2.667 
#    0.000    0.000    0.000    0.000    0.000    0.000 
#    0.000    0.000    0.000    0.000    0.000    0.000 
#
# Total GULP energy -67215.382180 kJ/mol
# GULP energy per Si atom -5601.281848 kJ/mol
# Density = 2.558165 g / cm^3
# Si number density = 25.640008 Si / 1000 Ang^3
#
#
#
# Elastic Constant Matrix: (Units=GPa)
#
#
# Indices 1 2 3 4 5 6 
#
# 1 160.8843 34.9250 51.1247 12.4985 -4.2324 10.8529
# 2 34.9250 136.0025 25.0042 35.0587 0.2437 -13.9323
# 3 51.1247 25.0042 140.8460 22.4044 2.6298 17.2183
# 4 12.4985 35.0587 22.4044 26.1728 -0.3651 -0.9260
# 5 -4.2324 0.2437 2.6298 -0.3651 65.7194 -4.9059
# 6 10.8529 -13.9323 17.2183 -0.9260 -4.9059 41.2791
#
#
#
# Elastic Compliance Matrix: (Units=1/GPa)
#
#
# Indices 1 2 3 4 5 6 
#
# 1 0.007404 -0.001865 -0.002321 0.000901 0.000467 -0.001532
# 2 -0.001865 0.012217 0.000523 -0.015779 0.000028 0.004045
# 3 -0.002321 0.000523 0.009546 -0.007898 -0.000836 -0.003472
# 4 0.000901 -0.015779 -0.007898 0.065659 0.000745 -0.000707
# 5 0.000467 0.000028 -0.000836 0.000745 0.015440 0.002087
# 6 -0.001532 0.004045 -0.003472 -0.000707 0.002087 0.027674
#
#
# Mechanical properties :
#
#
# Convention : Reuss Voigt Hill
#
# Bulk Modulus (GPa) = 45.78558 73.31561 59.55059
# Shear Modulus (GPa) = 32.77707 48.41286 40.59497
#
# Velocity S-wave (km/s) = 3.57929 4.35003 3.98334
# Velocity P-wave (km/s) = 5.91419 7.34075 6.66574
#
# Compressibility (1/GPa) = 0.02184094
#
# Stress axis : x y z
#
# Youngs Moduli (GPa) = 135.06871 81.85125 104.75520
#
# Poissons Ratio (x) = 0.15262 0.24316
# Poissons Ratio (y) = 0.25185 -0.05477
# Poissons Ratio (z) = 0.31352 -0.04279
#
# Static dielectric constant tensor:
#      x y z
#    x 2.644060 0.271750 0.498830 
#    y 0.271750 2.202770 0.202140 
#    z 0.498830 0.202140 2.565290 
# 
# From -- ./inp_files/183813.got.cif
#   From: 2010.05.17/outbox.cif.g08.bks.cpg/sg2_92_cif.got.tgz:183813.got - 2010.06.03 11:33:40.
