data_PCOD9066760
_publ_section_title
;
Structure prediction by ZEFSAII (Michael W. Deem and Ramdas Pophale) SiO2 
 PCOD9066760
Probable space group: P -1
;
_chemical_formula_sum "Si O2"
_cell_formula_units_Z 10
_cell_length_a 12.486626
_cell_length_b 19.752504
_cell_length_c 8.710939
_cell_angle_alpha 32.346372
_cell_angle_beta 34.855981
_cell_angle_gamma 22.460973
_cell_volume 430.751011
_symmetry_space_group_name_H-M "P -1"
_symmetry_group_IT_number 2
_symmetry_cell_setting 'triclinic'
loop_
_space_group_symop_operation_xyz
x,y,z
-x,-y,-z
loop_
_atom_site_type_symbol
_atom_site_label
_atom_site_fract_x
_atom_site_fract_y
_atom_site_fract_z
Si Si1 0.679667 0.779347 0.187622
Si Si2 0.735134 0.280456 0.693514
Si Si3 0.803310 0.058684 0.759829
Si Si4 0.825268 0.820503 0.408307
Si Si5 0.272428 0.388378 0.227990
O O1 0.519047 0.793200 0.209070
O O2 0.665241 0.696765 0.512708
O O3 0.021780 0.621632 0.069582
O O4 0.500000 0.000000 0.000000
O O5 0.500000 0.500000 0.500000
O O6 0.823736 0.149417 0.697856
O O7 0.985518 0.228103 0.581457
O O8 0.568825 0.278039 0.016289
O O9 0.000000 0.000000 0.500000
O O10 0.884973 0.882464 0.075778
O O11 0.860913 0.659384 0.620542
O O12 0.500000 0.000000 0.500000
#
# Coordination Sequence:
#
# PCOD9066760 Si02
#       5
#     2   2   2   2   2
#     4  11  25  46  75 110 149 198 247 317 381 445
#     4  12  29  47  75 111 154 201 255 312 378 451
#     4  12  27  44  75 111 153 195 253 310 379 444
#     4  12  26  48  78 108 152 201 256 310 375 455
#     4  11  26  49  76 111 152 198 259 309 377 460
#
# _framework density 23.215267999999998
#
# number of rings (size 3 to 8) (size 9 to 14) (size 15 to 20)
#    0.000    0.400    4.000    3.000    8.400    1.600 
#    0.000    5.000    0.000    0.000    0.000    0.000 
#    0.000    0.000    0.000    0.000    0.000    0.000 
#
# Total GULP energy -56045.480906 kJ/mol
# GULP energy per Si atom -5604.548091 kJ/mol
# Density = 2.316243 g / cm^3
# Si number density = 23.215268 Si / 1000 Ang^3
#
#
#
# Elastic Constant Matrix: (Units=GPa)
#
#
# Indices 1 2 3 4 5 6 
#
# 1 138.2454 43.4962 7.7407 4.9501 -12.1617 -34.9409
# 2 43.4962 121.4164 23.3261 -10.8786 -1.7927 -16.5191
# 3 7.7407 23.3261 64.5529 5.9517 0.4243 -2.0960
# 4 4.9501 -10.8786 5.9517 39.8589 7.2486 1.4845
# 5 -12.1617 -1.7927 0.4243 7.2486 38.3316 4.6218
# 6 -34.9409 -16.5191 -2.0960 1.4845 4.6218 49.4752
#
#
#
# Elastic Compliance Matrix: (Units=1/GPa)
#
#
# Indices 1 2 3 4 5 6 
#
# 1 0.010024 -0.003072 0.000345 -0.002875 0.002867 0.005886
# 2 -0.003072 0.010566 -0.003773 0.004029 -0.001346 0.001204
# 3 0.000345 -0.003773 0.017145 -0.003710 0.000472 -0.000222
# 4 -0.002875 0.004029 -0.003710 0.028211 -0.005880 -0.001140
# 5 0.002867 -0.001346 0.000472 -0.005880 0.028145 -0.000857
# 6 0.005886 0.001204 -0.000222 -0.001140 -0.000857 0.024876
#
#
# Mechanical properties :
#
#
# Convention : Reuss Voigt Hill
#
# Bulk Modulus (GPa) = 40.42736 52.59342 46.51039
# Shear Modulus (GPa) = 35.66055 42.17657 38.91856
#
# Velocity S-wave (km/s) = 3.92354 4.26697 4.09885
# Velocity P-wave (km/s) = 6.16259 6.85419 6.51757
#
# Compressibility (1/GPa) = 0.02473572
#
# Stress axis : x y z
#
# Youngs Moduli (GPa) = 99.76538 94.64096 58.32604
#
# Poissons Ratio (x) = 0.29070 -0.02014
# Poissons Ratio (y) = 0.30644 0.22008
# Poissons Ratio (z) = -0.03445 0.35711
#
# Static dielectric constant tensor:
#      x y z
#    x 1.836040 0.018520 0.016000 
#    y 0.018520 1.874100 0.000940 
#    z 0.016000 0.000940 1.904690 
# 
# From -- ./inp_files/29269.got.cif
#   From: 2010.05.17/outbox.cif.g08.bks.cpg/sg2_15_cif.got.tgz:29269.got - 2010.06.03 11:33:40.
