data_PCOD9066761
_publ_section_title
;
Structure prediction by ZEFSAII (Michael W. Deem and Ramdas Pophale) SiO2 
 PCOD9066761
Probable space group: P -1
;
_chemical_formula_sum "Si O2"
_cell_formula_units_Z 9
_cell_length_a 10.039278
_cell_length_b 9.428493
_cell_length_c 9.829319
_cell_angle_alpha 100.050709
_cell_angle_beta 46.988648
_cell_angle_gamma 60.049957
_cell_volume 343.252828
_symmetry_space_group_name_H-M "P -1"
_symmetry_group_IT_number 2
_symmetry_cell_setting 'triclinic'
loop_
_space_group_symop_operation_xyz
x,y,z
-x,-y,-z
loop_
_atom_site_type_symbol
_atom_site_label
_atom_site_fract_x
_atom_site_fract_y
_atom_site_fract_z
Si Si1 0.377149 0.091533 0.375239
Si Si2 0.755677 0.054825 0.761606
Si Si3 0.283646 0.459411 0.400901
Si Si4 0.975101 0.347566 0.969700
Si Si5 0.500000 0.500000 0.500000
O O1 0.446782 0.907778 0.200565
O O2 0.206349 0.342577 0.458841
O O3 0.120953 0.216075 0.697004
O O4 0.742061 0.900268 0.156541
O O5 0.969711 0.786994 0.652077
O O6 0.000000 0.000000 0.500000
O O7 0.523307 0.299562 0.072334
O O8 0.474331 0.381672 0.392597
O O9 0.000000 0.500000 0.000000
O O10 0.604476 0.533638 0.301705
#
# Coordination Sequence:
#
# PCOD9066761 Si02
#       5
#     2   2   2   2   1
#     4  11  26  48  74 111 155 196 260 307 388 450
#     4  12  28  47  76 111 153 200 256 315 385 456
#     4  12  27  46  76 110 149 207 247 319 377 458
#     4  11  25  46  75 111 149 203 245 319 370 453
#     4  12  26  48  78 108 156 190 268 296 394 442
#
# _framework density 26.219740999999999
#
# number of rings (size 3 to 8) (size 9 to 14) (size 15 to 20)
#    0.000    0.444    2.222    4.667    6.222    3.556 
#    0.000    0.000    0.000    0.000    0.000    0.000 
#    0.000    0.000    0.000    0.000    0.000    0.000 
#
# Total GULP energy -50234.373920 kJ/mol
# GULP energy per Si atom -5581.597102 kJ/mol
# Density = 2.616006 g / cm^3
# Si number density = 26.219741 Si / 1000 Ang^3
#
#
#
# Elastic Constant Matrix: (Units=GPa)
#
#
# Indices 1 2 3 4 5 6 
#
# 1 101.1369 0.0616 21.0428 2.8846 38.3053 0.9944
# 2 0.0616 105.3432 -3.4350 1.8953 -17.3730 2.7454
# 3 21.0428 -3.4350 103.3413 -21.7622 44.7854 -0.9849
# 4 2.8846 1.8953 -21.7622 43.8686 0.3508 3.5352
# 5 38.3053 -17.3730 44.7854 0.3508 41.3391 -9.4011
# 6 0.9944 2.7454 -0.9849 3.5352 -9.4011 43.1343
#
#
#
# Elastic Compliance Matrix: (Units=1/GPa)
#
#
# Indices 1 2 3 4 5 6 
#
# 1 0.022421 -0.006245 0.014565 0.007108 -0.041373 -0.009387
# 2 -0.006245 0.012732 -0.008596 -0.004915 0.021450 0.004215
# 3 0.014565 -0.008596 0.035931 0.018793 -0.059246 -0.013421
# 4 0.007108 -0.004915 0.018793 0.032834 -0.031324 -0.008940
# 5 -0.041373 0.021450 -0.059246 -0.031324 0.143277 0.032030
# 6 -0.009387 0.004215 -0.013421 -0.008940 0.032030 0.030539
#
#
# Mechanical properties :
#
#
# Convention : Reuss Voigt Hill
#
# Bulk Modulus (GPa) = 14.17809 38.35111 26.26460
# Shear Modulus (GPa) = 16.56750 45.14521 30.85635
#
# Velocity S-wave (km/s) = 2.51643 4.15396 3.43423
# Velocity P-wave (km/s) = 3.72322 6.13724 5.07583
#
# Compressibility (1/GPa) = 0.07053134
#
# Stress axis : x y z
#
# Youngs Moduli (GPa) = 44.60181 78.54089 27.83139
#
# Poissons Ratio (x) = 0.49046 -0.40535
# Poissons Ratio (y) = 0.27852 0.23924
# Poissons Ratio (z) = -0.64961 0.67514
#
# Static dielectric constant tensor:
#      x y z
#    x 2.087110 -0.142590 -0.112230 
#    y -0.142590 1.839880 0.116530 
#    z -0.112230 0.116530 2.057740 
# 
# From -- ./inp_files/16759.got.cif
#   From: 2010.05.17/outbox.cif.g08.bks.cpg/sg2_9_cif.got.tgz:16759.got - 2010.06.03 11:33:40.
