data_PCOD9066966
_publ_section_title
;
Structure prediction by ZEFSAII (Michael W. Deem and Ramdas Pophale) SiO2 
 PCOD9066966
Probable space group: P -1
;
_chemical_formula_sum "Si O2"
_cell_formula_units_Z 16
_cell_length_a 8.446091
_cell_length_b 20.515925
_cell_length_c 8.957771
_cell_angle_alpha 56.734799
_cell_angle_beta 86.333487
_cell_angle_gamma 131.993344
_cell_volume 695.005285
_symmetry_space_group_name_H-M "P -1"
_symmetry_group_IT_number 2
_symmetry_cell_setting 'triclinic'
loop_
_space_group_symop_operation_xyz
x,y,z
-x,-y,-z
loop_
_atom_site_type_symbol
_atom_site_label
_atom_site_fract_x
_atom_site_fract_y
_atom_site_fract_z
Si Si1 0.195511 0.598896 0.511564
Si Si2 0.434021 0.447896 0.739917
Si Si3 0.876875 0.843622 0.852655
Si Si4 0.105033 0.130740 0.860211
Si Si5 0.371440 0.089005 0.284973
Si Si6 0.990457 0.332568 0.389861
Si Si7 0.694963 0.056537 0.776384
Si Si8 0.989306 0.379871 0.009201
O O1 0.540959 0.720002 0.327563
O O2 0.000000 0.500000 0.500000
O O3 0.169669 0.677111 0.470120
O O4 0.059799 0.489933 0.786940
O O5 0.500000 0.500000 0.500000
O O6 0.725385 0.582299 0.649830
O O7 0.347797 0.321663 0.928470
O O8 0.171838 0.391134 0.892381
O O9 0.728920 0.868163 0.825089
O O10 0.030034 0.899469 0.934878
O O11 0.105367 0.939720 0.581721
O O12 0.981288 0.131182 0.733416
O O13 0.000000 0.000000 0.000000
O O14 0.644981 0.218867 0.212351
O O15 0.453159 0.064870 0.176316
O O16 0.796361 0.178961 0.543313
O O17 0.076866 0.414084 0.133178
O O18 0.500000 0.000000 0.000000
#
# Coordination Sequence:
#
# PCOD9066966 Si02
#       8
#     2   2   2   2   2   2   2   2
#     4  12  27  48  79 110 149 199 252 311 376 449
#     4  12  26  47  74 107 143 197 249 311 379 444
#     4  11  25  47  74 104 148 186 247 305 375 448
#     4  12  25  46  75 108 145 192 249 305 368 442
#     4  11  27  47  72 109 145 201 239 309 380 444
#     4  12  27  46  71 108 148 195 247 310 376 448
#     4  12  28  46  72 109 151 191 254 308 373 448
#     4  12  27  46  73 105 153 193 251 303 378 453
#
# _framework density 23.021408000000001
#
# number of rings (size 3 to 8) (size 9 to 14) (size 15 to 20)
#    0.000    0.250    1.250    7.500    8.750    2.000 
#    0.000    0.000    0.000    0.000    0.000    0.000 
#    0.000    0.000    0.000    0.000    0.000    0.000 
#
# Total GULP energy -89643.384256 kJ/mol
# GULP energy per Si atom -5602.711516 kJ/mol
# Density = 2.296901 g / cm^3
# Si number density = 23.021408 Si / 1000 Ang^3
#
#
#
# Elastic Constant Matrix: (Units=GPa)
#
#
# Indices 1 2 3 4 5 6 
#
# 1 65.0358 14.8531 22.7413 -9.4141 12.0670 -7.0706
# 2 14.8531 82.8683 21.2456 2.5550 8.2735 4.0075
# 3 22.7413 21.2456 102.9099 0.2386 20.2268 0.2161
# 4 -9.4141 2.5550 0.2386 40.4130 0.5676 4.8108
# 5 12.0670 8.2735 20.2268 0.5676 40.0145 0.8445
# 6 -7.0706 4.0075 0.2161 4.8108 0.8445 55.2017
#
#
#
# Elastic Compliance Matrix: (Units=1/GPa)
#
#
# Indices 1 2 3 4 5 6 
#
# 1 0.018489 -0.002448 -0.002862 0.004264 -0.003731 0.002243
# 2 -0.002448 0.013205 -0.001995 -0.001244 -0.000942 -0.001142
# 3 -0.002862 -0.001995 0.011670 -0.000527 -0.004613 -0.000151
# 4 0.004264 -0.001244 -0.000527 0.026027 -0.001098 -0.001613
# 5 -0.003731 -0.000942 -0.004613 -0.001098 0.028674 -0.000734
# 6 0.002243 -0.001142 -0.000151 -0.001613 -0.000734 0.018638
#
#
# Mechanical properties :
#
#
# Convention : Reuss Voigt Hill
#
# Bulk Modulus (GPa) = 34.77620 40.94377 37.85999
# Shear Modulus (GPa) = 35.48717 39.92410 37.70564
#
# Velocity S-wave (km/s) = 3.93044 4.16891 4.05143
# Velocity P-wave (km/s) = 5.97801 6.40287 6.19408
#
# Compressibility (1/GPa) = 0.02875529
#
# Stress axis : x y z
#
# Youngs Moduli (GPa) = 54.08585 75.72825 85.69254
#
# Poissons Ratio (x) = 0.18536 0.24523
# Poissons Ratio (y) = 0.13239 0.17094
# Poissons Ratio (z) = 0.15478 0.15106
#
# Static dielectric constant tensor:
#      x y z
#    x 1.869740 -0.023620 -0.006790 
#    y -0.023620 1.828000 -0.011710 
#    z -0.006790 -0.011710 1.866570 
# 
# From -- ./inp_files/223419.got.cif
#   From: 2010.05.17/outbox.cif.g08.bks.cpg/sg2_112_cif.got.tgz:223419.got - 2010.06.03 11:33:40.
