data_PCOD9066972
_publ_section_title
;
Structure prediction by ZEFSAII (Michael W. Deem and Ramdas Pophale) SiO2 
 PCOD9066972
Probable space group: P -1
;
_chemical_formula_sum "Si O2"
_cell_formula_units_Z 14
_cell_length_a 8.834926
_cell_length_b 20.621921
_cell_length_c 9.379493
_cell_angle_alpha 27.872291
_cell_angle_beta 120.968332
_cell_angle_gamma 130.570549
_cell_volume 598.019640
_symmetry_space_group_name_H-M "P -1"
_symmetry_group_IT_number 2
_symmetry_cell_setting 'triclinic'
loop_
_space_group_symop_operation_xyz
x,y,z
-x,-y,-z
loop_
_atom_site_type_symbol
_atom_site_label
_atom_site_fract_x
_atom_site_fract_y
_atom_site_fract_z
Si Si1 0.923601 0.614385 0.683744
Si Si2 0.942162 0.637483 0.167869
Si Si3 0.199109 0.799500 0.215613
Si Si4 0.617651 0.901796 0.781939
Si Si5 0.033423 0.187094 0.437070
Si Si6 0.473308 0.412645 0.805770
Si Si7 0.393657 0.140819 0.797587
O O1 0.024164 0.773535 0.514625
O O2 0.684818 0.523428 0.768705
O O3 0.005343 0.666596 0.463502
O O4 0.000000 0.500000 0.000000
O O5 0.720016 0.599711 0.183977
O O6 0.000000 0.500000 0.500000
O O7 0.105632 0.796403 0.022118
O O8 0.960917 0.685460 0.919201
O O9 0.380942 0.763075 0.343178
O O10 0.298419 0.960816 0.040670
O O11 0.500000 0.000000 0.500000
O O12 0.543790 0.754223 0.925411
O O13 0.596536 0.854190 0.033622
O O14 0.856075 0.013028 0.652151
O O15 0.246922 0.196795 0.547322
O O16 0.500000 0.500000 0.500000
#
# Coordination Sequence:
#
# PCOD9066972 Si02
#       7
#     2   2   2   2   2   2   2
#     4  12  26  47  72 108 149 198 249 307 382 457
#     4  12  29  50  74 111 155 200 259 319 383 455
#     4  11  25  47  74 105 151 196 249 314 375 448
#     4  12  26  48  81 117 153 201 255 318 386 462
#     4  12  27  47  79 107 149 199 257 315 379 449
#     4  12  28  47  77 109 158 204 250 312 388 453
#     4  11  26  45  77 109 150 192 256 319 373 449
#
# _framework density 23.410602000000001
#
# number of rings (size 3 to 8) (size 9 to 14) (size 15 to 20)
#    0.000    0.286    2.857    4.714    8.000    4.000 
#    0.000    0.000    0.000    0.000    0.000    0.000 
#    0.000    0.000    0.000    0.000    0.000    0.000 
#
# Total GULP energy -78327.923830 kJ/mol
# GULP energy per Si atom -5594.851702 kJ/mol
# Density = 2.335732 g / cm^3
# Si number density = 23.410602 Si / 1000 Ang^3
#
#
#
# Elastic Constant Matrix: (Units=GPa)
#
#
# Indices 1 2 3 4 5 6 
#
# 1 123.9210 30.7855 36.5811 1.7490 -1.2736 12.6185
# 2 30.7855 85.4373 20.2459 0.7641 -8.2126 5.7991
# 3 36.5811 20.2459 71.0851 9.4371 10.1254 -2.6932
# 4 1.7490 0.7641 9.4371 42.8960 2.3264 3.1326
# 5 -1.2736 -8.2126 10.1254 2.3264 28.7180 0.3958
# 6 12.6185 5.7991 -2.6932 3.1326 0.3958 42.9967
#
#
#
# Elastic Compliance Matrix: (Units=1/GPa)
#
#
# Indices 1 2 3 4 5 6 
#
# 1 0.010491 -0.002163 -0.005263 0.000912 0.001672 -0.003198
# 2 -0.002163 0.013969 -0.003730 0.000493 0.005196 -0.001567
# 3 -0.005263 -0.003730 0.019623 -0.003870 -0.007955 0.003632
# 4 0.000912 0.000493 -0.003870 0.024310 -0.000391 -0.002344
# 5 0.001672 0.005196 -0.007955 -0.000391 0.039246 -0.002023
# 6 -0.003198 -0.001567 0.003632 -0.002344 -0.002023 0.024824
#
#
# Mechanical properties :
#
#
# Convention : Reuss Voigt Hill
#
# Bulk Modulus (GPa) = 45.93458 50.62985 48.28222
# Shear Modulus (GPa) = 30.85794 35.77752 33.31773
#
# Velocity S-wave (km/s) = 3.63453 3.91354 3.77661
# Velocity P-wave (km/s) = 6.10548 6.48806 6.29968
#
# Compressibility (1/GPa) = 0.02177009
#
# Stress axis : x y z
#
# Youngs Moduli (GPa) = 95.32277 71.58561 50.96077
#
# Poissons Ratio (x) = 0.15486 0.26820
# Poissons Ratio (y) = 0.20621 0.19010
# Poissons Ratio (z) = 0.50167 0.26703
#
# Static dielectric constant tensor:
#      x y z
#    x 1.830930 -0.061780 0.032000 
#    y -0.061780 1.818770 -0.021840 
#    z 0.032000 -0.021840 1.837770 
# 
# From -- ./inp_files/222905.got.cif
#   From: 2010.05.17/outbox.cif.g08.bks.cpg/sg2_112_cif.got.tgz:222905.got - 2010.06.03 11:33:40.
