data_PCOD9066320
_publ_section_title
;
Structure prediction by ZEFSAII (Michael W. Deem and Ramdas Pophale) SiO2 
 PCOD9066320
Probable space group: P -1
;
_chemical_formula_sum "Si O2"
_cell_formula_units_Z 12
_cell_length_a 8.706620
_cell_length_b 9.553747
_cell_length_c 14.786769
_cell_angle_alpha 74.816500
_cell_angle_beta 32.498282
_cell_angle_gamma 62.646351
_cell_volume 566.243317
_symmetry_space_group_name_H-M "P -1"
_symmetry_group_IT_number 2
_symmetry_cell_setting 'triclinic'
loop_
_space_group_symop_operation_xyz
x,y,z
-x,-y,-z
loop_
_atom_site_type_symbol
_atom_site_label
_atom_site_fract_x
_atom_site_fract_y
_atom_site_fract_z
Si Si1 0.806114 0.216803 0.652975
Si Si2 0.745338 0.430853 0.152183
Si Si3 0.188829 0.829986 0.987618
Si Si4 0.657479 0.325453 0.404032
Si Si5 0.803188 0.828410 0.355477
Si Si6 0.767226 0.901766 0.712182
O O1 0.586322 0.402579 0.703082
O O2 0.937466 0.212522 0.688076
O O3 0.098395 0.140029 0.449594
O O4 0.639269 0.096648 0.753319
O O5 0.804437 0.333055 0.232896
O O6 0.738739 0.318398 0.092144
O O7 0.000000 0.500000 0.000000
O O8 0.966043 0.826686 0.179925
O O9 0.507493 0.836185 0.865605
O O10 0.000000 0.000000 0.000000
O O11 0.500000 0.500000 0.500000
O O12 0.356200 0.290842 0.545200
O O13 0.930511 0.190522 0.354885
O O14 0.500000 0.000000 0.500000
#
# Coordination Sequence:
#
# PCOD9066320 Si02
#       6
#     2   2   2   2   2   2
#     4  11  25  45  74 102 143 187 236 286 353 417
#     4  12  27  46  72 106 147 183 236 292 350 415
#     4  12  28  46  72 105 145 183 238 293 352 415
#     4  12  25  45  74 105 143 187 234 286 352 416
#     4  12  26  48  72 102 139 190 234 289 354 424
#     4  11  25  46  75 106 140 185 236 290 350 416
#
# _framework density 21.192304
#
# number of rings (size 3 to 8) (size 9 to 14) (size 15 to 20)
#    0.000    0.333    3.333    5.000    7.000    2.667 
#    0.000    0.000    0.000    0.000    0.000    0.000 
#    0.000    0.000    0.000    0.000    0.000    0.000 
#
# Total GULP energy -67181.693604 kJ/mol
# GULP energy per Si atom -5598.474467 kJ/mol
# Density = 2.114407 g / cm^3
# Si number density = 21.192304 Si / 1000 Ang^3
#
#
#
# Elastic Constant Matrix: (Units=GPa)
#
#
# Indices 1 2 3 4 5 6 
#
# 1 90.7019 29.4678 28.0114 -11.2780 21.2752 15.6752
# 2 29.4678 107.2751 21.1772 -3.2199 11.6510 31.8695
# 3 28.0114 21.1772 98.0160 -31.9290 20.1176 23.2399
# 4 -11.2780 -3.2199 -31.9290 45.4565 -2.4295 -2.7480
# 5 21.2752 11.6510 20.1176 -2.4295 38.6359 -10.3612
# 6 15.6752 31.8695 23.2399 -2.7480 -10.3612 51.7906
#
#
#
# Elastic Compliance Matrix: (Units=1/GPa)
#
#
# Indices 1 2 3 4 5 6 
#
# 1 0.014858 -0.001459 0.000117 0.002860 -0.009047 -0.005310
# 2 -0.001459 0.012926 0.001295 0.000568 -0.006230 -0.009310
# 3 0.000117 0.001295 0.019159 0.012215 -0.012699 -0.011322
# 4 0.002860 0.000568 0.012215 0.030499 -0.007979 -0.006674
# 5 -0.009047 -0.006230 -0.012699 -0.007979 0.044414 0.020733
# 6 -0.005310 -0.009310 -0.011322 -0.006674 0.020733 0.035519
#
#
# Mechanical properties :
#
#
# Convention : Reuss Voigt Hill
#
# Bulk Modulus (GPa) = 21.34447 50.36729 35.85588
# Shear Modulus (GPa) = 28.88724 41.66571 35.27648
#
# Velocity S-wave (km/s) = 3.69602 4.43886 4.08436
# Velocity P-wave (km/s) = 5.32051 7.07740 6.26089
#
# Compressibility (1/GPa) = 0.04685054
#
# Stress axis : x y z
#
# Youngs Moduli (GPa) = 67.30193 77.36052 52.19380
#
# Poissons Ratio (x) = 0.11284 -0.00608
# Poissons Ratio (y) = 0.09817 -0.06760
# Poissons Ratio (z) = -0.00784 -0.10020
#
# Static dielectric constant tensor:
#      x y z
#    x 2.018360 -0.054460 -0.096910 
#    y -0.054460 1.727030 0.023450 
#    z -0.096910 0.023450 1.765970 
# 
# From -- ./inp_files/148155.got.cif
#   From: 2010.05.17/outbox.cif.g08.bks.cpg/sg2_75_cif.got.tgz:148155.got - 2010.06.03 11:33:40.
