data_PCOD9066841
_publ_section_title
;
Structure prediction by ZEFSAII (Michael W. Deem and Ramdas Pophale) SiO2 
 PCOD9066841
Probable space group: P -1
;
_chemical_formula_sum "Si O2"
_cell_formula_units_Z 11
_cell_length_a 7.911995
_cell_length_b 7.018691
_cell_length_c 10.417927
_cell_angle_alpha 131.839739
_cell_angle_beta 63.538640
_cell_angle_gamma 98.885403
_cell_volume 376.910964
_symmetry_space_group_name_H-M "P -1"
_symmetry_group_IT_number 2
_symmetry_cell_setting 'triclinic'
loop_
_space_group_symop_operation_xyz
x,y,z
-x,-y,-z
loop_
_atom_site_type_symbol
_atom_site_label
_atom_site_fract_x
_atom_site_fract_y
_atom_site_fract_z
Si Si1 0.556699 0.628708 0.784063
Si Si2 0.493486 0.094071 0.826901
Si Si3 0.194190 0.499498 0.761021
Si Si4 0.881072 0.284112 0.395615
Si Si5 0.500000 0.000000 0.500000
Si Si6 0.904900 0.179100 0.734022
O O1 0.330664 0.627595 0.863701
O O2 0.681973 0.340907 0.575044
O O3 0.572678 0.810491 0.738470
O O4 0.624351 0.752142 0.943558
O O5 0.400574 0.098562 0.721969
O O6 0.678264 0.224125 0.809698
O O7 0.174288 0.659965 0.707199
O O8 0.329042 0.208281 0.574332
O O9 0.987513 0.439666 0.832814
O O10 0.000000 0.500000 0.500000
O O11 0.013406 0.007620 0.258349
O O12 0.000000 0.000000 0.500000
#
# Coordination Sequence:
#
# PCOD9066841 Si02
#       6
#     2   2   2   2   1   2
#     4  11  25  47  68 111 142 183 239 298 355 413
#     4  11  26  46  74 103 146 185 236 298 355 422
#     4  12  26  40  75 105 139 190 242 286 352 429
#     4  12  22  44  76 103 141 195 234 287 358 427
#     4  12  22  46  72 106 134 194 238 284 352 436
#     4  12  23  45  71 106 140 191 239 286 352 431
#
# _framework density 29.184614
#
# number of rings (size 3 to 8) (size 9 to 14) (size 15 to 20)
#    0.000    0.364    7.273    1.636    2.545    1.455 
#    0.000    2.727    0.000    1.091    0.000    0.000 
#    0.000    0.000    0.000    0.000    0.000    0.000 
#
# Total GULP energy -61564.457896 kJ/mol
# GULP energy per Si atom -5596.768900 kJ/mol
# Density = 2.911819 g / cm^3
# Si number density = 29.184614 Si / 1000 Ang^3
#
#
#
# Elastic Constant Matrix: (Units=GPa)
#
#
# Indices 1 2 3 4 5 6 
#
# 1 124.7455 23.8675 29.8771 1.4495 7.2995 2.5663
# 2 23.8675 189.5146 40.8996 -15.2076 8.7759 -47.7946
# 3 29.8771 40.8996 130.3017 -28.3281 22.9857 -27.4437
# 4 1.4495 -15.2076 -28.3281 35.8869 -17.3866 2.9554
# 5 7.2995 8.7759 22.9857 -17.3866 51.9751 -3.1789
# 6 2.5663 -47.7946 -27.4437 2.9554 -3.1789 67.8445
#
#
#
# Elastic Compliance Matrix: (Units=1/GPa)
#
#
# Indices 1 2 3 4 5 6 
#
# 1 0.009073 -0.001365 -0.002677 -0.003424 -0.001145 -0.002292
# 2 -0.001365 0.006888 -0.000395 0.002424 0.000299 0.004652
# 3 -0.002677 -0.000395 0.011204 0.007627 -0.001720 0.003942
# 4 -0.003424 0.002424 0.007627 0.039691 0.010200 0.003671
# 5 -0.001145 0.000299 -0.001720 0.010200 0.023537 0.000217
# 6 -0.002292 0.004652 0.003942 0.003671 0.000217 0.019549
#
#
# Mechanical properties :
#
#
# Convention : Reuss Voigt Hill
#
# Bulk Modulus (GPa) = 54.67051 70.42780 62.54915
# Shear Modulus (GPa) = 40.02856 54.46913 47.24885
#
# Velocity S-wave (km/s) = 3.70748 4.32483 4.02800
# Velocity P-wave (km/s) = 6.09102 7.00879 6.56596
#
# Compressibility (1/GPa) = 0.01829140
#
# Stress axis : x y z
#
# Youngs Moduli (GPa) = 110.22299 145.18591 89.25267
#
# Poissons Ratio (x) = 0.19812 0.23893
# Poissons Ratio (y) = 0.15041 0.03525
# Poissons Ratio (z) = 0.29506 0.05734
#
# Static dielectric constant tensor:
#      x y z
#    x 2.060120 -0.067540 -0.038260 
#    y -0.067540 2.063680 -0.026580 
#    z -0.038260 -0.026580 2.246650 
# 
# From -- ./inp_files/375256.got.cif
#   From: 2010.05.17/outbox.cif.g08.bks.cpg/sg2_188_cif.got.tgz:375256.got - 2010.06.03 11:33:40.
