data_PCOD9066293
_publ_section_title
;
Structure prediction by ZEFSAII (Michael W. Deem and Ramdas Pophale) SiO2 
 PCOD9066293
Probable space group: P -1
;
_chemical_formula_sum "Si O2"
_cell_formula_units_Z 14
_cell_length_a 9.466476
_cell_length_b 9.969049
_cell_length_c 11.151935
_cell_angle_alpha 120.342619
_cell_angle_beta 58.724214
_cell_angle_gamma 131.162530
_cell_volume 654.958834
_symmetry_space_group_name_H-M "P -1"
_symmetry_group_IT_number 2
_symmetry_cell_setting 'triclinic'
loop_
_space_group_symop_operation_xyz
x,y,z
-x,-y,-z
loop_
_atom_site_type_symbol
_atom_site_label
_atom_site_fract_x
_atom_site_fract_y
_atom_site_fract_z
Si Si1 0.443043 0.976947 0.152621
Si Si2 0.657446 0.500466 0.518972
Si Si3 0.842278 0.285081 0.235330
Si Si4 0.469371 0.386913 0.798924
Si Si5 0.258458 0.548479 0.076599
Si Si6 0.119774 0.075062 0.356974
Si Si7 0.906837 0.000321 0.170131
O O1 0.649652 0.109014 0.185348
O O2 0.301050 0.049026 0.273562
O O3 0.327608 0.760707 0.136769
O O4 0.500000 0.000000 0.000000
O O5 0.500000 0.500000 0.500000
O O6 0.775403 0.417014 0.373868
O O7 0.542442 0.386381 0.635081
O O8 0.802317 0.710758 0.587421
O O9 0.908160 0.188101 0.258166
O O10 0.025909 0.405343 0.119841
O O11 0.648573 0.474973 0.852840
O O12 0.309304 0.181276 0.817281
O O13 0.362357 0.500325 0.905119
O O14 0.008782 0.987294 0.240154
O O15 0.000000 0.000000 0.500000
O O16 0.000000 0.000000 0.000000
#
# Coordination Sequence:
#
# PCOD9066293 Si02
#       7
#     2   2   2   2   2   2   2
#     4  12  26  46  72 107 148 190 244 310 366 436
#     4  12  26  47  69 105 151 191 238 302 374 437
#     4  12  26  47  75 106 146 195 246 298 369 445
#     4  11  25  45  74 104 149 186 242 312 359 431
#     4  11  25  45  73 108 138 192 250 296 364 433
#     4  12  27  48  74 106 152 193 243 309 374 437
#     4  12  25  48  78 109 146 194 252 306 368 442
#
# _framework density 21.375388999999998
#
# number of rings (size 3 to 8) (size 9 to 14) (size 15 to 20)
#    0.000    0.286    4.286    4.286    2.000    4.571 
#    0.000    0.000    0.000    0.000    0.000    0.000 
#    0.000    0.000    0.000    0.000    0.000    0.000 
#
# Total GULP energy -78320.517182 kJ/mol
# GULP energy per Si atom -5594.322656 kJ/mol
# Density = 2.132674 g / cm^3
# Si number density = 21.375389 Si / 1000 Ang^3
#
#
#
# Elastic Constant Matrix: (Units=GPa)
#
#
# Indices 1 2 3 4 5 6 
#
# 1 94.0507 28.0308 33.0637 -8.7880 -5.1284 7.0675
# 2 28.0308 126.6371 25.7871 4.8104 -19.3177 6.8613
# 3 33.0637 25.7871 92.6259 -15.2461 -12.5642 -6.8549
# 4 -8.7880 4.8104 -15.2461 48.1091 -7.3380 -5.3904
# 5 -5.1284 -19.3177 -12.5642 -7.3380 37.1322 6.4270
# 6 7.0675 6.8613 -6.8549 -5.3904 6.4270 32.5795
#
#
#
# Elastic Compliance Matrix: (Units=1/GPa)
#
#
# Indices 1 2 3 4 5 6 
#
# 1 0.012991 -0.001863 -0.004188 0.000896 0.000136 -0.003186
# 2 -0.001863 0.009586 -0.001914 -0.001599 0.004308 -0.003132
# 3 -0.004188 -0.001914 0.014469 0.005056 0.003543 0.004494
# 4 0.000896 -0.001599 0.005056 0.023944 0.005011 0.004179
# 5 0.000136 0.004308 0.003543 0.005011 0.032375 -0.005749
# 6 -0.003186 -0.003132 0.004494 0.004179 -0.005749 0.034816
#
#
# Mechanical properties :
#
#
# Convention : Reuss Voigt Hill
#
# Bulk Modulus (GPa) = 47.36036 54.11966 50.74001
# Shear Modulus (GPa) = 33.07923 38.65964 35.86943
#
# Velocity S-wave (km/s) = 3.93814 4.25738 4.10087
# Velocity P-wave (km/s) = 6.54853 7.03852 6.79794
#
# Compressibility (1/GPa) = 0.02111470
#
# Stress axis : x y z
#
# Youngs Moduli (GPa) = 76.97754 104.31343 69.11118
#
# Poissons Ratio (x) = 0.19437 0.28946
# Poissons Ratio (y) = 0.14343 0.13231
# Poissons Ratio (z) = 0.32240 0.19970
#
# Static dielectric constant tensor:
#      x y z
#    x 1.817860 0.023900 0.003600 
#    y 0.023900 1.757690 0.009420 
#    z 0.003600 0.009420 1.724870 
# 
# From -- ./inp_files/156084.got.cif
#   From: 2010.05.17/outbox.cif.g08.bks.cpg/sg2_79_cif.got.tgz:156084.got - 2010.06.03 11:33:40.
