data_PCOD9066495
_publ_section_title
;
Structure prediction by ZEFSAII (Michael W. Deem and Ramdas Pophale) SiO2 
 PCOD9066495
Probable space group: P -1
;
_chemical_formula_sum "Si O2"
_cell_formula_units_Z 13
_cell_length_a 13.189170
_cell_length_b 8.385332
_cell_length_c 10.142529
_cell_angle_alpha 108.833977
_cell_angle_beta 33.418849
_cell_angle_gamma 110.335373
_cell_volume 578.121122
_symmetry_space_group_name_H-M "P -1"
_symmetry_group_IT_number 2
_symmetry_cell_setting 'triclinic'
loop_
_space_group_symop_operation_xyz
x,y,z
-x,-y,-z
loop_
_atom_site_type_symbol
_atom_site_label
_atom_site_fract_x
_atom_site_fract_y
_atom_site_fract_z
Si Si1 0.500000 0.500000 0.500000
Si Si2 0.534920 0.934627 0.255918
Si Si3 0.410359 0.314657 0.089281
Si Si4 0.213991 0.085063 0.781041
Si Si5 0.151518 0.393697 0.746988
Si Si6 0.359702 0.723556 0.925434
Si Si7 0.982303 0.796622 0.430707
O O1 0.341927 0.524182 0.560649
O O2 0.367190 0.570505 0.776394
O O3 0.342267 0.961965 0.539790
O O4 0.622518 0.114823 0.147105
O O5 0.683527 0.878995 0.181631
O O6 0.507630 0.809036 0.131842
O O7 0.467544 0.264963 0.160093
O O8 0.187335 0.288668 0.318313
O O9 0.500000 0.500000 0.000000
O O10 0.230099 0.259684 0.726655
O O11 0.000000 0.000000 0.000000
O O12 0.073485 0.275105 0.676728
O O13 0.000000 0.500000 0.000000
O O14 0.179552 0.731141 0.213171
O O15 0.000000 0.000000 0.500000
#
# Coordination Sequence:
#
# PCOD9066495 Si02
#       7
#     1   2   2   2   2   2   2
#     4  12  24  44  76 100 148 180 256 294 368 426
#     4  11  25  46  70 102 143 192 242 298 367 442
#     4  12  29  45  70 108 149 185 243 308 370 437
#     4  11  26  42  70 104 139 183 242 298 355 427
#     4  12  26  44  74 108 141 195 245 301 364 438
#     4  12  25  46  77 100 141 200 241 300 371 447
#     4  12  26  45  78 107 143 194 249 292 370 452
#
# _framework density 22.486637000000002
#
# number of rings (size 3 to 8) (size 9 to 14) (size 15 to 20)
#    0.000    0.308    6.154    1.385    4.308    1.846 
#    0.000    0.000    0.000    0.000    0.000    0.000 
#    0.000    0.000    0.000    0.000    0.000    0.000 
#
# Total GULP energy -72399.621346 kJ/mol
# GULP energy per Si atom -5569.201642 kJ/mol
# Density = 2.243546 g / cm^3
# Si number density = 22.486637 Si / 1000 Ang^3
#
#
#
# Elastic Constant Matrix: (Units=GPa)
#
#
# Indices 1 2 3 4 5 6 
#
# 1 86.0627 5.5605 27.1301 22.1092 -1.3067 7.0825
# 2 5.5605 72.4227 36.2111 17.2171 1.6058 14.4505
# 3 27.1301 36.2111 94.3577 24.8276 -17.3133 21.5038
# 4 22.1092 17.2171 24.8276 41.0341 8.8136 13.0693
# 5 -1.3067 1.6058 -17.3133 8.8136 49.8988 4.4897
# 6 7.0825 14.4505 21.5038 13.0693 4.4897 40.2656
#
#
#
# Elastic Compliance Matrix: (Units=1/GPa)
#
#
# Indices 1 2 3 4 5 6 
#
# 1 0.014190 0.001957 -0.003094 -0.006884 0.000393 0.000645
# 2 0.001957 0.018224 -0.006477 -0.003728 -0.001944 -0.001999
# 3 -0.003094 -0.006477 0.018610 -0.006818 0.008309 -0.005783
# 4 -0.006884 -0.003728 -0.006818 0.037172 -0.008549 -0.004922
# 5 0.000393 -0.001944 0.008309 -0.008549 0.024849 -0.003805
# 6 0.000645 -0.001999 -0.005783 -0.004922 -0.003805 0.030550
#
#
# Mechanical properties :
#
#
# Convention : Reuss Voigt Hill
#
# Bulk Modulus (GPa) = 27.93677 43.40518 35.67098
# Shear Modulus (GPa) = 29.28184 38.50244 33.89214
#
# Velocity S-wave (km/s) = 3.61250 4.14241 3.88650
# Velocity P-wave (km/s) = 5.46360 6.49800 6.00312
#
# Compressibility (1/GPa) = 0.03579512
#
# Stress axis : x y z
#
# Youngs Moduli (GPa) = 70.47270 54.87245 53.73551
#
# Poissons Ratio (x) = -0.10738 0.16628
# Poissons Ratio (y) = -0.13791 0.34803
# Poissons Ratio (z) = 0.21808 0.35539
#
# Static dielectric constant tensor:
#      x y z
#    x 1.919280 0.016590 0.082030 
#    y 0.016590 1.640610 0.081590 
#    z 0.082030 0.081590 1.842650 
# 
# From -- ./inp_files/240101.got.cif
#   From: 2010.05.17/outbox.cif.g08.bks.cpg/sg2_121_cif.got.tgz:240101.got - 2010.06.03 11:33:40.
