data_PCOD9066153
_publ_section_title
;
Structure prediction by ZEFSAII (Michael W. Deem and Ramdas Pophale) SiO2 
 PCOD9066153
Probable space group: P -1
;
_chemical_formula_sum "Si O2"
_cell_formula_units_Z 16
_cell_length_a 28.599355
_cell_length_b 9.156048
_cell_length_c 16.101632
_cell_angle_alpha 136.397619
_cell_angle_beta 162.323837
_cell_angle_gamma 35.425937
_cell_volume 708.630469
_symmetry_space_group_name_H-M "P -1"
_symmetry_group_IT_number 2
_symmetry_cell_setting 'triclinic'
loop_
_space_group_symop_operation_xyz
x,y,z
-x,-y,-z
loop_
_atom_site_type_symbol
_atom_site_label
_atom_site_fract_x
_atom_site_fract_y
_atom_site_fract_z
Si Si1 0.328813 0.725349 0.860214
Si Si2 0.053439 0.058496 0.801362
Si Si3 0.706048 0.736350 0.759442
Si Si4 0.067958 0.808401 0.159443
Si Si5 0.231523 0.432312 0.686451
Si Si6 0.755254 0.987022 0.566815
Si Si7 0.330754 0.436200 0.032677
Si Si8 0.217158 0.272203 0.932604
O O1 0.310973 0.591290 0.855205
O O2 0.345524 0.956919 0.008060
O O3 0.500000 0.500000 0.000000
O O4 0.128808 0.862767 0.528591
O O5 0.218168 0.745157 0.952551
O O6 0.984655 0.144405 0.814616
O O7 0.140616 0.203076 0.972902
O O8 0.761882 0.494686 0.696866
O O9 0.500000 0.000000 0.500000
O O10 0.722623 0.661418 0.853454
O O11 0.131689 0.982359 0.302243
O O12 0.888771 0.880111 0.829479
O O13 0.001917 0.621157 0.383056
O O14 0.283084 0.215890 0.615653
O O15 0.310225 0.319916 0.864871
O O16 0.555976 0.268248 0.362264
O O17 0.236023 0.398850 0.935352
#
# Coordination Sequence:
#
# PCOD9066153 Si02
#       8
#     2   2   2   2   2   2   2   2
#     4  12  27  44  72 104 139 178 223 284 344 405
#     4  12  26  46  71 102 137 178 229 282 339 404
#     4  12  27  47  72 100 137 184 227 279 337 404
#     4  11  26  45  70  96 142 177 227 279 334 401
#     4  12  23  48  70  99 139 176 224 282 342 398
#     4  11  25  45  69 102 135 180 224 282 336 399
#     4  12  27  42  75 102 134 178 228 282 339 403
#     4  12  25  46  71 100 141 175 225 282 341 399
#
# _framework density 22.578764
#
# number of rings (size 3 to 8) (size 9 to 14) (size 15 to 20)
#    0.000    0.250    3.750    4.500    8.750    0.500 
#    0.000    0.000    0.000    0.000    0.000    0.000 
#    0.000    0.000    0.000    0.000    0.000    0.000 
#
# Total GULP energy -89696.786422 kJ/mol
# GULP energy per Si atom -5606.049151 kJ/mol
# Density = 2.252737 g / cm^3
# Si number density = 22.578764 Si / 1000 Ang^3
#
#
#
# Elastic Constant Matrix: (Units=GPa)
#
#
# Indices 1 2 3 4 5 6 
#
# 1 130.9892 3.5686 12.5526 1.2125 -5.1157 3.0683
# 2 3.5686 85.5566 -0.6538 -7.6767 4.9634 -7.6931
# 3 12.5526 -0.6538 42.8243 -26.2092 -1.8918 -6.1440
# 4 1.2125 -7.6767 -26.2092 38.1346 -8.7636 7.9544
# 5 -5.1157 4.9634 -1.8918 -8.7636 22.7307 -2.3938
# 6 3.0683 -7.6931 -6.1440 7.9544 -2.3938 35.9843
#
#
#
# Elastic Compliance Matrix: (Units=1/GPa)
#
#
# Indices 1 2 3 4 5 6 
#
# 1 0.008150 -0.000763 -0.004517 -0.003270 0.000271 -0.000889
# 2 -0.000763 0.012360 0.003169 0.004023 -0.000813 0.002305
# 3 -0.004517 0.003169 0.049065 0.038014 0.017261 0.002185
# 4 -0.003270 0.004023 0.038014 0.059630 0.024123 -0.003947
# 5 0.000271 -0.000813 0.017261 0.024123 0.055083 0.001082
# 6 -0.000889 0.002305 0.002185 -0.003947 0.001082 0.029676
#
#
# Mechanical properties :
#
#
# Convention : Reuss Voigt Hill
#
# Bulk Modulus (GPa) = 15.30188 32.25609 23.77898
# Shear Modulus (GPa) = 20.83605 35.63012 28.23308
#
# Velocity S-wave (km/s) = 3.04108 3.97676 3.53997
# Velocity P-wave (km/s) = 4.37296 5.95006 5.22140
#
# Compressibility (1/GPa) = 0.06535145
#
# Stress axis : x y z
#
# Youngs Moduli (GPa) = 122.70638 80.90855 20.38126
#
# Poissons Ratio (x) = 0.06177 0.09206
# Poissons Ratio (y) = 0.09368 -0.06459
# Poissons Ratio (z) = 0.55428 -0.25643
#
# Static dielectric constant tensor:
#      x y z
#    x 1.785650 -0.010310 -0.000470 
#    y -0.010310 1.842850 -0.000480 
#    z -0.000470 -0.000480 1.817610 
# 
# From -- ./inp_files/242697.got.cif
#   From: 2010.05.17/outbox.cif.g08.bks.cpg/sg2_122_cif.got.tgz:242697.got - 2010.06.03 11:33:40.
