data_PCOD9066080
_publ_section_title
;
Structure prediction by ZEFSAII (Michael W. Deem and Ramdas Pophale) SiO2 
 PCOD9066080
Probable space group: P -1
;
_chemical_formula_sum "Si O2"
_cell_formula_units_Z 15
_cell_length_a 7.448807
_cell_length_b 16.112593
_cell_length_c 9.874255
_cell_angle_alpha 34.906331
_cell_angle_beta 71.042659
_cell_angle_gamma 75.260896
_cell_volume 641.219240
_symmetry_space_group_name_H-M "P -1"
_symmetry_group_IT_number 2
_symmetry_cell_setting 'triclinic'
loop_
_space_group_symop_operation_xyz
x,y,z
-x,-y,-z
loop_
_atom_site_type_symbol
_atom_site_label
_atom_site_fract_x
_atom_site_fract_y
_atom_site_fract_z
Si Si1 0.884579 0.707280 0.202563
Si Si2 0.148288 0.488107 0.289359
Si Si3 0.486809 0.368393 0.072417
Si Si4 0.119936 0.983415 0.857801
Si Si5 0.541294 0.056384 0.614127
Si Si6 0.243512 0.207204 0.151091
Si Si7 0.000000 0.500000 0.000000
Si Si8 0.910463 0.180768 0.446043
O O1 0.817256 0.654950 0.437345
O O2 0.974164 0.570339 0.289044
O O3 0.734386 0.757950 0.059184
O O4 0.043450 0.833306 0.012940
O O5 0.093219 0.467730 0.174260
O O6 0.333259 0.592797 0.116967
O O7 0.511108 0.214529 0.345236
O O8 0.301200 0.342499 0.055352
O O9 0.500000 0.500000 0.000000
O O10 0.345150 0.995582 0.803231
O O11 0.060046 0.114244 0.600361
O O12 0.000000 0.000000 0.000000
O O13 0.718106 0.088580 0.627219
O O14 0.629200 0.931215 0.665156
O O15 0.023405 0.172297 0.286033
O O16 0.875264 0.348784 0.245513
#
# Coordination Sequence:
#
# PCOD9066080 Si02
#       8
#     2   2   2   2   2   2   1   2
#     4  11  25  47  72 105 152 197 251 308 384 448
#     4  11  25  44  74 107 148 201 243 312 377 456
#     4  12  26  43  73 113 149 191 257 314 377 457
#     4  12  28  49  72 105 151 199 248 319 375 454
#     4  12  26  44  78 108 145 196 254 317 376 449
#     4  12  24  46  76 111 150 196 251 318 379 455
#     4  12  22  44  76 112 154 196 252 306 382 446
#     4  12  25  43  77 110 149 194 250 309 375 456
#
# _framework density 23.392935999999999
#
# number of rings (size 3 to 8) (size 9 to 14) (size 15 to 20)
#    0.000    0.267    5.333    3.200    3.733    1.067 
#    0.000    0.000    0.000    0.000    0.000    0.000 
#    0.000    0.000    0.000    0.000    0.000    0.000 
#
# Total GULP energy -83611.618168 kJ/mol
# GULP energy per Si atom -5574.107878 kJ/mol
# Density = 2.333969 g / cm^3
# Si number density = 23.392936 Si / 1000 Ang^3
#
#
#
# Elastic Constant Matrix: (Units=GPa)
#
#
# Indices 1 2 3 4 5 6 
#
# 1 114.1085 34.9845 30.3818 6.5779 -16.9963 19.8026
# 2 34.9845 111.1082 44.6074 -17.2408 -2.3928 24.5512
# 3 30.3818 44.6074 125.1791 0.1526 7.9660 12.7897
# 4 6.5779 -17.2408 0.1526 37.8354 2.9236 3.1842
# 5 -16.9963 -2.3928 7.9660 2.9236 42.4403 -0.1112
# 6 19.8026 24.5512 12.7897 3.1842 -0.1112 29.7237
#
#
#
# Elastic Compliance Matrix: (Units=1/GPa)
#
#
# Indices 1 2 3 4 5 6 
#
# 1 0.011721 -0.002235 -0.001879 -0.003039 0.005117 -0.004810
# 2 -0.002235 0.014559 -0.003656 0.007859 0.000045 -0.009805
# 3 -0.001879 -0.003656 0.009911 -0.001178 -0.002737 0.000123
# 4 -0.003039 0.007859 -0.001178 0.031373 -0.002733 -0.007331
# 5 0.005117 0.000045 -0.002737 -0.002733 0.026312 -0.001877
# 6 -0.004810 -0.009805 0.000123 -0.007331 -0.001877 0.045671
#
#
# Mechanical properties :
#
#
# Convention : Reuss Voigt Hill
#
# Bulk Modulus (GPa) = 48.42530 63.37145 55.89838
# Shear Modulus (GPa) = 30.86987 38.02802 34.44894
#
# Velocity S-wave (km/s) = 3.63660 4.03627 3.84164
# Velocity P-wave (km/s) = 6.19507 6.99076 6.60491
#
# Compressibility (1/GPa) = 0.02065036
#
# Stress axis : x y z
#
# Youngs Moduli (GPa) = 85.31561 68.68641 100.90294
#
# Poissons Ratio (x) = 0.15351 0.18959
# Poissons Ratio (y) = 0.19067 0.36893
# Poissons Ratio (z) = 0.16030 0.25114
#
# Static dielectric constant tensor:
#      x y z
#    x 2.223560 -0.277400 0.150440 
#    y -0.277400 2.212910 -0.077970 
#    z 0.150440 -0.077970 1.961430 
# 
# From -- ./inp_files/205061.got.cif
#   From: 2010.05.17/outbox.cif.g08.bks.cpg/sg2_103_cif.got.tgz:205061.got - 2010.06.03 11:33:40.
