data_PCOD9066846
_publ_section_title
;
Structure prediction by ZEFSAII (Michael W. Deem and Ramdas Pophale) SiO2 
 PCOD9066846
Probable space group: P -1
;
_chemical_formula_sum "Si O2"
_cell_formula_units_Z 16
_cell_length_a 13.812348
_cell_length_b 16.658386
_cell_length_c 15.307415
_cell_angle_alpha 143.555623
_cell_angle_beta 126.647320
_cell_angle_gamma 26.077245
_cell_volume 806.243214
_symmetry_space_group_name_H-M "P -1"
_symmetry_group_IT_number 2
_symmetry_cell_setting 'triclinic'
loop_
_space_group_symop_operation_xyz
x,y,z
-x,-y,-z
loop_
_atom_site_type_symbol
_atom_site_label
_atom_site_fract_x
_atom_site_fract_y
_atom_site_fract_z
Si Si1 0.765918 0.733195 0.807896
Si Si2 0.564191 0.706445 0.797514
Si Si3 0.004535 0.098771 0.507981
Si Si4 0.652482 0.761117 0.302828
Si Si5 0.593820 0.558652 0.338467
Si Si6 0.290823 0.607347 0.939763
Si Si7 0.198065 0.814366 0.711932
Si Si8 0.282573 0.251395 0.406923
O O1 0.657668 0.701316 0.761318
O O2 0.720536 0.765057 0.710669
O O3 0.061373 0.468079 0.753232
O O4 0.605501 0.018668 0.003180
O O5 0.393541 0.740691 0.727265
O O6 0.828094 0.394486 0.704669
O O7 0.893342 0.159192 0.406610
O O8 0.293142 0.847431 0.425101
O O9 0.000000 0.000000 0.500000
O O10 0.651824 0.605833 0.194855
O O11 0.500000 0.000000 0.500000
O O12 0.488614 0.949270 0.293717
O O13 0.706680 0.381356 0.154985
O O14 0.680285 0.406318 0.343571
O O15 0.663740 0.646869 0.451321
O O16 0.500000 0.500000 0.000000
O O17 0.034377 0.895176 0.104153
O O18 0.000000 0.500000 0.500000
#
# Coordination Sequence:
#
# PCOD9066846 Si02
#       8
#     2   2   2   2   2   2   2   2
#     4  11  25  47  69 103 138 185 236 289 347 425
#     4  11  25  47  70  99 144 183 234 290 346 419
#     4  12  26  45  71 102 141 186 233 285 352 430
#     4  12  24  47  71 102 145 181 232 291 353 422
#     4  12  26  46  72 107 140 189 236 293 361 426
#     4  12  26  46  74 110 144 184 238 302 360 418
#     4  12  26  47  73 103 144 184 235 296 358 423
#     4  12  26  42  74 103 136 184 237 288 357 418
#
# _framework density 19.845127999999999
#
# number of rings (size 3 to 8) (size 9 to 14) (size 15 to 20)
#    0.000    0.250    6.250    2.250    3.500    2.000 
#    0.000    1.875    0.000    0.000    0.000    0.000 
#    0.000    0.000    0.000    0.000    0.000    0.000 
#
# Total GULP energy -89352.841909 kJ/mol
# GULP energy per Si atom -5584.552619 kJ/mol
# Density = 1.979996 g / cm^3
# Si number density = 19.845128 Si / 1000 Ang^3
#
#
#
# Elastic Constant Matrix: (Units=GPa)
#
#
# Indices 1 2 3 4 5 6 
#
# 1 161.4350 92.0432 26.6089 14.6339 -6.4809 -0.2607
# 2 92.0432 149.0018 24.1853 22.4556 -13.2718 18.2148
# 3 26.6089 24.1853 159.0626 -2.5355 -12.2425 -15.3501
# 4 14.6339 22.4556 -2.5355 52.8183 -0.6442 6.0833
# 5 -6.4809 -13.2718 -12.2425 -0.6442 38.2457 4.1644
# 6 -0.2607 18.2148 -15.3501 6.0833 4.1644 41.4795
#
#
#
# Elastic Compliance Matrix: (Units=1/GPa)
#
#
# Indices 1 2 3 4 5 6 
#
# 1 0.009953 -0.006454 -0.000492 -0.000381 -0.001030 0.002874
# 2 -0.006454 0.012316 -0.001135 -0.002793 0.003401 -0.005801
# 3 -0.000492 -0.001135 0.006936 0.000644 0.001446 0.002822
# 4 -0.000381 -0.002793 0.000644 0.020426 -0.000320 -0.001501
# 5 -0.001030 0.003401 0.001446 -0.000320 0.028016 -0.003731
# 6 0.002874 -0.005801 0.002822 -0.001501 -0.003731 0.028313
#
#
# Mechanical properties :
#
#
# Convention : Reuss Voigt Hill
#
# Bulk Modulus (GPa) = 76.67647 83.90824 80.29235
# Shear Modulus (GPa) = 39.53533 48.28616 43.91075
#
# Velocity S-wave (km/s) = 4.46824 4.93805 4.70901
# Velocity P-wave (km/s) = 8.08341 8.65365 8.37339
#
# Compressibility (1/GPa) = 0.01304181
#
# Stress axis : x y z
#
# Youngs Moduli (GPa) = 100.46938 81.19783 144.18193
#
# Poissons Ratio (x) = 0.52408 0.07088
# Poissons Ratio (y) = 0.64846 0.16370
# Poissons Ratio (z) = 0.04939 0.09219
#
# Static dielectric constant tensor:
#      x y z
#    x 1.585070 0.017010 0.047390 
#    y 0.017010 1.745070 0.041470 
#    z 0.047390 0.041470 1.731870 
# 
# From -- ./inp_files/522515.got.cif
#   From: 2010.05.17/outbox.cif.g08.bks.cpg/sg2_262_cif.got.tgz:522515.got - 2010.06.03 11:33:40.
