data_PCOD9066540
_publ_section_title
;
Structure prediction by ZEFSAII (Michael W. Deem and Ramdas Pophale) SiO2 
 PCOD9066540
Probable space group: P -1
;
_chemical_formula_sum "Si O2"
_cell_formula_units_Z 14
_cell_length_a 20.070537
_cell_length_b 20.005322
_cell_length_c 11.799353
_cell_angle_alpha 155.821740
_cell_angle_beta 142.855493
_cell_angle_gamma 21.838015
_cell_volume 682.332465
_symmetry_space_group_name_H-M "P -1"
_symmetry_group_IT_number 2
_symmetry_cell_setting 'triclinic'
loop_
_space_group_symop_operation_xyz
x,y,z
-x,-y,-z
loop_
_atom_site_type_symbol
_atom_site_label
_atom_site_fract_x
_atom_site_fract_y
_atom_site_fract_z
Si Si1 0.445980 0.122266 0.488781
Si Si2 0.996693 0.808786 0.692487
Si Si3 0.502685 0.732881 0.809045
Si Si4 0.011241 0.679595 0.762738
Si Si5 0.399450 0.289094 0.330761
Si Si6 0.385119 0.805748 0.327583
Si Si7 0.178111 0.883400 0.618933
O O1 0.234216 0.446435 0.708878
O O2 0.565452 0.122657 0.592949
O O3 0.500000 0.000000 0.500000
O O4 0.457989 0.951897 0.156712
O O5 0.947119 0.792943 0.723013
O O6 0.202991 0.505970 0.464771
O O7 0.837216 0.955068 0.612591
O O8 0.000000 0.000000 0.000000
O O9 0.621066 0.611748 0.667281
O O10 0.303840 0.883453 0.738642
O O11 0.649250 0.451359 0.647239
O O12 0.000000 0.500000 0.500000
O O13 0.902642 0.929907 0.088847
O O14 0.542332 0.215594 0.488733
O O15 0.500000 0.000000 0.000000
O O16 0.500000 0.500000 0.000000
O O17 0.000000 0.000000 0.500000
#
# Coordination Sequence:
#
# PCOD9066540 Si02
#       7
#     2   2   2   2   2   2   2
#     4  12  24  46  73 107 143 185 241 294 355 425
#     4  12  25  46  72 104 140 187 239 292 355 421
#     4  11  25  46  71 103 147 186 226 300 356 414
#     4  12  23  44  73 102 142 183 235 298 350 417
#     4  12  25  48  70 103 148 182 238 293 356 423
#     4  12  26  45  75 106 137 192 241 292 356 426
#     4  11  26  45  70 106 142 186 236 287 358 423
#
# _framework density 20.517855999999998
#
# number of rings (size 3 to 8) (size 9 to 14) (size 15 to 20)
#    0.000    0.286    5.714    2.571    0.000    5.143 
#    0.000    0.000    0.000    0.000    0.000    0.000 
#    0.000    0.000    0.000    0.000    0.000    0.000 
#
# Total GULP energy -78148.385339 kJ/mol
# GULP energy per Si atom -5582.027524 kJ/mol
# Density = 2.047116 g / cm^3
# Si number density = 20.517856 Si / 1000 Ang^3
#
#
#
# Elastic Constant Matrix: (Units=GPa)
#
#
# Indices 1 2 3 4 5 6 
#
# 1 81.1432 -4.6496 32.0196 -11.0415 1.3465 4.5793
# 2 -4.6496 102.7668 31.4106 -10.2984 -0.4821 -11.1873
# 3 32.0196 31.4106 139.0832 -0.7414 -3.0948 -5.6050
# 4 -11.0415 -10.2984 -0.7414 38.5478 -4.4459 -3.5711
# 5 1.3465 -0.4821 -3.0948 -4.4459 39.0784 2.4688
# 6 4.5793 -11.1873 -5.6050 -3.5711 2.4688 38.6199
#
#
#
# Elastic Compliance Matrix: (Units=1/GPa)
#
#
# Indices 1 2 3 4 5 6 
#
# 1 0.014685 0.002180 -0.003903 0.004577 -0.000189 -0.001241
# 2 0.002180 0.011447 -0.002944 0.003913 0.000089 0.002986
# 3 -0.003903 -0.002944 0.008786 -0.001605 0.000567 0.000700
# 4 0.004577 0.003913 -0.001605 0.028861 0.002867 0.002843
# 5 -0.000189 0.000089 0.000567 0.002867 0.026049 -0.001269
# 6 -0.001241 0.002986 0.000700 0.002843 -0.001269 0.027351
#
#
# Mechanical properties :
#
#
# Convention : Reuss Voigt Hill
#
# Bulk Modulus (GPa) = 39.08719 48.95047 44.01883
# Shear Modulus (GPa) = 37.02611 40.86340 38.94475
#
# Velocity S-wave (km/s) = 4.25264 4.46758 4.36143
# Velocity P-wave (km/s) = 6.57305 7.10786 6.84568
#
# Compressibility (1/GPa) = 0.02558383
#
# Stress axis : x y z
#
# Youngs Moduli (GPa) = 68.09732 87.36065 113.82285
#
# Poissons Ratio (x) = -0.19045 0.44424
# Poissons Ratio (y) = -0.14845 0.33508
# Poissons Ratio (z) = 0.26578 0.25717
#
# Static dielectric constant tensor:
#      x y z
#    x 1.825430 0.006310 0.061260 
#    y 0.006310 1.769030 0.005020 
#    z 0.061260 0.005020 1.712930 
# 
# From -- ./inp_files/188815.got.cif
#   From: 2010.05.17/outbox.cif.g08.bks.cpg/sg2_95_cif.got.tgz:188815.got - 2010.06.03 11:33:40.
