data_PCOD9066594
_publ_section_title
;
Structure prediction by ZEFSAII (Michael W. Deem and Ramdas Pophale) SiO2 
 PCOD9066594
Probable space group: P -1
;
_chemical_formula_sum "Si O2"
_cell_formula_units_Z 12
_cell_length_a 15.439630
_cell_length_b 9.298738
_cell_length_c 19.281316
_cell_angle_alpha 134.619174
_cell_angle_beta 160.118749
_cell_angle_gamma 37.202957
_cell_volume 554.367396
_symmetry_space_group_name_H-M "P -1"
_symmetry_group_IT_number 2
_symmetry_cell_setting 'triclinic'
loop_
_space_group_symop_operation_xyz
x,y,z
-x,-y,-z
loop_
_atom_site_type_symbol
_atom_site_label
_atom_site_fract_x
_atom_site_fract_y
_atom_site_fract_z
Si Si1 0.642046 0.135423 0.615529
Si Si2 0.714499 0.977312 0.461273
Si Si3 0.790125 0.143681 0.958547
Si Si4 0.421129 0.634446 0.912866
Si Si5 0.605758 0.986269 0.153245
Si Si6 0.334083 0.701953 0.597627
O O1 0.481655 0.417110 0.607816
O O2 0.500000 0.000000 0.500000
O O3 0.629827 0.114491 0.517256
O O4 0.986462 0.992586 0.854789
O O5 0.500334 0.875847 0.261301
O O6 0.076017 0.760846 0.666645
O O7 0.656084 0.160264 0.416743
O O8 0.655501 0.430292 0.964023
O O9 0.000000 0.000000 0.000000
O O10 0.500000 0.500000 0.000000
O O11 0.473222 0.845719 0.039675
O O12 0.973766 0.823712 0.381141
O O13 0.511569 0.234717 0.203679
O O14 0.500000 0.000000 0.000000
#
# Coordination Sequence:
#
# PCOD9066594 Si02
#       6
#     2   2   2   2   2   2
#     4  12  26  48  73 107 146 190 241 303 369 433
#     4  12  26  47  73 110 144 194 243 301 365 427
#     4  12  27  44  74 110 145 191 240 302 368 426
#     4  12  25  48  76 104 147 189 249 300 358 436
#     4  11  25  46  72 104 146 195 236 300 365 421
#     4  11  27  45  72 109 145 187 248 296 363 437
#
# _framework density 21.646294999999999
#
# number of rings (size 3 to 8) (size 9 to 14) (size 15 to 20)
#    0.000    0.333    5.000    3.000    2.333    0.667 
#    0.000    0.000    0.000    0.000    0.000    0.000 
#    0.000    0.000    0.000    0.000    0.000    0.000 
#
# Total GULP energy -67103.697503 kJ/mol
# GULP energy per Si atom -5591.974792 kJ/mol
# Density = 2.159703 g / cm^3
# Si number density = 21.646295 Si / 1000 Ang^3
#
#
#
# Elastic Constant Matrix: (Units=GPa)
#
#
# Indices 1 2 3 4 5 6 
#
# 1 89.4710 30.7451 29.7258 -0.4845 -12.1068 2.6148
# 2 30.7451 135.4403 51.4360 -7.9759 -9.0615 -17.7934
# 3 29.7258 51.4360 131.0900 17.3634 -7.5915 -0.0471
# 4 -0.4845 -7.9759 17.3634 29.2555 -4.9519 -1.4469
# 5 -12.1068 -9.0615 -7.5915 -4.9519 40.4435 0.7623
# 6 2.6148 -17.7934 -0.0471 -1.4469 0.7623 43.9037
#
#
#
# Elastic Compliance Matrix: (Units=1/GPa)
#
#
# Indices 1 2 3 4 5 6 
#
# 1 0.013100 -0.002068 -0.002157 0.001404 0.003256 -0.001631
# 2 -0.002068 0.010567 -0.004371 0.005932 0.001568 0.004569
# 3 -0.002157 -0.004371 0.010840 -0.007841 -0.000515 -0.001881
# 4 0.001404 0.005932 -0.007841 0.041550 0.005297 0.003589
# 5 0.003256 0.001568 -0.000515 0.005297 0.026601 0.000154
# 6 -0.001631 0.004569 -0.001881 0.003589 0.000154 0.024840
#
#
# Mechanical properties :
#
#
# Convention : Reuss Voigt Hill
#
# Bulk Modulus (GPa) = 57.75000 64.42390 61.08695
# Shear Modulus (GPa) = 33.23097 38.99350 36.11223
#
# Velocity S-wave (km/s) = 3.92239 4.24889 4.08890
# Velocity P-wave (km/s) = 6.87389 7.34149 7.11153
#
# Compressibility (1/GPa) = 0.01731602
#
# Stress axis : x y z
#
# Youngs Moduli (GPa) = 76.33590 94.63252 92.24729
#
# Poissons Ratio (x) = 0.19574 0.19897
# Poissons Ratio (y) = 0.15789 0.40317
# Poissons Ratio (z) = 0.16465 0.41359
#
# Static dielectric constant tensor:
#      x y z
#    x 1.821670 -0.021430 0.007920 
#    y -0.021430 1.864250 0.018030 
#    z 0.007920 0.018030 1.756960 
# 
# From -- ./inp_files/38921.got.cif
#   From: 2010.05.17/outbox.cif.g08.bks.cpg/sg2_20_cif.got.tgz:38921.got - 2010.06.03 11:33:40.
