data_PCOD9066030
_publ_section_title
;
Structure prediction by ZEFSAII (Michael W. Deem and Ramdas Pophale) SiO2 
 PCOD9066030
Probable space group: P -1
;
_chemical_formula_sum "Si O2"
_cell_formula_units_Z 16
_cell_length_a 8.410879
_cell_length_b 9.279582
_cell_length_c 13.946217
_cell_angle_alpha 100.246319
_cell_angle_beta 107.663016
_cell_angle_gamma 129.167259
_cell_volume 696.312068
_symmetry_space_group_name_H-M "P -1"
_symmetry_group_IT_number 2
_symmetry_cell_setting 'triclinic'
loop_
_space_group_symop_operation_xyz
x,y,z
-x,-y,-z
loop_
_atom_site_type_symbol
_atom_site_label
_atom_site_fract_x
_atom_site_fract_y
_atom_site_fract_z
Si Si1 0.593966 0.367270 0.583331
Si Si2 0.201870 0.174033 0.332808
Si Si3 0.185427 0.995512 0.575701
Si Si4 0.207095 0.534186 0.991580
Si Si5 0.356829 0.764961 0.842213
Si Si6 0.895047 0.048713 0.910890
Si Si7 0.994465 0.415212 0.590682
Si Si8 0.687715 0.964303 0.217157
O O1 0.400303 0.228121 0.443850
O O2 0.712399 0.602798 0.630311
O O3 0.436031 0.246758 0.633630
O O4 0.796364 0.374379 0.612497
O O5 0.171359 0.077635 0.214532
O O6 0.923496 0.018809 0.305222
O O7 0.323434 0.966698 0.674885
O O8 0.080098 0.797654 0.464848
O O9 0.000000 0.000000 0.500000
O O10 0.266689 0.631486 0.907427
O O11 0.465003 0.723424 0.115253
O O12 0.096850 0.300704 0.951254
O O13 0.000000 0.500000 0.000000
O O14 0.649043 0.957856 0.902137
O O15 0.245543 0.598866 0.715540
O O16 0.267613 0.877736 0.831528
O O17 0.000000 0.000000 0.000000
O O18 0.000000 0.500000 0.500000
#
# Coordination Sequence:
#
# PCOD9066030 Si02
#       8
#     2   2   2   2   2   2   2   2
#     4  11  25  44  72 106 147 196 241 304 375 455
#     4  11  25  46  72 106 149 190 247 308 379 438
#     4  12  27  44  72 116 147 192 249 311 374 451
#     4  12  30  49  80 109 146 202 260 305 377 444
#     4  12  27  50  79 109 150 200 254 315 366 449
#     4  12  30  49  77 112 149 193 251 320 377 440
#     4  12  25  46  75 106 149 195 243 300 383 447
#     4  12  25  49  77 104 152 201 253 310 370 443
#
# _framework density 22.978200999999999
#
# number of rings (size 3 to 8) (size 9 to 14) (size 15 to 20)
#    0.000    0.250    5.000    2.250   10.500    2.000 
#    0.000    0.000    0.000    0.000    0.000    0.000 
#    0.000    0.000    0.000    0.000    0.000    0.000 
#
# Total GULP energy -89205.541997 kJ/mol
# GULP energy per Si atom -5575.346375 kJ/mol
# Density = 2.292590 g / cm^3
# Si number density = 22.978201 Si / 1000 Ang^3
#
#
#
# Elastic Constant Matrix: (Units=GPa)
#
#
# Indices 1 2 3 4 5 6 
#
# 1 74.3363 53.2687 10.5881 7.3215 -7.5122 12.6842
# 2 53.2687 148.6302 87.0460 -2.5796 11.3581 7.1883
# 3 10.5881 87.0460 164.8559 13.0978 -1.0443 -12.5235
# 4 7.3215 -2.5796 13.0978 38.6812 4.2241 -0.6577
# 5 -7.5122 11.3581 -1.0443 4.2241 38.0010 -6.8779
# 6 12.6842 7.1883 -12.5235 -0.6577 -6.8779 54.8092
#
#
#
# Elastic Compliance Matrix: (Units=1/GPa)
#
#
# Indices 1 2 3 4 5 6 
#
# 1 0.023712 -0.012667 0.005777 -0.008329 0.009297 -0.001440
# 2 -0.012667 0.017791 -0.009459 0.007771 -0.009425 -0.002653
# 3 0.005777 -0.009459 0.011452 -0.006153 0.005536 0.003141
# 4 -0.008329 0.007771 -0.006153 0.030860 -0.007768 -0.001102
# 5 0.009297 -0.009425 0.005536 -0.007768 0.032777 0.004369
# 6 -0.001440 -0.002653 0.003141 -0.001102 0.004369 0.020179
#
#
# Mechanical properties :
#
#
# Convention : Reuss Voigt Hill
#
# Bulk Modulus (GPa) = 49.36682 76.62532 62.99607
# Shear Modulus (GPa) = 28.37338 42.09291 35.23314
#
# Velocity S-wave (km/s) = 3.51778 4.28467 3.92002
# Velocity P-wave (km/s) = 6.16689 7.60902 6.92560
#
# Compressibility (1/GPa) = 0.02025652
#
# Stress axis : x y z
#
# Youngs Moduli (GPa) = 42.17257 56.20813 87.32151
#
# Poissons Ratio (x) = 0.71198 -0.50442
# Poissons Ratio (y) = 0.53419 0.82597
# Poissons Ratio (z) = -0.24361 0.53167
#
# Static dielectric constant tensor:
#      x y z
#    x 1.689890 0.023250 0.060440 
#    y 0.023250 1.876530 -0.021500 
#    z 0.060440 -0.021500 1.838050 
# 
# From -- ./inp_files/398113.got.cif
#   From: 2010.05.17/outbox.cif.g08.bks.cpg/sg2_200_cif.got.tgz:398113.got - 2010.06.03 11:33:40.
