data_PCOD9066082
_publ_section_title
;
Structure prediction by ZEFSAII (Michael W. Deem and Ramdas Pophale) SiO2 
 PCOD9066082
Probable space group: P -1
;
_chemical_formula_sum "Si O2"
_cell_formula_units_Z 14
_cell_length_a 8.561128
_cell_length_b 18.278316
_cell_length_c 5.041959
_cell_angle_alpha 112.814130
_cell_angle_beta 85.280449
_cell_angle_gamma 127.652161
_cell_volume 562.729247
_symmetry_space_group_name_H-M "P -1"
_symmetry_group_IT_number 2
_symmetry_cell_setting 'triclinic'
loop_
_space_group_symop_operation_xyz
x,y,z
-x,-y,-z
loop_
_atom_site_type_symbol
_atom_site_label
_atom_site_fract_x
_atom_site_fract_y
_atom_site_fract_z
Si Si1 0.668578 0.763103 0.824936
Si Si2 0.592131 0.609221 0.994479
Si Si3 0.974414 0.602254 0.639123
Si Si4 0.697641 0.400190 0.610569
Si Si5 0.466454 0.933023 0.657433
Si Si6 0.204747 0.101406 0.488956
Si Si7 0.970130 0.281634 0.698526
O O1 0.446588 0.708665 0.664426
O O2 0.814272 0.847688 0.697700
O O3 0.638006 0.659788 0.762204
O O4 0.711550 0.820421 0.170618
O O5 0.418301 0.614346 0.129409
O O6 0.820935 0.690501 0.189186
O O7 0.500000 0.500000 0.000000
O O8 0.087270 0.572894 0.399774
O O9 0.971896 0.671946 0.535211
O O10 0.753591 0.499458 0.591762
O O11 0.064015 0.660877 0.989519
O O12 0.633338 0.916200 0.620618
O O13 0.240351 0.829010 0.485226
O O14 0.500000 0.000000 0.500000
O O15 0.500000 0.000000 0.000000
O O16 0.000000 0.000000 0.500000
#
# Coordination Sequence:
#
# PCOD9066082 Si02
#       7
#     2   2   2   2   2   2   2
#     4  12  26  48  78 112 154 203 262 314 385 460
#     4  12  27  48  77 116 159 206 260 315 383 465
#     4  11  26  44  73 107 150 199 249 313 376 466
#     4  11  25  44  74 107 151 197 257 304 383 458
#     4  12  28  52  79 112 152 195 255 331 398 450
#     4  12  28  52  82 111 150 203 267 326 388 464
#     4  12  27  48  73 106 156 195 252 314 394 445
#
# _framework density 24.878751000000001
#
# number of rings (size 3 to 8) (size 9 to 14) (size 15 to 20)
#    0.000    0.286    2.857    4.714    6.000    3.429 
#    0.000    0.000    0.000    0.000    0.000    0.000 
#    0.000    0.000    0.000    0.000    0.000    0.000 
#
# Total GULP energy -78013.211046 kJ/mol
# GULP energy per Si atom -5572.372218 kJ/mol
# Density = 2.482213 g / cm^3
# Si number density = 24.878751 Si / 1000 Ang^3
#
#
#
# Elastic Constant Matrix: (Units=GPa)
#
#
# Indices 1 2 3 4 5 6 
#
# 1 90.4435 79.2900 20.9784 -0.9088 -18.1981 23.1104
# 2 79.2900 233.2993 70.1068 -17.8704 6.8921 5.5457
# 3 20.9784 70.1068 159.9730 -4.1140 -8.3865 3.2386
# 4 -0.9088 -17.8704 -4.1140 53.8991 9.1043 7.8445
# 5 -18.1981 6.8921 -8.3865 9.1043 37.9334 -2.2052
# 6 23.1104 5.5457 3.2386 7.8445 -2.2052 39.4116
#
#
#
# Elastic Compliance Matrix: (Units=1/GPa)
#
#
# Indices 1 2 3 4 5 6 
#
# 1 0.024525 -0.009218 0.001710 -0.003137 0.013884 -0.011823
# 2 -0.009218 0.008691 -0.002965 0.003230 -0.007236 0.003378
# 3 0.001710 -0.002965 0.007489 -0.000789 0.003154 -0.000868
# 4 -0.003137 0.003230 -0.000789 0.021253 -0.007553 -0.003203
# 5 0.013884 -0.007236 0.003154 -0.007553 0.036625 -0.003830
# 6 -0.011823 0.003378 -0.000868 -0.003203 -0.003830 0.032325
#
#
# Mechanical properties :
#
#
# Convention : Reuss Voigt Hill
#
# Bulk Modulus (GPa) = 50.60974 91.60733 71.10853
# Shear Modulus (GPa) = 31.55785 47.13818 39.34801
#
# Velocity S-wave (km/s) = 3.56542 4.35756 3.98124
# Velocity P-wave (km/s) = 6.11035 7.88791 7.05533
#
# Compressibility (1/GPa) = 0.01975904
#
# Stress axis : x y z
#
# Youngs Moduli (GPa) = 40.77541 115.06050 133.53676
#
# Poissons Ratio (x) = 1.06067 -0.22839
# Poissons Ratio (y) = 0.37588 0.39588
# Poissons Ratio (z) = -0.06974 0.34111
#
# Static dielectric constant tensor:
#      x y z
#    x 4.138410 1.400240 1.220010 
#    y 1.400240 3.104150 0.916360 
#    z 1.220010 0.916360 2.773440 
# 
# From -- ./inp_files/48964.got.cif
#   From: 2010.05.17/outbox.cif.g08.bks.cpg/sg2_25_cif.got.tgz:48964.got - 2010.06.03 11:33:40.
