data_PCOD9066066
_publ_section_title
;
Structure prediction by ZEFSAII (Michael W. Deem and Ramdas Pophale) SiO2 
 PCOD9066066
Probable space group: P -1
;
_chemical_formula_sum "Si O2"
_cell_formula_units_Z 14
_cell_length_a 8.137036
_cell_length_b 18.350856
_cell_length_c 11.046426
_cell_angle_alpha 30.917872
_cell_angle_beta 41.691284
_cell_angle_gamma 45.365132
_cell_volume 554.353831
_symmetry_space_group_name_H-M "P -1"
_symmetry_group_IT_number 2
_symmetry_cell_setting 'triclinic'
loop_
_space_group_symop_operation_xyz
x,y,z
-x,-y,-z
loop_
_atom_site_type_symbol
_atom_site_label
_atom_site_fract_x
_atom_site_fract_y
_atom_site_fract_z
Si Si1 0.218137 0.504271 0.696188
Si Si2 0.158145 0.779642 0.481427
Si Si3 0.371909 0.378790 0.407536
Si Si4 0.448008 0.802371 0.640009
Si Si5 0.286429 0.955608 0.954055
Si Si6 0.962973 0.339790 0.863153
Si Si7 0.650932 0.769424 0.842219
O O1 0.500000 0.500000 0.500000
O O2 0.103226 0.666573 0.568210
O O3 0.076785 0.430109 0.775430
O O4 0.246226 0.397494 0.947712
O O5 0.364148 0.683327 0.588227
O O6 0.902793 0.838065 0.609149
O O7 0.267154 0.903122 0.176032
O O8 0.409316 0.340991 0.300724
O O9 0.262033 0.547946 0.236966
O O10 0.170638 0.302287 0.698603
O O11 0.537088 0.811241 0.714787
O O12 0.544596 0.923819 0.334973
O O13 0.157775 0.786560 0.832142
O O14 0.439649 0.824613 0.978016
O O15 0.000000 0.000000 0.000000
#
# Coordination Sequence:
#
# PCOD9066066 Si02
#       7
#     2   2   2   2   2   2   2
#     4  12  23  47  79 110 145 190 245 306 362 427
#     4  12  25  48  77 109 146 194 249 299 360 436
#     4  11  25  45  71 110 147 192 236 306 370 422
#     4  12  27  44  72 106 148 189 242 295 360 437
#     4  12  28  49  75 107 144 198 253 296 356 434
#     4  11  25  44  73 108 151 186 240 302 373 421
#     4  12  26  46  78 108 142 192 249 303 362 432
#
# _framework density 25.254626999999999
#
# number of rings (size 3 to 8) (size 9 to 14) (size 15 to 20)
#    0.000    0.286    4.286    3.857    4.000    0.571 
#    0.000    5.000    0.000    0.000    0.000    0.000 
#    0.000    0.000    0.000    0.000    0.000    0.000 
#
# Total GULP energy -78422.170289 kJ/mol
# GULP energy per Si atom -5601.583592 kJ/mol
# Density = 2.519715 g / cm^3
# Si number density = 25.254627 Si / 1000 Ang^3
#
#
#
# Elastic Constant Matrix: (Units=GPa)
#
#
# Indices 1 2 3 4 5 6 
#
# 1 105.8001 1.8037 25.6124 10.9236 -6.1945 -20.3361
# 2 1.8037 72.9688 17.1928 25.3669 -10.1175 -17.0203
# 3 25.6124 17.1928 181.5351 20.4783 -13.1680 -3.5309
# 4 10.9236 25.3669 20.4783 44.8906 -5.9047 -2.5736
# 5 -6.1945 -10.1175 -13.1680 -5.9047 35.4794 8.3352
# 6 -20.3361 -17.0203 -3.5309 -2.5736 8.3352 20.3930
#
#
#
# Elastic Compliance Matrix: (Units=1/GPa)
#
#
# Indices 1 2 3 4 5 6 
#
# 1 0.013701 0.005846 -0.001685 -0.005043 -0.001708 0.018311
# 2 0.005846 0.023965 -0.001179 -0.013100 -0.000437 0.024153
# 3 -0.001685 -0.001179 0.006133 -0.001610 0.001994 -0.002621
# 4 -0.005043 -0.013100 -0.001610 0.031280 0.003186 -0.013596
# 5 -0.001708 -0.000437 0.001994 0.003186 0.032460 -0.014588
# 6 0.018311 0.024153 -0.002621 -0.013596 -0.014588 0.091247
#
#
# Mechanical properties :
#
#
# Convention : Reuss Voigt Hill
#
# Bulk Modulus (GPa) = 20.09541 49.94687 35.02114
# Shear Modulus (GPa) = 23.87668 41.19894 32.53781
#
# Velocity S-wave (km/s) = 3.07813 4.04337 3.59331
# Velocity P-wave (km/s) = 4.53956 6.45126 5.57792
#
# Compressibility (1/GPa) = 0.04976260
#
# Stress axis : x y z
#
# Youngs Moduli (GPa) = 72.98993 41.72786 163.04618
#
# Poissons Ratio (x) = -0.24395 0.27481
# Poissons Ratio (y) = -0.42671 0.19218
# Poissons Ratio (z) = 0.12302 0.04918
#
# Static dielectric constant tensor:
#      x y z
#    x 2.011070 0.034080 -0.054550 
#    y 0.034080 1.971190 -0.041040 
#    z -0.054550 -0.041040 2.031900 
# 
# From -- ./inp_files/405218.got.cif
#   From: 2010.05.17/outbox.cif.g08.bks.cpg/sg2_203_cif.got.tgz:405218.got - 2010.06.03 11:33:40.
