data_PCOD9066470
_publ_section_title
;
Structure prediction by ZEFSAII (Michael W. Deem and Ramdas Pophale) SiO2 
 PCOD9066470
Probable space group: P -1
;
_chemical_formula_sum "Si O2"
_cell_formula_units_Z 14
_cell_length_a 8.894379
_cell_length_b 14.169244
_cell_length_c 15.655503
_cell_angle_alpha 153.025350
_cell_angle_beta 43.312362
_cell_angle_gamma 121.990505
_cell_volume 567.499074
_symmetry_space_group_name_H-M "P -1"
_symmetry_group_IT_number 2
_symmetry_cell_setting 'triclinic'
loop_
_space_group_symop_operation_xyz
x,y,z
-x,-y,-z
loop_
_atom_site_type_symbol
_atom_site_label
_atom_site_fract_x
_atom_site_fract_y
_atom_site_fract_z
Si Si1 0.024781 0.787555 0.942728
Si Si2 0.882105 0.873363 0.705409
Si Si3 0.248507 0.699932 0.274904
Si Si4 0.148031 0.423618 0.746643
Si Si5 0.659601 0.296702 0.017726
Si Si6 0.464988 0.938697 0.276963
Si Si7 0.208432 0.501675 0.477129
O O1 0.145254 0.579904 0.791540
O O2 0.123701 0.708076 0.743712
O O3 0.741755 0.853465 0.114958
O O4 0.076006 0.998117 0.126342
O O5 0.739229 0.720433 0.665505
O O6 0.128104 0.722073 0.435281
O O7 0.755685 0.062945 0.841123
O O8 0.302031 0.921573 0.409655
O O9 0.069817 0.651308 0.244231
O O10 0.500000 0.500000 0.000000
O O11 0.152740 0.585423 0.953595
O O12 0.364783 0.186614 0.479088
O O13 0.431808 0.466712 0.298759
O O14 0.580415 0.230984 0.908321
O O15 0.000000 0.500000 0.500000
#
# Coordination Sequence:
#
# PCOD9066470 Si02
#       7
#     2   2   2   2   2   2   2
#     4  11  25  47  70 106 142 185 234 286 353 416
#     4  11  26  47  69 104 141 184 237 286 357 414
#     4  12  24  47  75  99 146 186 231 294 348 416
#     4  11  25  46  68 106 139 179 241 279 346 423
#     4  11  26  45  72 104 140 185 232 290 350 412
#     4  12  24  45  73 102 144 186 228 290 350 409
#     4  12  24  44  73 102 141 182 236 292 344 415
#
# _framework density 24.669644999999999
#
# number of rings (size 3 to 8) (size 9 to 14) (size 15 to 20)
#    0.000    0.571    5.714    0.857    2.000    5.143 
#    2.571    0.000    0.000    0.000    0.000    0.000 
#    0.000    0.000    0.000    0.000    0.000    0.000 
#
# Total GULP energy -78416.693428 kJ/mol
# GULP energy per Si atom -5601.192388 kJ/mol
# Density = 2.461350 g / cm^3
# Si number density = 24.669645 Si / 1000 Ang^3
#
#
#
# Elastic Constant Matrix: (Units=GPa)
#
#
# Indices 1 2 3 4 5 6 
#
# 1 72.3224 8.9919 19.4217 21.1753 16.7199 -6.3511
# 2 8.9919 67.9413 28.3907 5.7142 -2.3999 5.1911
# 3 19.4217 28.3907 90.5173 15.2620 7.3622 -2.1825
# 4 21.1753 5.7142 15.2620 31.4551 -1.6399 -1.5107
# 5 16.7199 -2.3999 7.3622 -1.6399 45.0610 7.2074
# 6 -6.3511 5.1911 -2.1825 -1.5107 7.2074 32.4396
#
#
#
# Elastic Compliance Matrix: (Units=1/GPa)
#
#
# Indices 1 2 3 4 5 6 
#
# 1 0.020854 -0.002118 -0.000642 -0.013543 -0.009164 0.005784
# 2 -0.002118 0.017730 -0.005639 0.000909 0.003379 -0.004340
# 3 -0.000642 -0.005639 0.014164 -0.005466 -0.002915 0.002123
# 4 -0.013543 0.000909 -0.005466 0.043673 0.008022 -0.002913
# 5 -0.009164 0.003379 -0.002915 0.008022 0.027876 -0.008351
# 6 0.005784 -0.004340 0.002123 -0.002913 -0.008351 0.034516
#
#
# Mechanical properties :
#
#
# Convention : Reuss Voigt Hill
#
# Bulk Modulus (GPa) = 27.81702 38.26550 33.04126
# Shear Modulus (GPa) = 26.65303 33.38958 30.02131
#
# Velocity S-wave (km/s) = 3.29051 3.68294 3.49224
# Velocity P-wave (km/s) = 5.07315 5.79916 5.44826
#
# Compressibility (1/GPa) = 0.03594922
#
# Stress axis : x y z
#
# Youngs Moduli (GPa) = 47.95137 56.40205 70.60204
#
# Poissons Ratio (x) = 0.11948 0.04532
# Poissons Ratio (y) = 0.10158 0.39814
# Poissons Ratio (z) = 0.03078 0.31806
#
# Static dielectric constant tensor:
#      x y z
#    x 1.937730 -0.031720 -0.011460 
#    y -0.031720 1.997890 0.008720 
#    z -0.011460 0.008720 1.946700 
# 
# From -- ./inp_files/236895.got.cif
#   From: 2010.05.17/outbox.cif.g08.bks.cpg/sg2_119_cif.got.tgz:236895.got - 2010.06.03 11:33:40.
