data_PCOD9066910
_publ_section_title
;
Structure prediction by ZEFSAII (Michael W. Deem and Ramdas Pophale) SiO2 
 PCOD9066910
Probable space group: P -1
;
_chemical_formula_sum "Si O2"
_cell_formula_units_Z 14
_cell_length_a 15.655512
_cell_length_b 9.339578
_cell_length_c 11.922059
_cell_angle_alpha 117.286989
_cell_angle_beta 125.041792
_cell_angle_gamma 27.669538
_cell_volume 656.984970
_symmetry_space_group_name_H-M "P -1"
_symmetry_group_IT_number 2
_symmetry_cell_setting 'triclinic'
loop_
_space_group_symop_operation_xyz
x,y,z
-x,-y,-z
loop_
_atom_site_type_symbol
_atom_site_label
_atom_site_fract_x
_atom_site_fract_y
_atom_site_fract_z
Si Si1 0.382294 0.824463 0.351170
Si Si2 0.211796 0.141304 0.564342
Si Si3 0.985389 0.933747 0.845990
Si Si4 0.050956 0.172424 0.849727
Si Si5 0.375210 0.192909 0.860587
Si Si6 0.824924 0.100741 0.395288
Si Si7 0.291708 0.107563 0.154864
O O1 0.605867 0.469561 0.367556
O O2 0.355326 0.943737 0.493834
O O3 0.323270 0.020121 0.275919
O O4 0.223682 0.886133 0.256695
O O5 0.317777 0.099933 0.727974
O O6 0.000000 0.500000 0.500000
O O7 0.163135 0.031348 0.536710
O O8 0.168071 0.564810 0.850476
O O9 0.009750 0.045636 0.815171
O O10 0.000000 0.000000 0.000000
O O11 0.853211 0.545707 0.835135
O O12 0.143136 0.038042 0.746656
O O13 0.194947 0.079816 0.010295
O O14 0.510160 0.110546 0.843342
O O15 0.500000 0.000000 0.000000
O O16 0.000000 0.000000 0.500000
#
# Coordination Sequence:
#
# PCOD9066910 Si02
#       7
#     2   2   2   2   2   2   2
#     4  12  27  48  73 107 143 194 237 298 366 431
#     4  12  27  50  74 102 151 190 241 298 361 436
#     4  12  25  45  74 107 149 186 239 297 364 429
#     4  11  25  47  72 106 146 186 240 299 355 425
#     4  12  28  46  77 108 143 194 245 296 361 424
#     4  12  29  47  73 105 145 188 243 297 363 427
#     4  11  26  45  75 106 142 189 241 296 358 424
#
# _framework density 21.309469
#
# number of rings (size 3 to 8) (size 9 to 14) (size 15 to 20)
#    0.000    0.286    2.857    4.714   12.000    1.714 
#    0.000    0.000    0.000    0.000    0.000    0.000 
#    0.000    0.000    0.000    0.000    0.000    0.000 
#
# Total GULP energy -78421.031457 kJ/mol
# GULP energy per Si atom -5601.502247 kJ/mol
# Density = 2.126097 g / cm^3
# Si number density = 21.309469 Si / 1000 Ang^3
#
#
#
# Elastic Constant Matrix: (Units=GPa)
#
#
# Indices 1 2 3 4 5 6 
#
# 1 122.5893 19.4213 41.7468 -11.4995 0.3590 -2.6409
# 2 19.4213 94.8795 50.2640 -0.3580 15.7351 -27.2249
# 3 41.7468 50.2640 126.6152 7.8146 -4.9100 -7.2895
# 4 -11.4995 -0.3580 7.8146 35.8460 -9.9986 -7.7344
# 5 0.3590 15.7351 -4.9100 -9.9986 43.7209 1.6387
# 6 -2.6409 -27.2249 -7.2895 -7.7344 1.6387 42.2715
#
#
#
# Elastic Compliance Matrix: (Units=1/GPa)
#
#
# Indices 1 2 3 4 5 6 
#
# 1 0.009720 -0.000055 -0.003378 0.004146 0.000481 0.000729
# 2 -0.000055 0.019044 -0.007298 0.002162 -0.007617 0.011694
# 3 -0.003378 -0.007298 0.012053 -0.003644 0.003310 -0.003627
# 4 0.004146 0.002162 -0.003644 0.033232 0.006121 0.006866
# 5 0.000481 -0.007617 0.003310 0.006121 0.027541 -0.004252
# 6 0.000729 0.011694 -0.003627 0.006866 -0.004252 0.032029
#
#
# Mechanical properties :
#
#
# Convention : Reuss Voigt Hill
#
# Bulk Modulus (GPa) = 51.66489 62.99427 57.32958
# Shear Modulus (GPa) = 30.95377 39.87779 35.41578
#
# Velocity S-wave (km/s) = 3.81541 4.33062 4.08115
# Velocity P-wave (km/s) = 6.61116 7.39131 7.01210
#
# Compressibility (1/GPa) = 0.01935551
#
# Stress axis : x y z
#
# Youngs Moduli (GPa) = 102.88519 52.51063 82.96590
#
# Poissons Ratio (x) = 0.00288 0.28027
# Poissons Ratio (y) = 0.00565 0.60544
# Poissons Ratio (z) = 0.34756 0.38320
#
# Static dielectric constant tensor:
#      x y z
#    x 1.755800 0.033880 -0.008790 
#    y 0.033880 1.832130 -0.040530 
#    z -0.008790 -0.040530 1.789790 
# 
# From -- ./inp_files/156627.got.cif
#   From: 2010.05.17/outbox.cif.g08.bks.cpg/sg2_79_cif.got.tgz:156627.got - 2010.06.03 11:33:40.
