data_PCOD9066000
_publ_section_title
;
Structure prediction by ZEFSAII (Michael W. Deem and Ramdas Pophale) SiO2 
 PCOD9066000
Probable space group: P -1
;
_chemical_formula_sum "Si O2"
_cell_formula_units_Z 16
_cell_length_a 8.910980
_cell_length_b 21.028026
_cell_length_c 8.277222
_cell_angle_alpha 66.985512
_cell_angle_beta 111.618202
_cell_angle_gamma 151.976587
_cell_volume 669.730237
_symmetry_space_group_name_H-M "P -1"
_symmetry_group_IT_number 2
_symmetry_cell_setting 'triclinic'
loop_
_space_group_symop_operation_xyz
x,y,z
-x,-y,-z
loop_
_atom_site_type_symbol
_atom_site_label
_atom_site_fract_x
_atom_site_fract_y
_atom_site_fract_z
Si Si1 0.272366 0.135068 0.131357
Si Si2 0.263753 0.791687 0.915578
Si Si3 0.801004 0.759845 0.203172
Si Si4 0.478112 0.007336 0.673862
Si Si5 0.607405 0.435155 0.470429
Si Si6 0.409342 0.120674 0.714763
Si Si7 0.307257 0.659925 0.615804
Si Si8 0.580656 0.500426 0.855219
O O1 0.429063 0.122498 0.145030
O O2 0.510883 0.257819 0.230813
O O3 0.246357 0.179029 0.929893
O O4 0.934228 0.000724 0.217309
O O5 0.963755 0.639704 0.876987
O O6 0.234192 0.862137 0.799699
O O7 0.335503 0.804536 0.118747
O O8 0.670140 0.695758 0.393890
O O9 0.598118 0.635593 0.126815
O O10 0.173062 0.878132 0.225719
O O11 0.391487 0.053014 0.642415
O O12 0.500000 0.000000 0.500000
O O13 0.660756 0.406944 0.362717
O O14 0.532069 0.484386 0.335400
O O15 0.940192 0.548999 0.585237
O O16 0.523881 0.231754 0.562802
O O17 0.500000 0.500000 0.000000
#
# Coordination Sequence:
#
# PCOD9066000 Si02
#       8
#     2   2   2   2   2   2   2   2
#     4  12  27  45  73 105 146 189 242 291 363 424
#     4  12  26  46  72 106 145 188 239 294 357 428
#     4  12  26  45  73 103 146 186 240 296 358 425
#     4  12  27  45  73 105 143 189 241 294 360 424
#     4  11  25  45  70 103 143 186 239 297 356 430
#     4  12  26  47  73 103 149 187 241 296 357 430
#     4  11  25  44  71 102 143 189 238 292 361 422
#     4  12  26  45  75 104 144 189 242 295 365 423
#
# _framework density 23.890215000000001
#
# number of rings (size 3 to 8) (size 9 to 14) (size 15 to 20)
#    0.000    0.250    1.250    7.500    7.000    4.000 
#    0.000    0.000    0.000    0.000    0.000    0.000 
#    0.000    0.000    0.000    0.000    0.000    0.000 
#
# Total GULP energy -89770.395569 kJ/mol
# GULP energy per Si atom -5610.649723 kJ/mol
# Density = 2.383584 g / cm^3
# Si number density = 23.890215 Si / 1000 Ang^3
#
#
#
# Elastic Constant Matrix: (Units=GPa)
#
#
# Indices 1 2 3 4 5 6 
#
# 1 77.4851 20.1815 3.6186 4.5466 -2.5146 -9.2890
# 2 20.1815 104.1789 -8.3361 19.6518 -2.1820 -10.0667
# 3 3.6186 -8.3361 59.0451 2.4249 -2.9378 -3.1444
# 4 4.5466 19.6518 2.4249 45.4242 -10.8232 -9.3868
# 5 -2.5146 -2.1820 -2.9378 -10.8232 29.2829 0.9985
# 6 -9.2890 -10.0667 -3.1444 -9.3868 0.9985 32.9734
#
#
#
# Elastic Compliance Matrix: (Units=1/GPa)
#
#
# Indices 1 2 3 4 5 6 
#
# 1 0.014009 -0.002593 -0.001029 0.000691 0.001052 0.003222
# 2 -0.002593 0.011265 0.001978 -0.004611 -0.000944 0.001613
# 3 -0.001029 0.001978 0.017477 -0.001016 0.001381 0.001650
# 4 0.000691 -0.004611 -0.001016 0.027571 0.009591 0.006249
# 5 0.001052 -0.000944 0.001381 0.009591 0.037794 0.001726
# 6 0.003222 0.001613 0.001650 0.006249 0.001726 0.033611
#
#
# Mechanical properties :
#
#
# Convention : Reuss Voigt Hill
#
# Bulk Modulus (GPa) = 25.34087 30.18192 27.76139
# Shear Modulus (GPa) = 31.61127 36.55245 34.08186
#
# Velocity S-wave (km/s) = 3.64151 3.91579 3.78114
# Velocity P-wave (km/s) = 5.32081 5.75374 5.54151
#
# Compressibility (1/GPa) = 0.03946195
#
# Stress axis : x y z
#
# Youngs Moduli (GPa) = 71.38283 88.76696 57.21890
#
# Poissons Ratio (x) = 0.23019 0.05889
# Poissons Ratio (y) = 0.18511 -0.11316
# Poissons Ratio (z) = 0.07346 -0.17556
#
# Static dielectric constant tensor:
#      x y z
#    x 1.872550 0.028520 -0.020050 
#    y 0.028520 1.892760 0.015470 
#    z -0.020050 0.015470 1.861230 
# 
# From -- ./inp_files/223495.got.cif
#   From: 2010.05.17/outbox.cif.g08.bks.cpg/sg2_112_cif.got.tgz:223495.got - 2010.06.03 11:33:40.
