data_PCOD9066712
_publ_section_title
;
Structure prediction by ZEFSAII (Michael W. Deem and Ramdas Pophale) SiO2 
 PCOD9066712
Probable space group: P -1
;
_chemical_formula_sum "Si O2"
_cell_formula_units_Z 16
_cell_length_a 17.249698
_cell_length_b 9.061239
_cell_length_c 5.597598
_cell_angle_alpha 72.518181
_cell_angle_beta 59.087343
_cell_angle_gamma 57.746517
_cell_volume 634.400047
_symmetry_space_group_name_H-M "P -1"
_symmetry_group_IT_number 2
_symmetry_cell_setting 'triclinic'
loop_
_space_group_symop_operation_xyz
x,y,z
-x,-y,-z
loop_
_atom_site_type_symbol
_atom_site_label
_atom_site_fract_x
_atom_site_fract_y
_atom_site_fract_z
Si Si1 0.643007 0.581754 0.277153
Si Si2 0.933160 0.778601 0.807578
Si Si3 0.150823 0.451052 0.201283
Si Si4 0.467203 0.951035 0.329493
Si Si5 0.379638 0.570806 0.113840
Si Si6 0.769686 0.825682 0.439085
Si Si7 0.920404 0.199528 0.081384
Si Si8 0.791784 0.086333 0.617769
O O1 0.529771 0.742451 0.340543
O O2 0.646984 0.514677 0.572715
O O3 0.740927 0.618609 0.078600
O O4 0.647829 0.471437 0.084737
O O5 0.922230 0.627210 0.749444
O O6 0.037397 0.729188 0.803228
O O7 0.895674 0.967930 0.652370
O O8 0.846845 0.826143 0.122877
O O9 0.188515 0.370956 0.441017
O O10 0.098535 0.660254 0.163742
O O11 0.500000 0.000000 0.500000
O O12 0.346876 0.062964 0.491433
O O13 0.500000 0.000000 0.000000
O O14 0.308230 0.778274 0.155110
O O15 0.500000 0.500000 0.000000
O O16 0.774692 0.933187 0.608042
O O17 0.818968 0.190677 0.323365
O O18 0.000000 0.000000 0.000000
#
# Coordination Sequence:
#
# PCOD9066712 Si02
#       8
#     2   2   2   2   2   2   2   2
#     4  12  26  47  75 114 153 206 257 320 385 463
#     4  11  26  47  74 107 149 198 256 322 387 461
#     4  11  26  47  74 110 149 197 256 318 393 460
#     4  12  25  44  74 109 154 201 254 310 382 463
#     4  12  28  47  76 113 158 204 256 318 391 463
#     4  11  25  46  74 108 149 197 256 315 386 458
#     4  12  25  51  76 108 150 201 263 321 399 461
#     4  11  26  47  75 109 149 203 256 324 384 467
#
# _framework density 25.220680999999999
#
# number of rings (size 3 to 8) (size 9 to 14) (size 15 to 20)
#    0.000    0.500    3.750    3.375    8.750    0.500 
#    2.250    0.000    0.000    0.000    0.000    0.000 
#    0.000    0.000    0.000    0.000    0.000    0.000 
#
# Total GULP energy -89499.094582 kJ/mol
# GULP energy per Si atom -5593.693411 kJ/mol
# Density = 2.516328 g / cm^3
# Si number density = 25.220681 Si / 1000 Ang^3
#
#
#
# Elastic Constant Matrix: (Units=GPa)
#
#
# Indices 1 2 3 4 5 6 
#
# 1 100.9955 23.1945 7.6328 -1.4781 4.2370 -6.3158
# 2 23.1945 164.6461 31.2768 7.3461 5.4880 -16.4174
# 3 7.6328 31.2768 90.8525 -6.6376 15.7286 10.9022
# 4 -1.4781 7.3461 -6.6376 47.5124 0.4064 3.7554
# 5 4.2370 5.4880 15.7286 0.4064 33.9374 -0.1212
# 6 -6.3158 -16.4174 10.9022 3.7554 -0.1212 28.8457
#
#
#
# Elastic Compliance Matrix: (Units=1/GPa)
#
#
# Indices 1 2 3 4 5 6 
#
# 1 0.010359 -0.001174 -0.000503 0.000303 -0.000868 0.001747
# 2 -0.001174 0.007521 -0.003413 -0.002123 0.000558 0.005592
# 3 -0.000503 -0.003413 0.014483 0.003218 -0.006165 -0.007972
# 4 0.000303 -0.002123 0.003218 0.022263 -0.001471 -0.005263
# 5 -0.000868 0.000558 -0.006165 -0.001471 0.032369 0.002785
# 6 0.001747 0.005592 -0.007972 -0.005263 0.002785 0.041942
#
#
# Mechanical properties :
#
#
# Convention : Reuss Voigt Hill
#
# Bulk Modulus (GPa) = 45.08208 53.41138 49.24673
# Shear Modulus (GPa) = 34.12657 41.68510 37.90584
#
# Velocity S-wave (km/s) = 3.68247 4.06989 3.88102
# Velocity P-wave (km/s) = 5.99955 6.58095 6.29697
#
# Compressibility (1/GPa) = 0.02218177
#
# Stress axis : x y z
#
# Youngs Moduli (GPa) = 96.53253 132.95719 69.04578
#
# Poissons Ratio (x) = 0.15610 0.03476
# Poissons Ratio (y) = 0.11334 0.23568
# Poissons Ratio (z) = 0.04860 0.45383
#
# Static dielectric constant tensor:
#      x y z
#    x 1.834750 0.155020 -0.285750 
#    y 0.155020 1.851720 0.381790 
#    z -0.285750 0.381790 2.257330 
# 
# From -- ./inp_files/47939.got.cif
#   From: 2010.05.17/outbox.cif.g08.bks.cpg/sg2_24_cif.got.tgz:47939.got - 2010.06.03 11:33:40.
