data_PCOD9066163
_publ_section_title
;
Structure prediction by ZEFSAII (Michael W. Deem and Ramdas Pophale) SiO2 
 PCOD9066163
Probable space group: P -1
;
_chemical_formula_sum "Si O2"
_cell_formula_units_Z 14
_cell_length_a 5.064090
_cell_length_b 12.980076
_cell_length_c 8.753650
_cell_angle_alpha 111.145128
_cell_angle_beta 77.148555
_cell_angle_gamma 108.796321
_cell_volume 504.347735
_symmetry_space_group_name_H-M "P -1"
_symmetry_group_IT_number 2
_symmetry_cell_setting 'triclinic'
loop_
_space_group_symop_operation_xyz
x,y,z
-x,-y,-z
loop_
_atom_site_type_symbol
_atom_site_label
_atom_site_fract_x
_atom_site_fract_y
_atom_site_fract_z
Si Si1 0.643360 0.902696 0.877021
Si Si2 0.540416 0.310738 0.017464
Si Si3 0.796013 0.589351 0.468745
Si Si4 0.146717 0.061678 0.710214
Si Si5 0.068295 0.756515 0.301182
Si Si6 0.532614 0.108451 0.415637
Si Si7 0.937003 0.597995 0.777213
O O1 0.640012 0.814709 0.966900
O O2 0.478331 0.835468 0.715850
O O3 0.932863 0.970442 0.796467
O O4 0.500000 0.000000 0.000000
O O5 0.335185 0.393291 0.089091
O O6 0.788889 0.353260 0.131080
O O7 0.701273 0.298486 0.835549
O O8 0.500000 0.500000 0.500000
O O9 0.797318 0.670217 0.367312
O O10 0.897396 0.654676 0.649135
O O11 0.024487 0.523221 0.350113
O O12 0.027247 0.172995 0.785904
O O13 0.236016 0.081617 0.526678
O O14 0.420541 0.017030 0.690214
O O15 0.231523 0.824370 0.463246
#
# Coordination Sequence:
#
# PCOD9066163 Si02
#       7
#     2   2   2   2   2   2   2
#     4  12  26  44  71 107 155 198 251 305 366 444
#     4  12  29  48  76 116 155 199 246 313 379 443
#     4  11  26  53  83 109 146 196 256 314 382 457
#     4  11  25  45  69 107 147 199 256 300 365 445
#     4  12  27  47  74 109 148 200 250 313 381 448
#     4  11  25  45  70 102 152 205 250 304 367 451
#     4  11  27  54  76 114 149 194 255 310 384 446
#
# _framework density 27.758626
#
# number of rings (size 3 to 8) (size 9 to 14) (size 15 to 20)
#    0.000    0.571    2.857    4.286    8.000    4.000 
#    2.571    0.000    0.000    0.000    0.000    0.000 
#    0.000    0.000    0.000    0.000    0.000    0.000 
#
# Total GULP energy -78255.561850 kJ/mol
# GULP energy per Si atom -5589.682989 kJ/mol
# Density = 2.769545 g / cm^3
# Si number density = 27.758626 Si / 1000 Ang^3
#
#
#
# Elastic Constant Matrix: (Units=GPa)
#
#
# Indices 1 2 3 4 5 6 
#
# 1 118.4110 25.6711 18.1718 0.5012 -12.0917 0.4954
# 2 25.6711 78.7863 28.5969 -34.8514 -6.6602 8.8338
# 3 18.1718 28.5969 97.1706 -3.0380 -13.0920 -10.7071
# 4 0.5012 -34.8514 -3.0380 53.7469 -5.9844 -8.9729
# 5 -12.0917 -6.6602 -13.0920 -5.9844 62.5025 4.2387
# 6 0.4954 8.8338 -10.7071 -8.9729 4.2387 31.2296
#
#
#
# Elastic Compliance Matrix: (Units=1/GPa)
#
#
# Indices 1 2 3 4 5 6 
#
# 1 0.009503 -0.003919 -0.000574 -0.002564 0.001063 -0.000120
# 2 -0.003919 0.023028 -0.005832 0.014094 0.002142 -0.004692
# 3 -0.000574 -0.005832 0.012823 -0.002013 0.001402 0.005287
# 4 -0.002564 0.014094 -0.002013 0.028524 0.003103 0.003138
# 5 0.001063 0.002142 0.001402 0.003103 0.017131 -0.001576
# 6 -0.000120 -0.004692 0.005287 0.003138 -0.001576 0.036278
#
#
# Mechanical properties :
#
#
# Convention : Reuss Voigt Hill
#
# Bulk Modulus (GPa) = 40.47801 48.80527 44.64164
# Shear Modulus (GPa) = 32.01593 44.29100 38.15346
#
# Velocity S-wave (km/s) = 3.39981 3.99880 3.71141
# Velocity P-wave (km/s) = 5.47955 6.24025 5.87223
#
# Compressibility (1/GPa) = 0.02470477
#
# Stress axis : x y z
#
# Youngs Moduli (GPa) = 105.23287 43.42521 77.98244
#
# Poissons Ratio (x) = 0.17017 0.04476
# Poissons Ratio (y) = 0.41238 0.45480
# Poissons Ratio (z) = 0.06040 0.25326
#
# Static dielectric constant tensor:
#      x y z
#    x 2.179130 0.071750 0.069760 
#    y 0.071750 2.361520 0.100420 
#    z 0.069760 0.100420 2.215010 
# 
# From -- ./inp_files/133434.got.cif
#   From: 2010.05.17/outbox.cif.g08.bks.cpg/sg2_67_cif.got.tgz:133434.got - 2010.06.03 11:33:40.
