data_PCOD9066290
_publ_section_title
;
Structure prediction by ZEFSAII (Michael W. Deem and Ramdas Pophale) SiO2 
 PCOD9066290
Probable space group: P -1
;
_chemical_formula_sum "Si O2"
_cell_formula_units_Z 15
_cell_length_a 19.345871
_cell_length_b 7.918140
_cell_length_c 10.435591
_cell_angle_alpha 128.757436
_cell_angle_beta 33.740330
_cell_angle_gamma 137.896962
_cell_volume 595.122120
_symmetry_space_group_name_H-M "P -1"
_symmetry_group_IT_number 2
_symmetry_cell_setting 'triclinic'
loop_
_space_group_symop_operation_xyz
x,y,z
-x,-y,-z
loop_
_atom_site_type_symbol
_atom_site_label
_atom_site_fract_x
_atom_site_fract_y
_atom_site_fract_z
Si Si1 0.640075 0.893823 0.857236
Si Si2 0.500000 0.500000 0.500000
Si Si3 0.263118 0.334626 0.020448
Si Si4 0.892419 0.102151 0.751508
Si Si5 0.864740 0.354159 0.260254
Si Si6 0.359331 0.835740 0.268355
Si Si7 0.997003 0.975702 0.142470
Si Si8 0.308035 0.444682 0.523338
O O1 0.614727 0.613671 0.741723
O O2 0.791488 0.080549 0.778674
O O3 0.623629 0.968264 0.772707
O O4 0.512912 0.915024 0.133145
O O5 0.368836 0.393098 0.764053
O O6 0.392240 0.510167 0.558388
O O7 0.103156 0.241110 0.167664
O O8 0.313193 0.577912 0.144663
O O9 0.228065 0.104878 0.062649
O O10 0.004510 0.385104 0.759669
O O11 0.000000 0.000000 0.500000
O O12 0.758211 0.196246 0.464618
O O13 0.935316 0.202047 0.023853
O O14 0.759509 0.389614 0.341770
O O15 0.836502 0.828910 0.369951
O O16 0.000000 0.000000 0.000000
#
# Coordination Sequence:
#
# PCOD9066290 Si02
#       8
#     2   1   2   2   2   2   2   2
#     4  11  25  45  73 107 149 191 245 309 369 438
#     4  12  28  44  76 104 152 204 236 294 380 442
#     4  12  25  46  71 107 143 196 243 298 368 435
#     4  12  24  45  75 111 144 190 248 310 370 429
#     4  12  27  46  76 111 143 195 251 309 368 433
#     4  11  26  46  74 106 147 192 250 304 371 436
#     4  12  26  47  73 103 148 193 245 304 367 438
#     4  12  24  48  71 101 153 192 246 301 365 444
#
# _framework density 25.204910000000002
#
# number of rings (size 3 to 8) (size 9 to 14) (size 15 to 20)
#    0.000    0.267    6.667    1.200    3.733    1.600 
#    0.000    0.667    0.000    0.000    0.000    0.000 
#    0.000    0.000    0.000    0.000    0.000    0.000 
#
# Total GULP energy -83660.729389 kJ/mol
# GULP energy per Si atom -5577.381959 kJ/mol
# Density = 2.514754 g / cm^3
# Si number density = 25.204910 Si / 1000 Ang^3
#
#
#
# Elastic Constant Matrix: (Units=GPa)
#
#
# Indices 1 2 3 4 5 6 
#
# 1 128.3882 12.9738 4.7538 1.8093 -31.6323 13.2894
# 2 12.9738 62.2552 7.2141 14.0032 -18.7120 11.6512
# 3 4.7538 7.2141 104.7494 -3.7769 -11.5292 -0.7974
# 4 1.8093 14.0032 -3.7769 26.9023 -8.9819 3.3148
# 5 -31.6323 -18.7120 -11.5292 -8.9819 51.4977 -11.2160
# 6 13.2894 11.6512 -0.7974 3.3148 -11.2160 33.8165
#
#
#
# Elastic Compliance Matrix: (Units=1/GPa)
#
#
# Indices 1 2 3 4 5 6 
#
# 1 0.009355 -0.000331 0.000257 0.001668 0.005566 -0.001874
# 2 -0.000331 0.020436 -0.001258 -0.008750 0.004408 -0.004621
# 3 0.000257 -0.001258 0.010028 0.002798 0.002692 0.001188
# 4 0.001668 -0.008750 0.002798 0.044054 0.006190 0.000160
# 5 0.005566 0.004408 0.002692 0.006190 0.027158 0.004758
# 6 -0.001874 -0.004621 0.001188 0.000160 0.004758 0.033490
#
#
# Mechanical properties :
#
#
# Convention : Reuss Voigt Hill
#
# Bulk Modulus (GPa) = 26.91486 38.36402 32.63944
# Shear Modulus (GPa) = 31.33455 40.47337 35.90396
#
# Velocity S-wave (km/s) = 3.52972 4.01156 3.77833
# Velocity P-wave (km/s) = 5.22623 6.05893 5.65792
#
# Compressibility (1/GPa) = 0.03715419
#
# Stress axis : x y z
#
# Youngs Moduli (GPa) = 106.89884 48.93423 99.72260
#
# Poissons Ratio (x) = 0.01619 -0.02561
# Poissons Ratio (y) = 0.03536 0.12544
# Poissons Ratio (z) = -0.02745 0.06155
#
# Static dielectric constant tensor:
#      x y z
#    x 2.044280 -0.002930 -0.009500 
#    y -0.002930 2.041840 -0.061060 
#    z -0.009500 -0.061060 2.015080 
# 
# From -- ./inp_files/295319.got.cif
#   From: 2010.05.17/outbox.cif.g08.bks.cpg/sg2_148_cif.got.tgz:295319.got - 2010.06.03 11:33:40.
