data_PCOD9066178
_publ_section_title
;
Structure prediction by ZEFSAII (Michael W. Deem and Ramdas Pophale) SiO2 
 PCOD9066178
Probable space group: P -1
;
_chemical_formula_sum "Si O2"
_cell_formula_units_Z 16
_cell_length_a 10.133528
_cell_length_b 9.971820
_cell_length_c 7.957455
_cell_angle_alpha 99.447776
_cell_angle_beta 120.815796
_cell_angle_gamma 92.607801
_cell_volume 673.190748
_symmetry_space_group_name_H-M "P -1"
_symmetry_group_IT_number 2
_symmetry_cell_setting 'triclinic'
loop_
_space_group_symop_operation_xyz
x,y,z
-x,-y,-z
loop_
_atom_site_type_symbol
_atom_site_label
_atom_site_fract_x
_atom_site_fract_y
_atom_site_fract_z
Si Si1 0.651235 0.116719 0.160824
Si Si2 0.397300 0.358633 0.356540
Si Si3 0.403431 0.860065 0.467238
Si Si4 0.134435 0.417956 0.626964
Si Si5 0.899718 0.618167 0.011384
Si Si6 0.567379 0.397978 0.146522
Si Si7 0.902010 0.087296 0.833816
Si Si8 0.010195 0.107728 0.381640
O O1 0.654075 0.139200 0.372941
O O2 0.626036 0.261321 0.089869
O O3 0.825246 0.095414 0.208148
O O4 0.500000 0.000000 0.000000
O O5 0.500000 0.500000 0.500000
O O6 0.476003 0.248158 0.487440
O O7 0.440081 0.335650 0.184905
O O8 0.218111 0.371111 0.218890
O O9 0.255609 0.846772 0.243213
O O10 0.500000 0.000000 0.500000
O O11 0.158215 0.423669 0.845826
O O12 0.288103 0.500458 0.659428
O O13 0.000000 0.500000 0.500000
O O14 0.080215 0.261764 0.505143
O O15 0.983410 0.775941 0.118305
O O16 0.000000 0.500000 0.000000
O O17 0.500000 0.500000 0.000000
O O18 0.863608 0.958014 0.657917
O O19 0.000000 0.000000 0.000000
O O20 0.000000 0.000000 0.500000
#
# Coordination Sequence:
#
# PCOD9066178 Si02
#       8
#     2   2   2   2   2   2   2   2
#     4  11  26  43  72 103 141 183 233 294 349 420
#     4  11  26  46  70 100 141 185 231 289 352 421
#     4  11  25  47  67 100 138 184 232 285 351 419
#     4  12  26  47  74 104 146 186 241 295 353 428
#     4  12  27  47  73 105 145 189 235 298 357 423
#     4  11  25  45  70 104 138 182 238 284 354 419
#     4  12  28  46  73 105 144 187 241 294 361 426
#     4  12  25  47  73 104 141 188 238 297 356 416
#
# _framework density 23.767409000000001
#
# number of rings (size 3 to 8) (size 9 to 14) (size 15 to 20)
#    0.000    0.500    5.000    1.500   12.250    2.000 
#    0.000    0.000    0.000    0.000    0.000    0.000 
#    0.000    0.000    0.000    0.000    0.000    0.000 
#
# Total GULP energy -89129.847985 kJ/mol
# GULP energy per Si atom -5570.615499 kJ/mol
# Density = 2.371331 g / cm^3
# Si number density = 23.767409 Si / 1000 Ang^3
#
#
#
# Elastic Constant Matrix: (Units=GPa)
#
#
# Indices 1 2 3 4 5 6 
#
# 1 59.2091 29.8283 14.5428 -5.3457 23.3767 -11.6199
# 2 29.8283 221.7138 47.3388 -16.2146 25.3602 -24.5065
# 3 14.5428 47.3388 84.6418 -15.0471 32.9087 -18.8678
# 4 -5.3457 -16.2146 -15.0471 58.7798 -5.0376 10.5974
# 5 23.3767 25.3602 32.9087 -5.0376 43.1873 -4.9228
# 6 -11.6199 -24.5065 -18.8678 10.5974 -4.9228 40.7812
#
#
#
# Elastic Compliance Matrix: (Units=1/GPa)
#
#
# Indices 1 2 3 4 5 6 
#
# 1 0.023406 -0.001701 0.003565 0.000399 -0.013710 0.005538
# 2 -0.001701 0.005460 -0.002160 0.000471 -0.000400 0.001627
# 3 0.003565 -0.002160 0.020127 0.002409 -0.014966 0.006598
# 4 0.000399 0.000471 0.002409 0.018346 -0.000567 -0.003325
# 5 -0.013710 -0.000400 -0.014966 -0.000567 0.041474 -0.005917
# 6 0.005538 0.001627 0.006598 -0.003325 -0.005917 0.030279
#
#
# Mechanical properties :
#
#
# Convention : Reuss Voigt Hill
#
# Bulk Modulus (GPa) = 20.65975 60.99829 40.82902
# Shear Modulus (GPa) = 32.08880 46.80663 39.44772
#
# Velocity S-wave (km/s) = 3.67838 4.44256 4.07841
# Velocity P-wave (km/s) = 5.17223 7.21357 6.27645
#
# Compressibility (1/GPa) = 0.04840329
#
# Stress axis : x y z
#
# Youngs Moduli (GPa) = 42.72403 183.14180 49.68329
#
# Poissons Ratio (x) = 0.31148 -0.17714
# Poissons Ratio (y) = 0.07266 0.10731
# Poissons Ratio (z) = -0.15233 0.39557
#
# Static dielectric constant tensor:
#      x y z
#    x 1.246620 -0.724970 0.178450 
#    y -0.724970 1.248340 0.213950 
#    z 0.178450 0.213950 1.961610 
# 
# From -- ./inp_files/186631.got.cif
#   From: 2010.05.17/outbox.cif.g08.bks.cpg/sg2_94_cif.got.tgz:186631.got - 2010.06.03 11:33:40.
