data_PCOD9066315
_publ_section_title
;
Structure prediction by ZEFSAII (Michael W. Deem and Ramdas Pophale) SiO2 
 PCOD9066315
Probable space group: P -1
;
_chemical_formula_sum "Si O2"
_cell_formula_units_Z 16
_cell_length_a 11.396040
_cell_length_b 19.214720
_cell_length_c 13.389485
_cell_angle_alpha 24.040003
_cell_angle_beta 33.417505
_cell_angle_gamma 33.171371
_cell_volume 620.201673
_symmetry_space_group_name_H-M "P -1"
_symmetry_group_IT_number 2
_symmetry_cell_setting 'triclinic'
loop_
_space_group_symop_operation_xyz
x,y,z
-x,-y,-z
loop_
_atom_site_type_symbol
_atom_site_label
_atom_site_fract_x
_atom_site_fract_y
_atom_site_fract_z
Si Si1 0.964281 0.787755 0.970286
Si Si2 0.278066 0.382580 0.340478
Si Si3 0.309528 0.735899 0.647023
Si Si4 0.474285 0.807374 0.784476
Si Si5 0.120224 0.430985 0.107656
Si Si6 0.247443 0.696145 0.347984
Si Si7 0.051234 0.103171 0.945885
Si Si8 0.462523 0.300893 0.666942
O O1 0.876549 0.903202 0.980476
O O2 0.749603 0.768800 0.089855
O O3 0.113615 0.586999 0.170717
O O4 0.131781 0.861217 0.688661
O O5 0.456393 0.355464 0.339768
O O6 0.419852 0.310089 0.234592
O O7 0.141054 0.246652 0.639058
O O8 0.376151 0.792187 0.418234
O O9 0.176689 0.597110 0.898788
O O10 0.635707 0.720592 0.876257
O O11 0.500000 0.000000 0.500000
O O12 0.217282 0.826945 0.949762
O O13 0.961554 0.350569 0.391204
O O14 0.635615 0.481113 0.569851
O O15 0.000000 0.500000 0.000000
O O16 0.416758 0.706542 0.303149
O O17 0.151155 0.896610 0.108451
#
# Coordination Sequence:
#
# PCOD9066315 Si02
#       8
#     2   2   2   2   2   2   2   2
#     4  12  24  45  73 105 141 191 242 299 361 444
#     4  12  26  45  73 111 142 193 246 294 381 437
#     4  12  23  43  76 106 137 188 252 295 358 440
#     4  12  26  47  73 108 153 187 239 312 364 431
#     4  12  24  45  75 106 145 194 249 292 361 447
#     4  11  25  49  68 110 150 193 247 303 367 437
#     4  12  27  46  74 109 150 182 247 310 369 431
#     4  11  25  45  74 101 145 197 243 296 368 441
#
# _framework density 25.798061000000001
#
# number of rings (size 3 to 8) (size 9 to 14) (size 15 to 20)
#    0.000    0.250    7.500    1.500    1.750    2.000 
#    0.000    0.625    0.000    0.000    0.000    0.000 
#    0.000    0.000    0.000    0.000    0.000    0.000 
#
# Total GULP energy -89755.291684 kJ/mol
# GULP energy per Si atom -5609.705730 kJ/mol
# Density = 2.573934 g / cm^3
# Si number density = 25.798061 Si / 1000 Ang^3
#
#
#
# Elastic Constant Matrix: (Units=GPa)
#
#
# Indices 1 2 3 4 5 6 
#
# 1 135.9752 9.6769 32.7091 5.5436 -24.4449 -10.0601
# 2 9.6769 101.0104 37.4875 -3.1886 2.3253 3.3429
# 3 32.7091 37.4875 139.6991 25.1313 -14.5906 -8.8862
# 4 5.5436 -3.1886 25.1313 43.9493 -5.1981 -0.6901
# 5 -24.4449 2.3253 -14.5906 -5.1981 51.2846 9.0025
# 6 -10.0601 3.3429 -8.8862 -0.6901 9.0025 40.1154
#
#
#
# Elastic Compliance Matrix: (Units=1/GPa)
#
#
# Indices 1 2 3 4 5 6 
#
# 1 0.008426 -0.000366 -0.001481 0.000181 0.003446 0.001045
# 2 -0.000366 0.011490 -0.003734 0.002849 -0.001195 -0.001559
# 3 -0.001481 -0.003734 0.009742 -0.005465 0.001384 0.001693
# 4 0.000181 0.002849 -0.005465 0.026194 0.001275 -0.001238
# 5 0.003446 -0.001195 0.001384 0.001275 0.022373 -0.003728
# 6 0.001045 -0.001559 0.001693 -0.001238 -0.003728 0.026511
#
#
# Mechanical properties :
#
#
# Convention : Reuss Voigt Hill
#
# Bulk Modulus (GPa) = 54.06414 59.60351 56.83383
# Shear Modulus (GPa) = 40.96233 46.85729 43.90981
#
# Velocity S-wave (km/s) = 3.98905 4.26644 4.13008
# Velocity P-wave (km/s) = 6.49761 6.88651 6.69488
#
# Compressibility (1/GPa) = 0.01849655
#
# Stress axis : x y z
#
# Youngs Moduli (GPa) = 118.67925 87.03278 102.64428
#
# Poissons Ratio (x) = 0.03184 0.15201
# Poissons Ratio (y) = 0.04342 0.38329
# Poissons Ratio (z) = 0.17575 0.32500
#
# Static dielectric constant tensor:
#      x y z
#    x 2.093990 0.031950 0.049810 
#    y 0.031950 2.087310 0.006530 
#    z 0.049810 0.006530 1.997740 
# 
# From -- ./inp_files/523740.got.cif
#   From: 2010.05.17/outbox.cif.g08.bks.cpg/sg2_262_cif.got.tgz:523740.got - 2010.06.03 11:33:40.
