data_PCOD9066457
_publ_section_title
;
Structure prediction by ZEFSAII (Michael W. Deem and Ramdas Pophale) SiO2 
 PCOD9066457
Probable space group: P -1
;
_chemical_formula_sum "Si O2"
_cell_formula_units_Z 16
_cell_length_a 9.288770
_cell_length_b 12.882011
_cell_length_c 9.665051
_cell_angle_alpha 59.296908
_cell_angle_beta 47.608265
_cell_angle_gamma 90.801738
_cell_volume 606.396202
_symmetry_space_group_name_H-M "P -1"
_symmetry_group_IT_number 2
_symmetry_cell_setting 'triclinic'
loop_
_space_group_symop_operation_xyz
x,y,z
-x,-y,-z
loop_
_atom_site_type_symbol
_atom_site_label
_atom_site_fract_x
_atom_site_fract_y
_atom_site_fract_z
Si Si1 0.763052 0.914057 0.800243
Si Si2 0.182770 0.155003 0.909171
Si Si3 0.313269 0.401580 0.436973
Si Si4 0.132797 0.385168 0.054045
Si Si5 0.630151 0.925022 0.403556
Si Si6 0.022759 0.776896 0.462108
Si Si7 0.162703 0.649898 0.974406
Si Si8 0.281137 0.673585 0.191210
O O1 0.722852 0.803575 0.024593
O O2 0.792726 0.049657 0.772140
O O3 0.542895 0.819247 0.908053
O O4 0.000000 0.000000 0.500000
O O5 0.208933 0.284231 0.710783
O O6 0.323755 0.098508 0.771432
O O7 0.975408 0.313276 0.069052
O O8 0.905496 0.025140 0.199316
O O9 0.279801 0.531824 0.325801
O O10 0.197450 0.293719 0.452447
O O11 0.590917 0.499788 0.224344
O O12 0.079113 0.272109 0.285379
O O13 0.060857 0.485512 0.107783
O O14 0.439217 0.759880 0.687060
O O15 0.500000 0.000000 0.500000
O O16 0.163381 0.709685 0.363602
O O17 0.151746 0.657391 0.141022
#
# Coordination Sequence:
#
# PCOD9066457 Si02
#       8
#     2   2   2   2   2   2   2   2
#     4  12  29  53  83 118 169 222 282 352 427 501
#     4  11  27  51  79 126 166 221 286 347 421 509
#     4  12  26  53  85 118 168 216 278 349 419 505
#     4  11  26  48  84 115 164 221 277 341 417 503
#     4  11  25  45  82 119 168 217 275 350 422 498
#     4  12  27  51  81 123 172 214 276 351 422 507
#     4  11  26  48  79 120 166 216 281 340 421 506
#     4  12  29  50  83 122 169 221 277 345 423 505
#
# _framework density 26.385393000000001
#
# number of rings (size 3 to 8) (size 9 to 14) (size 15 to 20)
#    0.000    0.500    2.500    4.125    7.000    3.500 
#    0.000    0.000    0.000    0.000    0.000    0.000 
#    0.000    0.000    0.000    0.000    0.000    0.000 
#
# Total GULP energy -89451.966963 kJ/mol
# GULP energy per Si atom -5590.747935 kJ/mol
# Density = 2.632534 g / cm^3
# Si number density = 26.385393 Si / 1000 Ang^3
#
#
#
# Elastic Constant Matrix: (Units=GPa)
#
#
# Indices 1 2 3 4 5 6 
#
# 1 171.1051 58.2986 65.3360 -7.6818 10.6051 27.0944
# 2 58.2986 143.3480 43.7979 -6.1010 11.9810 11.6307
# 3 65.3360 43.7979 166.5421 -8.4407 -5.2429 18.1239
# 4 -7.6818 -6.1010 -8.4407 59.4496 4.3376 1.4698
# 5 10.6051 11.9810 -5.2429 4.3376 42.9422 2.9168
# 6 27.0944 11.6307 18.1239 1.4698 2.9168 40.2895
#
#
#
# Elastic Compliance Matrix: (Units=1/GPa)
#
#
# Indices 1 2 3 4 5 6 
#
# 1 0.008159 -0.002176 -0.002229 0.000717 -0.001496 -0.003774
# 2 -0.002176 0.008500 -0.001393 0.000548 -0.002044 -0.000236
# 3 -0.002229 -0.001393 0.007511 0.000536 0.001913 -0.001636
# 4 0.000717 0.000548 0.000536 0.017219 -0.001911 -0.001372
# 5 -0.001496 -0.002044 0.001913 -0.001911 0.024720 -0.000984
# 6 -0.003774 -0.000236 -0.001636 -0.001372 -0.000984 0.028284
#
#
# Mechanical properties :
#
#
# Convention : Reuss Voigt Hill
#
# Bulk Modulus (GPa) = 79.52031 90.65112 85.08572
# Shear Modulus (GPa) = 45.38091 49.44045 47.41068
#
# Velocity S-wave (km/s) = 4.15170 4.33342 4.24353
# Velocity P-wave (km/s) = 7.29284 7.71162 7.50515
#
# Compressibility (1/GPa) = 0.01257540
#
# Stress axis : x y z
#
# Youngs Moduli (GPa) = 122.56025 117.65272 133.14642
#
# Poissons Ratio (x) = 0.25596 0.29676
# Poissons Ratio (y) = 0.26663 0.18542
# Poissons Ratio (z) = 0.27317 0.16384
#
# Static dielectric constant tensor:
#      x y z
#    x 2.068850 -0.128770 0.010430 
#    y -0.128770 2.255010 0.023080 
#    z 0.010430 0.023080 2.015710 
# 
# From -- ./inp_files/531055.got.cif
#   From: 2010.05.17/outbox.cif.g08.bks.cpg/sg2_266_cif.got.tgz:531055.got - 2010.06.03 11:33:40.
