data_PCOD9066813
_publ_section_title
;
Structure prediction by ZEFSAII (Michael W. Deem and Ramdas Pophale) SiO2 
 PCOD9066813
Probable space group: P -1
;
_chemical_formula_sum "Si O2"
_cell_formula_units_Z 13
_cell_length_a 15.969416
_cell_length_b 11.748148
_cell_length_c 8.261104
_cell_angle_alpha 132.244528
_cell_angle_beta 138.818213
_cell_angle_gamma 32.141277
_cell_volume 540.203176
_symmetry_space_group_name_H-M "P -1"
_symmetry_group_IT_number 2
_symmetry_cell_setting 'triclinic'
loop_
_space_group_symop_operation_xyz
x,y,z
-x,-y,-z
loop_
_atom_site_type_symbol
_atom_site_label
_atom_site_fract_x
_atom_site_fract_y
_atom_site_fract_z
Si Si1 0.358662 0.057702 0.483363
Si Si2 0.091275 0.587991 0.203289
Si Si3 0.833921 0.041511 0.089899
Si Si4 0.537114 0.714317 0.681409
Si Si5 0.862430 0.330866 0.296915
Si Si6 0.000000 0.500000 0.500000
Si Si7 0.494905 0.590639 0.823374
O O1 0.201771 0.309105 0.534164
O O2 0.500000 0.000000 0.500000
O O3 0.453330 0.923171 0.657394
O O4 0.267886 0.985065 0.203800
O O5 0.250611 0.442190 0.167566
O O6 0.158154 0.577475 0.467448
O O7 0.959052 0.829753 0.178460
O O8 0.000000 0.500000 0.000000
O O9 0.936618 0.095009 0.206927
O O10 0.679835 0.248878 0.170365
O O11 0.479802 0.733495 0.799304
O O12 0.497978 0.584704 0.412010
O O13 0.995915 0.322617 0.380948
O O14 0.673270 0.468123 0.066244
#
# Coordination Sequence:
#
# PCOD9066813 Si02
#       7
#     2   2   2   2   2   1   2
#     4  12  27  53  78 114 161 211 258 326 402 470
#     4  12  27  47  75 113 159 201 260 330 400 469
#     4  12  25  47  80 111 152 213 262 327 392 475
#     4  11  25  47  75 112 155 201 263 324 392 471
#     4  12  26  48  76 110 155 204 268 320 396 470
#     4  12  30  46  82 114 156 202 266 326 394 468
#     4  11  25  46  78 112 150 205 267 325 389 469
#
# _framework density 24.065017999999998
#
# number of rings (size 3 to 8) (size 9 to 14) (size 15 to 20)
#    0.000    0.308    3.077    5.538    6.462    1.846 
#    0.000    2.308    0.000    0.000    0.000    0.000 
#    0.000    0.000    0.000    0.000    0.000    0.000 
#
# Total GULP energy -72674.573631 kJ/mol
# GULP energy per Si atom -5590.351818 kJ/mol
# Density = 2.401025 g / cm^3
# Si number density = 24.065018 Si / 1000 Ang^3
#
#
#
# Elastic Constant Matrix: (Units=GPa)
#
#
# Indices 1 2 3 4 5 6 
#
# 1 164.8029 47.1004 38.7742 -0.6854 28.2895 27.8768
# 2 47.1004 96.4598 6.9806 -2.3671 -6.9249 12.6914
# 3 38.7742 6.9806 58.6046 15.0205 11.4668 9.4946
# 4 -0.6854 -2.3671 15.0205 29.1498 14.1767 2.7255
# 5 28.2895 -6.9249 11.4668 14.1767 42.8599 -1.8762
# 6 27.8768 12.6914 9.4946 2.7255 -1.8762 50.5087
#
#
#
# Elastic Compliance Matrix: (Units=1/GPa)
#
#
# Indices 1 2 3 4 5 6 
#
# 1 0.011516 -0.005023 -0.006517 0.008344 -0.009634 -0.004677
# 2 -0.005023 0.013141 0.001328 -0.002573 0.005916 -0.000421
# 3 -0.006517 0.001328 0.024326 -0.013773 0.002543 -0.000472
# 4 0.008344 -0.002573 -0.013773 0.051286 -0.019415 -0.004858
# 5 -0.009634 0.005916 0.002543 -0.019415 0.036640 0.005761
# 6 -0.004677 -0.000421 -0.000472 -0.004858 0.005761 0.023050
#
#
# Mechanical properties :
#
#
# Convention : Reuss Voigt Hill
#
# Bulk Modulus (GPa) = 35.01471 56.17529 45.59500
# Shear Modulus (GPa) = 26.32934 39.63783 32.98359
#
# Velocity S-wave (km/s) = 3.31129 4.06287 3.70618
# Velocity P-wave (km/s) = 5.40381 6.73818 6.10754
#
# Compressibility (1/GPa) = 0.02855943
#
# Stress axis : x y z
#
# Youngs Moduli (GPa) = 86.83377 76.10027 41.10845
#
# Poissons Ratio (x) = 0.38227 0.26790
# Poissons Ratio (y) = 0.43618 -0.05461
# Poissons Ratio (z) = 0.56588 -0.10109
#
# Static dielectric constant tensor:
#      x y z
#    x 1.921580 0.071570 -0.010830 
#    y 0.071570 1.945320 -0.002260 
#    z -0.010830 -0.002260 1.941070 
# 
# From -- ./inp_files/156523.got.cif
#   From: 2010.05.17/outbox.cif.g08.bks.cpg/sg2_79_cif.got.tgz:156523.got - 2010.06.03 11:33:40.
