data_PCOD9066593
_publ_section_title
;
Structure prediction by ZEFSAII (Michael W. Deem and Ramdas Pophale) SiO2 
 PCOD9066593
Probable space group: P -1
;
_chemical_formula_sum "Si O2"
_cell_formula_units_Z 13
_cell_length_a 11.018814
_cell_length_b 7.798654
_cell_length_c 10.476793
_cell_angle_alpha 65.129150
_cell_angle_beta 92.018791
_cell_angle_gamma 135.052610
_cell_volume 526.443030
_symmetry_space_group_name_H-M "P -1"
_symmetry_group_IT_number 2
_symmetry_cell_setting 'triclinic'
loop_
_space_group_symop_operation_xyz
x,y,z
-x,-y,-z
loop_
_atom_site_type_symbol
_atom_site_label
_atom_site_fract_x
_atom_site_fract_y
_atom_site_fract_z
Si Si1 0.375097 0.325729 0.860607
Si Si2 0.500000 0.000000 0.000000
Si Si3 0.706906 0.072682 0.212814
Si Si4 0.025188 0.307317 0.540512
Si Si5 0.080285 0.446078 0.212793
Si Si6 0.565701 0.283575 0.459474
Si Si7 0.764304 0.714941 0.860597
O O1 0.262706 0.059870 0.844766
O O2 0.443430 0.583747 0.699708
O O3 0.559030 0.420820 0.881947
O O4 0.271376 0.271358 0.000012
O O5 0.592412 0.088480 0.122298
O O6 0.285286 0.781378 0.122271
O O7 0.575210 0.834027 0.394273
O O8 0.905865 0.367647 0.188257
O O9 0.030545 0.289379 0.394249
O O10 0.221947 0.474164 0.556112
O O11 0.000000 0.500000 0.500000
O O12 0.856878 0.997181 0.699685
O O13 0.107481 0.310336 0.155210
O O14 0.500000 0.000000 0.500000
#
# Coordination Sequence:
#
# PCOD9066593 Si02
#       7
#     2   1   2   2   2   2   2
#     4  11  25  46  72 104 144 189 239 295 356 423
#     4  12  26  48  74 110 142 184 240 300 352 426
#     4  12  26  47  74 105 145 190 235 293 359 426
#     4  12  26  46  71 105 145 188 242 296 357 427
#     4  12  26  47  74 105 145 190 235 293 359 426
#     4  12  26  46  71 105 145 188 242 296 357 427
#     4  11  25  46  72 104 144 189 239 295 356 423
#
# _framework density 24.694029
#
# number of rings (size 3 to 8) (size 9 to 14) (size 15 to 20)
#    0.000    0.308    3.077    5.077    4.308    2.462 
#    0.000    0.000    0.000    0.000    0.000    0.000 
#    0.000    0.000    0.000    0.000    0.000    0.000 
#
# Total GULP energy -72669.891058 kJ/mol
# GULP energy per Si atom -5589.991620 kJ/mol
# Density = 2.463782 g / cm^3
# Si number density = 24.694029 Si / 1000 Ang^3
#
#
#
# Elastic Constant Matrix: (Units=GPa)
#
#
# Indices 1 2 3 4 5 6 
#
# 1 88.8119 44.9290 35.2070 0.8263 -5.1882 44.2222
# 2 44.9290 117.6286 43.8928 4.8859 0.6409 51.7302
# 3 35.2070 43.8928 212.5191 3.1722 -5.5331 28.5203
# 4 0.8263 4.8859 3.1722 33.4871 -17.1790 -2.5684
# 5 -5.1882 0.6409 -5.5331 -17.1790 38.7634 3.0827
# 6 44.2222 51.7302 28.5203 -2.5684 3.0827 53.2149
#
#
#
# Elastic Compliance Matrix: (Units=1/GPa)
#
#
# Indices 1 2 3 4 5 6 
#
# 1 0.020013 -0.000245 -0.001012 0.000470 0.004024 -0.016061
# 2 -0.000245 0.015523 -0.001208 -0.003750 -0.000981 -0.014364
# 3 -0.001012 -0.001208 0.005254 -0.000002 0.000701 -0.000842
# 4 0.000470 -0.003750 -0.000002 0.039619 0.017352 0.004162
# 5 0.004024 -0.000981 0.000701 0.017352 0.034454 -0.003924
# 6 -0.016061 -0.014364 -0.000842 0.004162 -0.003924 0.046981
#
#
# Mechanical properties :
#
#
# Convention : Reuss Voigt Hill
#
# Bulk Modulus (GPa) = 27.88476 74.11300 50.99888
# Shear Modulus (GPa) = 27.97594 44.75514 36.36554
#
# Velocity S-wave (km/s) = 3.36951 4.26183 3.84167
# Velocity P-wave (km/s) = 5.14342 7.36853 6.35414
#
# Compressibility (1/GPa) = 0.03586188
#
# Stress axis : x y z
#
# Youngs Moduli (GPa) = 49.96875 64.41916 190.34208
#
# Poissons Ratio (x) = 0.01576 0.19257
# Poissons Ratio (y) = 0.01222 0.22984
# Poissons Ratio (z) = 0.05055 0.07779
#
# Static dielectric constant tensor:
#      x y z
#    x 1.732280 0.173640 -0.132310 
#    y 0.173640 1.781020 0.114920 
#    z -0.132310 0.114920 1.850200 
# 
# From -- ./inp_files/156389.got.cif
#   From: 2010.05.17/outbox.cif.g08.bks.cpg/sg2_79_cif.got.tgz:156389.got - 2010.06.03 11:33:40.
