data_PCOD9066431
_publ_section_title
;
Structure prediction by ZEFSAII (Michael W. Deem and Ramdas Pophale) SiO2 
 PCOD9066431
Probable space group: P -1
;
_chemical_formula_sum "Si O2"
_cell_formula_units_Z 16
_cell_length_a 5.229595
_cell_length_b 22.925593
_cell_length_c 11.609011
_cell_angle_alpha 31.943420
_cell_angle_beta 61.147699
_cell_angle_gamma 67.412443
_cell_volume 644.008770
_symmetry_space_group_name_H-M "P -1"
_symmetry_group_IT_number 2
_symmetry_cell_setting 'triclinic'
loop_
_space_group_symop_operation_xyz
x,y,z
-x,-y,-z
loop_
_atom_site_type_symbol
_atom_site_label
_atom_site_fract_x
_atom_site_fract_y
_atom_site_fract_z
Si Si1 0.982389 0.238907 0.840113
Si Si2 0.395947 0.860638 0.503976
Si Si3 0.283119 0.429664 0.322520
Si Si4 0.026026 0.251799 0.074712
Si Si5 0.819872 0.572913 0.063028
Si Si6 0.944764 0.869947 0.217226
Si Si7 0.568847 0.926888 0.717123
Si Si8 0.805076 0.274041 0.429919
O O1 0.044899 0.358236 0.569445
O O2 0.134348 0.158890 0.849214
O O3 0.081199 0.259533 0.914948
O O4 0.670759 0.171195 0.036948
O O5 0.707909 0.843285 0.411295
O O6 0.199598 0.824002 0.498765
O O7 0.309199 0.772770 0.771023
O O8 0.394119 0.987068 0.331130
O O9 0.505862 0.512110 0.208075
O O10 0.513869 0.344271 0.366721
O O11 0.082686 0.493043 0.171351
O O12 0.144479 0.133352 0.277425
O O13 0.175676 0.346684 0.961336
O O14 0.935726 0.641995 0.811370
O O15 0.182303 0.783735 0.351020
O O16 0.000000 0.000000 0.000000
O O17 0.500000 0.000000 0.500000
#
# Coordination Sequence:
#
# PCOD9066431 Si02
#       8
#     2   2   2   2   2   2   2   2
#     4  12  28  46  76 109 163 196 260 331 402 469
#     4  11  25  45  78 109 155 201 269 308 401 474
#     4  12  27  51  78 121 155 212 266 347 402 455
#     4  11  29  47  77 112 153 210 266 328 387 489
#     4  11  29  50  86 109 157 214 280 329 399 466
#     4  12  27  46  76 117 164 207 255 328 409 479
#     4  12  27  47  77 111 159 211 260 315 400 490
#     4  11  27  46  79 115 162 203 269 325 399 489
#
# _framework density 24.844382
#
# number of rings (size 3 to 8) (size 9 to 14) (size 15 to 20)
#    0.000    0.500    3.750    1.875   14.000    1.500 
#    0.000    0.000    0.000    0.000    0.000    0.000 
#    0.000    0.000    0.000    0.000    0.000    0.000 
#
# Total GULP energy -89409.882895 kJ/mol
# GULP energy per Si atom -5588.117681 kJ/mol
# Density = 2.478783 g / cm^3
# Si number density = 24.844382 Si / 1000 Ang^3
#
#
#
# Elastic Constant Matrix: (Units=GPa)
#
#
# Indices 1 2 3 4 5 6 
#
# 1 87.7031 41.1434 63.5358 -3.0303 -9.0896 20.3298
# 2 41.1434 159.3830 31.4646 -7.5861 12.1634 38.5863
# 3 63.5358 31.4646 155.7571 7.5015 -0.6318 14.1476
# 4 -3.0303 -7.5861 7.5015 33.9083 5.2121 -10.3247
# 5 -9.0896 12.1634 -0.6318 5.2121 38.2439 -3.9139
# 6 20.3298 38.5863 14.1476 -10.3247 -3.9139 45.2019
#
#
#
# Elastic Compliance Matrix: (Units=1/GPa)
#
#
# Indices 1 2 3 4 5 6 
#
# 1 0.019173 -0.003170 -0.006915 0.000808 0.005020 -0.003133
# 2 -0.003170 0.009030 0.000030 0.000396 -0.004352 -0.006578
# 3 -0.006915 0.000030 0.009412 -0.002686 -0.001190 -0.000578
# 4 0.000808 0.000396 -0.002686 0.033063 -0.003730 0.007368
# 5 0.005020 -0.004352 -0.001190 -0.003730 0.029576 0.003539
# 6 -0.003133 -0.006578 -0.000578 0.007368 0.003539 0.031318
#
#
# Mechanical properties :
#
#
# Convention : Reuss Voigt Hill
#
# Bulk Modulus (GPa) = 57.12616 75.01454 66.07035
# Shear Modulus (GPa) = 31.74225 41.25077 36.49651
#
# Velocity S-wave (km/s) = 3.57829 4.07918 3.83692
# Velocity P-wave (km/s) = 6.33370 7.24193 6.80299
#
# Compressibility (1/GPa) = 0.01750512
#
# Stress axis : x y z
#
# Youngs Moduli (GPa) = 52.15626 110.73727 106.24919
#
# Poissons Ratio (x) = 0.35109 0.73466
# Poissons Ratio (y) = 0.16536 -0.00317
# Poissons Ratio (z) = 0.36064 -0.00330
#
# Static dielectric constant tensor:
#      x y z
#    x 2.100730 -0.020490 -0.003090 
#    y -0.020490 2.003170 0.017910 
#    z -0.003090 0.017910 1.994940 
# 
# From -- ./inp_files/370954.got.cif
#   From: 2010.05.17/outbox.cif.g08.bks.cpg/sg2_186_cif.got.tgz:370954.got - 2010.06.03 11:33:40.
