data_PCOD9066342
_publ_section_title
;
Structure prediction by ZEFSAII (Michael W. Deem and Ramdas Pophale) SiO2 
 PCOD9066342
Probable space group: P -1
;
_chemical_formula_sum "Si O2"
_cell_formula_units_Z 16
_cell_length_a 11.312389
_cell_length_b 10.775390
_cell_length_c 11.462049
_cell_angle_alpha 153.051855
_cell_angle_beta 84.781211
_cell_angle_gamma 89.170642
_cell_volume 616.254330
_symmetry_space_group_name_H-M "P -1"
_symmetry_group_IT_number 2
_symmetry_cell_setting 'triclinic'
loop_
_space_group_symop_operation_xyz
x,y,z
-x,-y,-z
loop_
_atom_site_type_symbol
_atom_site_label
_atom_site_fract_x
_atom_site_fract_y
_atom_site_fract_z
Si Si1 0.142863 0.617005 0.334301
Si Si2 0.498819 0.529144 0.781849
Si Si3 0.325882 0.342137 0.292481
Si Si4 0.421447 0.098638 0.706166
Si Si5 0.975039 0.880443 0.081059
Si Si6 0.249989 0.421783 0.806812
Si Si7 0.864224 0.075798 0.623048
Si Si8 0.206280 0.840956 0.877650
O O1 0.240088 0.466147 0.293137
O O2 0.202116 0.774252 0.361251
O O3 0.045070 0.854425 0.609157
O O4 0.076370 0.384410 0.092097
O O5 0.541127 0.679571 0.791511
O O6 0.359912 0.503418 0.793225
O O7 0.573088 0.203743 0.489503
O O8 0.529667 0.700818 0.037531
O O9 0.289436 0.564637 0.584799
O O10 0.285818 0.058608 0.093535
O O11 0.304062 0.281201 0.807577
O O12 0.500000 0.000000 0.500000
O O13 0.107440 0.790232 0.937131
O O14 0.881263 0.005107 0.089295
O O15 0.192658 0.183709 0.554264
O O16 0.153741 0.693137 0.082591
O O17 0.000000 0.000000 0.500000
#
# Coordination Sequence:
#
# PCOD9066342 Si02
#       8
#     2   2   2   2   2   2   2   2
#     4  10  19  32  49  69  96 132 168 205 246 292
#     4  11  20  31  49  76 105 136 168 196 245 315
#     4  10  18  28  46  74 106 132 159 192 236 301
#     4  10  18  30  48  72  98 131 170 202 238 298
#     4   9  17  30  48  68  97 134 164 191 241 300
#     4  11  21  36  52  69  99 134 168 212 262 299
#     4  12  25  39  53  71  97 132 182 231 260 282
#     4   9  17  28  44  71 104 133 157 191 234 293
#
# _framework density 25.963304999999998
#
# number of rings (size 3 to 8) (size 9 to 14) (size 15 to 20)
#    0.000    1.750    0.000    7.875    0.000    5.000 
#    0.000    0.000    0.000    0.000    0.000    0.000 
#    0.000   20.000    0.000    0.000    0.000    0.000 
#
# Total GULP energy -89613.743462 kJ/mol
# GULP energy per Si atom -5600.858966 kJ/mol
# Density = 2.590421 g / cm^3
# Si number density = 25.963305 Si / 1000 Ang^3
#
#
#
# Elastic Constant Matrix: (Units=GPa)
#
#
# Indices 1 2 3 4 5 6 
#
# 1 101.7239 31.1437 63.8773 6.1524 -3.1900 27.9498
# 2 31.1437 107.7773 52.1297 5.2516 10.5289 33.8157
# 3 63.8773 52.1297 193.3043 12.6958 9.1630 35.1167
# 4 6.1524 5.2516 12.6958 37.4238 11.1698 6.2447
# 5 -3.1900 10.5289 9.1630 11.1698 41.1651 4.2596
# 6 27.9498 33.8157 35.1167 6.2447 4.2596 53.0029
#
#
#
# Elastic Compliance Matrix: (Units=1/GPa)
#
#
# Indices 1 2 3 4 5 6 
#
# 1 0.013717 -0.001151 -0.003512 -0.001043 0.002865 -0.004279
# 2 -0.001151 0.012630 -0.001848 0.000810 -0.002495 -0.006121
# 3 -0.003512 -0.001848 0.007231 -0.001071 -0.000957 -0.001556
# 4 -0.001043 0.000810 -0.001071 0.029866 -0.007932 -0.002139
# 5 0.002865 -0.002495 -0.000957 -0.007932 0.027577 -0.000567
# 6 -0.004279 -0.006121 -0.001556 -0.002139 -0.000567 0.026357
#
#
# Mechanical properties :
#
#
# Convention : Reuss Voigt Hill
#
# Bulk Modulus (GPa) = 48.65352 77.45631 63.05492
# Shear Modulus (GPa) = 36.42895 43.36201 39.89548
#
# Velocity S-wave (km/s) = 3.74985 4.09115 3.92421
# Velocity P-wave (km/s) = 6.12606 7.22596 6.69862
#
# Compressibility (1/GPa) = 0.02055350
#
# Stress axis : x y z
#
# Youngs Moduli (GPa) = 72.90085 79.17721 138.29891
#
# Poissons Ratio (x) = 0.09117 0.48574
# Poissons Ratio (y) = 0.08394 0.25564
# Poissons Ratio (z) = 0.25605 0.14636
#
# Static dielectric constant tensor:
#      x y z
#    x 2.137720 -0.121020 -0.027160 
#    y -0.121020 2.043510 0.030720 
#    z -0.027160 0.030720 1.965970 
# 
# From -- ./inp_files/441251.got.cif
#   From: 2010.05.17/outbox.cif.g08.bks.cpg/sg2_221_cif.got.tgz:441251.got - 2010.06.03 11:33:40.
