data_PCOD9066916
_publ_section_title
;
Structure prediction by ZEFSAII (Michael W. Deem and Ramdas Pophale) SiO2 
 PCOD9066916
Probable space group: P -1
;
_chemical_formula_sum "Si O2"
_cell_formula_units_Z 14
_cell_length_a 15.265993
_cell_length_b 5.178613
_cell_length_c 24.244487
_cell_angle_alpha 122.322560
_cell_angle_beta 159.860060
_cell_angle_gamma 56.398278
_cell_volume 548.906422
_symmetry_space_group_name_H-M "P -1"
_symmetry_group_IT_number 2
_symmetry_cell_setting 'triclinic'
loop_
_space_group_symop_operation_xyz
x,y,z
-x,-y,-z
loop_
_atom_site_type_symbol
_atom_site_label
_atom_site_fract_x
_atom_site_fract_y
_atom_site_fract_z
Si Si1 0.393053 0.923737 0.869050
Si Si2 0.063805 0.152031 0.147362
Si Si3 0.913052 0.593907 0.398131
Si Si4 0.558755 0.763316 0.338621
Si Si5 0.749684 0.701669 0.957698
Si Si6 0.661994 0.669542 0.572665
Si Si7 0.121091 0.744011 0.447893
O O1 0.309690 0.583515 0.773854
O O2 0.609539 0.909573 0.948208
O O3 0.121658 0.151184 0.726829
O O4 0.500000 0.000000 0.000000
O O5 0.093036 0.275206 0.240275
O O6 0.973905 0.440727 0.086819
O O7 0.336992 0.952308 0.266589
O O8 0.860876 0.916903 0.003779
O O9 0.182105 0.443342 0.502365
O O10 0.906325 0.887175 0.389838
O O11 0.000000 0.500000 0.500000
O O12 0.678783 0.005986 0.400006
O O13 0.438494 0.505961 0.205563
O O14 0.500000 0.500000 0.500000
O O15 0.712141 0.489061 0.525299
O O16 0.500000 0.000000 0.500000
#
# Coordination Sequence:
#
# PCOD9066916 Si02
#       7
#     2   2   2   2   2   2   2
#     4  11  27  49  73 111 154 198 260 316 390 464
#     4  12  27  46  73 109 151 200 252 312 389 456
#     4  11  25  47  75 107 145 203 258 320 378 450
#     4  11  25  47  72 110 148 194 260 309 383 457
#     4  12  28  46  73 106 156 203 247 314 383 456
#     4  12  25  48  78 111 152 194 254 321 387 466
#     4  11  27  45  83 109 151 203 257 326 380 461
#
# _framework density 25.505255999999999
#
# number of rings (size 3 to 8) (size 9 to 14) (size 15 to 20)
#    0.000    0.571    2.857    3.429   10.000    2.857 
#    0.000    0.000    0.000    0.000    0.000    0.000 
#    0.000    0.000    0.000    0.000    0.000    0.000 
#
# Total GULP energy -78143.903556 kJ/mol
# GULP energy per Si atom -5581.707397 kJ/mol
# Density = 2.544720 g / cm^3
# Si number density = 25.505256 Si / 1000 Ang^3
#
#
#
# Elastic Constant Matrix: (Units=GPa)
#
#
# Indices 1 2 3 4 5 6 
#
# 1 156.1061 33.9770 24.1568 23.5929 5.3562 14.3913
# 2 33.9770 105.9228 8.4830 -8.9579 8.1990 9.2053
# 3 24.1568 8.4830 104.9874 13.1759 -9.7544 10.4234
# 4 23.5929 -8.9579 13.1759 57.3001 -5.5630 6.2522
# 5 5.3562 8.1990 -9.7544 -5.5630 53.8013 5.0879
# 6 14.3913 9.2053 10.4234 6.2522 5.0879 45.4506
#
#
#
# Elastic Compliance Matrix: (Units=1/GPa)
#
#
# Indices 1 2 3 4 5 6 
#
# 1 0.007758 -0.002512 -0.001133 -0.003282 -0.000826 -0.001144
# 2 -0.002512 0.010756 -0.000603 0.002919 -0.001052 -0.001528
# 3 -0.001133 -0.000603 0.010424 -0.001610 0.002110 -0.001924
# 4 -0.003282 0.002919 -0.001610 0.020045 0.001866 -0.002149
# 5 -0.000826 -0.001052 0.002110 0.001866 0.019638 -0.002464
# 6 -0.001144 -0.001528 -0.001924 -0.002149 -0.002464 0.023686
#
#
# Mechanical properties :
#
#
# Convention : Reuss Voigt Hill
#
# Bulk Modulus (GPa) = 48.92383 55.58331 52.25357
# Shear Modulus (GPa) = 46.46056 51.33702 48.89879
#
# Velocity S-wave (km/s) = 4.27266 4.49129 4.38334
# Velocity P-wave (km/s) = 6.60033 6.98110 6.79338
#
# Compressibility (1/GPa) = 0.02043994
#
# Stress axis : x y z
#
# Youngs Moduli (GPa) = 128.90292 92.97090 95.93605
#
# Poissons Ratio (x) = 0.23353 0.10873
# Poissons Ratio (y) = 0.32379 0.05790
# Poissons Ratio (z) = 0.14610 0.05611
#
# Static dielectric constant tensor:
#      x y z
#    x 2.245100 -0.484390 -0.307730 
#    y -0.484390 3.044750 0.654490 
#    z -0.307730 0.654490 2.532130 
# 
# From -- ./inp_files/611346.got.cif
#   From: 2010.05.17/outbox.cif.g08.bks.cpg/sg2_306_cif.got.tgz:611346.got - 2010.06.03 11:33:40.
