data_PCOD9066707
_publ_section_title
;
Structure prediction by ZEFSAII (Michael W. Deem and Ramdas Pophale) SiO2 
 PCOD9066707
Probable space group: P -1
;
_chemical_formula_sum "Si O2"
_cell_formula_units_Z 16
_cell_length_a 14.492382
_cell_length_b 9.476725
_cell_length_c 11.810891
_cell_angle_alpha 115.629908
_cell_angle_beta 61.683994
_cell_angle_gamma 61.755486
_cell_volume 668.335590
_symmetry_space_group_name_H-M "P -1"
_symmetry_group_IT_number 2
_symmetry_cell_setting 'triclinic'
loop_
_space_group_symop_operation_xyz
x,y,z
-x,-y,-z
loop_
_atom_site_type_symbol
_atom_site_label
_atom_site_fract_x
_atom_site_fract_y
_atom_site_fract_z
Si Si1 0.320635 0.357211 0.516328
Si Si2 0.739518 0.251324 0.450214
Si Si3 0.930049 0.587876 0.241322
Si Si4 0.896931 0.154909 0.736920
Si Si5 0.690685 0.986860 0.314897
Si Si6 0.565070 0.781067 0.038596
Si Si7 0.651356 0.181547 0.987984
Si Si8 0.876550 0.611965 0.720741
O O1 0.266016 0.575931 0.549467
O O2 0.127698 0.516724 0.734428
O O3 0.474682 0.210703 0.474408
O O4 0.431307 0.084175 0.280778
O O5 0.539911 0.496249 0.729285
O O6 0.725554 0.126576 0.327753
O O7 0.937199 0.991830 0.323631
O O8 0.744990 0.888662 0.380384
O O9 0.973695 0.616977 0.343700
O O10 0.137700 0.328178 0.961122
O O11 0.708633 0.510514 0.950316
O O12 0.807753 0.106672 0.821485
O O13 0.000000 0.000000 0.500000
O O14 0.435762 0.818401 0.060319
O O15 0.716582 0.676778 0.827184
O O16 0.753977 0.928231 0.927734
O O17 0.000000 0.500000 0.500000
#
# Coordination Sequence:
#
# PCOD9066707 Si02
#       8
#     2   2   2   2   2   2   2   2
#     4  12  26  47  74 107 138 191 243 300 361 425
#     4  12  27  46  74 103 146 191 241 300 363 429
#     4  11  25  46  74 108 141 189 244 296 364 423
#     4  12  27  46  68 107 151 194 241 297 370 433
#     4  11  26  49  73 103 147 188 246 303 352 428
#     4  12  25  45  73 106 150 189 242 298 361 438
#     4  12  26  44  70 107 146 193 240 298 365 434
#     4  12  24  44  76 107 149 190 235 299 364 432
#
# _framework density 23.940068
#
# number of rings (size 3 to 8) (size 9 to 14) (size 15 to 20)
#    0.000    0.250    3.750    4.500    5.250    1.500 
#    0.000    0.000    0.000    0.000    0.000    0.000 
#    0.000    0.000    0.000    0.000    0.000    0.000 
#
# Total GULP energy -89713.574997 kJ/mol
# GULP energy per Si atom -5607.098437 kJ/mol
# Density = 2.388558 g / cm^3
# Si number density = 23.940068 Si / 1000 Ang^3
#
#
#
# Elastic Constant Matrix: (Units=GPa)
#
#
# Indices 1 2 3 4 5 6 
#
# 1 103.9260 -0.2148 11.5172 -2.7893 -19.7131 -9.9043
# 2 -0.2148 69.8648 7.3856 7.6673 -2.2679 -9.4440
# 3 11.5172 7.3856 47.3490 1.5867 -9.9863 -3.3919
# 4 -2.7893 7.6673 1.5867 35.0722 12.5331 -10.0359
# 5 -19.7131 -2.2679 -9.9863 12.5331 41.0871 3.8824
# 6 -9.9043 -9.4440 -3.3919 -10.0359 3.8824 52.7159
#
#
#
# Elastic Compliance Matrix: (Units=1/GPa)
#
#
# Indices 1 2 3 4 5 6 
#
# 1 0.010860 0.000628 -0.001585 -0.000478 0.004854 0.001602
# 2 0.000628 0.015184 -0.001973 -0.003110 0.001418 0.002014
# 3 -0.001585 -0.001973 0.023078 -0.002768 0.005594 -0.000105
# 4 -0.000478 -0.003110 -0.002768 0.035776 -0.012640 0.006917
# 5 0.004854 0.001418 0.005594 -0.012640 0.032269 -0.003257
# 6 0.001602 0.002014 -0.000105 0.006917 -0.003257 0.021181
#
#
# Mechanical properties :
#
#
# Convention : Reuss Voigt Hill
#
# Bulk Modulus (GPa) = 23.11595 28.72397 25.91996
# Shear Modulus (GPa) = 31.52001 39.27185 35.39593
#
# Velocity S-wave (km/s) = 3.63246 4.05461 3.84933
# Velocity P-wave (km/s) = 5.22205 5.82616 5.53236
#
# Compressibility (1/GPa) = 0.04326017
#
# Stress axis : x y z
#
# Youngs Moduli (GPa) = 92.08277 65.86057 43.33108
#
# Poissons Ratio (x) = -0.04133 0.06867
# Poissons Ratio (y) = -0.05779 0.08551
# Poissons Ratio (z) = 0.14593 0.12997
#
# Static dielectric constant tensor:
#      x y z
#    x 1.874210 0.001760 0.023490 
#    y 0.001760 1.937900 0.008730 
#    z 0.023490 0.008730 1.924910 
# 
# From -- ./inp_files/447815.got.cif
#   From: 2010.05.17/outbox.cif.g08.bks.cpg/sg2_224_cif.got.tgz:447815.got - 2010.06.03 11:33:40.
