data_PCOD9066538
_publ_section_title
;
Structure prediction by ZEFSAII (Michael W. Deem and Ramdas Pophale) SiO2 
 PCOD9066538
Probable space group: P -1
;
_chemical_formula_sum "Si O2"
_cell_formula_units_Z 16
_cell_length_a 8.087265
_cell_length_b 9.273984
_cell_length_c 14.754922
_cell_angle_alpha 39.756293
_cell_angle_beta 80.439840
_cell_angle_gamma 90.970839
_cell_volume 679.291631
_symmetry_space_group_name_H-M "P -1"
_symmetry_group_IT_number 2
_symmetry_cell_setting 'triclinic'
loop_
_space_group_symop_operation_xyz
x,y,z
-x,-y,-z
loop_
_atom_site_type_symbol
_atom_site_label
_atom_site_fract_x
_atom_site_fract_y
_atom_site_fract_z
Si Si1 0.669445 0.859583 0.994931
Si Si2 0.145898 0.715478 0.630468
Si Si3 0.288603 0.266184 0.602260
Si Si4 0.621742 0.161019 0.117567
Si Si5 0.174989 0.409037 0.022413
Si Si6 0.423067 0.484027 0.668233
Si Si7 0.016948 0.001773 0.350194
Si Si8 0.899654 0.206693 0.913819
O O1 0.591616 0.724298 0.158528
O O2 0.532993 0.849470 0.932437
O O3 0.801455 0.713974 0.013995
O O4 0.762110 0.119500 0.887962
O O5 0.337633 0.674740 0.630816
O O6 0.108160 0.873582 0.640185
O O7 0.014303 0.463219 0.767959
O O8 0.101095 0.844447 0.483119
O O9 0.303898 0.402688 0.629503
O O10 0.389382 0.419309 0.437722
O O11 0.391443 0.068127 0.711833
O O12 0.097677 0.144487 0.647408
O O13 0.665290 0.381112 0.072699
O O14 0.790180 0.188457 0.024681
O O15 0.158532 0.209975 0.194930
O O16 0.000000 0.500000 0.000000
O O17 0.000000 0.000000 0.000000
#
# Coordination Sequence:
#
# PCOD9066538 Si02
#       8
#     2   2   2   2   2   2   2   2
#     4  12  27  42  73 104 138 189 231 287 356 411
#     4  11  25  46  71 103 138 182 235 287 347 421
#     4  11  26  44  69 100 142 182 226 289 353 411
#     4  12  25  45  69 104 143 181 235 290 346 418
#     4  12  24  46  72 100 139 182 240 291 340 415
#     4  11  26  46  66 101 143 181 229 284 354 417
#     4  11  26  45  71 102 138 185 231 290 350 409
#     4  12  23  44  74 101 134 185 240 285 342 413
#
# _framework density 23.553947999999998
#
# number of rings (size 3 to 8) (size 9 to 14) (size 15 to 20)
#    0.000    0.500    5.000    2.250    5.250    2.000 
#    0.000    0.000    0.000    0.000    0.000    0.000 
#    0.000    0.000    0.000    0.000    0.000    0.000 
#
# Total GULP energy -89626.452527 kJ/mol
# GULP energy per Si atom -5601.653283 kJ/mol
# Density = 2.350034 g / cm^3
# Si number density = 23.553948 Si / 1000 Ang^3
#
#
#
# Elastic Constant Matrix: (Units=GPa)
#
#
# Indices 1 2 3 4 5 6 
#
# 1 46.3022 -7.9773 -6.3090 2.3112 10.6463 0.0517
# 2 -7.9773 64.9809 -9.3408 -4.0876 2.8875 2.6566
# 3 -6.3090 -9.3408 102.9024 6.8926 9.3637 -0.9511
# 4 2.3112 -4.0876 6.8926 30.7642 1.2742 -0.3538
# 5 10.6463 2.8875 9.3637 1.2742 18.5489 1.1431
# 6 0.0517 2.6566 -0.9511 -0.3538 1.1431 37.0026
#
#
#
# Elastic Compliance Matrix: (Units=1/GPa)
#
#
# Indices 1 2 3 4 5 6 
#
# 1 0.027160 0.004585 0.003839 -0.001536 -0.018152 0.000278
# 2 0.004585 0.016703 0.002265 0.001623 -0.006429 -0.000933
# 3 0.003839 0.002265 0.011032 -0.002124 -0.008000 0.000342
# 4 -0.001536 0.001623 -0.002124 0.033339 -0.000599 0.000168
# 5 -0.018152 -0.006429 -0.008000 -0.000599 0.069526 -0.001872
# 6 0.000278 -0.000933 0.000342 0.000168 -0.001872 0.027160
#
#
# Mechanical properties :
#
#
# Convention : Reuss Voigt Hill
#
# Bulk Modulus (GPa) = 13.11089 18.54794 15.82942
# Shear Modulus (GPa) = 26.45945 33.11731 29.78838
#
# Velocity S-wave (km/s) = 3.35529 3.75376 3.56010
# Velocity P-wave (km/s) = 4.53751 5.16521 4.86150
#
# Compressibility (1/GPa) = 0.07627244
#
# Stress axis : x y z
#
# Youngs Moduli (GPa) = 36.81864 59.86774 90.64290
#
# Poissons Ratio (x) = -0.27447 -0.34794
# Poissons Ratio (y) = -0.16880 -0.20531
# Poissons Ratio (z) = -0.14133 -0.13560
#
# Static dielectric constant tensor:
#      x y z
#    x 1.933520 -0.023310 -0.012390 
#    y -0.023310 1.891570 0.000870 
#    z -0.012390 0.000870 1.856140 
# 
# From -- ./inp_files/205237.got.cif
#   From: 2010.05.17/outbox.cif.g08.bks.cpg/sg2_103_cif.got.tgz:205237.got - 2010.06.03 11:33:40.
