data_PCOD9066352
_publ_section_title
;
Structure prediction by ZEFSAII (Michael W. Deem and Ramdas Pophale) SiO2 
 PCOD9066352
Probable space group: P -1
;
_chemical_formula_sum "Si O2"
_cell_formula_units_Z 12
_cell_length_a 5.388859
_cell_length_b 9.998219
_cell_length_c 13.312008
_cell_angle_alpha 65.816273
_cell_angle_beta 53.008963
_cell_angle_gamma 66.427679
_cell_volume 510.885582
_symmetry_space_group_name_H-M "P -1"
_symmetry_group_IT_number 2
_symmetry_cell_setting 'triclinic'
loop_
_space_group_symop_operation_xyz
x,y,z
-x,-y,-z
loop_
_atom_site_type_symbol
_atom_site_label
_atom_site_fract_x
_atom_site_fract_y
_atom_site_fract_z
Si Si1 0.120648 0.921696 0.390795
Si Si2 0.735115 0.671484 0.335249
Si Si3 0.907508 0.072441 0.893896
Si Si4 0.263849 0.146921 0.131339
Si Si5 0.011187 0.648123 0.707010
Si Si6 0.326308 0.273291 0.451409
O O1 0.373193 0.763397 0.385977
O O2 0.803692 0.874683 0.440803
O O3 0.307614 0.026396 0.249797
O O4 0.000000 0.000000 0.500000
O O5 0.821861 0.525286 0.290828
O O6 0.787389 0.624342 0.453935
O O7 0.942663 0.790349 0.217063
O O8 0.985747 0.929779 0.844507
O O9 0.533027 0.140423 0.983422
O O10 0.000000 0.000000 0.000000
O O11 0.195858 0.303607 0.157694
O O12 0.296558 0.736357 0.632555
O O13 0.810721 0.686662 0.640021
#
# Coordination Sequence:
#
# PCOD9066352 Si02
#       6
#     2   2   2   2   2   2
#     4  12  24  42  74 109 139 186 236 290 352 426
#     4  12  26  45  73 104 145 188 235 285 361 417
#     4  11  25  45  74  96 140 189 242 295 338 419
#     4  11  25  46  69 107 137 185 244 293 349 412
#     4  12  29  44  75 106 148 182 229 299 357 422
#     4  12  25  45  71 108 145 184 227 288 358 422
#
# _framework density 23.488624999999999
#
# number of rings (size 3 to 8) (size 9 to 14) (size 15 to 20)
#    0.000    0.333    6.667    1.000    7.000    2.000 
#    0.000    0.833    0.000    0.000    0.000    0.000 
#    0.000    0.000    0.000    0.000    0.000    0.000 
#
# Total GULP energy -66899.551238 kJ/mol
# GULP energy per Si atom -5574.962603 kJ/mol
# Density = 2.343516 g / cm^3
# Si number density = 23.488625 Si / 1000 Ang^3
#
#
#
# Elastic Constant Matrix: (Units=GPa)
#
#
# Indices 1 2 3 4 5 6 
#
# 1 96.5112 32.6777 25.4914 3.7870 -0.9693 8.4029
# 2 32.6777 130.1404 10.7115 40.3556 17.6839 14.0343
# 3 25.4914 10.7115 70.3976 13.2448 7.5435 6.4843
# 4 3.7870 40.3556 13.2448 38.1563 13.4926 10.3739
# 5 -0.9693 17.6839 7.5435 13.4926 35.7549 1.9666
# 6 8.4029 14.0343 6.4843 10.3739 1.9666 33.8178
#
#
#
# Elastic Compliance Matrix: (Units=1/GPa)
#
#
# Indices 1 2 3 4 5 6 
#
# 1 0.013237 -0.004528 -0.005077 0.005167 0.001837 -0.002128
# 2 -0.004528 0.013109 0.002433 -0.013389 -0.002037 -0.000556
# 3 -0.005077 0.002433 0.017318 -0.007063 -0.002287 -0.000769
# 4 0.005167 -0.013389 -0.007063 0.047941 -0.009370 -0.008535
# 5 0.001837 -0.002037 -0.002287 -0.009370 0.032945 0.001786
# 6 -0.002128 -0.000556 -0.000769 -0.008535 0.001786 0.032992
#
#
# Mechanical properties :
#
#
# Convention : Reuss Voigt Hill
#
# Bulk Modulus (GPa) = 34.10567 48.31227 41.20897
# Shear Modulus (GPa) = 27.52424 36.75706 32.14065
#
# Velocity S-wave (km/s) = 3.42689 3.96016 3.70313
# Velocity P-wave (km/s) = 5.49633 6.44387 5.98887
#
# Compressibility (1/GPa) = 0.02932063
#
# Stress axis : x y z
#
# Youngs Moduli (GPa) = 75.54812 76.28274 57.74339
#
# Poissons Ratio (x) = 0.34541 0.29316
# Poissons Ratio (y) = 0.34208 -0.14051
# Poissons Ratio (z) = 0.38355 -0.18563
#
# Static dielectric constant tensor:
#      x y z
#    x 2.040180 -0.058410 -0.030880 
#    y -0.058410 1.947540 0.047220 
#    z -0.030880 0.047220 1.981760 
# 
# From -- ./inp_files/101602.got.cif
#   From: 2010.05.17/outbox.cif.g08.bks.cpg/sg2_51_cif.got.tgz:101602.got - 2010.06.03 11:33:40.
