data_PCOD9066183
_publ_section_title
;
Structure prediction by ZEFSAII (Michael W. Deem and Ramdas Pophale) SiO2 
 PCOD9066183
Probable space group: P -1
;
_chemical_formula_sum "Si O2"
_cell_formula_units_Z 12
_cell_length_a 7.648962
_cell_length_b 9.598426
_cell_length_c 10.177278
_cell_angle_alpha 89.772506
_cell_angle_beta 135.754808
_cell_angle_gamma 70.080079
_cell_volume 453.759152
_symmetry_space_group_name_H-M "P -1"
_symmetry_group_IT_number 2
_symmetry_cell_setting 'triclinic'
loop_
_space_group_symop_operation_xyz
x,y,z
-x,-y,-z
loop_
_atom_site_type_symbol
_atom_site_label
_atom_site_fract_x
_atom_site_fract_y
_atom_site_fract_z
Si Si1 0.960953 0.450727 0.292998
Si Si2 0.483578 0.361904 0.142735
Si Si3 0.328213 0.001397 0.717864
Si Si4 0.818825 0.867539 0.644862
Si Si5 0.071300 0.067994 0.863899
Si Si6 0.549465 0.407547 0.662833
O O1 0.734430 0.393936 0.219310
O O2 0.143266 0.301602 0.294289
O O3 0.224811 0.438285 0.522154
O O4 0.755697 0.607600 0.098493
O O5 0.605947 0.181587 0.257804
O O6 0.358194 0.500018 0.184235
O O7 0.175851 0.104902 0.508783
O O8 0.148554 0.083601 0.753214
O O9 0.642566 0.981341 0.901459
O O10 0.500000 0.000000 0.500000
O O11 0.023825 0.915681 0.831446
O O12 0.793279 0.224923 0.768443
O O13 0.500000 0.500000 0.500000
#
# Coordination Sequence:
#
# PCOD9066183 Si02
#       6
#     2   2   2   2   2   2
#     4  11  26  47  70 105 139 183 232 286 346 408
#     4  11  26  48  72  99 144 184 228 286 347 410
#     4  11  26  47  74  99 141 187 229 282 347 413
#     4  12  25  45  74 103 140 179 236 288 342 407
#     4  11  25  45  70 105 134 185 233 280 343 414
#     4  12  26  43  73 104 140 182 235 282 346 413
#
# _framework density 26.445744999999999
#
# number of rings (size 3 to 8) (size 9 to 14) (size 15 to 20)
#    0.000    0.667    3.333    3.000    4.667    3.333 
#    3.000    0.000    0.000    0.000    0.000    0.000 
#    0.000    0.000    0.000    0.000    0.000    0.000 
#
# Total GULP energy -67164.329507 kJ/mol
# GULP energy per Si atom -5597.027459 kJ/mol
# Density = 2.638555 g / cm^3
# Si number density = 26.445745 Si / 1000 Ang^3
#
#
#
# Elastic Constant Matrix: (Units=GPa)
#
#
# Indices 1 2 3 4 5 6 
#
# 1 67.9036 17.0871 21.5989 -6.4969 10.5522 -4.5442
# 2 17.0871 99.8591 46.9479 12.0842 -0.9808 -4.5454
# 3 21.5989 46.9479 151.5773 7.6839 17.5644 5.3024
# 4 -6.4969 12.0842 7.6839 50.1454 15.3560 10.8658
# 5 10.5522 -0.9808 17.5644 15.3560 42.0554 2.1984
# 6 -4.5442 -4.5454 5.3024 10.8658 2.1984 36.0733
#
#
#
# Elastic Compliance Matrix: (Units=1/GPa)
#
#
# Indices 1 2 3 4 5 6 
#
# 1 0.017230 -0.002992 -0.001140 0.004669 -0.005669 0.000900
# 2 -0.002992 0.013207 -0.004030 -0.004973 0.004395 0.003110
# 3 -0.001140 -0.004030 0.008443 0.001071 -0.003621 -0.001994
# 4 0.004669 -0.004973 0.001071 0.026598 -0.011053 -0.007534
# 5 -0.005669 0.004395 -0.003621 -0.011053 0.030756 0.001827
# 6 0.000900 0.003110 -0.001994 -0.007534 0.001827 0.030678
#
#
# Mechanical properties :
#
#
# Convention : Reuss Voigt Hill
#
# Bulk Modulus (GPa) = 44.33380 54.51196 49.42288
# Shear Modulus (GPa) = 33.16625 41.23525 37.20075
#
# Velocity S-wave (km/s) = 3.54520 3.95300 3.75464
# Velocity P-wave (km/s) = 5.79296 6.44147 6.12580
#
# Compressibility (1/GPa) = 0.02255616
#
# Stress axis : x y z
#
# Youngs Moduli (GPa) = 58.03789 75.71511 118.44008
#
# Poissons Ratio (x) = 0.22655 0.13499
# Poissons Ratio (y) = 0.17366 0.47736
# Poissons Ratio (z) = 0.06615 0.30516
#
# Static dielectric constant tensor:
#      x y z
#    x 2.247870 -0.114430 0.076050 
#    y -0.114430 2.142180 0.078790 
#    z 0.076050 0.078790 1.907170 
# 
# From -- ./inp_files/173847.got.cif
#   From: 2010.05.17/outbox.cif.g08.bks.cpg/sg2_87_cif.got.tgz:173847.got - 2010.06.03 11:33:40.
