data_PCOD9066739
_publ_section_title
;
Structure prediction by ZEFSAII (Michael W. Deem and Ramdas Pophale) SiO2 
 PCOD9066739
Probable space group: P -1
;
_chemical_formula_sum "Si O2"
_cell_formula_units_Z 12
_cell_length_a 16.415239
_cell_length_b 7.572816
_cell_length_c 11.502469
_cell_angle_alpha 65.381270
_cell_angle_beta 157.338543
_cell_angle_gamma 110.656320
_cell_volume 498.779873
_symmetry_space_group_name_H-M "P -1"
_symmetry_group_IT_number 2
_symmetry_cell_setting 'triclinic'
loop_
_space_group_symop_operation_xyz
x,y,z
-x,-y,-z
loop_
_atom_site_type_symbol
_atom_site_label
_atom_site_fract_x
_atom_site_fract_y
_atom_site_fract_z
Si Si1 0.489436 0.290962 0.599305
Si Si2 0.653966 0.167792 0.640670
Si Si3 0.992646 0.660349 0.052922
Si Si4 0.679012 0.666032 0.019831
Si Si5 0.453136 0.981796 0.809825
Si Si6 0.875689 0.319263 0.527206
O O1 0.500000 0.500000 0.500000
O O2 0.690602 0.197440 0.817547
O O3 0.487819 0.196891 0.747860
O O4 0.246307 0.256586 0.256067
O O5 0.871868 0.170163 0.861846
O O6 0.500000 0.000000 0.500000
O O7 0.503628 0.327180 0.322488
O O8 0.091028 0.589343 0.325781
O O9 0.000000 0.500000 0.000000
O O10 0.724673 0.466637 0.207575
O O11 0.897595 0.703994 0.232506
O O12 0.601059 0.834145 0.963251
O O13 0.230707 0.882239 0.538594
O O14 0.500000 0.000000 0.000000
#
# Coordination Sequence:
#
# PCOD9066739 Si02
#       6
#     2   2   2   2   2   2
#     4  12  27  45  71 106 146 188 244 300 364 426
#     4  12  24  45  72 102 144 189 240 304 356 431
#     4  12  26  42  75 107 139 191 245 297 363 434
#     4  11  25  46  75 102 146 193 241 301 369 429
#     4  12  29  46  74 106 149 192 244 303 365 436
#     4  11  26  47  74 105 145 194 243 300 365 439
#
# _framework density 24.058709
#
# number of rings (size 3 to 8) (size 9 to 14) (size 15 to 20)
#    0.000    0.333    6.667    0.500    7.000    2.000 
#    0.000    0.000    0.000    0.000    0.000    0.000 
#    0.000    0.000    0.000    0.000    0.000    0.000 
#
# Total GULP energy -66823.518908 kJ/mol
# GULP energy per Si atom -5568.626576 kJ/mol
# Density = 2.400395 g / cm^3
# Si number density = 24.058709 Si / 1000 Ang^3
#
#
#
# Elastic Constant Matrix: (Units=GPa)
#
#
# Indices 1 2 3 4 5 6 
#
# 1 193.6189 71.1645 64.8068 10.2231 -11.6219 41.2790
# 2 71.1645 104.4039 26.2412 2.0225 -3.2621 42.2736
# 3 64.8068 26.2412 93.8281 -6.8094 -8.2853 22.4491
# 4 10.2231 2.0225 -6.8094 34.4242 14.1221 -5.5679
# 5 -11.6219 -3.2621 -8.2853 14.1221 66.8884 6.9289
# 6 41.2790 42.2736 22.4491 -5.5679 6.9289 55.4653
#
#
#
# Elastic Compliance Matrix: (Units=1/GPa)
#
#
# Indices 1 2 3 4 5 6 
#
# 1 0.009076 -0.003739 -0.004729 -0.004707 0.002085 -0.002724
# 2 -0.003739 0.016232 0.000483 -0.002097 0.001702 -0.010208
# 3 -0.004729 0.000483 0.014696 0.003673 0.000505 -0.002491
# 4 -0.004707 -0.002097 0.003673 0.036350 -0.009009 0.008389
# 5 0.002085 0.001702 0.000505 -0.009009 0.018003 -0.006207
# 6 -0.002724 -0.010208 -0.002491 0.008389 -0.006207 0.030463
#
#
# Mechanical properties :
#
#
# Convention : Reuss Voigt Hill
#
# Bulk Modulus (GPa) = 41.60568 79.58622 60.59595
# Shear Modulus (GPa) = 33.60190 46.66480 40.13335
#
# Velocity S-wave (km/s) = 3.74125 4.40889 4.08872
# Velocity P-wave (km/s) = 5.99946 7.68567 6.89431
#
# Compressibility (1/GPa) = 0.02403518
#
# Stress axis : x y z
#
# Youngs Moduli (GPa) = 110.17691 61.60639 68.04459
#
# Poissons Ratio (x) = 0.23032 0.32179
# Poissons Ratio (y) = 0.41191 -0.03286
# Poissons Ratio (z) = 0.52104 -0.02975
#
# Static dielectric constant tensor:
#      x y z
#    x 1.954990 -0.207410 -0.011760 
#    y -0.207410 2.211910 -0.067370 
#    z -0.011760 -0.067370 1.991080 
# 
# From -- ./inp_files/461140.got.cif
#   From: 2010.05.17/outbox.cif.g08.bks.cpg/sg2_231_cif.got.tgz:461140.got - 2010.06.03 11:33:40.
