data_PCOD9066042
_publ_section_title
;
Structure prediction by ZEFSAII (Michael W. Deem and Ramdas Pophale) SiO2 
 PCOD9066042
Probable space group: P -1
;
_chemical_formula_sum "Si O2"
_cell_formula_units_Z 12
_cell_length_a 9.774251
_cell_length_b 9.712417
_cell_length_c 4.862510
_cell_angle_alpha 91.080270
_cell_angle_beta 73.429726
_cell_angle_gamma 107.836791
_cell_volume 419.980341
_symmetry_space_group_name_H-M "P -1"
_symmetry_group_IT_number 2
_symmetry_cell_setting 'triclinic'
loop_
_space_group_symop_operation_xyz
x,y,z
-x,-y,-z
loop_
_atom_site_type_symbol
_atom_site_label
_atom_site_fract_x
_atom_site_fract_y
_atom_site_fract_z
Si Si1 0.541246 0.428316 0.260130
Si Si2 0.834099 0.934418 0.371224
Si Si3 0.220196 0.699105 0.724390
Si Si4 0.058376 0.242241 0.068111
Si Si5 0.378161 0.268092 0.902181
Si Si6 0.669828 0.088783 0.834560
O O1 0.706798 0.424905 0.253927
O O2 0.557875 0.614194 0.390950
O O3 0.500000 0.500000 0.000000
O O4 0.480701 0.274210 0.109333
O O5 0.691363 0.878665 0.240837
O O6 0.774313 0.702822 0.904519
O O7 0.963510 0.084471 0.235305
O O8 0.905913 0.804651 0.264902
O O9 0.040489 0.655381 0.798451
O O10 0.310524 0.795114 0.423762
O O11 0.245249 0.811309 0.963889
O O12 0.238698 0.018825 0.320318
O O13 0.500000 0.000000 0.000000
#
# Coordination Sequence:
#
# PCOD9066042 Si02
#       6
#     2   2   2   2   2   2
#     4  11  26  43  67 101 145 198 250 291 352 427
#     4   8  18  43  75 106 141 184 237 290 378 428
#     4  11  26  44  71 109 145 186 248 301 351 436
#     4   8  18  44  74 107 142 185 239 299 369 430
#     4   9  21  46  72  96 146 198 239 298 359 434
#     4  11  25  44  72 110 151 187 232 306 371 431
#
# _framework density 28.572763999999999
#
# number of rings (size 3 to 8) (size 9 to 14) (size 15 to 20)
#    1.000    1.333    0.000    0.500    7.000    4.000 
#    6.000    0.833    0.000    0.000    0.000    0.000 
#    0.000    0.000    0.000    0.000    0.000    0.000 
#
# Total GULP energy -66965.412473 kJ/mol
# GULP energy per Si atom -5580.451039 kJ/mol
# Density = 2.850773 g / cm^3
# Si number density = 28.572764 Si / 1000 Ang^3
#
#
#
# Elastic Constant Matrix: (Units=GPa)
#
#
# Indices 1 2 3 4 5 6 
#
# 1 168.6557 13.1804 21.7483 -3.0325 -17.2013 -36.9000
# 2 13.1804 95.6658 25.3368 -8.5437 -5.0044 -24.0927
# 3 21.7483 25.3368 188.9199 24.3981 -20.4562 -2.2113
# 4 -3.0325 -8.5437 24.3981 52.4530 -1.7484 -1.3681
# 5 -17.2013 -5.0044 -20.4562 -1.7484 51.6978 4.1310
# 6 -36.9000 -24.0927 -2.2113 -1.3681 4.1310 66.1013
#
#
#
# Elastic Compliance Matrix: (Units=1/GPa)
#
#
# Indices 1 2 3 4 5 6 
#
# 1 0.007067 0.000411 -0.000754 0.000990 0.001808 0.003977
# 2 0.000411 0.012420 -0.002033 0.003125 0.000262 0.004737
# 3 -0.000754 -0.002033 0.006279 -0.003258 0.002018 -0.001145
# 4 0.000990 0.003125 -0.003258 0.021196 -0.000102 0.002028
# 5 0.001808 0.000262 0.002018 -0.000102 0.020776 -0.000128
# 6 0.003977 0.004737 -0.001145 0.002028 -0.000128 0.019086
#
#
# Mechanical properties :
#
#
# Convention : Reuss Voigt Hill
#
# Bulk Modulus (GPa) = 47.58903 63.75247 55.67075
# Shear Modulus (GPa) = 50.72021 60.24881 55.48451
#
# Velocity S-wave (km/s) = 4.21779 4.59694 4.41144
# Velocity P-wave (km/s) = 6.35698 7.10891 6.74344
#
# Compressibility (1/GPa) = 0.02101325
#
# Stress axis : x y z
#
# Youngs Moduli (GPa) = 141.50848 80.51228 159.27367
#
# Poissons Ratio (x) = -0.03306 0.12011
# Poissons Ratio (y) = -0.05811 0.32377
# Poissons Ratio (z) = 0.10671 0.16366
#
# Static dielectric constant tensor:
#      x y z
#    x 2.716870 2.335010 -0.138200 
#    y 2.335010 15.182930 -0.831890 
#    z -0.138200 -0.831890 2.317200 
# 
# From -- ./inp_files/60491.got.cif
#   From: 2010.05.17/outbox.cif.g08.bks.cpg/sg2_31_cif.got.tgz:60491.got - 2010.06.03 11:33:40.
