data_PCOD9066127
_publ_section_title
;
Structure prediction by ZEFSAII (Michael W. Deem and Ramdas Pophale) SiO2 
 PCOD9066127
Probable space group: P -1
;
_chemical_formula_sum "Si O2"
_cell_formula_units_Z 12
_cell_length_a 4.978203
_cell_length_b 11.507594
_cell_length_c 12.889166
_cell_angle_alpha 46.855934
_cell_angle_beta 84.374639
_cell_angle_gamma 96.123886
_cell_volume 520.588536
_symmetry_space_group_name_H-M "P -1"
_symmetry_group_IT_number 2
_symmetry_cell_setting 'triclinic'
loop_
_space_group_symop_operation_xyz
x,y,z
-x,-y,-z
loop_
_atom_site_type_symbol
_atom_site_label
_atom_site_fract_x
_atom_site_fract_y
_atom_site_fract_z
Si Si1 0.587687 0.928282 0.696153
Si Si2 0.853427 0.359657 0.010888
Si Si3 0.991042 0.176929 0.648587
Si Si4 0.511441 0.327444 0.658326
Si Si5 0.605506 0.583183 0.163194
Si Si6 0.368577 0.221168 0.421450
O O1 0.722433 0.843476 0.650537
O O2 0.801429 0.999279 0.735961
O O3 0.494220 0.082716 0.555717
O O4 0.318879 0.798346 0.825766
O O5 0.626039 0.417355 0.914457
O O6 0.094870 0.329932 0.945109
O O7 0.000000 0.500000 0.000000
O O8 0.793991 0.281925 0.641703
O O9 0.253353 0.191679 0.704272
O O10 0.123304 0.245573 0.490768
O O11 0.500000 0.500000 0.500000
O O12 0.475524 0.341856 0.773250
O O13 0.593173 0.392280 0.301538
#
# Coordination Sequence:
#
# PCOD9066127 Si02
#       6
#     2   2   2   2   2   2
#     4  11  26  48  72 113 148 193 239 309 366 439
#     4  12  28  49  74 105 155 189 239 297 380 434
#     4  12  24  44  72 108 142 191 238 306 361 417
#     4  12  25  45  74 107 148 190 247 303 351 429
#     4  12  27  48  75 112 140 196 246 300 357 441
#     4  11  25  44  80 106 149 182 255 298 368 419
#
# _framework density 23.050833000000001
#
# number of rings (size 3 to 8) (size 9 to 14) (size 15 to 20)
#    0.000    0.333    5.000    2.500    7.000    0.000 
#    0.000    5.000    0.000    0.000    0.000    0.000 
#    0.000    0.000    0.000    0.000    0.000    0.000 
#
# Total GULP energy -67259.318176 kJ/mol
# GULP energy per Si atom -5604.943181 kJ/mol
# Density = 2.299837 g / cm^3
# Si number density = 23.050833 Si / 1000 Ang^3
#
#
#
# Elastic Constant Matrix: (Units=GPa)
#
#
# Indices 1 2 3 4 5 6 
#
# 1 104.3527 18.6953 46.4457 4.0290 -11.7533 3.1151
# 2 18.6953 109.3703 44.5224 18.3695 -10.2715 4.6651
# 3 46.4457 44.5224 111.3945 3.6495 -13.2667 -0.2708
# 4 4.0290 18.3695 3.6495 30.7567 -3.9688 -17.6951
# 5 -11.7533 -10.2715 -13.2667 -3.9688 34.6044 4.5878
# 6 3.1151 4.6651 -0.2708 -17.6951 4.5878 51.8537
#
#
#
# Elastic Compliance Matrix: (Units=1/GPa)
#
#
# Indices 1 2 3 4 5 6 
#
# 1 0.012063 0.000571 -0.004913 -0.002008 0.002378 -0.001697
# 2 0.000571 0.013065 -0.004951 -0.009793 0.001677 -0.004726
# 3 -0.004913 -0.004951 0.013144 0.003318 0.002048 0.001760
# 4 -0.002008 -0.009793 0.003318 0.048390 0.000920 0.017451
# 5 0.002378 0.001677 0.002048 0.000920 0.031459 -0.002753
# 6 -0.001697 -0.004726 0.001760 0.017451 -0.002753 0.026020
#
#
# Mechanical properties :
#
#
# Convention : Reuss Voigt Hill
#
# Bulk Modulus (GPa) = 50.79703 60.49381 55.64542
# Shear Modulus (GPa) = 29.53533 37.80658 33.67096
#
# Velocity S-wave (km/s) = 3.58343 4.05426 3.82609
# Velocity P-wave (km/s) = 6.26147 6.94382 6.61146
#
# Compressibility (1/GPa) = 0.01968619
#
# Stress axis : x y z
#
# Youngs Moduli (GPa) = 82.89559 76.54124 76.08128
#
# Poissons Ratio (x) = -0.04370 0.37380
# Poissons Ratio (y) = -0.04733 0.37666
# Poissons Ratio (z) = 0.40728 0.37894
#
# Static dielectric constant tensor:
#      x y z
#    x 1.851670 0.006130 0.004330 
#    y 0.006130 1.880070 -0.000380 
#    z 0.004330 -0.000380 1.862050 
# 
# From -- ./inp_files/363655.got.cif
#   From: 2010.05.17/outbox.cif.g08.bks.cpg/sg2_182_cif.got.tgz:363655.got - 2010.06.03 11:33:40.
