data_PCOD9066629
_publ_section_title
;
Structure prediction by ZEFSAII (Michael W. Deem and Ramdas Pophale) SiO2 
 PCOD9066629
Probable space group: P -1
;
_chemical_formula_sum "Si O2"
_cell_formula_units_Z 16
_cell_length_a 21.117122
_cell_length_b 18.036334
_cell_length_c 11.360007
_cell_angle_alpha 33.496685
_cell_angle_beta 39.012455
_cell_angle_gamma 19.318064
_cell_volume 788.764863
_symmetry_space_group_name_H-M "P -1"
_symmetry_group_IT_number 2
_symmetry_cell_setting 'triclinic'
loop_
_space_group_symop_operation_xyz
x,y,z
-x,-y,-z
loop_
_atom_site_type_symbol
_atom_site_label
_atom_site_fract_x
_atom_site_fract_y
_atom_site_fract_z
Si Si1 0.901765 0.360274 0.544814
Si Si2 0.326871 0.513487 0.922023
Si Si3 0.544249 0.532058 0.620156
Si Si4 0.710435 0.063942 0.339217
Si Si5 0.545681 0.808998 0.624982
Si Si6 0.201816 0.344473 0.909123
Si Si7 0.429604 0.248050 0.887196
Si Si8 0.109522 0.935118 0.110720
O O1 0.749744 0.581166 0.567624
O O2 0.828856 0.496635 0.345154
O O3 0.909526 0.190249 0.754660
O O4 0.110710 0.177768 0.517199
O O5 0.412877 0.564197 0.713284
O O6 0.366632 0.376049 0.934053
O O7 0.436453 0.326369 0.123252
O O8 0.101886 0.777599 0.927346
O O9 0.555218 0.644100 0.367535
O O10 0.751516 0.240381 0.745169
O O11 0.445706 0.690768 0.674835
O O12 0.611083 0.056284 0.423032
O O13 0.793126 0.074725 0.109732
O O14 0.500000 0.000000 0.500000
O O15 0.279332 0.314011 0.960565
O O16 0.000000 0.500000 0.000000
O O17 0.366640 0.059546 0.997851
#
# Coordination Sequence:
#
# PCOD9066629 Si02
#       8
#     2   2   2   2   2   2   2   2
#     4  12  23  43  71 100 131 174 229 278 333 401
#     4  12  26  43  67 103 142 172 219 279 339 400
#     4  12  23  42  73  99 132 180 223 277 342 387
#     4  12  23  42  72 100 134 173 225 278 333 399
#     4  12  26  44  66  98 139 180 220 276 335 397
#     4  11  25  46  72  97 131 184 234 270 328 397
#     4  11  26  47  67 100 139 178 226 277 328 402
#     4  12  23  41  70 104 132 171 222 277 339 398
#
# _framework density 20.284880000000001
#
# number of rings (size 3 to 8) (size 9 to 14) (size 15 to 20)
#    0.000    0.250    6.250    3.375    0.000    5.000 
#    2.250    0.000    0.000    0.000    0.000    0.000 
#    0.000    0.000    0.000    0.000    0.000    0.000 
#
# Total GULP energy -89574.071821 kJ/mol
# GULP energy per Si atom -5598.379489 kJ/mol
# Density = 2.023871 g / cm^3
# Si number density = 20.284880 Si / 1000 Ang^3
#
#
#
# Elastic Constant Matrix: (Units=GPa)
#
#
# Indices 1 2 3 4 5 6 
#
# 1 109.2022 58.1258 -7.1303 -19.7885 -11.8267 4.6791
# 2 58.1258 89.9524 -4.7908 -12.8622 -9.3601 -8.7830
# 3 -7.1303 -4.7908 23.4192 -7.8337 3.6591 -10.8546
# 4 -19.7885 -12.8622 -7.8337 24.4200 -3.8419 2.5766
# 5 -11.8267 -9.3601 3.6591 -3.8419 34.0636 -8.5368
# 6 4.6791 -8.7830 -10.8546 2.5766 -8.5368 35.9030
#
#
#
# Elastic Compliance Matrix: (Units=1/GPa)
#
#
# Indices 1 2 3 4 5 6 
#
# 1 0.016772 -0.008821 0.005339 0.011487 0.003435 -0.002737
# 2 -0.008821 0.019009 0.005894 0.004532 0.004102 0.008232
# 3 0.005339 0.005894 0.062268 0.026124 0.004430 0.018750
# 4 0.011487 0.004532 0.026124 0.062138 0.010846 0.005629
# 5 0.003435 0.004102 0.004430 0.010846 0.034776 0.009386
# 6 -0.002737 0.008232 0.018750 0.005629 0.009386 0.037720
#
#
# Mechanical properties :
#
#
# Convention : Reuss Voigt Hill
#
# Bulk Modulus (GPa) = 9.72065 34.99810 22.35938
# Shear Modulus (GPa) = 19.07298 30.63526 24.85412
#
# Velocity S-wave (km/s) = 3.06969 3.89041 3.50416
# Velocity P-wave (km/s) = 4.16731 6.12137 5.23630
#
# Compressibility (1/GPa) = 0.10287376
#
# Stress axis : x y z
#
# Youngs Moduli (GPa) = 59.62379 52.60611 16.05951
#
# Poissons Ratio (x) = 0.46401 -0.08574
# Poissons Ratio (y) = 0.52591 -0.09465
# Poissons Ratio (z) = -0.31834 -0.31004
#
# Static dielectric constant tensor:
#      x y z
#    x 1.700530 -0.028510 0.006720 
#    y -0.028510 1.685700 0.011520 
#    z 0.006720 0.011520 1.734370 
# 
# From -- ./inp_files/338220.got.cif
#   From: 2010.05.17/outbox.cif.g08.bks.cpg/sg2_170_cif.got.tgz:338220.got - 2010.06.03 11:33:40.
