data_PCOD9066366
_publ_section_title
;
Structure prediction by ZEFSAII (Michael W. Deem and Ramdas Pophale) SiO2 
 PCOD9066366
Probable space group: P -1
;
_chemical_formula_sum "Si O2"
_cell_formula_units_Z 14
_cell_length_a 9.034210
_cell_length_b 8.811058
_cell_length_c 8.988945
_cell_angle_alpha 92.710655
_cell_angle_beta 96.956073
_cell_angle_gamma 69.492585
_cell_volume 665.241127
_symmetry_space_group_name_H-M "P -1"
_symmetry_group_IT_number 2
_symmetry_cell_setting 'triclinic'
loop_
_space_group_symop_operation_xyz
x,y,z
-x,-y,-z
loop_
_atom_site_type_symbol
_atom_site_label
_atom_site_fract_x
_atom_site_fract_y
_atom_site_fract_z
Si Si1 0.590416 0.539893 0.653009
Si Si2 0.316012 0.017385 0.111809
Si Si3 0.828293 0.227205 0.814039
Si Si4 0.408858 0.866793 0.800898
Si Si5 0.116470 0.356494 0.410233
Si Si6 0.024548 0.326439 0.068855
Si Si7 0.098183 0.089079 0.607576
O O1 0.500000 0.500000 0.500000
O O2 0.679124 0.377558 0.748702
O O3 0.475105 0.681851 0.747846
O O4 0.729051 0.602919 0.615022
O O5 0.216645 0.933427 0.192465
O O6 0.457583 0.052524 0.214775
O O7 0.195460 0.189870 0.046730
O O8 0.383690 0.897760 0.975678
O O9 0.974112 0.201309 0.717296
O O10 0.891547 0.263076 0.982241
O O11 0.245248 0.961919 0.703878
O O12 0.027143 0.340964 0.247063
O O13 0.157040 0.196793 0.506945
O O14 0.000000 0.500000 0.500000
O O15 0.000000 0.500000 0.000000
O O16 0.000000 0.000000 0.500000
#
# Coordination Sequence:
#
# PCOD9066366 Si02
#       7
#     2   2   2   2   2   2   2
#     4  12  27  48  70 105 150 189 238 296 363 434
#     4  11  25  45  75 106 141 185 243 303 358 420
#     4  12  25  47  74 104 139 193 247 291 354 434
#     4  11  26  47  70 105 146 187 235 302 366 421
#     4  12  26  46  71 105 141 188 237 295 355 422
#     4  12  22  45  74 102 143 182 240 297 349 428
#     4  12  26  44  72 105 140 188 239 290 357 427
#
# _framework density 21.045000999999999
#
# number of rings (size 3 to 8) (size 9 to 14) (size 15 to 20)
#    0.000    0.286    5.714    2.143    4.000    1.143 
#    0.000    0.000    0.000    0.000    0.000    0.000 
#    0.000    0.000    0.000    0.000    0.000    0.000 
#
# Total GULP energy -78365.807488 kJ/mol
# GULP energy per Si atom -5597.557678 kJ/mol
# Density = 2.099710 g / cm^3
# Si number density = 21.045001 Si / 1000 Ang^3
#
#
#
# Elastic Constant Matrix: (Units=GPa)
#
#
# Indices 1 2 3 4 5 6 
#
# 1 58.8408 25.1197 24.9164 -6.9750 24.7975 0.1703
# 2 25.1197 132.2336 37.0830 7.9774 4.5428 -25.7734
# 3 24.9164 37.0830 116.4312 19.5209 24.3993 -18.5711
# 4 -6.9750 7.9774 19.5209 40.3093 0.1080 -4.8539
# 5 24.7975 4.5428 24.3993 0.1080 49.2869 -5.3040
# 6 0.1703 -25.7734 -18.5711 -4.8539 -5.3040 41.5669
#
#
#
# Elastic Compliance Matrix: (Units=1/GPa)
#
#
# Indices 1 2 3 4 5 6 
#
# 1 0.026416 -0.005100 -0.003597 0.006681 -0.011655 -0.005585
# 2 -0.005100 0.010088 -0.001602 -0.001415 0.003055 0.005785
# 3 -0.003597 -0.001602 0.012135 -0.005775 -0.003682 0.003299
# 4 0.006681 -0.001415 -0.005775 0.029024 -0.000452 -0.000153
# 5 -0.011655 0.003055 -0.003682 -0.000452 0.028108 0.003831
# 6 -0.005585 0.005785 0.003299 -0.000153 0.003831 0.029612
#
#
# Mechanical properties :
#
#
# Convention : Reuss Voigt Hill
#
# Bulk Modulus (GPa) = 35.66300 53.52707 44.59504
# Shear Modulus (GPa) = 30.24291 40.92506 35.58399
#
# Velocity S-wave (km/s) = 3.79497 4.41460 4.11646
# Velocity P-wave (km/s) = 6.01542 7.17459 6.62042
#
# Compressibility (1/GPa) = 0.02804027
#
# Stress axis : x y z
#
# Youngs Moduli (GPa) = 37.85638 99.12293 82.40796
#
# Poissons Ratio (x) = 0.50558 0.29642
# Poissons Ratio (y) = 0.19309 0.13201
# Poissons Ratio (z) = 0.13617 0.15878
#
# Static dielectric constant tensor:
#      x y z
#    x 1.755650 0.002740 -0.023880 
#    y 0.002740 1.742440 0.028940 
#    z -0.023880 0.028940 1.755130 
# 
# From -- ./inp_files/151407.got.cif
#   From: 2010.05.17/outbox.cif.g08.bks.cpg/sg2_76_cif.got.tgz:151407.got - 2010.06.03 11:33:40.
