data_PCOD9066481
_publ_section_title
;
Structure prediction by ZEFSAII (Michael W. Deem and Ramdas Pophale) SiO2 
 PCOD9066481
Probable space group: P -1
;
_chemical_formula_sum "Si O2"
_cell_formula_units_Z 16
_cell_length_a 19.638276
_cell_length_b 5.407066
_cell_length_c 9.555419
_cell_angle_alpha 52.879929
_cell_angle_beta 127.997042
_cell_angle_gamma 106.039482
_cell_volume 630.204052
_symmetry_space_group_name_H-M "P -1"
_symmetry_group_IT_number 2
_symmetry_cell_setting 'triclinic'
loop_
_space_group_symop_operation_xyz
x,y,z
-x,-y,-z
loop_
_atom_site_type_symbol
_atom_site_label
_atom_site_fract_x
_atom_site_fract_y
_atom_site_fract_z
Si Si1 0.294029 0.364777 0.589707
Si Si2 0.234945 0.087545 0.323690
Si Si3 0.929750 0.082329 0.260033
Si Si4 0.576984 0.632914 0.632231
Si Si5 0.252051 0.574454 0.977079
Si Si6 0.945872 0.959427 0.809194
Si Si7 0.466359 0.645470 0.758363
Si Si8 0.178176 0.426677 0.665100
O O1 0.279557 0.207010 0.478096
O O2 0.394790 0.418199 0.707242
O O3 0.239474 0.219956 0.695366
O O4 0.247305 0.719024 0.437695
O O5 0.134745 0.209249 0.194039
O O6 0.261611 0.214799 0.165962
O O7 0.844150 0.293089 0.137915
O O8 0.987702 0.187384 0.174181
O O9 0.882878 0.785531 0.258280
O O10 0.000000 0.000000 0.500000
O O11 0.500000 0.500000 0.500000
O O12 0.545931 0.642703 0.751494
O O13 0.576619 0.984357 0.444621
O O14 0.664103 0.367459 0.844183
O O15 0.246023 0.565997 0.805381
O O16 0.895487 0.294544 0.576476
O O17 0.000000 0.000000 0.000000
O O18 0.500000 0.500000 0.000000
#
# Coordination Sequence:
#
# PCOD9066481 Si02
#       8
#     2   2   2   2   2   2   2   2
#     4  11  25  49  74 108 152 196 255 316 385 471
#     4  11  26  46  73 107 146 201 256 312 384 460
#     4  12  26  44  70 105 145 198 258 315 385 459
#     4  11  26  50  77 114 155 200 261 327 404 480
#     4  12  26  45  74 104 150 198 252 317 391 461
#     4  11  25  46  69 103 150 199 257 321 380 460
#     4  11  25  48  78 113 153 203 259 327 401 483
#     4  11  26  45  70 105 148 196 260 312 389 459
#
# _framework density 25.388601999999999
#
# number of rings (size 3 to 8) (size 9 to 14) (size 15 to 20)
#    0.000    0.750    2.500    3.375    8.750    4.000 
#    0.000    0.000    0.000    0.000    0.000    0.000 
#    0.000    0.000    0.000    0.000    0.000    0.000 
#
# Total GULP energy -89209.298160 kJ/mol
# GULP energy per Si atom -5575.581135 kJ/mol
# Density = 2.533082 g / cm^3
# Si number density = 25.388602 Si / 1000 Ang^3
#
#
#
# Elastic Constant Matrix: (Units=GPa)
#
#
# Indices 1 2 3 4 5 6 
#
# 1 104.4530 -5.1461 24.6059 3.6094 -5.0833 -9.7260
# 2 -5.1461 44.9837 20.9606 11.6855 -1.2674 3.3332
# 3 24.6059 20.9606 163.3167 18.1918 12.2661 -4.2920
# 4 3.6094 11.6855 18.1918 34.3052 2.5560 7.1042
# 5 -5.0833 -1.2674 12.2661 2.5560 53.7032 3.4762
# 6 -9.7260 3.3332 -4.2920 7.1042 3.4762 48.4988
#
#
#
# Elastic Compliance Matrix: (Units=1/GPa)
#
#
# Indices 1 2 3 4 5 6 
#
# 1 0.010391 0.002277 -0.001753 -0.001432 0.001384 0.001883
# 2 0.002277 0.025935 -0.002997 -0.007497 0.001910 -0.000630
# 3 -0.001753 -0.002997 0.007238 -0.002709 -0.001827 0.001023
# 4 -0.001432 -0.007497 -0.002709 0.034397 -0.001009 -0.004978
# 5 0.001384 0.001910 -0.001827 -0.001009 0.019343 -0.001254
# 6 0.001883 -0.000630 0.001023 -0.004978 -0.001254 0.021949
#
#
# Mechanical properties :
#
#
# Convention : Reuss Voigt Hill
#
# Bulk Modulus (GPa) = 25.89407 43.73269 34.81338
# Shear Modulus (GPa) = 36.47759 45.45698 40.96729
#
# Velocity S-wave (km/s) = 3.79459 4.23596 4.02133
# Velocity P-wave (km/s) = 5.42400 6.41772 5.94167
#
# Compressibility (1/GPa) = 0.03861888
#
# Stress axis : x y z
#
# Youngs Moduli (GPa) = 96.23799 38.55806 138.16890
#
# Poissons Ratio (x) = -0.08780 0.24216
# Poissons Ratio (y) = -0.21913 0.41403
# Poissons Ratio (z) = 0.16867 0.11554
#
# Static dielectric constant tensor:
#      x y z
#    x 2.146800 0.086090 0.036680 
#    y 0.086090 2.028220 -0.024180 
#    z 0.036680 -0.024180 2.035900 
# 
# From -- ./inp_files/340176.got.cif
#   From: 2010.05.17/outbox.cif.g08.bks.cpg/sg2_171_cif.got.tgz:340176.got - 2010.06.03 11:33:40.
