data_PCOD9066635
_publ_section_title
;
Structure prediction by ZEFSAII (Michael W. Deem and Ramdas Pophale) SiO2 
 PCOD9066635
Probable space group: P -1
;
_chemical_formula_sum "Si O2"
_cell_formula_units_Z 16
_cell_length_a 9.453052
_cell_length_b 9.342882
_cell_length_c 15.549447
_cell_angle_alpha 109.322284
_cell_angle_beta 36.510466
_cell_angle_gamma 113.605280
_cell_volume 748.605383
_symmetry_space_group_name_H-M "P -1"
_symmetry_group_IT_number 2
_symmetry_cell_setting 'triclinic'
loop_
_space_group_symop_operation_xyz
x,y,z
-x,-y,-z
loop_
_atom_site_type_symbol
_atom_site_label
_atom_site_fract_x
_atom_site_fract_y
_atom_site_fract_z
Si Si1 0.717064 0.914808 0.361631
Si Si2 0.788061 0.895062 0.524363
Si Si3 0.609752 0.368464 0.642411
Si Si4 0.267173 0.589281 0.919932
Si Si5 0.070492 0.136281 0.099019
Si Si6 0.671404 0.087569 0.141889
Si Si7 0.224180 0.498594 0.115929
Si Si8 0.999964 0.379371 0.591637
O O1 0.813889 0.901769 0.409382
O O2 0.586264 0.757348 0.341983
O O3 0.500000 0.000000 0.500000
O O4 0.918577 0.019601 0.221268
O O5 0.538231 0.931095 0.687596
O O6 0.807267 0.724857 0.510828
O O7 0.000000 0.000000 0.500000
O O8 0.465888 0.491226 0.776681
O O9 0.766576 0.310545 0.629980
O O10 0.835271 0.458051 0.491325
O O11 0.340479 0.766144 0.883720
O O12 0.229131 0.578116 0.037586
O O13 0.000000 0.500000 0.000000
O O14 0.099642 0.314505 0.146853
O O15 0.923627 0.132507 0.080657
O O16 0.310020 0.070058 0.948372
O O17 0.109202 0.592328 0.258893
O O18 0.500000 0.500000 0.000000
#
# Coordination Sequence:
#
# PCOD9066635 Si02
#       8
#     2   2   2   2   2   2   2   2
#     4  12  25  44  75 104 140 187 242 290 358 427
#     4  12  28  46  71 106 147 188 235 298 360 423
#     4  11  25  46  73 101 138 195 236 293 357 420
#     4  12  24  45  71 105 139 183 241 289 353 424
#     4  11  26  46  71 107 143 185 241 291 357 426
#     4  11  25  47  71 104 143 187 234 301 348 422
#     4  12  27  45  72 105 145 190 233 294 362 424
#     4  11  26  46  70 103 149 183 241 296 355 426
#
# _framework density 21.373075
#
# number of rings (size 3 to 8) (size 9 to 14) (size 15 to 20)
#    0.000    0.500    5.000    2.250    7.000    2.500 
#    0.000    1.250    0.000    0.000    0.000    0.000 
#    0.000    0.000    0.000    0.000    0.000    0.000 
#
# Total GULP energy -89356.986705 kJ/mol
# GULP energy per Si atom -5584.811669 kJ/mol
# Density = 2.132443 g / cm^3
# Si number density = 21.373075 Si / 1000 Ang^3
#
#
#
# Elastic Constant Matrix: (Units=GPa)
#
#
# Indices 1 2 3 4 5 6 
#
# 1 112.5580 26.8901 19.4606 -8.4679 29.5963 -12.8476
# 2 26.8901 76.1786 10.4941 -5.6061 22.4710 -9.2424
# 3 19.4606 10.4941 115.6068 7.7591 21.5348 -13.9900
# 4 -8.4679 -5.6061 7.7591 34.9318 -10.0606 -2.7007
# 5 29.5963 22.4710 21.5348 -10.0606 44.1024 -0.4615
# 6 -12.8476 -9.2424 -13.9900 -2.7007 -0.4615 33.9095
#
#
#
# Elastic Compliance Matrix: (Units=1/GPa)
#
#
# Indices 1 2 3 4 5 6 
#
# 1 0.011537 -0.001561 -0.000169 0.000982 -0.006600 0.003864
# 2 -0.001561 0.016302 0.000647 0.000254 -0.007474 0.004037
# 3 -0.000169 0.000647 0.010509 -0.003730 -0.006156 0.004067
# 4 0.000982 0.000254 -0.003730 0.032280 0.008414 0.001588
# 5 -0.006600 -0.007474 -0.006156 0.008414 0.035775 -0.005920
# 6 0.003864 0.004037 0.004067 0.001588 -0.005920 0.033778
#
#
# Mechanical properties :
#
#
# Convention : Reuss Voigt Hill
#
# Bulk Modulus (GPa) = 27.63908 46.44812 37.04360
# Shear Modulus (GPa) = 32.38149 39.08864 35.73506
#
# Velocity S-wave (km/s) = 3.89660 4.28117 4.09340
# Velocity P-wave (km/s) = 5.76233 6.79832 6.30165
#
# Compressibility (1/GPa) = 0.03618065
#
# Stress axis : x y z
#
# Youngs Moduli (GPa) = 86.67925 61.34111 95.15698
#
# Poissons Ratio (x) = 0.09577 0.01611
# Poissons Ratio (y) = 0.13533 -0.06155
# Poissons Ratio (z) = 0.01467 -0.03968
#
# Static dielectric constant tensor:
#      x y z
#    x 1.820060 0.005760 0.014700 
#    y 0.005760 1.819610 0.013880 
#    z 0.014700 0.013880 1.747710 
# 
# From -- ./inp_files/495382.got.cif
#   From: 2010.05.17/outbox.cif.g08.bks.cpg/sg2_248_cif.got.tgz:495382.got - 2010.06.03 11:33:40.
