data_PCOD9066591
_publ_section_title
;
Structure prediction by ZEFSAII (Michael W. Deem and Ramdas Pophale) SiO2 
 PCOD9066591
Probable space group: P -1
;
_chemical_formula_sum "Si O2"
_cell_formula_units_Z 15
_cell_length_a 17.795307
_cell_length_b 20.841591
_cell_length_c 9.148493
_cell_angle_alpha 140.230699
_cell_angle_beta 51.206140
_cell_angle_gamma 160.275673
_cell_volume 654.420250
_symmetry_space_group_name_H-M "P -1"
_symmetry_group_IT_number 2
_symmetry_cell_setting 'triclinic'
loop_
_space_group_symop_operation_xyz
x,y,z
-x,-y,-z
loop_
_atom_site_type_symbol
_atom_site_label
_atom_site_fract_x
_atom_site_fract_y
_atom_site_fract_z
Si Si1 0.515727 0.279886 0.640739
Si Si2 0.325266 0.542577 0.803213
Si Si3 0.987680 0.518563 0.217804
Si Si4 0.500000 0.500000 0.000000
Si Si5 0.203159 0.283220 0.251320
Si Si6 0.058952 0.400611 0.122720
Si Si7 0.495019 0.841282 0.856742
Si Si8 0.186120 0.929400 0.695806
O O1 0.552488 0.433891 0.873329
O O2 0.742828 0.434652 0.705303
O O3 0.475843 0.206446 0.396830
O O4 0.275706 0.024149 0.584953
O O5 0.277423 0.393183 0.514402
O O6 0.354021 0.653524 0.834947
O O7 0.119310 0.373515 0.878746
O O8 0.589364 0.806324 0.024430
O O9 0.095240 0.537842 0.228232
O O10 0.692033 0.252241 0.133284
O O11 0.128241 0.758109 0.494484
O O12 0.000000 0.500000 0.000000
O O13 0.571851 0.536017 0.806466
O O14 0.056081 0.235691 0.275583
O O15 0.000000 0.000000 0.000000
O O16 0.780344 0.139167 0.067567
#
# Coordination Sequence:
#
# PCOD9066591 Si02
#       8
#     2   2   2   1   2   2   2   2
#     4  11  25  47  70 104 143 185 239 296 359 423
#     4  11  25  46  72 104 142 187 237 293 357 423
#     4  12  23  47  76 105 146 196 236 290 361 421
#     4  12  24  44  70 106 134 190 234 296 358 416
#     4  12  24  46  73  99 142 186 237 296 360 417
#     4  11  27  46  70 108 144 185 243 291 352 430
#     4  12  24  44  72 100 148 187 235 293 354 424
#     4  11  25  47  74 103 147 184 238 299 351 430
#
# _framework density 22.921053000000001
#
# number of rings (size 3 to 8) (size 9 to 14) (size 15 to 20)
#    0.000    0.533    5.333    2.000    3.733    3.200 
#    2.400    1.333    0.000    0.000    0.000    0.000 
#    0.000    0.000    0.000    0.000    0.000    0.000 
#
# Total GULP energy -83638.391883 kJ/mol
# GULP energy per Si atom -5575.892792 kJ/mol
# Density = 2.286888 g / cm^3
# Si number density = 22.921053 Si / 1000 Ang^3
#
#
#
# Elastic Constant Matrix: (Units=GPa)
#
#
# Indices 1 2 3 4 5 6 
#
# 1 71.0235 -10.0766 -2.5371 6.9983 -12.1416 2.9469
# 2 -10.0766 88.7534 17.7279 -10.6955 -6.4733 4.5342
# 3 -2.5371 17.7279 99.9854 -4.5664 -3.1744 4.5996
# 4 6.9983 -10.6955 -4.5664 37.2341 1.6520 -2.3267
# 5 -12.1416 -6.4733 -3.1744 1.6520 36.4616 -2.2276
# 6 2.9469 4.5342 4.5996 -2.3267 -2.2276 40.6447
#
#
#
# Elastic Compliance Matrix: (Units=1/GPa)
#
#
# Indices 1 2 3 4 5 6 
#
# 1 0.015627 0.001885 0.000173 -0.002699 0.005602 -0.001210
# 2 0.001885 0.012432 -0.001903 0.002810 0.002480 -0.001011
# 3 0.000173 -0.001903 0.010431 0.000619 0.000544 -0.000915
# 4 -0.002699 0.002810 0.000619 0.028401 -0.001550 0.001353
# 5 0.005602 0.002480 0.000544 -0.001550 0.029899 0.000806
# 6 -0.001210 -0.001011 -0.000915 0.001353 0.000806 0.025029
#
#
# Mechanical properties :
#
#
# Convention : Reuss Voigt Hill
#
# Bulk Modulus (GPa) = 25.77325 29.99896 27.88611
# Shear Modulus (GPa) = 37.19040 39.84462 38.51751
#
# Velocity S-wave (km/s) = 4.03245 4.17387 4.10377
# Velocity P-wave (km/s) = 5.74018 6.02865 5.88618
#
# Compressibility (1/GPa) = 0.03879992
#
# Stress axis : x y z
#
# Youngs Moduli (GPa) = 63.99083 80.43438 95.86922
#
# Poissons Ratio (x) = -0.15161 -0.01655
# Poissons Ratio (y) = -0.12062 0.18243
# Poissons Ratio (z) = -0.01105 0.15306
#
# Static dielectric constant tensor:
#      x y z
#    x 1.868090 -0.010690 0.004840 
#    y -0.010690 1.894090 0.029380 
#    z 0.004840 0.029380 1.865720 
# 
# From -- ./inp_files/337923.got.cif
#   From: 2010.05.17/outbox.cif.g08.bks.cpg/sg2_169_cif.got.tgz:337923.got - 2010.06.03 11:33:40.
