data_PCOD9066076
_publ_section_title
;
Structure prediction by ZEFSAII (Michael W. Deem and Ramdas Pophale) SiO2 
 PCOD9066076
Probable space group: P -1
;
_chemical_formula_sum "Si O2"
_cell_formula_units_Z 15
_cell_length_a 7.614687
_cell_length_b 9.681840
_cell_length_c 11.781329
_cell_angle_alpha 55.987797
_cell_angle_beta 127.179431
_cell_angle_gamma 104.440769
_cell_volume 568.444219
_symmetry_space_group_name_H-M "P -1"
_symmetry_group_IT_number 2
_symmetry_cell_setting 'triclinic'
loop_
_space_group_symop_operation_xyz
x,y,z
-x,-y,-z
loop_
_atom_site_type_symbol
_atom_site_label
_atom_site_fract_x
_atom_site_fract_y
_atom_site_fract_z
Si Si1 0.250141 0.463986 0.160138
Si Si2 0.470837 0.174700 0.248416
Si Si3 0.164754 0.961826 0.377269
Si Si4 0.384595 0.805025 0.148453
Si Si5 0.000000 0.000000 0.500000
Si Si6 0.900413 0.384960 0.606107
Si Si7 0.716009 0.841035 0.059159
Si Si8 0.297685 0.297529 0.492924
O O1 0.415592 0.368777 0.174876
O O2 0.300513 0.640038 0.146571
O O3 0.299156 0.336192 0.343424
O O4 0.000000 0.500000 0.000000
O O5 0.713236 0.084666 0.426787
O O6 0.300466 0.072834 0.299349
O O7 0.436545 0.163024 0.107766
O O8 0.161643 0.781898 0.401640
O O9 0.954262 0.057783 0.314553
O O10 0.590739 0.823534 0.136467
O O11 0.480593 0.792870 0.318788
O O12 0.210221 0.973399 0.994346
O O13 0.102364 0.184224 0.485888
O O14 0.084403 0.307665 0.803360
O O15 0.000000 0.500000 0.500000
O O16 0.732032 0.521832 0.540153
#
# Coordination Sequence:
#
# PCOD9066076 Si02
#       8
#     2   2   2   2   1   2   2   2
#     4  12  28  45  70 108 147 188 243 302 358 423
#     4  11  26  46  69 109 142 184 237 296 363 418
#     4  11  25  44  74 104 143 186 236 292 359 432
#     4  11  26  48  71 103 145 191 243 291 367 426
#     4  12  22  44  76 106 144 180 242 292 350 426
#     4  12  24  45  71 102 137 185 243 286 356 430
#     4  11  26  46  71 104 141 185 238 303 357 426
#     4  12  25  46  75 105 140 195 238 295 357 434
#
# _framework density 26.387813000000001
#
# number of rings (size 3 to 8) (size 9 to 14) (size 15 to 20)
#    0.000    0.533    4.000    2.800    5.600    5.333 
#    0.000    0.000    0.000    0.000    0.000    0.000 
#    0.000    0.000    0.000    0.000    0.000    0.000 
#
# Total GULP energy -83877.178567 kJ/mol
# GULP energy per Si atom -5591.811904 kJ/mol
# Density = 2.632775 g / cm^3
# Si number density = 26.387813 Si / 1000 Ang^3
#
#
#
# Elastic Constant Matrix: (Units=GPa)
#
#
# Indices 1 2 3 4 5 6 
#
# 1 87.6647 42.5511 20.8170 0.2707 -10.4771 -7.1917
# 2 42.5511 151.1753 40.2506 4.0086 -12.4779 11.4651
# 3 20.8170 40.2506 144.0097 3.7950 4.9043 -1.2159
# 4 0.2707 4.0086 3.7950 48.0296 -12.4937 -4.7585
# 5 -10.4771 -12.4779 4.9043 -12.4937 37.0949 0.3290
# 6 -7.1917 11.4651 -1.2159 -4.7585 0.3290 49.8392
#
#
#
# Elastic Compliance Matrix: (Units=1/GPa)
#
#
# Indices 1 2 3 4 5 6 
#
# 1 0.014092 -0.003646 -0.001147 0.001488 0.003380 0.002964
# 2 -0.003646 0.008527 -0.001940 -0.000265 0.002029 -0.002574
# 3 -0.001147 -0.001940 0.007762 -0.001017 -0.002349 0.000389
# 4 0.001488 -0.000265 -0.001017 0.023313 0.008296 0.002422
# 5 0.003380 0.002029 -0.002349 0.008296 0.031695 0.000547
# 6 0.002964 -0.002574 0.000389 0.002422 0.000547 0.021321
#
#
# Mechanical properties :
#
#
# Convention : Reuss Voigt Hill
#
# Bulk Modulus (GPa) = 59.12178 65.56522 62.34350
# Shear Modulus (GPa) = 39.74069 45.60813 42.67441
#
# Velocity S-wave (km/s) = 3.88496 4.16189 4.02581
# Velocity P-wave (km/s) = 6.52514 6.92790 6.72954
#
# Compressibility (1/GPa) = 0.01691424
#
# Stress axis : x y z
#
# Youngs Moduli (GPa) = 70.96279 117.26939 128.82994
#
# Poissons Ratio (x) = 0.42759 0.14780
# Poissons Ratio (y) = 0.25875 0.24995
# Poissons Ratio (z) = 0.08141 0.22752
#
# Static dielectric constant tensor:
#      x y z
#    x 2.655640 -0.039040 0.056860 
#    y -0.039040 2.051660 0.026590 
#    z 0.056860 0.026590 2.091480 
# 
# From -- ./inp_files/185306.got.cif
#   From: 2010.05.17/outbox.cif.g08.bks.cpg/sg2_93_cif.got.tgz:185306.got - 2010.06.03 11:33:40.
