data_PCOD9066279
_publ_section_title
;
Structure prediction by ZEFSAII (Michael W. Deem and Ramdas Pophale) SiO2 
 PCOD9066279
Probable space group: P -1
;
_chemical_formula_sum "Si O2"
_cell_formula_units_Z 16
_cell_length_a 16.593200
_cell_length_b 14.005659
_cell_length_c 22.179837
_cell_angle_alpha 157.155987
_cell_angle_beta 156.879255
_cell_angle_gamma 33.870750
_cell_volume 780.736098
_symmetry_space_group_name_H-M "P -1"
_symmetry_group_IT_number 2
_symmetry_cell_setting 'triclinic'
loop_
_space_group_symop_operation_xyz
x,y,z
-x,-y,-z
loop_
_atom_site_type_symbol
_atom_site_label
_atom_site_fract_x
_atom_site_fract_y
_atom_site_fract_z
Si Si1 0.907906 0.907810 0.446864
Si Si2 0.978764 0.206810 0.323147
Si Si3 0.580226 0.300449 0.484151
Si Si4 0.859070 0.990868 0.984245
Si Si5 0.743566 0.995692 0.158988
Si Si6 0.175386 0.675271 0.957143
Si Si7 0.572942 0.964125 0.460969
Si Si8 0.757728 0.473218 0.827927
O O1 0.814384 0.619345 0.208498
O O2 0.752046 0.111640 0.476893
O O3 0.000000 0.000000 0.500000
O O4 0.096174 0.896780 0.617251
O O5 0.897573 0.077304 0.129574
O O6 0.000000 0.500000 0.500000
O O7 0.213313 0.152919 0.463076
O O8 0.836427 0.103607 0.221676
O O9 0.500000 0.500000 0.500000
O O10 0.661436 0.473217 0.695842
O O11 0.374660 0.121321 0.252658
O O12 0.890684 0.220570 0.092768
O O13 0.006408 0.779909 0.946086
O O14 0.742238 0.703419 0.992845
O O15 0.500000 0.000000 0.000000
O O16 0.393274 0.810881 0.209748
O O17 0.500000 0.000000 0.500000
O O18 0.639065 0.232484 0.635342
O O19 0.000000 0.500000 0.000000
#
# Coordination Sequence:
#
# PCOD9066279 Si02
#       8
#     2   2   2   2   2   2   2   2
#     4  12  29  47  71 110 147 192 242 306 369 440
#     4  12  27  47  72 109 147 191 250 301 365 438
#     4  12  26  45  73 104 141 193 240 296 372 433
#     4  11  25  45  73 106 145 193 237 299 368 440
#     4  12  30  48  75 107 148 196 247 309 369 435
#     4  11  26  48  72 108 151 187 244 297 371 449
#     4  12  26  46  76 106 141 199 237 299 366 435
#     4  12  25  51  75 101 146 191 250 301 365 443
#
# _framework density 20.493480999999999
#
# number of rings (size 3 to 8) (size 9 to 14) (size 15 to 20)
#    0.000    0.250    5.000    2.250   10.500    0.500 
#    0.000    0.000    0.000    0.000    0.000    0.000 
#    0.000    0.000    0.000    0.000    0.000    0.000 
#
# Total GULP energy -89313.036218 kJ/mol
# GULP energy per Si atom -5582.064764 kJ/mol
# Density = 2.044684 g / cm^3
# Si number density = 20.493481 Si / 1000 Ang^3
#
#
#
# Elastic Constant Matrix: (Units=GPa)
#
#
# Indices 1 2 3 4 5 6 
#
# 1 105.6568 20.8429 43.4195 -19.6501 5.3781 21.1811
# 2 20.8429 64.1263 33.1605 -4.1058 16.6914 6.5325
# 3 43.4195 33.1605 151.4195 -10.4873 0.6354 6.7813
# 4 -19.6501 -4.1058 -10.4873 52.2167 0.2452 7.2276
# 5 5.3781 16.6914 0.6354 0.2452 30.2931 -12.1343
# 6 21.1811 6.5325 6.7813 7.2276 -12.1343 38.5241
#
#
#
# Elastic Compliance Matrix: (Units=1/GPa)
#
#
# Indices 1 2 3 4 5 6 
#
# 1 0.014456 0.000348 -0.003266 0.006347 -0.007089 -0.010856
# 2 0.000348 0.023119 -0.004534 0.002344 -0.016281 -0.008881
# 3 -0.003266 -0.004534 0.008396 -0.000241 0.003842 0.002342
# 4 0.006347 0.002344 -0.000241 0.023133 -0.006728 -0.010304
# 5 -0.007089 -0.016281 0.003842 -0.006728 0.052775 0.023867
# 6 -0.010856 -0.008881 0.002342 -0.010304 0.023867 0.042471
#
#
# Mechanical properties :
#
#
# Convention : Reuss Voigt Hill
#
# Bulk Modulus (GPa) = 32.18989 57.33869 44.76429
# Shear Modulus (GPa) = 26.37012 39.12544 32.74778
#
# Velocity S-wave (km/s) = 3.59103 4.37414 4.00179
# Velocity P-wave (km/s) = 5.73894 7.31782 6.57594
#
# Compressibility (1/GPa) = 0.03106566
#
# Stress axis : x y z
#
# Youngs Moduli (GPa) = 69.17702 43.25534 119.10591
#
# Poissons Ratio (x) = -0.01504 0.38897
# Poissons Ratio (y) = -0.02406 0.54006
# Poissons Ratio (z) = 0.22592 0.19613
#
# Static dielectric constant tensor:
#      x y z
#    x 1.735000 -0.007980 0.018620 
#    y -0.007980 1.698090 0.092550 
#    z 0.018620 0.092550 1.656490 
# 
# From -- ./inp_files/278698.got.cif
#   From: 2010.05.17/outbox.cif.g08.bks.cpg/sg2_140_cif.got.tgz:278698.got - 2010.06.03 11:33:40.
