data_PCOD9066837
_publ_section_title
;
Structure prediction by ZEFSAII (Michael W. Deem and Ramdas Pophale) SiO2 
 PCOD9066837
Probable space group: P -1
;
_chemical_formula_sum "Si O2"
_cell_formula_units_Z 16
_cell_length_a 6.647854
_cell_length_b 11.218499
_cell_length_c 18.018034
_cell_angle_alpha 137.753477
_cell_angle_beta 111.648499
_cell_angle_gamma 53.659511
_cell_volume 721.670758
_symmetry_space_group_name_H-M "P -1"
_symmetry_group_IT_number 2
_symmetry_cell_setting 'triclinic'
loop_
_space_group_symop_operation_xyz
x,y,z
-x,-y,-z
loop_
_atom_site_type_symbol
_atom_site_label
_atom_site_fract_x
_atom_site_fract_y
_atom_site_fract_z
Si Si1 0.146081 0.623422 0.567119
Si Si2 0.151068 0.572532 0.106519
Si Si3 0.583142 0.927435 0.393474
Si Si4 0.293758 0.734239 0.487254
Si Si5 0.914246 0.446447 0.736843
Si Si6 0.287665 0.765734 0.012735
Si Si7 0.758644 0.876594 0.932847
Si Si8 0.166520 0.946392 0.236850
O O1 0.134289 0.724186 0.530750
O O2 0.428924 0.451647 0.543329
O O3 0.000000 0.500000 0.500000
O O4 0.039995 0.816761 0.697331
O O5 0.115503 0.545348 0.175218
O O6 0.052437 0.812637 0.190942
O O7 0.451248 0.438713 0.067691
O O8 0.000000 0.500000 0.000000
O O9 0.355845 0.954542 0.324747
O O10 0.795980 0.687351 0.309099
O O11 0.500000 0.000000 0.500000
O O12 0.693264 0.061294 0.432307
O O13 0.205807 0.674023 0.373266
O O14 0.778703 0.683281 0.802645
O O15 0.307180 0.825905 0.126703
O O16 0.254458 0.951652 0.043371
O O17 0.021132 0.775801 0.969196
O O18 0.500000 0.000000 0.000000
#
# Coordination Sequence:
#
# PCOD9066837 Si02
#       8
#     2   2   2   2   2   2   2   2
#     4  11  25  47  68 103 141 183 236 299 344 428
#     4  12  25  46  70 105 145 183 242 297 351 440
#     4  12  25  46  70 105 145 183 242 297 351 440
#     4  11  26  44  71 102 141 181 239 287 359 424
#     4  12  25  42  74  98 139 189 229 287 367 410
#     4  11  26  44  71 102 141 181 239 287 359 424
#     4  11  25  47  68 103 141 183 236 299 344 428
#     4  12  25  42  74  98 139 189 229 287 367 410
#
# _framework density 22.170776
#
# number of rings (size 3 to 8) (size 9 to 14) (size 15 to 20)
#    0.000    0.500    2.500    5.250    3.500    0.000 
#    0.000    0.000    0.000    0.000    0.000    0.000 
#    0.000    0.000    0.000    0.000    0.000    0.000 
#
# Total GULP energy -89493.481517 kJ/mol
# GULP energy per Si atom -5593.342595 kJ/mol
# Density = 2.212031 g / cm^3
# Si number density = 22.170776 Si / 1000 Ang^3
#
#
#
# Elastic Constant Matrix: (Units=GPa)
#
#
# Indices 1 2 3 4 5 6 
#
# 1 105.4862 31.5087 35.2525 -1.2302 -1.7036 -0.2569
# 2 31.5087 68.1556 23.3309 5.0802 0.4049 -0.2757
# 3 35.2525 23.3309 89.4935 4.8802 2.5622 0.1317
# 4 -1.2302 5.0802 4.8802 62.6593 -0.1223 -0.7890
# 5 -1.7036 0.4049 2.5622 -0.1223 52.8803 3.5034
# 6 -0.2569 -0.2757 0.1317 -0.7890 3.5034 46.3808
#
#
#
# Elastic Compliance Matrix: (Units=1/GPa)
#
#
# Indices 1 2 3 4 5 6 
#
# 1 0.012032 -0.004377 -0.003663 0.000878 0.000599 0.000021
# 2 -0.004377 0.017764 -0.002831 -0.001305 -0.000148 0.000078
# 3 -0.003663 -0.002831 0.013425 -0.000890 -0.000747 -0.000034
# 4 0.000878 -0.001305 -0.000890 0.016155 0.000101 0.000267
# 5 0.000599 -0.000148 -0.000747 0.000101 0.019062 -0.001434
# 6 0.000021 0.000078 -0.000034 0.000267 -0.001434 0.021674
#
#
# Mechanical properties :
#
#
# Convention : Reuss Voigt Hill
#
# Bulk Modulus (GPa) = 46.56264 49.25774 47.91019
# Shear Modulus (GPa) = 38.75522 43.92029 41.33776
#
# Velocity S-wave (km/s) = 4.18548 4.45567 4.32269
# Velocity P-wave (km/s) = 6.66371 6.98114 6.82427
#
# Compressibility (1/GPa) = 0.02147644
#
# Stress axis : x y z
#
# Youngs Moduli (GPa) = 83.11461 56.29481 74.48721
#
# Poissons Ratio (x) = 0.24641 0.27287
# Poissons Ratio (y) = 0.36381 0.21091
# Poissons Ratio (z) = 0.30447 0.15940
#
# Static dielectric constant tensor:
#      x y z
#    x 1.919660 -0.000160 0.006800 
#    y -0.000160 1.844660 0.005570 
#    z 0.006800 0.005570 1.779720 
# 
# From -- ./inp_files/583324.got.cif
#   From: 2010.05.17/outbox.cif.g08.bks.cpg/sg2_292_cif.got.tgz:583324.got - 2010.06.03 11:33:40.
