data_PCOD9066040
_publ_section_title
;
Structure prediction by ZEFSAII (Michael W. Deem and Ramdas Pophale) SiO2 
 PCOD9066040
Probable space group: P -1
;
_chemical_formula_sum "Si O2"
_cell_formula_units_Z 16
_cell_length_a 11.099142
_cell_length_b 5.599202
_cell_length_c 12.579834
_cell_angle_alpha 89.152190
_cell_angle_beta 71.871504
_cell_angle_gamma 66.989180
_cell_volume 678.745551
_symmetry_space_group_name_H-M "P -1"
_symmetry_group_IT_number 2
_symmetry_cell_setting 'triclinic'
loop_
_space_group_symop_operation_xyz
x,y,z
-x,-y,-z
loop_
_atom_site_type_symbol
_atom_site_label
_atom_site_fract_x
_atom_site_fract_y
_atom_site_fract_z
Si Si1 0.261269 0.200179 0.117125
Si Si2 0.425210 0.891397 0.276467
Si Si3 0.160488 0.924402 0.975849
Si Si4 0.353369 0.743404 0.520872
Si Si5 0.050686 0.862367 0.599201
Si Si6 0.279983 0.116706 0.743196
Si Si7 0.417726 0.422733 0.933305
Si Si8 0.996939 0.588212 0.277795
O O1 0.133805 0.478466 0.168798
O O2 0.332547 0.095733 0.212378
O O3 0.375720 0.207106 0.002856
O O4 0.191761 0.026776 0.079404
O O5 0.358603 0.884292 0.407522
O O6 0.574454 0.890745 0.259269
O O7 0.479511 0.625624 0.194695
O O8 0.266239 0.625916 0.941866
O O9 0.213684 0.040627 0.862740
O O10 0.000000 0.000000 0.000000
O O11 0.500000 0.500000 0.500000
O O12 0.216127 0.688180 0.549797
O O13 0.323989 0.927018 0.630283
O O14 0.982420 0.659104 0.648731
O O15 0.022374 0.122822 0.677946
O O16 0.000000 0.000000 0.500000
O O17 0.148100 0.371750 0.739089
O O18 0.500000 0.500000 0.000000
#
# Coordination Sequence:
#
# PCOD9066040 Si02
#       8
#     2   2   2   2   2   2   2   2
#     4  12  27  46  72 110 145 195 252 308 385 451
#     4  12  24  46  71 104 150 190 247 312 374 453
#     4  12  27  45  76 107 148 197 249 312 378 452
#     4  11  25  44  72 108 143 196 249 304 373 454
#     4  11  25  48  74 107 149 199 248 313 375 444
#     4  11  25  47  71 108 147 196 247 309 377 446
#     4  12  25  45  72 106 150 190 247 313 377 451
#     4  11  27  45  74 108 152 190 255 310 375 456
#
# _framework density 23.572899
#
# number of rings (size 3 to 8) (size 9 to 14) (size 15 to 20)
#    0.000    0.500    2.500    4.875    7.000    5.000 
#    0.000    0.000    0.000    0.000    0.000    0.000 
#    0.000    0.000    0.000    0.000    0.000    0.000 
#
# Total GULP energy -89307.519379 kJ/mol
# GULP energy per Si atom -5581.719961 kJ/mol
# Density = 2.351925 g / cm^3
# Si number density = 23.572899 Si / 1000 Ang^3
#
#
#
# Elastic Constant Matrix: (Units=GPa)
#
#
# Indices 1 2 3 4 5 6 
#
# 1 77.4692 5.2426 6.0407 5.5082 11.0396 -14.1923
# 2 5.2426 64.0202 -8.0032 -3.9541 -2.3240 -26.5182
# 3 6.0407 -8.0032 76.8458 -3.6889 10.0299 2.3198
# 4 5.5082 -3.9541 -3.6889 43.8749 -5.9370 -8.3278
# 5 11.0396 -2.3240 10.0299 -5.9370 43.7512 -3.8084
# 6 -14.1923 -26.5182 2.3198 -8.3278 -3.8084 47.5867
#
#
#
# Elastic Compliance Matrix: (Units=1/GPa)
#
#
# Indices 1 2 3 4 5 6 
#
# 1 0.014245 0.000081 -0.000874 -0.001576 -0.003273 0.003799
# 2 0.000081 0.021637 0.001758 0.004908 0.002528 0.013057
# 3 -0.000874 0.001758 0.013664 0.001060 -0.002672 0.000025
# 4 -0.001576 0.004908 0.001060 0.025462 0.004482 0.007028
# 5 -0.003273 0.002528 -0.002672 0.004482 0.025331 0.003375
# 6 0.003799 0.013057 0.000025 0.007028 0.003375 0.030922
#
#
# Mechanical properties :
#
#
# Convention : Reuss Voigt Hill
#
# Bulk Modulus (GPa) = 19.42623 24.98837 22.20730
# Shear Modulus (GPa) = 34.13214 41.37956 37.75585
#
# Velocity S-wave (km/s) = 3.80931 4.19428 4.00642
# Velocity P-wave (km/s) = 5.25420 5.83776 5.55365
#
# Compressibility (1/GPa) = 0.05147678
#
# Stress axis : x y z
#
# Youngs Moduli (GPa) = 70.19781 46.21801 73.18559
#
# Poissons Ratio (x) = -0.00377 0.06400
# Poissons Ratio (y) = -0.00572 -0.12869
# Poissons Ratio (z) = 0.06139 -0.08127
#
# Static dielectric constant tensor:
#      x y z
#    x 2.373000 -0.113740 0.399280 
#    y -0.113740 2.062150 -0.059280 
#    z 0.399280 -0.059280 2.558220 
# 
# From -- ./inp_files/410470.got.cif
#   From: 2010.05.17/outbox.cif.g08.bks.cpg/sg2_206_cif.got.tgz:410470.got - 2010.06.03 11:33:40.
