data_PCOD9066560
_publ_section_title
;
Structure prediction by ZEFSAII (Michael W. Deem and Ramdas Pophale) SiO2 
 PCOD9066560
Probable space group: P -1
;
_chemical_formula_sum "Si O2"
_cell_formula_units_Z 16
_cell_length_a 11.339646
_cell_length_b 12.743961
_cell_length_c 24.484148
_cell_angle_alpha 20.021353
_cell_angle_beta 145.537405
_cell_angle_gamma 145.670187
_cell_volume 661.177955
_symmetry_space_group_name_H-M "P -1"
_symmetry_group_IT_number 2
_symmetry_cell_setting 'triclinic'
loop_
_space_group_symop_operation_xyz
x,y,z
-x,-y,-z
loop_
_atom_site_type_symbol
_atom_site_label
_atom_site_fract_x
_atom_site_fract_y
_atom_site_fract_z
Si Si1 0.658767 0.273161 0.169601
Si Si2 0.229472 0.078144 0.518600
Si Si3 0.479640 0.795300 0.237408
Si Si4 0.352271 0.271811 0.254507
Si Si5 0.700595 0.053704 0.091562
Si Si6 0.085977 0.860113 0.271587
Si Si7 0.026496 0.877832 0.009188
Si Si8 0.814227 0.191784 0.486638
O O1 0.895984 0.509411 0.135538
O O2 0.643928 0.105056 0.304356
O O3 0.594410 0.017404 0.221994
O O4 0.500000 0.500000 0.000000
O O5 0.365613 0.443286 0.387194
O O6 0.178994 0.940055 0.506554
O O7 0.000000 0.000000 0.500000
O O8 0.280334 0.924874 0.075598
O O9 0.635475 0.825249 0.230469
O O10 0.602551 0.331344 0.337458
O O11 0.222102 0.086878 0.346823
O O12 0.277709 0.583833 0.059020
O O13 0.302590 0.031127 0.302278
O O14 0.905920 0.998321 0.165966
O O15 0.500000 0.000000 0.000000
O O16 0.016430 0.482781 0.434959
O O17 0.071758 0.941645 0.162761
O O18 0.000000 0.000000 0.000000
#
# Coordination Sequence:
#
# PCOD9066560 Si02
#       8
#     2   2   2   2   2   2   2   2
#     4  12  27  46  75 108 141 193 246 293 362 432
#     4  12  28  50  73 104 150 193 237 303 367 425
#     4  12  26  47  71 104 147 186 242 299 360 428
#     4  11  25  46  71 107 141 187 239 295 356 424
#     4  12  23  45  73 102 144 186 232 294 361 419
#     4  12  26  44  74 105 141 188 242 292 358 431
#     4  12  24  43  74 105 143 186 242 301 353 427
#     4  11  26  46  72  99 145 187 240 296 357 423
#
# _framework density 24.199233
#
# number of rings (size 3 to 8) (size 9 to 14) (size 15 to 20)
#    0.000    0.250    5.000    3.375    5.250    1.000 
#    2.250    0.000    0.000    0.000    0.000    0.000 
#    0.000    0.000    0.000    0.000    0.000    0.000 
#
# Total GULP energy -89749.869942 kJ/mol
# GULP energy per Si atom -5609.366871 kJ/mol
# Density = 2.414415 g / cm^3
# Si number density = 24.199233 Si / 1000 Ang^3
#
#
#
# Elastic Constant Matrix: (Units=GPa)
#
#
# Indices 1 2 3 4 5 6 
#
# 1 119.5107 32.1166 39.3236 -1.3304 -26.9685 -22.6189
# 2 32.1166 148.6618 34.6142 -21.9444 -12.0874 -12.7650
# 3 39.3236 34.6142 105.8218 -3.5220 -26.3872 0.5560
# 4 -1.3304 -21.9444 -3.5220 51.6233 -0.6583 -3.5119
# 5 -26.9685 -12.0874 -26.3872 -0.6583 35.6092 1.0605
# 6 -22.6189 -12.7650 0.5560 -3.5119 1.0605 31.7597
#
#
#
# Elastic Compliance Matrix: (Units=1/GPa)
#
#
# Indices 1 2 3 4 5 6 
#
# 1 0.012702 -0.000711 -0.002746 0.000515 0.007096 0.008629
# 2 -0.000711 0.008239 -0.002175 0.003562 0.000616 0.003217
# 3 -0.002746 -0.002175 0.012894 -0.000254 0.006830 -0.003312
# 4 0.000515 0.003562 -0.000254 0.021181 0.001681 0.004089
# 5 0.007096 0.000616 0.006830 0.001681 0.038637 0.004078
# 6 0.008629 0.003217 -0.003312 0.004089 0.004078 0.039299
#
#
# Mechanical properties :
#
#
# Convention : Reuss Voigt Hill
#
# Bulk Modulus (GPa) = 44.30648 65.12256 54.71452
# Shear Modulus (GPa) = 32.95096 41.66110 37.30603
#
# Velocity S-wave (km/s) = 3.69406 4.15370 3.93061
# Velocity P-wave (km/s) = 6.04513 7.06921 6.57713
#
# Compressibility (1/GPa) = 0.02257006
#
# Stress axis : x y z
#
# Youngs Moduli (GPa) = 78.72593 121.37538 77.55451
#
# Poissons Ratio (x) = 0.08626 0.21300
# Poissons Ratio (y) = 0.05595 0.16872
# Poissons Ratio (z) = 0.21622 0.26405
#
# Static dielectric constant tensor:
#      x y z
#    x 1.931570 0.048710 0.034950 
#    y 0.048710 1.923490 0.005360 
#    z 0.034950 0.005360 1.940950 
# 
# From -- ./inp_files/610327.got.cif
#   From: 2010.05.17/outbox.cif.g08.bks.cpg/sg2_306_cif.got.tgz:610327.got - 2010.06.03 11:33:40.
