data_PCOD9066385
_publ_section_title
;
Structure prediction by ZEFSAII (Michael W. Deem and Ramdas Pophale) SiO2 
 PCOD9066385
Probable space group: P -1
;
_chemical_formula_sum "Si O2"
_cell_formula_units_Z 16
_cell_length_a 5.347650
_cell_length_b 14.727732
_cell_length_c 9.298904
_cell_angle_alpha 110.039037
_cell_angle_beta 92.674094
_cell_angle_gamma 86.513285
_cell_volume 686.498079
_symmetry_space_group_name_H-M "P -1"
_symmetry_group_IT_number 2
_symmetry_cell_setting 'triclinic'
loop_
_space_group_symop_operation_xyz
x,y,z
-x,-y,-z
loop_
_atom_site_type_symbol
_atom_site_label
_atom_site_fract_x
_atom_site_fract_y
_atom_site_fract_z
Si Si1 0.334791 0.228610 0.080296
Si Si2 0.539430 0.045595 0.870573
Si Si3 0.716425 0.483292 0.113712
Si Si4 0.107724 0.336426 0.888459
Si Si5 0.260287 0.932570 0.598859
Si Si6 0.150837 0.768687 0.724134
Si Si7 0.917288 0.125183 0.724417
Si Si8 0.248618 0.555082 0.577674
O O1 0.595410 0.221743 0.169613
O O2 0.096382 0.234838 0.183894
O O3 0.333657 0.133712 0.927822
O O4 0.311923 0.312704 0.006548
O O5 0.787009 0.096848 0.855152
O O6 0.505979 0.961806 0.707319
O O7 0.500000 0.000000 0.000000
O O8 0.801500 0.594116 0.196116
O O9 0.698658 0.442192 0.249319
O O10 0.500000 0.500000 0.000000
O O11 0.905844 0.406823 0.000273
O O12 0.001430 0.234824 0.783980
O O13 0.128448 0.858016 0.661082
O O14 0.284550 0.885733 0.417550
O O15 0.115775 0.037699 0.644018
O O16 0.198502 0.666284 0.589471
O O17 0.500000 0.500000 0.500000
O O18 0.000000 0.500000 0.500000
#
# Coordination Sequence:
#
# PCOD9066385 Si02
#       8
#     2   2   2   2   2   2   2   2
#     4  12  24  44  75 110 145 191 251 316 366 434
#     4  12  24  42  72 106 144 195 253 302 367 446
#     4  11  27  47  80 108 145 199 265 312 383 457
#     4  11  25  45  76 105 146 193 256 313 375 444
#     4  11  26  44  69 105 153 199 246 303 380 455
#     4  12  26  47  75 109 150 197 252 307 377 456
#     4  11  26  47  68 106 157 195 248 309 382 446
#     4  12  29  51  76 112 158 196 250 321 393 457
#
# _framework density 23.306692999999999
#
# number of rings (size 3 to 8) (size 9 to 14) (size 15 to 20)
#    0.000    0.500    3.750    3.375    7.000    1.000 
#    0.000    0.000    0.000    0.000    0.000    0.000 
#    0.000    0.000    0.000    0.000    0.000    0.000 
#
# Total GULP energy -89334.293956 kJ/mol
# GULP energy per Si atom -5583.393372 kJ/mol
# Density = 2.325365 g / cm^3
# Si number density = 23.306693 Si / 1000 Ang^3
#
#
#
# Elastic Constant Matrix: (Units=GPa)
#
#
# Indices 1 2 3 4 5 6 
#
# 1 83.6649 11.1640 27.6839 17.3472 5.4483 0.7659
# 2 11.1640 143.8664 21.7163 22.7848 8.4659 13.8857
# 3 27.6839 21.7163 71.7228 13.6757 21.3944 8.5190
# 4 17.3472 22.7848 13.6757 45.6636 3.7745 4.6963
# 5 5.4483 8.4659 21.3944 3.7745 37.2305 1.9663
# 6 0.7659 13.8857 8.5190 4.6963 1.9663 38.0031
#
#
#
# Elastic Compliance Matrix: (Units=1/GPa)
#
#
# Indices 1 2 3 4 5 6 
#
# 1 0.014488 0.000152 -0.005377 -0.004211 0.001293 0.001311
# 2 0.000152 0.007916 -0.001398 -0.003322 -0.000569 -0.002142
# 3 -0.005377 -0.001398 0.020253 -0.002165 -0.010149 -0.003128
# 4 -0.004211 -0.003322 -0.002165 0.025946 0.000060 -0.001426
# 5 0.001293 -0.000569 -0.010149 0.000060 0.032585 0.000763
# 6 0.001311 -0.002142 -0.003128 -0.001426 0.000763 0.027908
#
#
# Mechanical properties :
#
#
# Convention : Reuss Voigt Hill
#
# Bulk Modulus (GPa) = 33.99998 46.70918 40.35458
# Shear Modulus (GPa) = 32.86301 40.09209 36.47755
#
# Velocity S-wave (km/s) = 3.75910 4.15202 3.96044
# Velocity P-wave (km/s) = 5.78454 6.56280 6.18592
#
# Compressibility (1/GPa) = 0.02941179
#
# Stress axis : x y z
#
# Youngs Moduli (GPa) = 69.02164 126.31892 49.37609
#
# Poissons Ratio (x) = -0.01915 0.26547
# Poissons Ratio (y) = -0.01046 0.06902
# Poissons Ratio (z) = 0.37110 0.17658
#
# Static dielectric constant tensor:
#      x y z
#    x 2.006760 -0.012760 0.099760 
#    y -0.012760 2.015940 -0.020560 
#    z 0.099760 -0.020560 1.898240 
# 
# From -- ./inp_files/135688.got.cif
#   From: 2010.05.17/outbox.cif.g08.bks.cpg/sg2_68_cif.got.tgz:135688.got - 2010.06.03 11:33:40.
