data_PCOD9066821
_publ_section_title
;
Structure prediction by ZEFSAII (Michael W. Deem and Ramdas Pophale) SiO2 
 PCOD9066821
Probable space group: P -1
;
_chemical_formula_sum "Si O2"
_cell_formula_units_Z 16
_cell_length_a 11.853136
_cell_length_b 12.614908
_cell_length_c 20.849690
_cell_angle_alpha 31.882669
_cell_angle_beta 119.742982
_cell_angle_gamma 141.940505
_cell_volume 861.023630
_symmetry_space_group_name_H-M "P -1"
_symmetry_group_IT_number 2
_symmetry_cell_setting 'triclinic'
loop_
_space_group_symop_operation_xyz
x,y,z
-x,-y,-z
loop_
_atom_site_type_symbol
_atom_site_label
_atom_site_fract_x
_atom_site_fract_y
_atom_site_fract_z
Si Si1 0.963198 0.918923 0.639375
Si Si2 0.656271 0.848803 0.327917
Si Si3 0.054296 0.667972 0.216202
Si Si4 0.710760 0.108252 0.651901
Si Si5 0.722871 0.449585 0.695337
Si Si6 0.246550 0.206839 0.091391
Si Si7 0.744633 0.358040 0.171219
Si Si8 0.123855 0.784633 0.485656
O O1 0.817596 0.603878 0.713476
O O2 0.114998 0.982231 0.698045
O O3 0.123366 0.236955 0.472023
O O4 0.831224 0.929532 0.632411
O O5 0.500000 0.500000 0.500000
O O6 0.516022 0.756127 0.276221
O O7 0.700803 0.099443 0.254520
O O8 0.245596 0.742876 0.218167
O O9 0.931790 0.560191 0.171849
O O10 0.893549 0.358672 0.379609
O O11 0.134181 0.963564 0.123543
O O12 0.721680 0.122029 0.571500
O O13 0.884567 0.471485 0.546714
O O14 0.794045 0.990722 0.758899
O O15 0.476526 0.861429 0.740809
O O16 0.500000 0.500000 0.000000
O O17 0.197540 0.380908 0.991357
#
# Coordination Sequence:
#
# PCOD9066821 Si02
#       8
#     2   2   2   2   2   2   2   2
#     4   9  16  28  44  69  94 127 159 199 244 291
#     4  10  18  28  47  73 100 127 161 204 252 294
#     4  10  18  30  48  76 105 125 160 208 253 297
#     4   9  18  33  49  69  97 134 167 203 244 297
#     4   9  16  27  44  68  99 124 155 204 247 286
#     4   9  18  32  50  70  94 131 169 203 247 292
#     4  11  19  30  49  77 101 127 167 205 249 297
#     4   9  18  32  49  68 101 133 163 202 249 295
#
# _framework density 18.582533000000002
#
# number of rings (size 3 to 8) (size 9 to 14) (size 15 to 20)
#    0.000    2.500    1.250    4.125    1.750    0.500 
#    0.000    0.000    0.000    0.750    0.000    4.375 
#    0.000    0.000    0.000    0.000    0.000    0.000 
#
# Total GULP energy -89117.513631 kJ/mol
# GULP energy per Si atom -5569.844602 kJ/mol
# Density = 1.854024 g / cm^3
# Si number density = 18.582533 Si / 1000 Ang^3
#
#
#
# Elastic Constant Matrix: (Units=GPa)
#
#
# Indices 1 2 3 4 5 6 
#
# 1 21.5316 -10.2283 12.4367 -1.4954 15.1879 -2.9643
# 2 -10.2283 48.6399 8.7149 -0.6353 5.1500 8.1251
# 3 12.4367 8.7149 49.1943 -5.6192 26.8493 -4.4426
# 4 -1.4954 -0.6353 -5.6192 19.9278 -3.1294 5.3459
# 5 15.1879 5.1500 26.8493 -3.1294 26.5907 -2.8751
# 6 -2.9643 8.1251 -4.4426 5.3459 -2.8751 24.0120
#
#
#
# Elastic Compliance Matrix: (Units=1/GPa)
#
#
# Indices 1 2 3 4 5 6 
#
# 1 0.110997 0.030836 0.009423 0.000765 -0.079299 -0.004654
# 2 0.030836 0.031509 -0.001460 0.002053 -0.023119 -0.010351
# 3 0.009423 -0.001460 0.047528 0.005044 -0.052163 0.003082
# 4 0.000765 0.002053 0.005044 0.054815 -0.000770 -0.011963
# 5 -0.079299 -0.023119 -0.052163 -0.000770 0.140540 0.005382
# 6 -0.004654 -0.010351 0.003082 -0.011963 0.005382 0.048452
#
#
# Mechanical properties :
#
#
# Convention : Reuss Voigt Hill
#
# Bulk Modulus (GPa) = 3.73646 15.69024 9.71335
# Shear Modulus (GPa) = 11.22456 21.33557 16.28007
#
# Velocity S-wave (km/s) = 2.46039 3.39212 2.96310
# Velocity P-wave (km/s) = 3.17591 4.87891 4.11644
#
# Compressibility (1/GPa) = 0.26763324
#
# Stress axis : x y z
#
# Youngs Moduli (GPa) = 9.00925 31.73697 21.04027
#
# Poissons Ratio (x) = -0.97865 -0.19827
# Poissons Ratio (y) = -0.27781 0.03072
# Poissons Ratio (z) = -0.08490 0.04634
#
# Static dielectric constant tensor:
#      x y z
#    x 1.645710 0.017540 0.025130 
#    y 0.017540 1.654010 0.005110 
#    z 0.025130 0.005110 1.656870 
# 
# From -- ./inp_files/252615.got.cif
#   From: 2010.05.17/outbox.cif.g08.bks.cpg/sg2_127_cif.got.tgz:252615.got - 2010.06.03 11:33:40.
