data_PCOD9066236
_publ_section_title
;
Structure prediction by ZEFSAII (Michael W. Deem and Ramdas Pophale) SiO2 
 PCOD9066236
Probable space group: P -1
;
_chemical_formula_sum "Si O2"
_cell_formula_units_Z 14
_cell_length_a 12.199684
_cell_length_b 6.296959
_cell_length_c 10.800441
_cell_angle_alpha 111.773226
_cell_angle_beta 84.449106
_cell_angle_gamma 128.772980
_cell_volume 590.090205
_symmetry_space_group_name_H-M "P -1"
_symmetry_group_IT_number 2
_symmetry_cell_setting 'triclinic'
loop_
_space_group_symop_operation_xyz
x,y,z
-x,-y,-z
loop_
_atom_site_type_symbol
_atom_site_label
_atom_site_fract_x
_atom_site_fract_y
_atom_site_fract_z
Si Si1 0.001651 0.364242 0.184231
Si Si2 0.720866 0.855064 0.238321
Si Si3 0.854784 0.123576 0.907707
Si Si4 0.338187 0.716630 0.991947
Si Si5 0.755302 0.565326 0.671531
Si Si6 0.639953 0.564093 0.438411
Si Si7 0.480921 0.897352 0.260514
O O1 0.065270 0.679067 0.182191
O O2 0.114579 0.399510 0.273760
O O3 0.857059 0.169011 0.238198
O O4 0.961539 0.186197 0.018510
O O5 0.711954 0.811710 0.377795
O O6 0.580737 0.812870 0.209662
O O7 0.712760 0.590168 0.123971
O O8 0.768453 0.215236 0.001414
O O9 0.748496 0.789616 0.800413
O O10 0.352772 0.722708 0.138890
O O11 0.500000 0.000000 0.000000
O O12 0.754600 0.641113 0.545772
O O13 0.606667 0.234223 0.631691
O O14 0.500000 0.500000 0.500000
O O15 0.575322 0.248408 0.316552
#
# Coordination Sequence:
#
# PCOD9066236 Si02
#       7
#     2   2   2   2   2   2   2
#     4  11  27  44  71 105 141 184 231 285 355 414
#     4  12  27  44  71 106 145 180 232 291 346 410
#     4  11  25  45  72 104 144 181 228 289 352 414
#     4  12  22  42  73 107 139 175 229 292 352 403
#     4  12  25  45  75  99 139 192 235 274 349 421
#     4  12  27  47  73 102 140 185 238 289 339 413
#     4  12  24  46  73 104 137 183 232 291 350 409
#
# _framework density 23.725189
#
# number of rings (size 3 to 8) (size 9 to 14) (size 15 to 20)
#    0.000    0.286    4.286    4.714    4.000    0.571 
#    0.000    1.429    0.000    0.000    0.000    0.000 
#    0.000    0.000    0.000    0.000    0.000    0.000 
#
# Total GULP energy -78269.502085 kJ/mol
# GULP energy per Si atom -5590.678720 kJ/mol
# Density = 2.367119 g / cm^3
# Si number density = 23.725189 Si / 1000 Ang^3
#
#
#
# Elastic Constant Matrix: (Units=GPa)
#
#
# Indices 1 2 3 4 5 6 
#
# 1 112.3450 32.8091 31.6989 0.7469 32.7483 -6.2831
# 2 32.8091 118.1021 20.5016 -33.0810 5.0685 11.0721
# 3 31.6989 20.5016 88.6825 -11.5793 29.1507 -8.6483
# 4 0.7469 -33.0810 -11.5793 35.1737 -9.8614 2.0412
# 5 32.7483 5.0685 29.1507 -9.8614 31.0398 -2.3147
# 6 -6.2831 11.0721 -8.6483 2.0412 -2.3147 35.7796
#
#
#
# Elastic Compliance Matrix: (Units=1/GPa)
#
#
# Indices 1 2 3 4 5 6 
#
# 1 0.018836 -0.009627 0.002220 -0.016100 -0.025043 0.006121
# 2 -0.009627 0.017795 -0.004514 0.020842 0.017490 -0.008346
# 3 0.002220 -0.004514 0.017817 -0.004125 -0.019269 0.005082
# 4 -0.016100 0.020842 -0.004125 0.057447 0.034864 -0.011296
# 5 -0.025043 0.017490 -0.019269 0.034864 0.084134 -0.011014
# 6 0.006121 -0.008346 0.005082 -0.011296 -0.011014 0.032767
#
#
# Mechanical properties :
#
#
# Convention : Reuss Voigt Hill
#
# Bulk Modulus (GPa) = 32.67397 54.34985 43.51191
# Shear Modulus (GPa) = 19.02295 36.00662 27.51479
#
# Velocity S-wave (km/s) = 2.83469 3.89993 3.40917
# Velocity P-wave (km/s) = 4.95133 6.57549 5.82034
#
# Compressibility (1/GPa) = 0.03060540
#
# Stress axis : x y z
#
# Youngs Moduli (GPa) = 53.09075 56.19519 56.12503
#
# Poissons Ratio (x) = 0.54097 -0.12457
# Poissons Ratio (y) = 0.51108 0.25337
# Poissons Ratio (z) = -0.11784 0.25369
#
# Static dielectric constant tensor:
#      x y z
#    x 1.887060 -0.014680 0.010520 
#    y -0.014680 1.936470 -0.074500 
#    z 0.010520 -0.074500 1.946840 
# 
# From -- ./inp_files/411061.got.cif
#   From: 2010.05.17/outbox.cif.g08.bks.cpg/sg2_206_cif.got.tgz:411061.got - 2010.06.03 11:33:40.
