data_PCOD9066311
_publ_section_title
;
Structure prediction by ZEFSAII (Michael W. Deem and Ramdas Pophale) SiO2 
 PCOD9066311
Probable space group: P -1
;
_chemical_formula_sum "Si O2"
_cell_formula_units_Z 16
_cell_length_a 21.161584
_cell_length_b 9.678483
_cell_length_c 18.135331
_cell_angle_alpha 139.537317
_cell_angle_beta 160.164016
_cell_angle_gamma 39.562331
_cell_volume 791.769245
_symmetry_space_group_name_H-M "P -1"
_symmetry_group_IT_number 2
_symmetry_cell_setting 'triclinic'
loop_
_space_group_symop_operation_xyz
x,y,z
-x,-y,-z
loop_
_atom_site_type_symbol
_atom_site_label
_atom_site_fract_x
_atom_site_fract_y
_atom_site_fract_z
Si Si1 0.646584 0.288902 0.421023
Si Si2 0.202696 0.023501 0.200085
Si Si3 0.972453 0.970987 0.336376
Si Si4 0.593591 0.950114 0.840768
Si Si5 0.975556 0.651436 0.344713
Si Si6 0.802400 0.656488 0.815470
Si Si7 0.646106 0.740022 0.402612
Si Si8 0.623138 0.432624 0.873084
O O1 0.488808 0.188270 0.245801
O O2 0.679745 0.491524 0.586478
O O3 0.556860 0.389693 0.286334
O O4 0.853041 0.121260 0.565931
O O5 0.172957 0.189723 0.164688
O O6 0.313291 0.116909 0.424624
O O7 0.314222 0.780617 0.197507
O O8 0.000000 0.000000 0.000000
O O9 0.019727 0.163203 0.514787
O O10 0.964500 0.769875 0.301141
O O11 0.762998 0.043907 0.099231
O O12 0.693685 0.803849 0.822320
O O13 0.406911 0.118300 0.671062
O O14 0.168726 0.459147 0.482645
O O15 0.798341 0.543365 0.118156
O O16 0.000000 0.500000 0.000000
O O17 0.457145 0.654954 0.177823
#
# Coordination Sequence:
#
# PCOD9066311 Si02
#       8
#     2   2   2   2   2   2   2   2
#     4  12  25  43  72 100 137 178 224 271 339 403
#     4  12  25  41  70 102 140 177 219 274 339 407
#     4  11  25  47  68 102 135 172 235 283 323 398
#     4  12  27  44  69 101 142 176 220 278 342 396
#     4  11  25  45  73  98 132 180 229 282 330 391
#     4  12  25  42  68 101 142 177 217 277 338 402
#     4  12  25  46  69 102 139 176 221 278 336 403
#     4  12  23  43  71  99 131 181 223 270 335 403
#
# _framework density 20.207909000000001
#
# number of rings (size 3 to 8) (size 9 to 14) (size 15 to 20)
#    0.000    0.250    7.500    1.500    3.500    3.000 
#    0.000    1.250    0.000    0.000    0.000    0.000 
#    0.000    0.000    0.000    0.000    0.000    0.000 
#
# Total GULP energy -89486.670333 kJ/mol
# GULP energy per Si atom -5592.916896 kJ/mol
# Density = 2.016192 g / cm^3
# Si number density = 20.207909 Si / 1000 Ang^3
#
#
#
# Elastic Constant Matrix: (Units=GPa)
#
#
# Indices 1 2 3 4 5 6 
#
# 1 37.0697 -15.2524 27.7550 15.6754 -1.4799 14.7020
# 2 -15.2524 82.7909 7.7540 -22.1152 -4.6436 6.5591
# 3 27.7550 7.7540 148.5480 32.7201 7.5627 3.4201
# 4 15.6754 -22.1152 32.7201 52.7746 3.1992 2.0095
# 5 -1.4799 -4.6436 7.5627 3.1992 31.0187 -3.5578
# 6 14.7020 6.5591 3.4201 2.0095 -3.5578 19.2156
#
#
#
# Elastic Compliance Matrix: (Units=1/GPa)
#
#
# Indices 1 2 3 4 5 6 
#
# 1 0.063791 0.016010 -0.010889 -0.003683 0.002571 -0.051473
# 2 0.016010 0.018929 -0.005202 0.006967 0.002068 -0.018131
# 3 -0.010889 -0.005202 0.010153 -0.005426 -0.002245 0.008452
# 4 -0.003683 0.006967 -0.005426 0.026425 -0.000706 -0.001488
# 5 0.002571 0.002068 -0.002245 -0.000706 0.033755 0.004050
# 6 -0.051473 -0.018131 0.008452 -0.001488 0.004050 0.097014
#
#
# Mechanical properties :
#
#
# Convention : Reuss Voigt Hill
#
# Bulk Modulus (GPa) = 10.78614 34.32463 22.55539
# Shear Modulus (GPa) = 17.78522 37.14525 27.46524
#
# Velocity S-wave (km/s) = 2.96989 4.29202 3.69064
# Velocity P-wave (km/s) = 4.13636 6.44861 5.41729
#
# Compressibility (1/GPa) = 0.09271153
#
# Stress axis : x y z
#
# Youngs Moduli (GPa) = 15.67612 52.82982 98.49582
#
# Poissons Ratio (x) = -0.84582 1.07253
# Poissons Ratio (y) = -0.25098 0.51236
# Poissons Ratio (z) = 0.17070 0.27481
#
# Static dielectric constant tensor:
#      x y z
#    x 1.684450 0.001470 -0.008860 
#    y 0.001470 1.708630 -0.014580 
#    z -0.008860 -0.014580 1.692360 
# 
# From -- ./inp_files/207515.got.cif
#   From: 2010.05.17/outbox.cif.g08.bks.cpg/sg2_104_cif.got.tgz:207515.got - 2010.06.03 11:33:40.
