data_PCOD9066166
_publ_section_title
;
Structure prediction by ZEFSAII (Michael W. Deem and Ramdas Pophale) SiO2 
 PCOD9066166
Probable space group: P -1
;
_chemical_formula_sum "Si O2"
_cell_formula_units_Z 16
_cell_length_a 17.814975
_cell_length_b 23.999050
_cell_length_c 5.215488
_cell_angle_alpha 112.445146
_cell_angle_beta 112.801126
_cell_angle_gamma 20.515257
_cell_volume 719.170114
_symmetry_space_group_name_H-M "P -1"
_symmetry_group_IT_number 2
_symmetry_cell_setting 'triclinic'
loop_
_space_group_symop_operation_xyz
x,y,z
-x,-y,-z
loop_
_atom_site_type_symbol
_atom_site_label
_atom_site_fract_x
_atom_site_fract_y
_atom_site_fract_z
Si Si1 0.695642 0.972151 0.089644
Si Si2 0.893453 0.895492 0.715691
Si Si3 0.480914 0.682608 0.618797
Si Si4 0.767853 0.688892 0.784129
Si Si5 0.599059 0.463286 0.315760
Si Si6 0.100168 0.527484 0.302526
Si Si7 0.718139 0.834073 0.641212
Si Si8 0.783301 0.110058 0.870686
O O1 0.771155 0.944990 0.413571
O O2 0.445012 0.161713 0.058626
O O3 0.829907 0.909932 0.928171
O O4 0.728939 0.877327 0.951256
O O5 0.145423 0.718677 0.681463
O O6 0.827207 0.010569 0.819985
O O7 0.541806 0.572738 0.439733
O O8 0.690692 0.580771 0.701434
O O9 0.310564 0.820360 0.418470
O O10 0.384654 0.751320 0.896685
O O11 0.824743 0.580826 0.613526
O O12 0.706573 0.773866 0.618798
O O13 0.966190 0.586299 0.004589
O O14 0.500000 0.500000 0.500000
O O15 0.500000 0.500000 0.000000
O O16 0.934464 0.685946 0.500093
O O17 0.500000 0.000000 0.500000
O O18 0.000000 0.000000 0.000000
#
# Coordination Sequence:
#
# PCOD9066166 Si02
#       8
#     2   2   2   2   2   2   2   2
#     4  12  26  44  73 104 144 187 246 292 357 417
#     4  12  26  46  73 106 142 185 240 303 353 431
#     4  12  27  46  76 110 143 187 241 299 355 434
#     4  11  25  45  69  98 146 192 240 293 358 420
#     4  12  26  48  74 106 146 186 232 295 374 437
#     4  11  26  45  69 104 142 192 241 296 356 421
#     4  12  25  44  70 100 140 197 246 294 353 426
#     4  12  26  49  76 105 143 187 238 296 369 438
#
# _framework density 22.247865000000001
#
# number of rings (size 3 to 8) (size 9 to 14) (size 15 to 20)
#    0.000    0.250    1.250    7.875    5.250    0.000 
#    0.000    0.000    0.000    0.000    0.000    0.000 
#    0.000    0.000    0.000    0.000    0.000    0.000 
#
# Total GULP energy -89688.480474 kJ/mol
# GULP energy per Si atom -5605.530030 kJ/mol
# Density = 2.219723 g / cm^3
# Si number density = 22.247865 Si / 1000 Ang^3
#
#
#
# Elastic Constant Matrix: (Units=GPa)
#
#
# Indices 1 2 3 4 5 6 
#
# 1 86.2523 35.8442 -4.8814 -2.9978 2.0425 -14.2603
# 2 35.8442 103.6074 5.8489 4.5403 10.3246 -11.1856
# 3 -4.8814 5.8489 76.4535 0.2424 16.4663 -11.1236
# 4 -2.9978 4.5403 0.2424 41.2039 3.8796 8.3371
# 5 2.0425 10.3246 16.4663 3.8796 46.9300 2.4207
# 6 -14.2603 -11.1856 -11.1236 8.3371 2.4207 55.7621
#
#
#
# Elastic Compliance Matrix: (Units=1/GPa)
#
#
# Indices 1 2 3 4 5 6 
#
# 1 0.014168 -0.004687 0.001778 0.000990 -0.000441 0.002909
# 2 -0.004687 0.011741 -0.000531 -0.001715 -0.002123 0.001399
# 3 0.001778 -0.000531 0.014910 -0.000117 -0.005367 0.003573
# 4 0.000990 -0.001715 -0.000117 0.025455 -0.001530 -0.003854
# 5 -0.000441 -0.002123 -0.005367 -0.001530 0.023929 -0.002419
# 6 0.002909 0.001399 0.003573 -0.003854 -0.002419 0.020352
#
#
# Mechanical properties :
#
#
# Convention : Reuss Voigt Hill
#
# Bulk Modulus (GPa) = 29.46466 37.77074 33.61770
# Shear Modulus (GPa) = 38.83520 44.07928 41.45724
#
# Velocity S-wave (km/s) = 4.18253 4.45599 4.32142
# Velocity P-wave (km/s) = 6.04957 6.59458 6.32795
#
# Compressibility (1/GPa) = 0.03393897
#
# Stress axis : x y z
#
# Youngs Moduli (GPa) = 70.58004 85.16979 67.06854
#
# Poissons Ratio (x) = 0.39923 -0.11927
# Poissons Ratio (y) = 0.33084 0.03563
# Poissons Ratio (z) = -0.12552 0.04525
#
# Static dielectric constant tensor:
#      x y z
#    x 1.819640 0.008600 -0.025810 
#    y 0.008600 1.817960 -0.006060 
#    z -0.025810 -0.006060 1.807770 
# 
# From -- ./inp_files/112989.got.cif
#   From: 2010.05.17/outbox.cif.g08.bks.cpg/sg2_57_cif.got.tgz:112989.got - 2010.06.03 11:33:40.
