data_PCOD9066412
_publ_section_title
;
Structure prediction by ZEFSAII (Michael W. Deem and Ramdas Pophale) SiO2 
 PCOD9066412
Probable space group: P -1
;
_chemical_formula_sum "Si O2"
_cell_formula_units_Z 14
_cell_length_a 7.666976
_cell_length_b 9.865608
_cell_length_c 12.388216
_cell_angle_alpha 35.542763
_cell_angle_beta 98.623882
_cell_angle_gamma 107.184691
_cell_volume 513.442667
_symmetry_space_group_name_H-M "P -1"
_symmetry_group_IT_number 2
_symmetry_cell_setting 'triclinic'
loop_
_space_group_symop_operation_xyz
x,y,z
-x,-y,-z
loop_
_atom_site_type_symbol
_atom_site_label
_atom_site_fract_x
_atom_site_fract_y
_atom_site_fract_z
Si Si1 0.854889 0.977769 0.718648
Si Si2 0.533628 0.989622 0.828843
Si Si3 0.215779 0.271826 0.335031
Si Si4 0.027290 0.377973 0.912683
Si Si5 0.090693 0.495388 0.625094
Si Si6 0.337686 0.857994 0.666530
Si Si7 0.471988 0.370681 0.737931
O O1 0.736149 0.781462 0.749902
O O2 0.734419 0.030306 0.770573
O O3 0.918495 0.243292 0.497772
O O4 0.996719 0.855651 0.864192
O O5 0.499966 0.226968 0.726777
O O6 0.410692 0.892379 0.773695
O O7 0.527116 0.805906 0.045722
O O8 0.362409 0.398657 0.358630
O O9 0.107355 0.465714 0.175497
O O10 0.176580 0.993470 0.555887
O O11 0.991647 0.304953 0.831419
O O12 0.236482 0.570763 0.817581
O O13 0.289621 0.455967 0.657340
O O14 0.000000 0.500000 0.500000
O O15 0.500000 0.000000 0.500000
#
# Coordination Sequence:
#
# PCOD9066412 Si02
#       7
#     2   2   2   2   2   2   2
#     4  12  26  47  79 107 149 196 250 304 376 442
#     4  11  25  45  77 110 146 197 250 304 374 445
#     4  12  26  45  75 111 147 197 246 305 375 438
#     4  12  27  48  72 110 154 192 246 313 365 442
#     4  12  29  48  75 109 148 194 247 308 375 445
#     4  12  24  45  79 109 148 196 250 306 370 439
#     4  11  27  49  73 108 151 195 249 307 374 446
#
# _framework density 27.266922000000001
#
# number of rings (size 3 to 8) (size 9 to 14) (size 15 to 20)
#    0.000    0.286    4.286    3.429    4.000    5.143 
#    0.000    0.000    0.000    0.000    0.000    0.000 
#    0.000    0.000    0.000    0.000    0.000    0.000 
#
# Total GULP energy -78283.965202 kJ/mol
# GULP energy per Si atom -5591.711800 kJ/mol
# Density = 2.720486 g / cm^3
# Si number density = 27.266922 Si / 1000 Ang^3
#
#
#
# Elastic Constant Matrix: (Units=GPa)
#
#
# Indices 1 2 3 4 5 6 
#
# 1 74.0796 38.6664 44.5694 1.3357 42.8242 -19.2318
# 2 38.6664 204.0042 53.5865 31.3781 27.9112 -5.0538
# 3 44.5694 53.5865 153.8132 16.6284 39.0754 -16.7904
# 4 1.3357 31.3781 16.6284 50.4604 -6.2025 3.9034
# 5 42.8242 27.9112 39.0754 -6.2025 55.8407 -5.9201
# 6 -19.2318 -5.0538 -16.7904 3.9034 -5.9201 32.9352
#
#
#
# Elastic Compliance Matrix: (Units=1/GPa)
#
#
# Indices 1 2 3 4 5 6 
#
# 1 0.030768 -0.001916 -0.001200 -0.002826 -0.020662 0.013682
# 2 -0.001916 0.006262 -0.000897 -0.003697 -0.001491 -0.000445
# 3 -0.001200 -0.000897 0.009168 -0.003311 -0.005063 0.003318
# 4 -0.002826 -0.003697 -0.003311 0.024739 0.008517 -0.005306
# 5 -0.020662 -0.001491 -0.005063 0.008517 0.038029 -0.009049
# 6 0.013682 -0.000445 0.003318 -0.005306 -0.009049 0.038977
#
#
# Mechanical properties :
#
#
# Convention : Reuss Voigt Hill
#
# Bulk Modulus (GPa) = 26.19650 78.39354 52.29502
# Shear Modulus (GPa) = 29.63965 47.51889 38.57927
#
# Velocity S-wave (km/s) = 3.30057 4.17913 3.76556
# Velocity P-wave (km/s) = 4.91460 7.21801 6.17467
#
# Compressibility (1/GPa) = 0.03817304
#
# Stress axis : x y z
#
# Youngs Moduli (GPa) = 32.50096 159.69097 109.07816
#
# Poissons Ratio (x) = 0.30598 0.13088
# Poissons Ratio (y) = 0.06227 0.09780
# Poissons Ratio (z) = 0.03900 0.14318
#
# Static dielectric constant tensor:
#      x y z
#    x 2.318090 0.068920 -0.097350 
#    y 0.068920 2.126850 -0.049700 
#    z -0.097350 -0.049700 2.182590 
# 
# From -- ./inp_files/380885.got.cif
#   From: 2010.05.17/outbox.cif.g08.bks.cpg/sg2_191_cif.got.tgz:380885.got - 2010.06.03 11:33:40.
