data_PCOD9066209
_publ_section_title
;
Structure prediction by ZEFSAII (Michael W. Deem and Ramdas Pophale) SiO2 
 PCOD9066209
Probable space group: P -1
;
_chemical_formula_sum "Si O2"
_cell_formula_units_Z 14
_cell_length_a 9.939447
_cell_length_b 9.010154
_cell_length_c 16.683477
_cell_angle_alpha 33.115782
_cell_angle_beta 127.215209
_cell_angle_gamma 112.718205
_cell_volume 624.685352
_symmetry_space_group_name_H-M "P -1"
_symmetry_group_IT_number 2
_symmetry_cell_setting 'triclinic'
loop_
_space_group_symop_operation_xyz
x,y,z
-x,-y,-z
loop_
_atom_site_type_symbol
_atom_site_label
_atom_site_fract_x
_atom_site_fract_y
_atom_site_fract_z
Si Si1 0.613771 0.691485 0.096615
Si Si2 0.276398 0.465841 0.077780
Si Si3 0.902804 0.805225 0.732869
Si Si4 0.740970 0.511382 0.555715
Si Si5 0.187950 0.539711 0.574798
Si Si6 0.033610 0.671178 0.672693
Si Si7 0.594449 0.026524 0.783032
O O1 0.437204 0.598968 0.085633
O O2 0.703568 0.682861 0.220195
O O3 0.760430 0.462742 0.201808
O O4 0.583909 0.951463 0.906719
O O5 0.233966 0.295542 0.215832
O O6 0.325142 0.245085 0.121047
O O7 0.095329 0.710719 0.886580
O O8 0.943140 0.640741 0.738084
O O9 0.841598 0.141773 0.546975
O O10 0.715323 0.469937 0.471091
O O11 0.705054 0.251215 0.707758
O O12 0.600003 0.806033 0.393627
O O13 0.933203 0.536296 0.632486
O O14 0.000000 0.500000 0.500000
O O15 0.000000 0.000000 0.500000
#
# Coordination Sequence:
#
# PCOD9066209 Si02
#       7
#     2   2   2   2   2   2   2
#     4  12  26  41  75 104 138 182 240 290 340 418
#     4  11  25  45  71 106 140 184 237 294 344 416
#     4  11  25  46  72 102 143 184 235 288 353 414
#     4  11  26  47  71  98 148 185 229 289 361 418
#     4  12  25  47  70 104 141 185 228 292 357 413
#     4  12  23  44  73 105 132 190 235 284 347 422
#     4  11  25  46  70 106 139 186 234 294 349 414
#
# _framework density 22.411282
#
# number of rings (size 3 to 8) (size 9 to 14) (size 15 to 20)
#    0.000    0.571    5.714    1.286    4.000    4.000 
#    5.143    0.000    0.000    0.000    0.000    0.000 
#    0.000    0.000    0.000    0.000    0.000    0.000 
#
# Total GULP energy -78267.444025 kJ/mol
# GULP energy per Si atom -5590.531716 kJ/mol
# Density = 2.236027 g / cm^3
# Si number density = 22.411282 Si / 1000 Ang^3
#
#
#
# Elastic Constant Matrix: (Units=GPa)
#
#
# Indices 1 2 3 4 5 6 
#
# 1 158.6293 49.5693 54.4433 18.2202 -20.4998 4.7659
# 2 49.5693 58.9575 32.3506 16.4976 -20.8356 -8.4756
# 3 54.4433 32.3506 88.4580 9.7670 -22.8525 23.5725
# 4 18.2202 16.4976 9.7670 28.4922 -17.6681 0.2479
# 5 -20.4998 -20.8356 -22.8525 -17.6681 37.3854 1.9021
# 6 4.7659 -8.4756 23.5725 0.2479 1.9021 37.6607
#
#
#
# Elastic Compliance Matrix: (Units=1/GPa)
#
#
# Indices 1 2 3 4 5 6 
#
# 1 0.009502 -0.005712 -0.003886 -0.002340 -0.001456 0.000033
# 2 -0.005712 0.034045 -0.010907 -0.010241 0.003567 0.015099
# 3 -0.003886 -0.010907 0.024547 0.007528 0.011266 -0.017946
# 4 -0.002340 -0.010241 0.007528 0.054878 0.023968 -0.008292
# 5 -0.001456 0.003567 0.011266 0.023968 0.046588 -0.008575
# 6 0.000033 0.015099 -0.017946 -0.008292 -0.008575 0.041667
#
#
# Mechanical properties :
#
#
# Convention : Reuss Voigt Hill
#
# Bulk Modulus (GPa) = 36.92075 64.30792 50.61433
# Shear Modulus (GPa) = 19.13778 32.01977 25.57877
#
# Velocity S-wave (km/s) = 2.92539 3.78396 3.38203
# Velocity P-wave (km/s) = 5.28398 6.91722 6.15501
#
# Compressibility (1/GPa) = 0.02708504
#
# Stress axis : x y z
#
# Youngs Moduli (GPa) = 105.23865 29.37302 40.73833
#
# Poissons Ratio (x) = 0.16777 0.15832
# Poissons Ratio (y) = 0.60108 0.44432
# Poissons Ratio (z) = 0.40898 0.32036
#
# Static dielectric constant tensor:
#      x y z
#    x 1.838280 -0.059620 -0.011390 
#    y -0.059620 1.814540 0.030160 
#    z -0.011390 0.030160 1.848330 
# 
# From -- ./inp_files/263316.got.cif
#   From: 2010.05.17/outbox.cif.g08.bks.cpg/sg2_132_cif.got.tgz:263316.got - 2010.06.03 11:33:40.
