data_PCOD9066278
_publ_section_title
;
Structure prediction by ZEFSAII (Michael W. Deem and Ramdas Pophale) SiO2 
 PCOD9066278
Probable space group: P -1
;
_chemical_formula_sum "Si O2"
_cell_formula_units_Z 12
_cell_length_a 14.748894
_cell_length_b 8.675345
_cell_length_c 14.372893
_cell_angle_alpha 142.198982
_cell_angle_beta 28.591857
_cell_angle_gamma 141.268446
_cell_volume 515.558275
_symmetry_space_group_name_H-M "P -1"
_symmetry_group_IT_number 2
_symmetry_cell_setting 'triclinic'
loop_
_space_group_symop_operation_xyz
x,y,z
-x,-y,-z
loop_
_atom_site_type_symbol
_atom_site_label
_atom_site_fract_x
_atom_site_fract_y
_atom_site_fract_z
Si Si1 0.175113 0.344173 0.598626
Si Si2 0.007978 0.409778 0.582626
Si Si3 0.597307 0.075975 0.752601
Si Si4 0.063575 0.006733 0.839618
Si Si5 0.524014 0.871823 0.516803
Si Si6 0.845408 0.007680 0.859066
O O1 0.331703 0.630491 0.595925
O O2 0.071942 0.312468 0.576091
O O3 0.992932 0.257148 0.793103
O O4 0.306568 0.149198 0.408269
O O5 0.770981 0.336283 0.747651
O O6 0.091505 0.721885 0.656767
O O7 0.091519 0.246611 0.354152
O O8 0.562757 0.048004 0.659285
O O9 0.385494 0.040624 0.972627
O O10 0.274572 0.210958 0.720834
O O11 0.897881 0.041417 0.936269
O O12 0.000000 0.000000 0.000000
O O13 0.500000 0.000000 0.500000
#
# Coordination Sequence:
#
# PCOD9066278 Si02
#       6
#     2   2   2   2   2   2
#     4  11  25  45  74 104 148 186 235 300 351 420
#     4  11  25  48  71 105 146 188 237 298 350 419
#     4  11  25  45  73 106 140 192 238 289 361 421
#     4  12  26  46  72 107 144 188 241 295 355 421
#     4  12  24  46  70 105 146 185 238 296 353 420
#     4  11  25  45  75 103 144 189 238 293 358 420
#
# _framework density 23.275738
#
# number of rings (size 3 to 8) (size 9 to 14) (size 15 to 20)
#    0.000    0.667    5.000    4.000    0.000    6.667 
#    0.000    0.000    0.000    0.000    0.000    0.000 
#    0.000    0.000    0.000    0.000    0.000    0.000 
#
# Total GULP energy -67144.747289 kJ/mol
# GULP energy per Si atom -5595.395607 kJ/mol
# Density = 2.322276 g / cm^3
# Si number density = 23.275738 Si / 1000 Ang^3
#
#
#
# Elastic Constant Matrix: (Units=GPa)
#
#
# Indices 1 2 3 4 5 6 
#
# 1 154.7684 36.0029 35.4985 -15.3151 1.3178 8.0699
# 2 36.0029 129.8821 55.4077 -28.9421 4.3471 11.9059
# 3 35.4985 55.4077 129.4398 -48.2832 -10.9316 12.7515
# 4 -15.3151 -28.9421 -48.2832 37.9051 9.8764 -10.7092
# 5 1.3178 4.3471 -10.9316 9.8764 42.1095 -8.4889
# 6 8.0699 11.9059 12.7515 -10.7092 -8.4889 40.3445
#
#
#
# Elastic Compliance Matrix: (Units=1/GPa)
#
#
# Indices 1 2 3 4 5 6 
#
# 1 0.007123 -0.001287 -0.001320 0.000174 -0.000617 -0.000711
# 2 -0.001287 0.010380 -0.002475 0.004644 -0.003052 -0.001433
# 3 -0.001320 -0.002475 0.015707 0.017714 0.000383 0.000813
# 4 0.000174 0.004644 0.017714 0.056388 -0.007839 0.006315
# 5 -0.000617 -0.003052 0.000383 -0.007839 0.026925 0.004487
# 6 -0.000711 -0.001433 0.000813 0.006315 0.004487 0.027715
#
#
# Mechanical properties :
#
#
# Convention : Reuss Voigt Hill
#
# Bulk Modulus (GPa) = 43.38895 74.21204 58.80050
# Shear Modulus (GPa) = 30.84843 43.21721 37.03282
#
# Velocity S-wave (km/s) = 3.64448 4.31368 3.99312
# Velocity P-wave (km/s) = 6.03253 7.53415 6.82477
#
# Compressibility (1/GPa) = 0.02304734
#
# Stress axis : x y z
#
# Youngs Moduli (GPa) = 140.39273 96.33944 63.66635
#
# Poissons Ratio (x) = 0.12397 0.08402
# Poissons Ratio (y) = 0.18066 0.15756
# Poissons Ratio (z) = 0.18527 0.23842
#
# Static dielectric constant tensor:
#      x y z
#    x 1.882180 0.002000 -0.003530 
#    y 0.002000 1.910750 0.007040 
#    z -0.003530 0.007040 1.877270 
# 
# From -- ./inp_files/163954.got.cif
#   From: 2010.05.17/outbox.cif.g08.bks.cpg/sg2_82_cif.got.tgz:163954.got - 2010.06.03 11:33:40.
