data_PCOD9066652
_publ_section_title
;
Structure prediction by ZEFSAII (Michael W. Deem and Ramdas Pophale) SiO2 
 PCOD9066652
Probable space group: P -1
;
_chemical_formula_sum "Si O2"
_cell_formula_units_Z 13
_cell_length_a 14.420739
_cell_length_b 9.942173
_cell_length_c 8.774582
_cell_angle_alpha 124.937016
_cell_angle_beta 146.191073
_cell_angle_gamma 52.252922
_cell_volume 547.618789
_symmetry_space_group_name_H-M "P -1"
_symmetry_group_IT_number 2
_symmetry_cell_setting 'triclinic'
loop_
_space_group_symop_operation_xyz
x,y,z
-x,-y,-z
loop_
_atom_site_type_symbol
_atom_site_label
_atom_site_fract_x
_atom_site_fract_y
_atom_site_fract_z
Si Si1 0.066806 0.736427 0.214171
Si Si2 0.000000 0.500000 0.500000
Si Si3 0.426257 0.845773 0.245705
Si Si4 0.341157 0.283524 0.019586
Si Si5 0.309346 0.907253 0.780762
Si Si6 0.889559 0.195582 0.014341
Si Si7 0.261709 0.366081 0.313346
O O1 0.124626 0.881435 0.471856
O O2 0.142004 0.560655 0.296743
O O3 0.151053 0.719649 0.152232
O O4 0.864714 0.754840 0.926275
O O5 0.188875 0.413606 0.797422
O O6 0.009374 0.693496 0.683380
O O7 0.593926 0.680337 0.390212
O O8 0.500000 0.000000 0.500000
O O9 0.357127 0.878097 0.002955
O O10 0.278055 0.817563 0.133154
O O11 0.309522 0.096268 0.856173
O O12 0.536529 0.239002 0.189899
O O13 0.336298 0.339526 0.226708
O O14 0.000000 0.000000 0.000000
#
# Coordination Sequence:
#
# PCOD9066652 Si02
#       7
#     2   1   2   2   2   2   2
#     4  11  26  46  71 109 147 194 247 316 382 447
#     4  12  28  46  82 116 152 200 262 316 388 456
#     4  12  27  47  74 110 149 203 253 312 384 460
#     4  11  25  47  73 105 148 192 249 313 379 448
#     4  11  27  46  77 105 146 201 252 312 380 456
#     4  12  28  48  77 111 155 201 254 319 382 452
#     4  11  25  46  73 104 153 187 243 313 378 457
#
# _framework density 23.739139000000002
#
# number of rings (size 3 to 8) (size 9 to 14) (size 15 to 20)
#    0.000    0.615    3.077    2.769   10.769    2.462 
#    0.000    0.000    0.000    0.000    0.000    0.000 
#    0.000    0.000    0.000    0.000    0.000    0.000 
#
# Total GULP energy -72549.252884 kJ/mol
# GULP energy per Si atom -5580.711760 kJ/mol
# Density = 2.368511 g / cm^3
# Si number density = 23.739139 Si / 1000 Ang^3
#
#
#
# Elastic Constant Matrix: (Units=GPa)
#
#
# Indices 1 2 3 4 5 6 
#
# 1 98.7679 2.3943 36.3136 0.5143 6.5414 12.0362
# 2 2.3943 89.5958 22.9938 -11.1823 9.8317 -6.0335
# 3 36.3136 22.9938 112.4285 9.1665 1.1697 6.4454
# 4 0.5143 -11.1823 9.1665 51.0439 -2.1055 -6.9571
# 5 6.5414 9.8317 1.1697 -2.1055 20.1700 -0.3870
# 6 12.0362 -6.0335 6.4454 -6.9571 -0.3870 24.8811
#
#
#
# Elastic Compliance Matrix: (Units=1/GPa)
#
#
# Indices 1 2 3 4 5 6 
#
# 1 0.012396 0.000775 -0.003827 -0.000114 -0.004283 -0.004916
# 2 0.000775 0.013558 -0.003565 0.004012 -0.006141 0.004862
# 3 -0.003827 -0.003565 0.011246 -0.003056 0.001955 -0.002751
# 4 -0.000114 0.004012 -0.003056 0.022143 0.000724 0.008023
# 5 -0.004283 -0.006141 0.001955 0.000724 0.053945 0.001118
# 6 -0.004916 0.004862 -0.002751 0.008023 0.001118 0.046722
#
#
# Mechanical properties :
#
#
# Convention : Reuss Voigt Hill
#
# Bulk Modulus (GPa) = 41.72407 47.13284 44.42846
# Shear Modulus (GPa) = 27.58903 35.15837 31.37370
#
# Velocity S-wave (km/s) = 3.41277 3.85259 3.63933
# Velocity P-wave (km/s) = 5.75704 6.29980 6.03453
#
# Compressibility (1/GPa) = 0.02396698
#
# Stress axis : x y z
#
# Youngs Moduli (GPa) = 80.66979 73.75979 88.91831
#
# Poissons Ratio (x) = -0.05720 0.34027
# Poissons Ratio (y) = -0.06256 0.31701
# Poissons Ratio (z) = 0.30870 0.26297
#
# Static dielectric constant tensor:
#      x y z
#    x 1.918350 -0.021710 0.019300 
#    y -0.021710 1.962530 -0.012420 
#    z 0.019300 -0.012420 1.857090 
# 
# From -- ./inp_files/153548.got.cif
#   From: 2010.05.17/outbox.cif.g08.bks.cpg/sg2_77_cif.got.tgz:153548.got - 2010.06.03 11:33:40.
