data_PCOD9066363
_publ_section_title
;
Structure prediction by ZEFSAII (Michael W. Deem and Ramdas Pophale) SiO2 
 PCOD9066363
Probable space group: P -1
;
_chemical_formula_sum "Si O2"
_cell_formula_units_Z 14
_cell_length_a 8.080235
_cell_length_b 20.054440
_cell_length_c 9.369761
_cell_angle_alpha 31.071768
_cell_angle_beta 65.720467
_cell_angle_gamma 52.435696
_cell_volume 597.856491
_symmetry_space_group_name_H-M "P -1"
_symmetry_group_IT_number 2
_symmetry_cell_setting 'triclinic'
loop_
_space_group_symop_operation_xyz
x,y,z
-x,-y,-z
loop_
_atom_site_type_symbol
_atom_site_label
_atom_site_fract_x
_atom_site_fract_y
_atom_site_fract_z
Si Si1 0.296334 0.318766 0.770663
Si Si2 0.814268 0.172084 0.205751
Si Si3 0.902796 0.370506 0.626516
Si Si4 0.621449 0.077101 0.883981
Si Si5 0.317878 0.680671 0.727595
Si Si6 0.391493 0.169213 0.296898
Si Si7 0.044849 0.230310 0.541523
O O1 0.296721 0.470265 0.528985
O O2 0.508958 0.176042 0.885814
O O3 0.111378 0.351137 0.665479
O O4 0.250028 0.277515 0.017446
O O5 0.788930 0.275137 0.160776
O O6 0.588923 0.188094 0.226682
O O7 0.879148 0.233013 0.936905
O O8 0.000000 0.000000 0.500000
O O9 0.947965 0.358807 0.464107
O O10 0.608258 0.200951 0.551044
O O11 0.500000 0.000000 0.000000
O O12 0.855014 0.932793 0.113159
O O13 0.144906 0.722692 0.588228
O O14 0.500000 0.500000 0.000000
O O15 0.245426 0.203950 0.423893
O O16 0.500000 0.000000 0.500000
#
# Coordination Sequence:
#
# PCOD9066363 Si02
#       7
#     2   2   2   2   2   2   2
#     4  11  25  45  75 104 155 189 250 304 387 438
#     4  12  27  48  75 107 150 194 250 302 376 448
#     4  11  26  47  73 111 146 198 242 314 373 455
#     4  12  24  47  78 113 148 201 256 313 375 452
#     4  12  29  49  75 110 158 198 254 316 380 449
#     4  12  26  46  75 111 144 194 246 312 368 446
#     4  12  26  48  78 111 149 198 260 304 379 448
#
# _framework density 23.416992
#
# number of rings (size 3 to 8) (size 9 to 14) (size 15 to 20)
#    0.000    0.286    2.857    5.571    4.000    2.286 
#    0.000    0.000    0.000    0.000    0.000    0.000 
#    0.000    0.000    0.000    0.000    0.000    0.000 
#
# Total GULP energy -78372.084148 kJ/mol
# GULP energy per Si atom -5598.006011 kJ/mol
# Density = 2.336369 g / cm^3
# Si number density = 23.416992 Si / 1000 Ang^3
#
#
#
# Elastic Constant Matrix: (Units=GPa)
#
#
# Indices 1 2 3 4 5 6 
#
# 1 109.2167 48.5789 12.7360 -5.0567 3.9314 23.4226
# 2 48.5789 188.0849 43.9919 -1.5384 2.4087 9.6229
# 3 12.7360 43.9919 71.5029 1.9474 1.7243 -0.5219
# 4 -5.0567 -1.5384 1.9474 48.5218 -10.0958 7.7916
# 5 3.9314 2.4087 1.7243 -10.0958 33.2531 7.5110
# 6 23.4226 9.6229 -0.5219 7.7916 7.5110 32.4431
#
#
#
# Elastic Compliance Matrix: (Units=1/GPa)
#
#
# Indices 1 2 3 4 5 6 
#
# 1 0.012497 -0.002539 -0.000864 0.003163 0.001851 -0.009471
# 2 -0.002539 0.006876 -0.003789 0.000188 0.000133 -0.000344
# 3 -0.000864 -0.003789 0.016575 -0.001659 -0.001616 0.002787
# 4 0.003163 0.000188 -0.001659 0.024690 0.009569 -0.010511
# 5 0.001851 0.000133 -0.001616 0.009569 0.035526 -0.011924
# 6 -0.009471 -0.000344 0.002787 -0.010511 -0.011924 0.043093
#
#
# Mechanical properties :
#
#
# Convention : Reuss Voigt Hill
#
# Bulk Modulus (GPa) = 46.37234 64.37977 55.37606
# Shear Modulus (GPa) = 31.08881 40.41012 35.74946
#
# Velocity S-wave (km/s) = 3.64760 4.15863 3.91147
# Velocity P-wave (km/s) = 6.13073 7.11417 6.64068
#
# Compressibility (1/GPa) = 0.02156458
#
# Stress axis : x y z
#
# Youngs Moduli (GPa) = 80.01800 145.42917 60.33160
#
# Poissons Ratio (x) = 0.36925 0.05211
# Poissons Ratio (y) = 0.20317 0.22861
# Poissons Ratio (z) = 0.06912 0.55105
#
# Static dielectric constant tensor:
#      x y z
#    x 1.864770 -0.020900 -0.017610 
#    y -0.020900 1.876530 -0.010550 
#    z -0.017610 -0.010550 1.967470 
# 
# From -- ./inp_files/216314.got.cif
#   From: 2010.05.17/outbox.cif.g08.bks.cpg/sg2_109_cif.got.tgz:216314.got - 2010.06.03 11:33:40.
