data_PCOD9066549
_publ_section_title
;
Structure prediction by ZEFSAII (Michael W. Deem and Ramdas Pophale) SiO2 
 PCOD9066549
Probable space group: P -1
;
_chemical_formula_sum "Si O2"
_cell_formula_units_Z 12
_cell_length_a 5.038525
_cell_length_b 13.808026
_cell_length_c 12.217715
_cell_angle_alpha 135.037340
_cell_angle_beta 113.669262
_cell_angle_gamma 89.109805
_cell_volume 500.545126
_symmetry_space_group_name_H-M "P -1"
_symmetry_group_IT_number 2
_symmetry_cell_setting 'triclinic'
loop_
_space_group_symop_operation_xyz
x,y,z
-x,-y,-z
loop_
_atom_site_type_symbol
_atom_site_label
_atom_site_fract_x
_atom_site_fract_y
_atom_site_fract_z
Si Si1 0.277826 0.936076 0.048491
Si Si2 0.907372 0.321968 0.820615
Si Si3 0.851439 0.850912 0.430982
Si Si4 0.256661 0.233228 0.000062
Si Si5 0.078249 0.850704 0.699170
Si Si6 0.684132 0.519739 0.433544
O O1 0.549460 0.107135 0.236127
O O2 0.493625 0.841994 0.023526
O O3 0.124345 0.906706 0.878498
O O4 0.017483 0.867760 0.043038
O O5 0.530316 0.230824 0.705085
O O6 0.003229 0.268426 0.678252
O O7 0.000000 0.500000 0.000000
O O8 0.101789 0.264044 0.890636
O O9 0.950668 0.904874 0.614908
O O10 0.000000 0.000000 0.500000
O O11 0.454039 0.395227 0.215318
O O12 0.820065 0.681750 0.531117
O O13 0.500000 0.500000 0.500000
O O14 0.000000 0.500000 0.500000
#
# Coordination Sequence:
#
# PCOD9066549 Si02
#       6
#     2   2   2   2   2   2
#     4  11  26  43  72 104 138 184 229 298 364 415
#     4  12  27  47  73 105 145 196 242 294 356 425
#     4  12  27  48  75 106 145 193 247 294 353 427
#     4  12  23  47  69 101 143 181 237 289 356 425
#     4  11  25  46  71 105 143 181 238 293 356 428
#     4  12  24  42  65 102 135 174 222 279 353 414
#
# _framework density 23.973862
#
# number of rings (size 3 to 8) (size 9 to 14) (size 15 to 20)
#    0.000    0.333    3.333    5.000    0.000   10.667 
#    0.000    0.000    0.000    0.000    0.000    0.000 
#    0.000    0.000    0.000    0.000    0.000    0.000 
#
# Total GULP energy -67171.802403 kJ/mol
# GULP energy per Si atom -5597.650200 kJ/mol
# Density = 2.391930 g / cm^3
# Si number density = 23.973862 Si / 1000 Ang^3
#
#
#
# Elastic Constant Matrix: (Units=GPa)
#
#
# Indices 1 2 3 4 5 6 
#
# 1 156.6928 40.9831 59.7519 8.4595 9.7164 7.3194
# 2 40.9831 160.1815 60.0397 -7.4995 0.1258 5.9886
# 3 59.7519 60.0397 179.0699 5.3349 9.5754 15.9053
# 4 8.4595 -7.4995 5.3349 50.3022 -0.1727 8.7700
# 5 9.7164 0.1258 9.5754 -0.1727 36.5199 10.6126
# 6 7.3194 5.9886 15.9053 8.7700 10.6126 29.2704
#
#
#
# Elastic Compliance Matrix: (Units=1/GPa)
#
#
# Indices 1 2 3 4 5 6 
#
# 1 0.007644 -0.001270 -0.002037 -0.001343 -0.001632 0.000450
# 2 -0.001270 0.007476 -0.002107 0.001731 0.001166 -0.001008
# 3 -0.002037 -0.002107 0.007250 -0.000269 -0.000564 -0.002714
# 4 -0.001343 0.001731 -0.000269 0.021680 0.002655 -0.007330
# 5 -0.001632 0.001166 -0.000564 0.002655 0.031371 -0.011693
# 6 0.000450 -0.001008 -0.002714 -0.007330 -0.011693 0.042169
#
#
# Mechanical properties :
#
#
# Convention : Reuss Voigt Hill
#
# Bulk Modulus (GPa) = 86.65556 90.83261 88.74408
# Shear Modulus (GPa) = 37.80308 45.56314 41.68311
#
# Velocity S-wave (km/s) = 3.97526 4.36424 4.17428
# Velocity P-wave (km/s) = 7.56932 7.96027 7.76725
#
# Compressibility (1/GPa) = 0.01153994
#
# Stress axis : x y z
#
# Youngs Moduli (GPa) = 130.82536 133.76986 137.93416
#
# Poissons Ratio (x) = 0.16995 0.28101
# Poissons Ratio (y) = 0.16621 0.29061
# Poissons Ratio (z) = 0.26652 0.28184
#
# Static dielectric constant tensor:
#      x y z
#    x 2.114230 -0.069190 -0.065750 
#    y -0.069190 1.912850 -0.004960 
#    z -0.065750 -0.004960 1.877140 
# 
# From -- ./inp_files/362436.got.cif
#   From: 2010.05.17/outbox.cif.g08.bks.cpg/sg2_182_cif.got.tgz:362436.got - 2010.06.03 11:33:40.
