data_PCOD9066529
_publ_section_title
;
Structure prediction by ZEFSAII (Michael W. Deem and Ramdas Pophale) SiO2 
 PCOD9066529
Probable space group: P -1
;
_chemical_formula_sum "Si O2"
_cell_formula_units_Z 12
_cell_length_a 18.517165
_cell_length_b 8.601527
_cell_length_c 15.177738
_cell_angle_alpha 44.404290
_cell_angle_beta 21.068999
_cell_angle_gamma 47.425305
_cell_volume 607.620782
_symmetry_space_group_name_H-M "P -1"
_symmetry_group_IT_number 2
_symmetry_cell_setting 'triclinic'
loop_
_space_group_symop_operation_xyz
x,y,z
-x,-y,-z
loop_
_atom_site_type_symbol
_atom_site_label
_atom_site_fract_x
_atom_site_fract_y
_atom_site_fract_z
Si Si1 0.999410 0.664935 0.679864
Si Si2 0.653065 0.030879 0.895068
Si Si3 0.590530 0.048390 0.625412
Si Si4 0.985211 0.854737 0.165659
Si Si5 0.837539 0.422372 0.285121
Si Si6 0.350667 0.110510 0.696745
O O1 0.195981 0.768480 0.370578
O O2 0.045428 0.686465 0.722336
O O3 0.977209 0.405427 0.789913
O O4 0.801393 0.811199 0.820904
O O5 0.500000 0.000000 0.000000
O O6 0.532772 0.059381 0.111855
O O7 0.692205 0.256391 0.471048
O O8 0.453194 0.127381 0.668002
O O9 0.770834 0.898226 0.438306
O O10 0.158741 0.958234 0.984961
O O11 0.000000 0.000000 0.000000
O O12 0.716094 0.646347 0.361128
O O13 0.000000 0.500000 0.000000
O O14 0.500000 0.000000 0.500000
#
# Coordination Sequence:
#
# PCOD9066529 Si02
#       6
#     2   2   2   2   2   2
#     4  11  25  46  70  98 140 179 227 286 335 398
#     4  11  26  47  71  97 134 187 237 277 325 402
#     4  12  25  42  70 100 137 182 232 270 340 410
#     4  12  24  45  66 104 144 171 217 287 349 406
#     4  12  22  41  69 102 138 173 224 285 341 403
#     4  12  25  40  66 103 142 177 215 278 353 407
#
# _framework density 19.749161000000001
#
# number of rings (size 3 to 8) (size 9 to 14) (size 15 to 20)
#    0.000    0.333    6.667    1.500    2.333    2.000 
#    0.000    1.667    0.000    0.000    0.000    0.000 
#    0.000    0.000    0.000    0.000    0.000    0.000 
#
# Total GULP energy -67118.360669 kJ/mol
# GULP energy per Si atom -5593.196722 kJ/mol
# Density = 1.970421 g / cm^3
# Si number density = 19.749161 Si / 1000 Ang^3
#
#
#
# Elastic Constant Matrix: (Units=GPa)
#
#
# Indices 1 2 3 4 5 6 
#
# 1 129.0020 41.2856 45.3391 -3.6385 -19.4123 -18.1216
# 2 41.2856 114.6608 34.5884 -7.1280 -10.2345 -0.6212
# 3 45.3391 34.5884 119.9669 1.1975 14.8220 -13.2786
# 4 -3.6385 -7.1280 1.1975 34.3622 3.2152 -4.5466
# 5 -19.4123 -10.2345 14.8220 3.2152 52.1316 0.3859
# 6 -18.1216 -0.6212 -13.2786 -4.5466 0.3859 31.1323
#
#
#
# Elastic Compliance Matrix: (Units=1/GPa)
#
#
# Indices 1 2 3 4 5 6 
#
# 1 0.011222 -0.002468 -0.003548 0.001040 0.004601 0.005064
# 2 -0.002468 0.010650 -0.002616 0.001586 0.001834 -0.002131
# 3 -0.003548 -0.002616 0.011361 -0.000481 -0.005055 0.002721
# 4 0.001040 0.001586 -0.000481 0.030302 -0.001070 0.004870
# 5 0.004601 0.001834 -0.005055 -0.001070 0.022758 0.000120
# 6 0.005064 -0.002131 0.002721 0.004870 0.000120 0.036896
#
#
# Mechanical properties :
#
#
# Convention : Reuss Voigt Hill
#
# Bulk Modulus (GPa) = 62.61937 67.33955 64.97946
# Shear Modulus (GPa) = 34.29931 39.68633 36.99282
#
# Velocity S-wave (km/s) = 4.17195 4.48763 4.33267
# Velocity P-wave (km/s) = 7.41506 7.81174 7.61598
#
# Compressibility (1/GPa) = 0.01596950
#
# Stress axis : x y z
#
# Youngs Moduli (GPa) = 89.11394 93.89901 88.01775
#
# Poissons Ratio (x) = 0.23170 0.31228
# Poissons Ratio (y) = 0.21989 0.23027
# Poissons Ratio (z) = 0.31617 0.24566
#
# Static dielectric constant tensor:
#      x y z
#    x 1.691810 -0.020910 -0.000710 
#    y -0.020910 1.746000 -0.021580 
#    z -0.000710 -0.021580 1.764540 
# 
# From -- ./inp_files/29194.got.cif
#   From: 2010.05.17/outbox.cif.g08.bks.cpg/sg2_15_cif.got.tgz:29194.got - 2010.06.03 11:33:40.
