data_PCOD9066860
_publ_section_title
;
Structure prediction by ZEFSAII (Michael W. Deem and Ramdas Pophale) SiO2 
 PCOD9066860
Probable space group: P -1
;
_chemical_formula_sum "Si O2"
_cell_formula_units_Z 14
_cell_length_a 9.747754
_cell_length_b 8.435305
_cell_length_c 9.282877
_cell_angle_alpha 72.868427
_cell_angle_beta 63.049152
_cell_angle_gamma 64.640590
_cell_volume 610.027975
_symmetry_space_group_name_H-M "P -1"
_symmetry_group_IT_number 2
_symmetry_cell_setting 'triclinic'
loop_
_space_group_symop_operation_xyz
x,y,z
-x,-y,-z
loop_
_atom_site_type_symbol
_atom_site_label
_atom_site_fract_x
_atom_site_fract_y
_atom_site_fract_z
Si Si1 0.923585 0.575213 0.785931
Si Si2 0.729782 0.365239 0.818277
Si Si3 0.343873 0.955597 0.528933
Si Si4 0.807541 0.724648 0.101338
Si Si5 0.198417 0.913099 0.901084
Si Si6 0.504981 0.366648 0.662053
Si Si7 0.987397 0.825702 0.477525
O O1 0.773956 0.536700 0.791636
O O2 0.021425 0.660422 0.612012
O O3 0.038001 0.387381 0.845663
O O4 0.862972 0.703856 0.915585
O O5 0.587192 0.401243 0.759726
O O6 0.887576 0.231503 0.696732
O O7 0.718529 0.259347 0.995639
O O8 0.258183 0.877739 0.717055
O O9 0.394744 0.823531 0.405239
O O10 0.500000 0.000000 0.500000
O O11 0.197286 0.129177 0.502405
O O12 0.673304 0.634593 0.214330
O O13 0.741291 0.927718 0.121857
O O14 0.000000 0.000000 0.000000
O O15 0.500000 0.500000 0.500000
O O16 0.000000 0.000000 0.500000
#
# Coordination Sequence:
#
# PCOD9066860 Si02
#       7
#     2   2   2   2   2   2   2
#     4  11  26  43  74 103 142 187 245 296 354 430
#     4  12  26  45  74 106 140 195 238 293 359 431
#     4  12  27  46  72 105 142 190 234 302 360 415
#     4  11  25  47  70 107 145 190 237 303 359 422
#     4  12  24  46  75 106 144 184 245 290 357 431
#     4  12  29  47  70 104 151 186 239 304 365 420
#     4  12  24  44  71 104 139 187 241 287 353 432
#
# _framework density 22.949766
#
# number of rings (size 3 to 8) (size 9 to 14) (size 15 to 20)
#    0.000    0.286    5.714    2.143    4.000    2.286 
#    0.000    0.000    0.000    0.000    0.000    0.000 
#    0.000    0.000    0.000    0.000    0.000    0.000 
#
# Total GULP energy -78404.939676 kJ/mol
# GULP energy per Si atom -5600.352834 kJ/mol
# Density = 2.289753 g / cm^3
# Si number density = 22.949766 Si / 1000 Ang^3
#
#
#
# Elastic Constant Matrix: (Units=GPa)
#
#
# Indices 1 2 3 4 5 6 
#
# 1 129.4721 -7.9177 11.5614 -7.2735 6.1623 9.8183
# 2 -7.9177 33.9667 0.2146 -6.4673 10.2666 14.4212
# 3 11.5614 0.2146 97.0824 -0.7562 9.2903 4.0759
# 4 -7.2735 -6.4673 -0.7562 32.6660 -1.1810 -8.0126
# 5 6.1623 10.2666 9.2903 -1.1810 31.7117 6.0978
# 6 9.8183 14.4212 4.0759 -8.0126 6.0978 31.5291
#
#
#
# Elastic Compliance Matrix: (Units=1/GPa)
#
#
# Indices 1 2 3 4 5 6 
#
# 1 0.008557 0.004615 -0.000648 0.001789 -0.002166 -0.003818
# 2 0.004615 0.042299 0.001221 0.004716 -0.011401 -0.017539
# 3 -0.000648 0.001221 0.010728 -0.000049 -0.003195 -0.001138
# 4 0.001789 0.004716 -0.000049 0.033381 -0.001794 0.006122
# 5 -0.002166 -0.011401 -0.003195 -0.001794 0.036758 -0.001263
# 6 -0.003818 -0.017539 -0.001138 0.006122 -0.001263 0.042875
#
#
# Mechanical properties :
#
#
# Convention : Reuss Voigt Hill
#
# Bulk Modulus (GPa) = 13.89635 29.80420 21.85028
# Shear Modulus (GPa) = 26.56635 36.29222 31.42929
#
# Velocity S-wave (km/s) = 3.40602 3.98097 3.70467
# Velocity P-wave (km/s) = 4.64072 5.84343 5.27646
#
# Compressibility (1/GPa) = 0.07196132
#
# Stress axis : x y z
#
# Youngs Moduli (GPa) = 116.86433 23.64116 93.21286
#
# Poissons Ratio (x) = -0.10911 0.06037
# Poissons Ratio (y) = -0.53937 -0.11380
# Poissons Ratio (z) = 0.07569 -0.02886
#
# Static dielectric constant tensor:
#      x y z
#    x 1.879760 -0.006150 0.018940 
#    y -0.006150 1.824670 0.009390 
#    z 0.018940 0.009390 1.834060 
# 
# From -- ./inp_files/157097.got.cif
#   From: 2010.05.17/outbox.cif.g08.bks.cpg/sg2_79_cif.got.tgz:157097.got - 2010.06.03 11:33:40.
