data_PCOD9066314
_publ_section_title
;
Structure prediction by ZEFSAII (Michael W. Deem and Ramdas Pophale) SiO2 
 PCOD9066314
Probable space group: P -1
;
_chemical_formula_sum "Si O2"
_cell_formula_units_Z 12
_cell_length_a 9.439171
_cell_length_b 9.939835
_cell_length_c 15.493750
_cell_angle_alpha 147.132057
_cell_angle_beta 54.774305
_cell_angle_gamma 138.137313
_cell_volume 521.696457
_symmetry_space_group_name_H-M "P -1"
_symmetry_group_IT_number 2
_symmetry_cell_setting 'triclinic'
loop_
_space_group_symop_operation_xyz
x,y,z
-x,-y,-z
loop_
_atom_site_type_symbol
_atom_site_label
_atom_site_fract_x
_atom_site_fract_y
_atom_site_fract_z
Si Si1 0.075320 0.855721 0.119178
Si Si2 0.991212 0.925732 0.564032
Si Si3 0.408781 0.699727 0.625638
Si Si4 0.617760 0.258813 0.981664
Si Si5 0.804129 0.748373 0.870725
Si Si6 0.629730 0.066552 0.574618
O O1 0.259435 0.795597 0.013712
O O2 0.121571 0.122766 0.183524
O O3 0.077570 0.943090 0.266155
O O4 0.835257 0.555357 0.022740
O O5 0.232125 0.055285 0.565054
O O6 0.842515 0.559636 0.427111
O O7 0.000000 0.000000 0.500000
O O8 0.500000 0.500000 0.500000
O O9 0.496120 0.945690 0.802095
O O10 0.492482 0.884553 0.607702
O O11 0.429845 0.308466 0.076828
O O12 0.761979 0.428633 0.737302
O O13 0.000000 0.000000 0.000000
O O14 0.500000 0.000000 0.500000
#
# Coordination Sequence:
#
# PCOD9066314 Si02
#       6
#     2   2   2   2   2   2
#     4  11  25  46  72 107 141 190 240 296 352 425
#     4  12  25  46  74 101 141 188 241 291 351 426
#     4  12  24  46  73 103 140 187 241 289 354 422
#     4  11  25  45  74 101 143 188 244 286 357 427
#     4  12  27  46  70 106 149 187 234 293 367 422
#     4  12  27  44  70 108 143 183 236 297 360 417
#
# _framework density 23.001881000000001
#
# number of rings (size 3 to 8) (size 9 to 14) (size 15 to 20)
#    0.000    0.333    3.333    4.500    0.000   13.333 
#    0.000    0.000    0.000    0.000    0.000    0.000 
#    0.000    0.000    0.000    0.000    0.000    0.000 
#
# Total GULP energy -66968.089588 kJ/mol
# GULP energy per Si atom -5580.674132 kJ/mol
# Density = 2.294953 g / cm^3
# Si number density = 23.001881 Si / 1000 Ang^3
#
#
#
# Elastic Constant Matrix: (Units=GPa)
#
#
# Indices 1 2 3 4 5 6 
#
# 1 116.5264 23.2576 2.4740 -19.0068 -0.9153 7.2452
# 2 23.2576 124.7196 31.4250 17.4454 -6.2699 -21.9323
# 3 2.4740 31.4250 92.0342 14.2716 8.6346 4.9385
# 4 -19.0068 17.4454 14.2716 33.7326 6.9382 -1.9147
# 5 -0.9153 -6.2699 8.6346 6.9382 35.3991 6.9488
# 6 7.2452 -21.9323 4.9385 -1.9147 6.9488 48.7671
#
#
#
# Elastic Compliance Matrix: (Units=1/GPa)
#
#
# Indices 1 2 3 4 5 6 
#
# 1 0.010812 -0.003711 -0.000006 0.008153 -0.001434 -0.002750
# 2 -0.003711 0.011649 -0.003371 -0.007020 0.003103 0.005414
# 3 -0.000006 -0.003371 0.012916 -0.003339 -0.002586 -0.002586
# 4 0.008153 -0.007020 -0.003339 0.040848 -0.007971 -0.001291
# 5 -0.001434 0.003103 -0.002586 -0.007971 0.031531 -0.002935
# 6 -0.002750 0.005414 -0.002586 -0.001291 -0.002935 0.023979
#
#
# Mechanical properties :
#
#
# Convention : Reuss Voigt Hill
#
# Bulk Modulus (GPa) = 47.16451 49.73261 48.44856
# Shear Modulus (GPa) = 32.68455 41.98798 37.33627
#
# Velocity S-wave (km/s) = 3.77364 4.27712 4.03325
# Velocity P-wave (km/s) = 6.28779 6.78673 6.54202
#
# Compressibility (1/GPa) = 0.02120238
#
# Stress axis : x y z
#
# Youngs Moduli (GPa) = 92.48949 85.84130 77.42446
#
# Poissons Ratio (x) = 0.31855 0.00044
# Poissons Ratio (y) = 0.34322 0.26099
# Poissons Ratio (z) = 0.00052 0.28936
#
# Static dielectric constant tensor:
#      x y z
#    x 1.632310 -0.540690 0.510900 
#    y -0.540690 0.667020 0.964040 
#    z 0.510900 0.964040 1.068380 
# 
# From -- ./inp_files/152159.got.cif
#   From: 2010.05.17/outbox.cif.g08.bks.cpg/sg2_77_cif.got.tgz:152159.got - 2010.06.03 11:33:40.
