data_PCOD9066861
_publ_section_title
;
Structure prediction by ZEFSAII (Michael W. Deem and Ramdas Pophale) SiO2 
 PCOD9066861
Probable space group: P -1
;
_chemical_formula_sum "Si O2"
_cell_formula_units_Z 16
_cell_length_a 9.217537
_cell_length_b 10.012553
_cell_length_c 11.115513
_cell_angle_alpha 97.693324
_cell_angle_beta 52.228479
_cell_angle_gamma 91.821112
_cell_volume 801.950823
_symmetry_space_group_name_H-M "P -1"
_symmetry_group_IT_number 2
_symmetry_cell_setting 'triclinic'
loop_
_space_group_symop_operation_xyz
x,y,z
-x,-y,-z
loop_
_atom_site_type_symbol
_atom_site_label
_atom_site_fract_x
_atom_site_fract_y
_atom_site_fract_z
Si Si1 0.303078 0.258193 0.147100
Si Si2 0.375423 0.133268 0.548551
Si Si3 0.993212 0.889445 0.149164
Si Si4 0.031815 0.794065 0.848554
Si Si5 0.798057 0.462586 0.641196
Si Si6 0.295808 0.785025 0.176215
Si Si7 0.207454 0.045050 0.375889
Si Si8 0.633363 0.375671 0.462620
O O1 0.162061 0.255153 0.106266
O O2 0.287816 0.400352 0.240383
O O3 0.238046 0.144926 0.260418
O O4 0.510522 0.236891 0.992177
O O5 0.205150 0.159963 0.726532
O O6 0.285128 0.115377 0.461707
O O7 0.506332 0.252271 0.506897
O O8 0.500000 0.000000 0.500000
O O9 0.143521 0.842490 0.165591
O O10 0.050432 0.826513 0.983957
O O11 0.962020 0.052964 0.188569
O O12 0.186829 0.682391 0.710576
O O13 0.781058 0.343710 0.733299
O O14 0.698819 0.413322 0.566511
O O15 0.000000 0.500000 0.500000
O O16 0.318909 0.903675 0.275290
O O17 0.000000 0.000000 0.500000
O O18 0.500000 0.500000 0.500000
#
# Coordination Sequence:
#
# PCOD9066861 Si02
#       8
#     2   2   2   2   2   2   2   2
#     4  12  26  46  72 104 144 191 234 298 356 425
#     4  12  25  43  71 104 141 184 237 296 347 421
#     4  11  26  44  72 108 148 181 234 298 360 426
#     4  11  25  47  70 107 148 185 231 297 363 422
#     4  12  27  50  73  98 146 191 244 301 351 425
#     4  12  27  44  74 109 139 190 241 292 363 423
#     4  12  24  44  75 104 139 186 245 294 348 420
#     4  12  28  47  72 105 139 190 240 291 361 425
#
# _framework density 19.951347999999999
#
# number of rings (size 3 to 8) (size 9 to 14) (size 15 to 20)
#    0.000    0.250    5.000    3.000    8.750    0.000 
#    0.000    1.250    0.000    0.000    0.000    0.000 
#    0.000    0.000    0.000    0.000    0.000    0.000 
#
# Total GULP energy -89420.092764 kJ/mol
# GULP energy per Si atom -5588.755798 kJ/mol
# Density = 1.990594 g / cm^3
# Si number density = 19.951348 Si / 1000 Ang^3
#
#
#
# Elastic Constant Matrix: (Units=GPa)
#
#
# Indices 1 2 3 4 5 6 
#
# 1 122.4749 46.6576 42.6893 -11.4466 -10.4447 5.2232
# 2 46.6576 144.0142 57.4034 2.9034 -0.9481 0.7694
# 3 42.6893 57.4034 118.6293 10.5787 -13.7897 -12.0353
# 4 -11.4466 2.9034 10.5787 38.7608 -1.6860 2.0784
# 5 -10.4447 -0.9481 -13.7897 -1.6860 33.6663 6.2479
# 6 5.2232 0.7694 -12.0353 2.0784 6.2479 36.5213
#
#
#
# Elastic Compliance Matrix: (Units=1/GPa)
#
#
# Indices 1 2 3 4 5 6 
#
# 1 0.011003 -0.002325 -0.003253 0.004616 0.002869 -0.003350
# 2 -0.002325 0.009257 -0.003918 -0.000352 -0.001934 -0.000803
# 3 -0.003253 -0.003918 0.012677 -0.004233 0.003036 0.004447
# 4 0.004616 -0.000352 -0.004233 0.028639 0.001864 -0.003997
# 5 0.002869 -0.001934 0.003036 0.001864 0.032820 -0.005090
# 6 -0.003350 -0.000803 0.004447 -0.003997 -0.005090 0.030441
#
#
# Mechanical properties :
#
#
# Convention : Reuss Voigt Hill
#
# Bulk Modulus (GPa) = 71.69668 75.40211 73.54940
# Shear Modulus (GPa) = 33.67507 37.68090 35.67798
#
# Velocity S-wave (km/s) = 4.11281 4.35056 4.23336
# Velocity P-wave (km/s) = 7.65294 7.94428 7.79997
#
# Compressibility (1/GPa) = 0.01394765
#
# Stress axis : x y z
#
# Youngs Moduli (GPa) = 90.88318 108.02484 78.88003
#
# Poissons Ratio (x) = 0.25111 0.25657
# Poissons Ratio (y) = 0.21126 0.30904
# Poissons Ratio (z) = 0.29562 0.42322
#
# Static dielectric constant tensor:
#      x y z
#    x 1.592480 -0.004130 0.020320 
#    y -0.004130 1.694100 -0.031440 
#    z 0.020320 -0.031440 1.724140 
# 
# From -- ./inp_files/188532.got.cif
#   From: 2010.05.17/outbox.cif.g08.bks.cpg/sg2_95_cif.got.tgz:188532.got - 2010.06.03 11:33:40.
