data_PCOD9066020
_publ_section_title
;
Structure prediction by ZEFSAII (Michael W. Deem and Ramdas Pophale) SiO2 
 PCOD9066020
Probable space group: P -1
;
_chemical_formula_sum "Si O2"
_cell_formula_units_Z 16
_cell_length_a 12.671288
_cell_length_b 26.839534
_cell_length_c 5.764054
_cell_angle_alpha 126.170157
_cell_angle_beta 126.842682
_cell_angle_gamma 27.463504
_cell_volume 714.472906
_symmetry_space_group_name_H-M "P -1"
_symmetry_group_IT_number 2
_symmetry_cell_setting 'triclinic'
loop_
_space_group_symop_operation_xyz
x,y,z
-x,-y,-z
loop_
_atom_site_type_symbol
_atom_site_label
_atom_site_fract_x
_atom_site_fract_y
_atom_site_fract_z
Si Si1 0.533581 0.320943 0.061461
Si Si2 0.108914 0.892798 0.769602
Si Si3 0.251596 0.316798 0.648554
Si Si4 0.514045 0.805519 0.870758
Si Si5 0.662167 0.374305 0.036416
Si Si6 0.553544 0.028510 0.842515
Si Si7 0.887895 0.855916 0.177926
Si Si8 0.721573 0.481999 0.426579
O O1 0.727796 0.198601 0.067775
O O2 0.641900 0.320527 0.006876
O O3 0.444309 0.403833 0.361489
O O4 0.309146 0.366756 0.831574
O O5 0.297824 0.840717 0.679772
O O6 0.941221 0.900597 0.500289
O O7 0.000000 0.000000 0.000000
O O8 0.357294 0.248609 0.359121
O O9 0.980074 0.406829 0.541639
O O10 0.352229 0.258609 0.880220
O O11 0.430801 0.908255 0.052372
O O12 0.722791 0.413971 0.358887
O O13 0.404869 0.481721 0.884403
O O14 0.878712 0.275404 0.880234
O O15 0.325296 0.105463 0.914410
O O16 0.500000 0.000000 0.500000
O O17 0.792388 0.916247 0.971332
#
# Coordination Sequence:
#
# PCOD9066020 Si02
#       8
#     2   2   2   2   2   2   2   2
#     4  11  25  45  71 106 142 189 242 298 363 438
#     4  11  25  46  73 106 149 191 243 301 369 440
#     4  11  27  47  76 104 151 191 243 303 360 440
#     4  11  27  48  72 111 146 193 246 296 369 439
#     4  11  25  44  72 102 146 182 248 299 368 433
#     4  11  27  43  71 100 144 191 246 300 372 434
#     4  11  25  45  69 103 142 188 243 306 367 440
#     4  11  25  46  71 106 140 194 240 303 365 427
#
# _framework density 22.394130000000001
#
# number of rings (size 3 to 8) (size 9 to 14) (size 15 to 20)
#    0.000    1.000    1.250    3.000   15.750    1.000 
#    0.000    0.000    0.000    0.000    0.000    0.000 
#    0.000    0.000    0.000    0.000    0.000    0.000 
#
# Total GULP energy -89271.227456 kJ/mol
# GULP energy per Si atom -5579.451716 kJ/mol
# Density = 2.234316 g / cm^3
# Si number density = 22.394130 Si / 1000 Ang^3
#
#
#
# Elastic Constant Matrix: (Units=GPa)
#
#
# Indices 1 2 3 4 5 6 
#
# 1 91.6688 39.8296 6.2813 -6.2584 17.6316 6.3479
# 2 39.8296 94.1857 26.7407 -3.7584 10.5321 -3.7172
# 3 6.2813 26.7407 88.3659 -2.3696 17.5008 6.2310
# 4 -6.2584 -3.7584 -2.3696 34.1866 -2.1974 15.5962
# 5 17.6316 10.5321 17.5008 -2.1974 47.8659 8.6811
# 6 6.3479 -3.7172 6.2310 15.5962 8.6811 32.0787
#
#
#
# Elastic Compliance Matrix: (Units=1/GPa)
#
#
# Indices 1 2 3 4 5 6 
#
# 1 0.014986 -0.006565 0.002141 0.004322 -0.003710 -0.005239
# 2 -0.006565 0.014769 -0.004365 -0.002166 -0.000238 0.004976
# 3 0.002141 -0.004365 0.013598 0.002213 -0.004055 -0.003550
# 4 0.004322 -0.002166 0.002213 0.040352 0.003959 -0.022226
# 5 -0.003710 -0.000238 -0.004055 0.003959 0.025294 -0.007276
# 6 -0.005239 0.004976 -0.003550 -0.022226 -0.007276 0.046251
#
#
# Mechanical properties :
#
#
# Convention : Reuss Voigt Hill
#
# Bulk Modulus (GPa) = 38.79410 46.65820 42.72615
# Shear Modulus (GPa) = 27.56066 36.25083 31.90574
#
# Velocity S-wave (km/s) = 3.51195 4.02775 3.77866
# Velocity P-wave (km/s) = 5.81429 6.52002 6.17724
#
# Compressibility (1/GPa) = 0.02577712
#
# Stress axis : x y z
#
# Youngs Moduli (GPa) = 66.72940 67.70883 73.54116
#
# Poissons Ratio (x) = 0.44449 -0.15748
# Poissons Ratio (y) = 0.43806 0.32097
# Poissons Ratio (z) = -0.14290 0.29552
#
# Static dielectric constant tensor:
#      x y z
#    x 1.677190 0.221240 -0.092870 
#    y 0.221240 1.599540 0.068470 
#    z -0.092870 0.068470 1.882850 
# 
# From -- ./inp_files/85112.got.cif
#   From: 2010.05.17/outbox.cif.g08.bks.cpg/sg2_43_cif.got.tgz:85112.got - 2010.06.03 11:33:40.
