data_PCOD9066736
_publ_section_title
;
Structure prediction by ZEFSAII (Michael W. Deem and Ramdas Pophale) SiO2 
 PCOD9066736
Probable space group: P -1
;
_chemical_formula_sum "Si O2"
_cell_formula_units_Z 12
_cell_length_a 6.724491
_cell_length_b 16.563698
_cell_length_c 16.637604
_cell_angle_alpha 28.981861
_cell_angle_beta 146.303925
_cell_angle_gamma 135.152855
_cell_volume 496.925110
_symmetry_space_group_name_H-M "P -1"
_symmetry_group_IT_number 2
_symmetry_cell_setting 'triclinic'
loop_
_space_group_symop_operation_xyz
x,y,z
-x,-y,-z
loop_
_atom_site_type_symbol
_atom_site_label
_atom_site_fract_x
_atom_site_fract_y
_atom_site_fract_z
Si Si1 0.349780 0.033056 0.831216
Si Si2 0.479677 0.835722 0.565983
Si Si3 0.466577 0.259434 0.979611
Si Si4 0.343918 0.618959 0.414447
Si Si5 0.281864 0.422842 0.257382
Si Si6 0.344060 0.821966 0.709819
O O1 0.461911 0.883160 0.938487
O O2 0.518665 0.197847 0.711817
O O3 0.920836 0.073428 0.653426
O O4 0.500000 0.000000 0.000000
O O5 0.497324 0.688265 0.637233
O O6 0.534334 0.779136 0.725713
O O7 0.747557 0.978149 0.507417
O O8 0.452394 0.194009 0.123183
O O9 0.084152 0.358392 0.750031
O O10 0.771660 0.392448 0.958904
O O11 0.500000 0.500000 0.500000
O O12 0.502274 0.554014 0.608338
O O13 0.958747 0.309600 0.270652
#
# Coordination Sequence:
#
# PCOD9066736 Si02
#       6
#     2   2   2   2   2   2
#     4  12  24  45  71 107 142 184 241 289 350 416
#     4  11  25  46  75 102 142 192 232 288 355 418
#     4  12  27  44  72 109 143 183 236 297 347 421
#     4  12  25  48  73 102 141 189 237 291 351 419
#     4  12  25  48  72 103 145 186 236 287 357 416
#     4  11  26  46  72 106 145 184 238 287 355 417
#
# _framework density 24.148506999999999
#
# number of rings (size 3 to 8) (size 9 to 14) (size 15 to 20)
#    0.000    0.333    1.667    7.000    4.667    0.667 
#    0.000    0.000    0.000    0.000    0.000    0.000 
#    0.000    0.000    0.000    0.000    0.000    0.000 
#
# Total GULP energy -67249.035793 kJ/mol
# GULP energy per Si atom -5604.086316 kJ/mol
# Density = 2.409354 g / cm^3
# Si number density = 24.148507 Si / 1000 Ang^3
#
#
#
# Elastic Constant Matrix: (Units=GPa)
#
#
# Indices 1 2 3 4 5 6 
#
# 1 144.4231 79.7773 48.7067 -4.5032 -9.4431 -26.3929
# 2 79.7773 161.3245 44.6230 -19.0619 -14.9333 -32.6202
# 3 48.7067 44.6230 106.8081 6.7538 -46.0013 -11.1016
# 4 -4.5032 -19.0619 6.7538 65.4510 0.9743 -9.6898
# 5 -9.4431 -14.9333 -46.0013 0.9743 54.0077 0.8613
# 6 -26.3929 -32.6202 -11.1016 -9.6898 0.8613 64.0262
#
#
#
# Elastic Compliance Matrix: (Units=1/GPa)
#
#
# Indices 1 2 3 4 5 6 
#
# 1 0.010722 -0.003990 -0.004337 0.000323 -0.002956 0.001724
# 2 -0.003990 0.009869 -0.002091 0.003335 0.000134 0.003524
# 3 -0.004337 -0.002091 0.018686 -0.003095 0.014639 -0.000278
# 4 0.000323 0.003335 -0.003095 0.017203 -0.002030 0.003926
# 5 -0.002956 0.000134 0.014639 -0.002030 0.030531 0.000670
# 6 0.001724 0.003524 -0.000278 0.003926 0.000670 0.018662
#
#
# Mechanical properties :
#
#
# Convention : Reuss Voigt Hill
#
# Bulk Modulus (GPa) = 54.22295 84.30772 69.26533
# Shear Modulus (GPa) = 37.69182 52.66024 45.17603
#
# Velocity S-wave (km/s) = 3.95503 4.67484 4.32992
# Velocity P-wave (km/s) = 6.58476 8.00793 7.33096
#
# Compressibility (1/GPa) = 0.01844238
#
# Stress axis : x y z
#
# Youngs Moduli (GPa) = 93.26225 101.32810 53.51719
#
# Poissons Ratio (x) = 0.40427 0.23211
# Poissons Ratio (y) = 0.37209 0.11188
# Poissons Ratio (z) = 0.40449 0.21183
#
# Static dielectric constant tensor:
#      x y z
#    x 1.934510 0.060760 0.019200 
#    y 0.060760 1.938760 0.028310 
#    z 0.019200 0.028310 1.985870 
# 
# From -- ./inp_files/365583.got.cif
#   From: 2010.05.17/outbox.cif.g08.bks.cpg/sg2_183_cif.got.tgz:365583.got - 2010.06.03 11:33:40.
