data_PCOD9066289
_publ_section_title
;
Structure prediction by ZEFSAII (Michael W. Deem and Ramdas Pophale) SiO2 
 PCOD9066289
Probable space group: P -1
;
_chemical_formula_sum "Si O2"
_cell_formula_units_Z 13
_cell_length_a 10.393517
_cell_length_b 7.385180
_cell_length_c 10.987139
_cell_angle_alpha 72.242398
_cell_angle_beta 41.502417
_cell_angle_gamma 80.907562
_cell_volume 528.900784
_symmetry_space_group_name_H-M "P -1"
_symmetry_group_IT_number 2
_symmetry_cell_setting 'triclinic'
loop_
_space_group_symop_operation_xyz
x,y,z
-x,-y,-z
loop_
_atom_site_type_symbol
_atom_site_label
_atom_site_fract_x
_atom_site_fract_y
_atom_site_fract_z
Si Si1 0.746489 0.817856 0.145364
Si Si2 0.579917 0.021895 0.803235
Si Si3 0.775229 0.844048 0.508114
Si Si4 0.180274 0.873443 0.768584
Si Si5 0.149143 0.685121 0.326422
Si Si6 0.500000 0.500000 0.000000
Si Si7 0.562628 0.443734 0.253348
O O1 0.608852 0.950652 0.146184
O O2 0.622001 0.612369 0.271484
O O3 0.801118 0.929176 0.207954
O O4 0.952785 0.797121 0.938816
O O5 0.743222 0.203957 0.658917
O O6 0.683960 0.845080 0.709956
O O7 0.500000 0.000000 0.000000
O O8 0.735077 0.045592 0.436606
O O9 0.655138 0.665869 0.564359
O O10 0.003850 0.829317 0.346935
O O11 0.298738 0.720182 0.780800
O O12 0.000000 0.500000 0.500000
O O13 0.312974 0.617147 0.138211
O O14 0.427450 0.476456 0.908142
#
# Coordination Sequence:
#
# PCOD9066289 Si02
#       7
#     2   2   2   2   2   1   2
#     4  11  25  45  73 107 146 207 251 308 380 451
#     4  12  25  46  75 108 151 199 254 318 389 446
#     4  12  26  48  74 109 152 198 255 318 379 461
#     4  11  27  48  70 108 153 199 258 309 378 453
#     4  12  26  47  73 113 148 201 255 314 383 453
#     4  12  26  46  78 110 158 192 254 318 376 454
#     4  12  25  48  74 109 151 200 253 315 379 451
#
# _framework density 24.579280000000001
#
# number of rings (size 3 to 8) (size 9 to 14) (size 15 to 20)
#    0.000    0.308    4.615    3.231    4.308    1.846 
#    2.769    0.000    0.000    0.000    0.000    0.000 
#    0.000    0.000    0.000    0.000    0.000    0.000 
#
# Total GULP energy -72510.293278 kJ/mol
# GULP energy per Si atom -5577.714868 kJ/mol
# Density = 2.452334 g / cm^3
# Si number density = 24.579280 Si / 1000 Ang^3
#
#
#
# Elastic Constant Matrix: (Units=GPa)
#
#
# Indices 1 2 3 4 5 6 
#
# 1 97.0292 26.3013 47.4391 -2.2529 -23.7387 -7.1532
# 2 26.3013 101.8970 23.2321 6.1375 -7.0050 12.5852
# 3 47.4391 23.2321 109.6228 21.6848 -23.5477 -3.1827
# 4 -2.2529 6.1375 21.6848 36.7822 -4.5896 -11.5105
# 5 -23.7387 -7.0050 -23.5477 -4.5896 40.4014 -2.0325
# 6 -7.1532 12.5852 -3.1827 -11.5105 -2.0325 50.3236
#
#
#
# Elastic Compliance Matrix: (Units=1/GPa)
#
#
# Indices 1 2 3 4 5 6 
#
# 1 0.016467 -0.003403 -0.006389 0.007653 0.006473 0.004799
# 2 -0.003403 0.011481 -0.000664 -0.003153 -0.000963 -0.004157
# 3 -0.006389 -0.000664 0.014491 -0.008931 0.003475 -0.001728
# 4 0.007653 -0.003153 -0.008931 0.036977 0.003444 0.009909
# 5 0.006473 -0.000963 0.003475 0.003444 0.030976 0.003420
# 6 0.004799 -0.004157 -0.001728 0.009909 0.003420 0.023888
#
#
# Mechanical properties :
#
#
# Convention : Reuss Voigt Hill
#
# Bulk Modulus (GPa) = 46.45436 55.83267 51.14351
# Shear Modulus (GPa) = 30.79402 39.60653 35.20028
#
# Velocity S-wave (km/s) = 3.54339 4.01855 3.78843
# Velocity P-wave (km/s) = 5.97342 6.65555 6.32369
#
# Compressibility (1/GPa) = 0.02152651
#
# Stress axis : x y z
#
# Youngs Moduli (GPa) = 60.72620 87.10251 69.00912
#
# Poissons Ratio (x) = 0.29637 0.44091
# Poissons Ratio (y) = 0.20662 0.04585
# Poissons Ratio (z) = 0.38799 0.05788
#
# Static dielectric constant tensor:
#      x y z
#    x 1.989950 -0.060190 0.098140 
#    y -0.060190 2.230480 -0.099350 
#    z 0.098140 -0.099350 2.018090 
# 
# From -- ./inp_files/511849.got.cif
#   From: 2010.05.17/outbox.cif.g08.bks.cpg/sg2_256_cif.got.tgz:511849.got - 2010.06.03 11:33:40.
