data_PCOD9066840
_publ_section_title
;
Structure prediction by ZEFSAII (Michael W. Deem and Ramdas Pophale) SiO2 
 PCOD9066840
Probable space group: P -1
;
_chemical_formula_sum "Si O2"
_cell_formula_units_Z 15
_cell_length_a 9.514492
_cell_length_b 9.221117
_cell_length_c 10.192258
_cell_angle_alpha 85.937768
_cell_angle_beta 94.559802
_cell_angle_gamma 45.692685
_cell_volume 627.785356
_symmetry_space_group_name_H-M "P -1"
_symmetry_group_IT_number 2
_symmetry_cell_setting 'triclinic'
loop_
_space_group_symop_operation_xyz
x,y,z
-x,-y,-z
loop_
_atom_site_type_symbol
_atom_site_label
_atom_site_fract_x
_atom_site_fract_y
_atom_site_fract_z
Si Si1 0.134699 0.511245 0.166217
Si Si2 0.454325 0.181012 0.562846
Si Si3 0.010073 0.180248 0.633396
Si Si4 0.000000 0.500000 0.500000
Si Si5 0.814384 0.057146 0.740334
Si Si6 0.095500 0.597935 0.854865
Si Si7 0.506983 0.409876 0.868015
Si Si8 0.547642 0.270084 0.312845
O O1 0.373764 0.326855 0.205542
O O2 0.054940 0.692015 0.245539
O O3 0.036279 0.434048 0.215699
O O4 0.071957 0.593508 0.009608
O O5 0.632323 0.087856 0.679418
O O6 0.464107 0.302957 0.448945
O O7 0.229323 0.328045 0.582238
O O8 0.500000 0.000000 0.500000
O O9 0.988977 0.323542 0.516742
O O10 0.872280 0.135928 0.630694
O O11 0.237653 0.959223 0.669891
O O12 0.724364 0.193825 0.857756
O O13 0.005323 0.818591 0.796176
O O14 0.330701 0.421135 0.856740
O O15 0.450137 0.565215 0.740137
O O16 0.500000 0.500000 0.000000
#
# Coordination Sequence:
#
# PCOD9066840 Si02
#       8
#     2   2   2   1   2   2   2   2
#     4  11  25  47  68 107 150 183 238 303 357 428
#     4  12  27  48  71 105 146 188 237 301 353 430
#     4  12  26  45  73 105 139 194 238 300 358 430
#     4  12  26  46  74 100 140 192 236 296 366 412
#     4  12  28  46  75 111 141 194 245 291 363 431
#     4  11  26  43  73 107 145 188 239 296 363 428
#     4  12  25  46  73 109 144 187 241 304 351 424
#     4  12  24  46  72 101 144 188 238 294 359 417
#
# _framework density 23.893515000000001
#
# number of rings (size 3 to 8) (size 9 to 14) (size 15 to 20)
#    0.000    0.267    6.667    0.800    3.733    3.733 
#    0.000    2.667    0.000    0.000    0.000    0.000 
#    0.000    0.000    0.000    0.000    0.000    0.000 
#
# Total GULP energy -83706.454324 kJ/mol
# GULP energy per Si atom -5580.430288 kJ/mol
# Density = 2.383913 g / cm^3
# Si number density = 23.893515 Si / 1000 Ang^3
#
#
#
# Elastic Constant Matrix: (Units=GPa)
#
#
# Indices 1 2 3 4 5 6 
#
# 1 143.3082 29.1445 -0.0878 3.9354 -2.3321 -14.7293
# 2 29.1445 88.8518 4.2706 -4.3339 0.4143 -16.9329
# 3 -0.0878 4.2706 40.7697 1.7720 -11.3893 1.2947
# 4 3.9354 -4.3339 1.7720 27.4880 4.9676 -4.6956
# 5 -2.3321 0.4143 -11.3893 4.9676 41.9773 -11.2982
# 6 -14.7293 -16.9329 1.2947 -4.6956 -11.2982 41.2003
#
#
#
# Elastic Compliance Matrix: (Units=1/GPa)
#
#
# Indices 1 2 3 4 5 6 
#
# 1 0.007702 -0.002246 0.000619 -0.001392 0.001325 0.002016
# 2 -0.002246 0.013209 -0.001614 0.003332 0.000295 0.005137
# 3 0.000619 -0.001614 0.027047 -0.003435 0.007927 0.000490
# 4 -0.001392 0.003332 -0.003435 0.038854 -0.004518 0.004169
# 5 0.001325 0.000295 0.007927 -0.004518 0.028648 0.007687
# 6 0.002016 0.005137 0.000490 0.004169 0.007687 0.029671
#
#
# Mechanical properties :
#
#
# Convention : Reuss Voigt Hill
#
# Bulk Modulus (GPa) = 24.11090 37.73158 30.92124
# Shear Modulus (GPa) = 30.22255 38.10661 34.16458
#
# Velocity S-wave (km/s) = 3.56038 3.99789 3.78546
# Velocity P-wave (km/s) = 5.19756 6.09399 5.66354
#
# Compressibility (1/GPa) = 0.04147502
#
# Stress axis : x y z
#
# Youngs Moduli (GPa) = 129.83500 75.70464 36.97310
#
# Poissons Ratio (x) = 0.17003 -0.02287
# Poissons Ratio (y) = 0.29161 0.05967
# Poissons Ratio (z) = -0.08031 0.12219
#
# Static dielectric constant tensor:
#      x y z
#    x 1.963180 0.036680 -0.043280 
#    y 0.036680 1.886910 0.064900 
#    z -0.043280 0.064900 1.930120 
# 
# From -- ./inp_files/381988.got.cif
#   From: 2010.05.17/outbox.cif.g08.bks.cpg/sg2_191_cif.got.tgz:381988.got - 2010.06.03 11:33:40.
