data_PCOD9066089
_publ_section_title
;
Structure prediction by ZEFSAII (Michael W. Deem and Ramdas Pophale) SiO2 
 PCOD9066089
Probable space group: P -1
;
_chemical_formula_sum "Si O2"
_cell_formula_units_Z 11
_cell_length_a 9.256306
_cell_length_b 11.787587
_cell_length_c 5.725392
_cell_angle_alpha 71.475232
_cell_angle_beta 103.601909
_cell_angle_gamma 135.148234
_cell_volume 417.707351
_symmetry_space_group_name_H-M "P -1"
_symmetry_group_IT_number 2
_symmetry_cell_setting 'triclinic'
loop_
_space_group_symop_operation_xyz
x,y,z
-x,-y,-z
loop_
_atom_site_type_symbol
_atom_site_label
_atom_site_fract_x
_atom_site_fract_y
_atom_site_fract_z
Si Si1 0.218386 0.028807 0.811971
Si Si2 0.301664 0.851385 0.674860
Si Si3 0.523677 0.385137 0.465338
Si Si4 0.780819 0.795603 0.910848
Si Si5 0.000000 0.500000 0.000000
Si Si6 0.935308 0.644489 0.308892
O O1 0.372980 0.205861 0.635954
O O2 0.292664 0.940845 0.824746
O O3 0.220866 0.077373 0.046583
O O4 0.976280 0.900503 0.743864
O O5 0.119377 0.768383 0.472015
O O6 0.500000 0.000000 0.500000
O O7 0.228792 0.684535 0.867554
O O8 0.500000 0.500000 0.500000
O O9 0.435369 0.344520 0.198346
O O10 0.760455 0.479473 0.502131
O O11 0.834461 0.714829 0.152668
O O12 0.984577 0.597112 0.128454
#
# Coordination Sequence:
#
# PCOD9066089 Si02
#       6
#     2   2   2   2   1   2
#     4  11  25  44  75 105 150 186 244 301 367 441
#     4  12  29  53  74 109 145 200 255 304 362 435
#     4  12  25  42  74 112 150 185 236 301 374 445
#     4  11  25  45  72 112 145 192 231 303 379 437
#     4  12  28  52  78  96 154 200 250 308 362 424
#     4  12  27  48  73 109 147 191 252 297 368 444
#
# _framework density 26.334223999999999
#
# number of rings (size 3 to 8) (size 9 to 14) (size 15 to 20)
#    0.000    0.364    3.636    3.818    5.091    2.182 
#    3.273    0.000    0.000    0.000    0.000    0.000 
#    0.000    0.000    0.000    0.000    0.000    0.000 
#
# Total GULP energy -61329.626998 kJ/mol
# GULP energy per Si atom -5575.420636 kJ/mol
# Density = 2.627429 g / cm^3
# Si number density = 26.334224 Si / 1000 Ang^3
#
#
#
# Elastic Constant Matrix: (Units=GPa)
#
#
# Indices 1 2 3 4 5 6 
#
# 1 100.7183 59.0331 32.3402 12.1308 -31.9881 -1.8764
# 2 59.0331 203.5492 32.4273 -23.4783 2.3880 20.8676
# 3 32.3402 32.4273 39.6160 -14.8314 -5.1280 -0.6013
# 4 12.1308 -23.4783 -14.8314 75.0211 3.0791 -17.5727
# 5 -31.9881 2.3880 -5.1280 3.0791 37.9499 2.7625
# 6 -1.8764 20.8676 -0.6013 -17.5727 2.7625 75.4841
#
#
#
# Elastic Compliance Matrix: (Units=1/GPa)
#
#
# Indices 1 2 3 4 5 6 
#
# 1 0.029047 -0.006834 -0.019588 -0.011941 0.023322 -0.001178
# 2 -0.006834 0.007512 -0.000147 0.003405 -0.006440 -0.001219
# 3 -0.019588 -0.000147 0.044852 0.013275 -0.011768 0.003432
# 4 -0.011941 0.003405 0.013275 0.020310 -0.010423 0.003977
# 5 0.023322 -0.006440 -0.011768 -0.010423 0.045803 -0.001836
# 6 -0.001178 -0.001219 0.003432 0.003977 -0.001836 0.014576
#
#
# Mechanical properties :
#
#
# Convention : Reuss Voigt Hill
#
# Bulk Modulus (GPa) = 35.36972 65.72054 50.54513
# Shear Modulus (GPa) = 22.25564 52.36320 37.30942
#
# Velocity S-wave (km/s) = 2.91025 4.46400 3.76808
# Velocity P-wave (km/s) = 4.97524 7.18193 6.17791
#
# Compressibility (1/GPa) = 0.02827277
#
# Stress axis : x y z
#
# Youngs Moduli (GPa) = 34.42687 133.12911 22.29544
#
# Poissons Ratio (x) = 0.90978 0.43673
# Poissons Ratio (y) = 0.23527 0.00328
# Poissons Ratio (z) = 0.67436 0.01957
#
# Static dielectric constant tensor:
#      x y z
#    x 2.042210 0.035950 0.019390 
#    y 0.035950 2.089730 -0.108060 
#    z 0.019390 -0.108060 2.258160 
# 
# From -- ./inp_files/27335.got.cif
#   From: 2010.05.17/outbox.cif.g08.bks.cpg/sg2_14_cif.got.tgz:27335.got - 2010.06.03 11:33:40.
