data_PCOD9066796
_publ_section_title
;
Structure prediction by ZEFSAII (Michael W. Deem and Ramdas Pophale) SiO2 
 PCOD9066796
Probable space group: P -1
;
_chemical_formula_sum "Si O2"
_cell_formula_units_Z 12
_cell_length_a 7.840989
_cell_length_b 8.799110
_cell_length_c 9.406024
_cell_angle_alpha 78.068459
_cell_angle_beta 68.100492
_cell_angle_gamma 54.398783
_cell_volume 489.536561
_symmetry_space_group_name_H-M "P -1"
_symmetry_group_IT_number 2
_symmetry_cell_setting 'triclinic'
loop_
_space_group_symop_operation_xyz
x,y,z
-x,-y,-z
loop_
_atom_site_type_symbol
_atom_site_label
_atom_site_fract_x
_atom_site_fract_y
_atom_site_fract_z
Si Si1 0.242211 0.605201 0.513465
Si Si2 0.196637 0.046174 0.460002
Si Si3 0.175921 0.515881 0.854621
Si Si4 0.545476 0.763980 0.617200
Si Si5 0.427930 0.880208 0.133627
Si Si6 0.760133 0.191694 0.052039
O O1 0.500000 0.500000 0.500000
O O2 0.126039 0.594209 0.694897
O O3 0.286327 0.458080 0.405997
O O4 0.068546 0.814896 0.469692
O O5 0.300632 0.159543 0.460397
O O6 0.344667 0.859937 0.545307
O O7 0.259395 0.007449 0.282868
O O8 0.371306 0.299745 0.817022
O O9 0.225325 0.646444 0.909361
O O10 0.000000 0.500000 0.000000
O O11 0.409295 0.824130 0.793280
O O12 0.337707 0.786601 0.077641
O O13 0.500000 0.000000 0.000000
O O14 0.000000 0.000000 0.000000
#
# Coordination Sequence:
#
# PCOD9066796 Si02
#       6
#     2   2   2   2   2   2
#     4  12  25  47  74 109 146 192 253 313 375 445
#     4  11  25  46  77 107 147 200 244 313 377 454
#     4  12  27  47  74 109 152 198 252 312 374 450
#     4  11  25  47  73 109 149 194 255 305 379 452
#     4  12  24  47  73 108 149 196 249 308 379 449
#     4  12  26  46  72 110 148 197 251 307 377 450
#
# _framework density 24.512979000000001
#
# number of rings (size 3 to 8) (size 9 to 14) (size 15 to 20)
#    0.000    0.333    5.000    4.000    0.000    2.000 
#    3.000    0.000    0.000    0.000    0.000    0.000 
#    0.000    0.000    0.000    0.000    0.000    0.000 
#
# Total GULP energy -67073.576328 kJ/mol
# GULP energy per Si atom -5589.464694 kJ/mol
# Density = 2.445719 g / cm^3
# Si number density = 24.512979 Si / 1000 Ang^3
#
#
#
# Elastic Constant Matrix: (Units=GPa)
#
#
# Indices 1 2 3 4 5 6 
#
# 1 71.7207 4.3583 10.0648 1.7732 -9.7471 -8.4885
# 2 4.3583 183.7459 33.3079 19.9724 -11.9126 -25.3607
# 3 10.0648 33.3079 98.3588 13.2058 -0.0169 -24.8575
# 4 1.7732 19.9724 13.2058 43.3248 1.7417 -5.2696
# 5 -9.7471 -11.9126 -0.0169 1.7417 33.9505 6.2515
# 6 -8.4885 -25.3607 -24.8575 -5.2696 6.2515 36.2255
#
#
#
# Elastic Compliance Matrix: (Units=1/GPa)
#
#
# Indices 1 2 3 4 5 6 
#
# 1 0.014895 0.000461 -0.001033 -0.000383 0.004024 0.002354
# 2 0.000461 0.006453 -0.001111 -0.002345 0.001929 0.003189
# 3 -0.001033 -0.001111 0.012955 -0.002356 -0.002009 0.007873
# 4 -0.000383 -0.002345 -0.002356 0.025076 -0.002350 0.000706
# 5 0.004024 0.001929 -0.002009 -0.002350 0.032328 -0.005006
# 6 0.002354 0.003189 0.007873 0.000706 -0.005006 0.036758
#
#
# Mechanical properties :
#
#
# Convention : Reuss Voigt Hill
#
# Bulk Modulus (GPa) = 32.32502 49.92083 41.12293
# Shear Modulus (GPa) = 35.17572 43.10646 39.14109
#
# Velocity S-wave (km/s) = 3.79223 4.19802 4.00027
# Velocity P-wave (km/s) = 5.69124 6.62624 6.17646
#
# Compressibility (1/GPa) = 0.03093579
#
# Stress axis : x y z
#
# Youngs Moduli (GPa) = 67.13705 154.96956 77.19265
#
# Poissons Ratio (x) = -0.07151 0.07977
# Poissons Ratio (y) = -0.03098 0.08579
# Poissons Ratio (z) = 0.06938 0.17222
#
# Static dielectric constant tensor:
#      x y z
#    x 2.107150 0.026420 0.001450 
#    y 0.026420 1.763530 -0.016320 
#    z 0.001450 -0.016320 1.958490 
# 
# From -- ./inp_files/157933.got.cif
#   From: 2010.05.17/outbox.cif.g08.bks.cpg/sg2_79_cif.got.tgz:157933.got - 2010.06.03 11:33:40.
