data_PCOD9066234
_publ_section_title
;
Structure prediction by ZEFSAII (Michael W. Deem and Ramdas Pophale) SiO2 
 PCOD9066234
Probable space group: P -1
;
_chemical_formula_sum "Si O2"
_cell_formula_units_Z 16
_cell_length_a 15.636707
_cell_length_b 8.373423
_cell_length_c 9.091783
_cell_angle_alpha 111.547995
_cell_angle_beta 139.666881
_cell_angle_gamma 72.160928
_cell_volume 715.935303
_symmetry_space_group_name_H-M "P -1"
_symmetry_group_IT_number 2
_symmetry_cell_setting 'triclinic'
loop_
_space_group_symop_operation_xyz
x,y,z
-x,-y,-z
loop_
_atom_site_type_symbol
_atom_site_label
_atom_site_fract_x
_atom_site_fract_y
_atom_site_fract_z
Si Si1 0.271948 0.190175 0.224170
Si Si2 0.231911 0.826771 0.601405
Si Si3 0.576687 0.074213 0.859386
Si Si4 0.369485 0.571826 0.487980
Si Si5 0.719557 0.869697 0.441249
Si Si6 0.851612 0.582226 0.318294
Si Si7 0.951638 0.831260 0.297525
Si Si8 0.634340 0.370304 0.814420
O O1 0.295300 0.393129 0.321278
O O2 0.267080 0.128854 0.364943
O O3 0.387547 0.096917 0.245257
O O4 0.135688 0.141468 0.951941
O O5 0.327585 0.682017 0.609298
O O6 0.093279 0.740590 0.418377
O O7 0.212471 0.980473 0.509616
O O8 0.302286 0.899491 0.861781
O O9 0.438983 0.092196 0.772929
O O10 0.574259 0.224748 0.785628
O O11 0.523931 0.522408 0.694972
O O12 0.334512 0.678317 0.329756
O O13 0.781148 0.689082 0.395863
O O14 0.864453 0.722288 0.254030
O O15 0.000000 0.500000 0.500000
O O16 0.757493 0.438051 0.086910
O O17 0.000000 0.000000 0.500000
#
# Coordination Sequence:
#
# PCOD9066234 Si02
#       8
#     2   2   2   2   2   2   2   2
#     4  12  26  46  76 104 146 184 237 293 352 421
#     4  12  27  45  74  99 147 187 238 290 351 417
#     4  12  25  45  75 102 147 188 230 293 356 419
#     4  11  26  45  72 109 141 181 238 301 350 412
#     4  12  27  45  71 111 137 186 245 285 352 425
#     4  12  27  46  73 103 145 187 236 288 353 422
#     4  12  25  51  69  98 140 190 237 283 352 421
#     4  11  25  45  72 103 148 180 233 287 365 409
#
# _framework density 22.348389000000001
#
# number of rings (size 3 to 8) (size 9 to 14) (size 15 to 20)
#    0.000    0.250    5.000    3.000    7.000    3.000 
#    0.000    0.000    0.000    0.000    0.000    0.000 
#    0.000    0.000    0.000    0.000    0.000    0.000 
#
# Total GULP energy -89516.197500 kJ/mol
# GULP energy per Si atom -5594.762344 kJ/mol
# Density = 2.229752 g / cm^3
# Si number density = 22.348389 Si / 1000 Ang^3
#
#
#
# Elastic Constant Matrix: (Units=GPa)
#
#
# Indices 1 2 3 4 5 6 
#
# 1 90.8207 17.3103 26.1706 0.1976 -12.0030 -5.4868
# 2 17.3103 54.7916 8.8119 2.4144 -14.4029 -1.6921
# 3 26.1706 8.8119 133.3769 -1.7929 0.1091 -16.3898
# 4 0.1976 2.4144 -1.7929 28.2285 0.0983 7.0058
# 5 -12.0030 -14.4029 0.1091 0.0983 33.7798 0.9212
# 6 -5.4868 -1.6921 -16.3898 7.0058 0.9212 38.9398
#
#
#
# Elastic Compliance Matrix: (Units=1/GPa)
#
#
# Indices 1 2 3 4 5 6 
#
# 1 0.012653 -0.002739 -0.002223 -0.000176 0.003317 0.000681
# 2 -0.002739 0.021510 -0.000875 -0.001990 0.008197 0.000345
# 3 -0.002223 -0.000875 0.008389 -0.000177 -0.001278 0.003242
# 4 -0.000176 -0.001990 -0.000177 0.037295 -0.000832 -0.006876
# 5 0.003317 0.008197 -0.001278 -0.000832 0.034294 -0.000376
# 6 0.000681 0.000345 0.003242 -0.006876 -0.000376 0.028402
#
#
# Mechanical properties :
#
#
# Convention : Reuss Voigt Hill
#
# Bulk Modulus (GPa) = 32.38565 42.61943 37.50254
# Shear Modulus (GPa) = 30.39328 35.30270 32.84799
#
# Velocity S-wave (km/s) = 3.69179 3.97880 3.83798
# Velocity P-wave (km/s) = 5.71796 6.34190 6.03799
#
# Compressibility (1/GPa) = 0.03087788
#
# Stress axis : x y z
#
# Youngs Moduli (GPa) = 79.03022 46.48950 119.20998
#
# Poissons Ratio (x) = 0.12735 0.26502
# Poissons Ratio (y) = 0.21648 0.10428
# Poissons Ratio (z) = 0.17570 0.04067
#
# Static dielectric constant tensor:
#      x y z
#    x 1.884260 -0.031480 0.013920 
#    y -0.031480 1.835880 -0.030390 
#    z 0.013920 -0.030390 1.804870 
# 
# From -- ./inp_files/185336.got.cif
#   From: 2010.05.17/outbox.cif.g08.bks.cpg/sg2_93_cif.got.tgz:185336.got - 2010.06.03 11:33:40.
