data_PCOD9066333
_publ_section_title
;
Structure prediction by ZEFSAII (Michael W. Deem and Ramdas Pophale) SiO2 
 PCOD9066333
Probable space group: P -1
;
_chemical_formula_sum "Si O2"
_cell_formula_units_Z 15
_cell_length_a 9.481722
_cell_length_b 9.796152
_cell_length_c 11.958376
_cell_angle_alpha 50.799803
_cell_angle_beta 54.464619
_cell_angle_gamma 51.647609
_cell_volume 641.533564
_symmetry_space_group_name_H-M "P -1"
_symmetry_group_IT_number 2
_symmetry_cell_setting 'triclinic'
loop_
_space_group_symop_operation_xyz
x,y,z
-x,-y,-z
loop_
_atom_site_type_symbol
_atom_site_label
_atom_site_fract_x
_atom_site_fract_y
_atom_site_fract_z
Si Si1 0.628267 0.480234 0.060007
Si Si2 0.500000 0.500000 0.500000
Si Si3 0.056971 0.215217 0.938740
Si Si4 0.291862 0.103957 0.494106
Si Si5 0.689584 0.827905 0.963359
Si Si6 0.021530 0.849189 0.228454
Si Si7 0.788985 0.042803 0.616251
Si Si8 0.668884 0.539375 0.626943
O O1 0.527519 0.417088 0.239493
O O2 0.840305 0.336094 0.009231
O O3 0.500000 0.500000 0.000000
O O4 0.640475 0.676780 0.992368
O O5 0.653582 0.268696 0.567492
O O6 0.613369 0.566287 0.509714
O O7 0.191785 0.272415 0.928139
O O8 0.067815 0.225129 0.795292
O O9 0.102213 0.994210 0.062439
O O10 0.141992 0.048489 0.659863
O O11 0.237410 0.326189 0.432827
O O12 0.500000 0.000000 0.500000
O O13 0.291551 0.055541 0.390489
O O14 0.797175 0.926691 0.786442
O O15 0.500000 0.000000 0.000000
O O16 0.190160 0.675921 0.297564
O O17 0.000000 0.000000 0.500000
#
# Coordination Sequence:
#
# PCOD9066333 Si02
#       8
#     2   1   2   2   2   2   2   2
#     4  12  25  48  76 105 145 193 242 302 370 441
#     4  12  26  46  74 108 148 196 240 302 376 434
#     4  11  25  46  74 107 146 190 240 311 368 439
#     4  12  25  46  73 105 143 193 242 298 365 441
#     4  12  28  48  75 111 148 192 252 307 373 445
#     4  11  25  45  74 106 145 190 246 302 373 438
#     4  12  28  51  76 109 155 195 245 311 373 445
#     4  12  25  47  72 108 145 193 243 302 366 445
#
# _framework density 23.381474999999998
#
# number of rings (size 3 to 8) (size 9 to 14) (size 15 to 20)
#    0.000    0.267    2.667    6.400    5.600    1.067 
#    2.400    0.000    0.000    0.000    0.000    0.000 
#    0.000    0.000    0.000    0.000    0.000    0.000 
#
# Total GULP energy -83767.291883 kJ/mol
# GULP energy per Si atom -5584.486126 kJ/mol
# Density = 2.332826 g / cm^3
# Si number density = 23.381475 Si / 1000 Ang^3
#
#
#
# Elastic Constant Matrix: (Units=GPa)
#
#
# Indices 1 2 3 4 5 6 
#
# 1 148.0035 40.0593 7.0877 -0.6030 32.7917 14.0028
# 2 40.0593 96.9824 0.2801 -11.6507 10.8134 5.6277
# 3 7.0877 0.2801 56.3396 8.0490 2.2313 3.9759
# 4 -0.6030 -11.6507 8.0490 33.2693 0.8600 -2.5291
# 5 32.7917 10.8134 2.2313 0.8600 38.9155 -0.3899
# 6 14.0028 5.6277 3.9759 -2.5291 -0.3899 50.4629
#
#
#
# Elastic Compliance Matrix: (Units=1/GPa)
#
#
# Indices 1 2 3 4 5 6 
#
# 1 0.009384 -0.003045 -0.000618 -0.000740 -0.007032 -0.002307
# 2 -0.003045 0.012201 -0.000232 0.004275 -0.000908 -0.000290
# 3 -0.000618 -0.000232 0.018622 -0.004702 -0.000394 -0.001508
# 4 -0.000740 0.004275 -0.004702 0.032837 -0.001003 0.001737
# 5 -0.007032 -0.000908 -0.000394 -0.001003 0.031942 0.002280
# 6 -0.002307 -0.000290 -0.001508 0.001737 0.002280 0.020713
#
#
# Mechanical properties :
#
#
# Convention : Reuss Voigt Hill
#
# Bulk Modulus (GPa) = 30.84835 44.01997 37.43416
# Shear Modulus (GPa) = 34.65105 41.45609 38.05357
#
# Velocity S-wave (km/s) = 3.85384 4.21531 4.03862
# Velocity P-wave (km/s) = 5.74673 6.52376 6.14753
#
# Compressibility (1/GPa) = 0.03241665
#
# Stress axis : x y z
#
# Youngs Moduli (GPa) = 106.56712 81.95786 53.69912
#
# Poissons Ratio (x) = 0.24958 0.03320
# Poissons Ratio (y) = 0.32452 0.01245
# Poissons Ratio (z) = 0.06589 0.01900
#
# Static dielectric constant tensor:
#      x y z
#    x 1.904290 0.062050 -0.011590 
#    y 0.062050 1.992400 0.002830 
#    z -0.011590 0.002830 1.931960 
# 
# From -- ./inp_files/381229.got.cif
#   From: 2010.05.17/outbox.cif.g08.bks.cpg/sg2_191_cif.got.tgz:381229.got - 2010.06.03 11:33:40.
