data_PCOD9066665
_publ_section_title
;
Structure prediction by ZEFSAII (Michael W. Deem and Ramdas Pophale) SiO2 
 PCOD9066665
Probable space group: P -1
;
_chemical_formula_sum "Si O2"
_cell_formula_units_Z 11
_cell_length_a 9.194436
_cell_length_b 5.198981
_cell_length_c 12.010752
_cell_angle_alpha 77.200657
_cell_angle_beta 87.114477
_cell_angle_gamma 116.862699
_cell_volume 491.928454
_symmetry_space_group_name_H-M "P -1"
_symmetry_group_IT_number 2
_symmetry_cell_setting 'triclinic'
loop_
_space_group_symop_operation_xyz
x,y,z
-x,-y,-z
loop_
_atom_site_type_symbol
_atom_site_label
_atom_site_fract_x
_atom_site_fract_y
_atom_site_fract_z
Si Si1 0.062295 0.335407 0.426608
Si Si2 0.156590 0.942609 0.990207
Si Si3 0.408742 0.690391 0.763493
Si Si4 0.932471 0.412515 0.191720
Si Si5 0.544323 0.374084 0.621912
Si Si6 0.500000 0.500000 0.000000
O O1 0.260102 0.509566 0.396064
O O2 0.000000 0.500000 0.500000
O O3 0.985053 0.317527 0.310511
O O4 0.000000 0.000000 0.500000
O O5 0.158313 0.835853 0.875497
O O6 0.099038 0.659903 0.102528
O O7 0.324823 0.218149 0.994803
O O8 0.000000 0.000000 0.000000
O O9 0.209319 0.497668 0.781618
O O10 0.493265 0.524074 0.709629
O O11 0.457232 0.014356 0.675788
O O12 0.471197 0.712749 0.885282
O O13 0.500000 0.500000 0.500000
#
# Coordination Sequence:
#
# PCOD9066665 Si02
#       6
#     2   2   2   2   2   1
#     4  12  27  46  76 107 149 200 251 317 384 456
#     4  11  25  46  73 107 151 200 249 318 369 463
#     4  12  26  44  75 104 149 194 246 318 368 460
#     4  11  26  47  72 109 153 198 255 311 392 443
#     4  12  26  47  72 107 144 195 254 309 379 450
#     4  12  26  46  76 110 154 196 262 298 406 434
#
# _framework density 22.360973999999999
#
# number of rings (size 3 to 8) (size 9 to 14) (size 15 to 20)
#    0.000    0.364    1.818    6.000    5.091    2.909 
#    0.000    0.000    0.000    0.000    0.000    0.000 
#    0.000    0.000    0.000    0.000    0.000    0.000 
#
# Total GULP energy -61342.152895 kJ/mol
# GULP energy per Si atom -5576.559354 kJ/mol
# Density = 2.231008 g / cm^3
# Si number density = 22.360974 Si / 1000 Ang^3
#
#
#
# Elastic Constant Matrix: (Units=GPa)
#
#
# Indices 1 2 3 4 5 6 
#
# 1 143.1734 59.4048 75.7890 15.0562 1.9702 20.1005
# 2 59.4048 161.0599 60.1295 -22.3876 -7.9931 18.4849
# 3 75.7890 60.1295 146.6039 -10.7879 30.8684 8.1856
# 4 15.0562 -22.3876 -10.7879 25.4184 -5.4615 -0.0787
# 5 1.9702 -7.9931 30.8684 -5.4615 61.7658 2.6176
# 6 20.1005 18.4849 8.1856 -0.0787 2.6176 58.7453
#
#
#
# Elastic Compliance Matrix: (Units=1/GPa)
#
#
# Indices 1 2 3 4 5 6 
#
# 1 0.014414 -0.004531 -0.006800 -0.015182 0.001121 -0.002629
# 2 -0.004531 0.010572 -0.001759 0.012000 0.003524 -0.001672
# 3 -0.006800 -0.001759 0.012695 0.006618 -0.005829 0.001380
# 4 -0.015182 0.012000 0.006618 0.062627 0.004251 0.000391
# 5 0.001121 0.003524 -0.005829 0.004251 0.019966 -0.001564
# 6 -0.002629 -0.001672 0.001380 0.000391 -0.001564 0.018326
#
#
# Mechanical properties :
#
#
# Convention : Reuss Voigt Hill
#
# Bulk Modulus (GPa) = 86.94656 93.49822 90.22239
# Shear Modulus (GPa) = 29.65385 46.22018 37.93701
#
# Velocity S-wave (km/s) = 3.64558 4.55136 4.12342
# Velocity P-wave (km/s) = 7.52914 8.33809 7.94392
#
# Compressibility (1/GPa) = 0.01150132
#
# Stress axis : x y z
#
# Youngs Moduli (GPa) = 69.37711 94.59335 78.77097
#
# Poissons Ratio (x) = 0.42858 0.53562
# Poissons Ratio (y) = 0.31433 0.13858
# Poissons Ratio (z) = 0.47174 0.16641
#
# Static dielectric constant tensor:
#      x y z
#    x 1.828230 -0.070210 -0.027180 
#    y -0.070210 1.849330 -0.041980 
#    z -0.027180 -0.041980 1.883820 
# 
# From -- ./inp_files/32814.got.cif
#   From: 2010.05.17/outbox.cif.g08.bks.cpg/sg2_17_cif.got.tgz:32814.got - 2010.06.03 11:33:40.
