data_PCOD9066855
_publ_section_title
;
Structure prediction by ZEFSAII (Michael W. Deem and Ramdas Pophale) SiO2 
 PCOD9066855
Probable space group: P -1
;
_chemical_formula_sum "Si O2"
_cell_formula_units_Z 16
_cell_length_a 11.818914
_cell_length_b 9.182842
_cell_length_c 16.420044
_cell_angle_alpha 31.583610
_cell_angle_beta 49.871546
_cell_angle_gamma 54.170395
_cell_volume 710.699767
_symmetry_space_group_name_H-M "P -1"
_symmetry_group_IT_number 2
_symmetry_cell_setting 'triclinic'
loop_
_space_group_symop_operation_xyz
x,y,z
-x,-y,-z
loop_
_atom_site_type_symbol
_atom_site_label
_atom_site_fract_x
_atom_site_fract_y
_atom_site_fract_z
Si Si1 0.057039 0.188370 0.809697
Si Si2 0.968868 0.186029 0.673059
Si Si3 0.090352 0.266267 0.315123
Si Si4 0.624392 0.725501 0.167024
Si Si5 0.585253 0.678807 0.807746
Si Si6 0.359344 0.694353 0.203787
Si Si7 0.594852 0.772481 0.340169
Si Si8 0.936128 0.371593 0.172392
O O1 0.231597 0.243461 0.705757
O O2 0.005148 0.077780 0.799760
O O3 0.969246 0.490634 0.712502
O O4 0.000000 0.000000 0.000000
O O5 0.795080 0.235540 0.711341
O O6 0.000000 0.500000 0.500000
O O7 0.062348 0.960920 0.682180
O O8 0.265465 0.226264 0.265338
O O9 0.046531 0.392027 0.186907
O O10 0.000000 0.000000 0.500000
O O11 0.484924 0.583278 0.262854
O O12 0.601637 0.859525 0.201663
O O13 0.774498 0.521690 0.194187
O O14 0.630727 0.992111 0.981133
O O15 0.626989 0.502302 0.789618
O O16 0.488421 0.970466 0.694905
O O17 0.500000 0.500000 0.000000
O O18 0.500000 0.500000 0.500000
O O19 0.000000 0.500000 0.000000
#
# Coordination Sequence:
#
# PCOD9066855 Si02
#       8
#     2   2   2   2   2   2   2   2
#     4  12  24  48  72  97 138 186 238 295 336 413
#     4  12  27  44  69 104 142 181 230 290 353 410
#     4  12  26  46  72 101 143 185 235 296 352 409
#     4  11  25  47  70 103 144 180 229 295 354 421
#     4  12  26  44  73 103 136 188 238 280 350 425
#     4  11  25  47  70 103 144 180 229 295 354 421
#     4  12  27  44  69 104 142 181 230 290 353 410
#     4  12  26  44  73 103 136 188 238 280 350 425
#
# _framework density 22.513023
#
# number of rings (size 3 to 8) (size 9 to 14) (size 15 to 20)
#    0.000    0.250    5.000    3.750    7.000    0.000 
#    0.000    1.250    0.000    0.000    0.000    0.000 
#    0.000    0.000    0.000    0.000    0.000    0.000 
#
# Total GULP energy -89306.127133 kJ/mol
# GULP energy per Si atom -5581.632946 kJ/mol
# Density = 2.246178 g / cm^3
# Si number density = 22.513023 Si / 1000 Ang^3
#
#
#
# Elastic Constant Matrix: (Units=GPa)
#
#
# Indices 1 2 3 4 5 6 
#
# 1 91.3593 18.4004 -13.8464 12.1225 -3.6496 -9.9636
# 2 18.4004 88.5240 12.0738 -32.0860 -3.9719 -8.9191
# 3 -13.8464 12.0738 59.1198 -18.5239 -11.5333 -21.9812
# 4 12.1225 -32.0860 -18.5239 31.9790 3.0549 -5.8951
# 5 -3.6496 -3.9719 -11.5333 3.0549 28.6406 6.6184
# 6 -9.9636 -8.9191 -21.9812 -5.8951 6.6184 41.3056
#
#
#
# Elastic Compliance Matrix: (Units=1/GPa)
#
#
# Indices 1 2 3 4 5 6 
#
# 1 0.014509 -0.007349 0.002080 -0.011761 0.002712 0.000907
# 2 -0.007349 0.026957 0.010467 0.038770 -0.000643 0.015255
# 3 0.002080 0.010467 0.037916 0.035987 0.006915 0.026967
# 4 -0.011761 0.038770 0.035987 0.102955 -0.001778 0.039664
# 5 0.002712 -0.000643 0.006915 -0.001778 0.038667 -0.002254
# 6 0.000907 0.015255 0.026967 0.039664 -0.002254 0.048096
#
#
# Mechanical properties :
#
#
# Convention : Reuss Voigt Hill
#
# Bulk Modulus (GPa) = 11.13850 30.25098 20.69474
# Shear Modulus (GPa) = 17.32329 35.21004 26.26666
#
# Velocity S-wave (km/s) = 2.77696 3.95902 3.41945
# Velocity P-wave (km/s) = 3.90388 5.86214 4.98021
#
# Compressibility (1/GPa) = 0.08977873
#
# Stress axis : x y z
#
# Youngs Moduli (GPa) = 68.92224 37.09653 26.37418
#
# Poissons Ratio (x) = 0.27263 -0.05487
# Poissons Ratio (y) = 0.50653 -0.27607
# Poissons Ratio (z) = -0.14339 -0.38830
#
# Static dielectric constant tensor:
#      x y z
#    x 1.794800 0.009180 -0.051200 
#    y 0.009180 1.755970 0.002710 
#    z -0.051200 0.002710 1.868420 
# 
# From -- ./inp_files/262003.got.cif
#   From: 2010.05.17/outbox.cif.g08.bks.cpg/sg2_132_cif.got.tgz:262003.got - 2010.06.03 11:33:40.
