data_PCOD9066112
_publ_section_title
;
Structure prediction by ZEFSAII (Michael W. Deem and Ramdas Pophale) SiO2 
 PCOD9066112
Probable space group: P -1
;
_chemical_formula_sum "Si O2"
_cell_formula_units_Z 14
_cell_length_a 14.335666
_cell_length_b 26.901727
_cell_length_c 5.334222
_cell_angle_alpha 113.411480
_cell_angle_beta 101.607019
_cell_angle_gamma 21.708033
_cell_volume 606.782145
_symmetry_space_group_name_H-M "P -1"
_symmetry_group_IT_number 2
_symmetry_cell_setting 'triclinic'
loop_
_space_group_symop_operation_xyz
x,y,z
-x,-y,-z
loop_
_atom_site_type_symbol
_atom_site_label
_atom_site_fract_x
_atom_site_fract_y
_atom_site_fract_z
Si Si1 0.717551 0.399036 0.628270
Si Si2 0.144777 0.981391 0.514096
Si Si3 0.420488 0.008455 0.726893
Si Si4 0.139390 0.754230 0.235040
Si Si5 0.513661 0.777461 0.797680
Si Si6 0.978419 0.655636 0.299941
Si Si7 0.104630 0.528771 0.613780
O O1 0.500000 0.500000 0.500000
O O2 0.887758 0.253522 0.511798
O O3 0.940958 0.326353 0.555985
O O4 0.479119 0.558278 0.993165
O O5 0.312734 0.901600 0.705155
O O6 0.354000 0.866671 0.155674
O O7 0.000000 0.000000 0.500000
O O8 0.932257 0.146182 0.672795
O O9 0.629310 0.843524 0.498319
O O10 0.500000 0.000000 0.500000
O O11 0.090088 0.163729 0.856511
O O12 0.500000 0.000000 0.000000
O O13 0.627891 0.655095 0.568576
O O14 0.803562 0.657536 0.724447
O O15 0.114643 0.546919 0.375894
O O16 0.083562 0.582861 0.935581
#
# Coordination Sequence:
#
# PCOD9066112 Si02
#       7
#     2   2   2   2   2   2   2
#     4  11  27  46  70 103 146 196 233 302 363 439
#     4  12  28  47  74 106 144 197 241 297 363 438
#     4  12  24  43  70 105 143 188 238 297 359 435
#     4  11  27  46  70 104 147 187 242 299 363 433
#     4  11  25  49  71 107 144 185 246 299 370 412
#     4  12  25  44  74 107 143 190 245 294 372 433
#     4  11  25  44  77 104 142 187 239 311 352 440
#
# _framework density 23.072533
#
# number of rings (size 3 to 8) (size 9 to 14) (size 15 to 20)
#    0.000    0.571    1.429    5.571   10.000    2.286 
#    0.000    0.000    0.000    0.000    0.000    0.000 
#    0.000    0.000    0.000    0.000    0.000    0.000 
#
# Total GULP energy -78222.814826 kJ/mol
# GULP energy per Si atom -5587.343916 kJ/mol
# Density = 2.302002 g / cm^3
# Si number density = 23.072533 Si / 1000 Ang^3
#
#
#
# Elastic Constant Matrix: (Units=GPa)
#
#
# Indices 1 2 3 4 5 6 
#
# 1 107.6972 44.1974 4.0754 3.1353 0.5341 12.4891
# 2 44.1974 124.0328 13.2100 -7.6155 4.4649 23.7097
# 3 4.0754 13.2100 57.6889 -7.7460 -2.1245 -5.5874
# 4 3.1353 -7.6155 -7.7460 44.2894 1.8424 8.5830
# 5 0.5341 4.4649 -2.1245 1.8424 34.8398 2.8704
# 6 12.4891 23.7097 -5.5874 8.5830 2.8704 42.3153
#
#
#
# Elastic Compliance Matrix: (Units=1/GPa)
#
#
# Indices 1 2 3 4 5 6 
#
# 1 0.011002 -0.003833 -0.000144 -0.001311 0.000456 -0.000884
# 2 -0.003833 0.011042 -0.002479 0.002928 -0.001176 -0.005897
# 3 -0.000144 -0.002479 0.018565 0.002132 0.001061 0.003378
# 4 -0.001311 0.002928 0.002132 0.024738 -0.001046 -0.005919
# 5 0.000456 -0.001176 0.001061 -0.001046 0.029057 -0.001094
# 6 -0.000884 -0.005897 0.003378 -0.005919 -0.001094 0.028918
#
#
# Mechanical properties :
#
#
# Convention : Reuss Voigt Hill
#
# Bulk Modulus (GPa) = 36.10645 45.82050 40.96347
# Shear Modulus (GPa) = 34.37223 39.48464 36.92843
#
# Velocity S-wave (km/s) = 3.86391 4.14131 4.00501
# Velocity P-wave (km/s) = 5.96569 6.53985 6.25936
#
# Compressibility (1/GPa) = 0.02769588
#
# Stress axis : x y z
#
# Youngs Moduli (GPa) = 90.89116 90.56635 53.86559
#
# Poissons Ratio (x) = 0.34715 0.00777
# Poissons Ratio (y) = 0.34840 0.13353
# Poissons Ratio (z) = 0.01312 0.22450
#
# Static dielectric constant tensor:
#      x y z
#    x 2.054450 -0.072040 -0.326300 
#    y -0.072040 1.840240 0.134930 
#    z -0.326300 0.134930 2.421340 
# 
# From -- ./inp_files/101579.got.cif
#   From: 2010.05.17/outbox.cif.g08.bks.cpg/sg2_51_cif.got.tgz:101579.got - 2010.06.03 11:33:40.
