data_PCOD9066310
_publ_section_title
;
Structure prediction by ZEFSAII (Michael W. Deem and Ramdas Pophale) SiO2 
 PCOD9066310
Probable space group: P -1
;
_chemical_formula_sum "Si O2"
_cell_formula_units_Z 16
_cell_length_a 9.299235
_cell_length_b 11.368429
_cell_length_c 10.140731
_cell_angle_alpha 77.017825
_cell_angle_beta 105.680014
_cell_angle_gamma 129.834487
_cell_volume 790.666099
_symmetry_space_group_name_H-M "P -1"
_symmetry_group_IT_number 2
_symmetry_cell_setting 'triclinic'
loop_
_space_group_symop_operation_xyz
x,y,z
-x,-y,-z
loop_
_atom_site_type_symbol
_atom_site_label
_atom_site_fract_x
_atom_site_fract_y
_atom_site_fract_z
Si Si1 0.523134 0.584509 0.349245
Si Si2 0.775204 0.356778 0.819599
Si Si3 0.157172 0.060678 0.636134
Si Si4 0.093166 0.053620 0.152316
Si Si5 0.511301 0.603901 0.860029
Si Si6 0.786254 0.347772 0.128123
Si Si7 0.747341 0.119624 0.672704
Si Si8 0.309214 0.892095 0.627128
O O1 0.500000 0.500000 0.500000
O O2 0.353979 0.596588 0.275325
O O3 0.716844 0.758291 0.355564
O O4 0.526118 0.488119 0.258785
O O5 0.758698 0.234326 0.749605
O O6 0.996404 0.501775 0.847651
O O7 0.721009 0.299544 0.972334
O O8 0.293949 0.024960 0.624381
O O9 0.000000 0.000000 0.500000
O O10 0.051095 0.969077 0.767024
O O11 0.284765 0.228220 0.144550
O O12 0.137068 0.939147 0.238848
O O13 0.000000 0.000000 0.000000
O O14 0.351837 0.623315 0.846844
O O15 0.500000 0.500000 0.000000
O O16 0.773284 0.221485 0.242800
O O17 0.794858 0.182783 0.518997
O O18 0.528836 0.967214 0.648939
#
# Coordination Sequence:
#
# PCOD9066310 Si02
#       8
#     2   2   2   2   2   2   2   2
#     4  12  28  45  73 104 144 188 229 289 352 413
#     4  11  27  47  69 105 139 178 234 285 348 419
#     4  12  26  47  69 106 142 184 238 285 347 417
#     4  12  28  43  73 105 139 187 233 289 347 412
#     4  12  26  49  69 101 146 185 235 283 348 420
#     4  11  27  46  73 100 138 186 226 288 351 410
#     4  11  25  46  69 101 137 177 236 283 340 413
#     4  11  25  45  73  96 137 182 231 286 341 408
#
# _framework density 20.236103
#
# number of rings (size 3 to 8) (size 9 to 14) (size 15 to 20)
#    0.000    0.500    5.000    1.500   10.500    1.000 
#    0.000    0.000    0.000    0.000    0.000    0.000 
#    0.000    0.000    0.000    0.000    0.000    0.000 
#
# Total GULP energy -89491.422483 kJ/mol
# GULP energy per Si atom -5593.213905 kJ/mol
# Density = 2.019004 g / cm^3
# Si number density = 20.236103 Si / 1000 Ang^3
#
#
#
# Elastic Constant Matrix: (Units=GPa)
#
#
# Indices 1 2 3 4 5 6 
#
# 1 77.1169 21.5429 39.2438 8.4192 -3.5724 -1.6911
# 2 21.5429 102.6361 61.3320 4.6198 -2.8799 2.9334
# 3 39.2438 61.3320 188.9177 6.9787 -8.5284 -11.3307
# 4 8.4192 4.6198 6.9787 36.3249 -2.3197 -4.2021
# 5 -3.5724 -2.8799 -8.5284 -2.3197 37.2392 2.1830
# 6 -1.6911 2.9334 -11.3307 -4.2021 2.1830 36.8770
#
#
#
# Elastic Compliance Matrix: (Units=1/GPa)
#
#
# Indices 1 2 3 4 5 6 
#
# 1 0.014992 -0.001489 -0.002520 -0.002801 0.000590 -0.000322
# 2 -0.001489 0.012455 -0.003844 -0.000768 0.000029 -0.002329
# 3 -0.002520 -0.003844 0.007250 0.000016 0.000984 0.002362
# 4 -0.002801 -0.000768 0.000016 0.028717 0.001281 0.003134
# 5 0.000590 0.000029 0.000984 0.001281 0.027284 -0.001142
# 6 -0.000322 -0.002329 0.002362 0.003134 -0.001142 0.028438
#
#
# Mechanical properties :
#
#
# Convention : Reuss Voigt Hill
#
# Bulk Modulus (GPa) = 52.65813 68.10088 60.37950
# Shear Modulus (GPa) = 35.41751 38.52502 36.97126
#
# Velocity S-wave (km/s) = 4.18809 4.36796 4.27897
# Velocity P-wave (km/s) = 7.03315 7.69188 7.36988
#
# Compressibility (1/GPa) = 0.01899042
#
# Stress axis : x y z
#
# Youngs Moduli (GPa) = 66.70335 80.29037 137.92576
#
# Poissons Ratio (x) = 0.11955 0.34758
# Poissons Ratio (y) = 0.09932 0.53021
# Poissons Ratio (z) = 0.16810 0.30865
#
# Static dielectric constant tensor:
#      x y z
#    x 1.681910 0.022930 0.034880 
#    y 0.022930 1.682510 -0.018400 
#    z 0.034880 -0.018400 1.683130 
# 
# From -- ./inp_files/186736.got.cif
#   From: 2010.05.17/outbox.cif.g08.bks.cpg/sg2_94_cif.got.tgz:186736.got - 2010.06.03 11:33:40.
