data_PCOD9066260
_publ_section_title
;
Structure prediction by ZEFSAII (Michael W. Deem and Ramdas Pophale) SiO2 
 PCOD9066260
Probable space group: P -1
;
_chemical_formula_sum "Si O2"
_cell_formula_units_Z 16
_cell_length_a 9.380965
_cell_length_b 8.217482
_cell_length_c 14.724930
_cell_angle_alpha 74.167013
_cell_angle_beta 46.626921
_cell_angle_gamma 98.035845
_cell_volume 701.583292
_symmetry_space_group_name_H-M "P -1"
_symmetry_group_IT_number 2
_symmetry_cell_setting 'triclinic'
loop_
_space_group_symop_operation_xyz
x,y,z
-x,-y,-z
loop_
_atom_site_type_symbol
_atom_site_label
_atom_site_fract_x
_atom_site_fract_y
_atom_site_fract_z
Si Si1 0.746045 0.555634 0.845049
Si Si2 0.709731 0.671099 0.334946
Si Si3 0.202329 0.198308 0.912120
Si Si4 0.904701 0.692206 0.423854
Si Si5 0.897026 0.041803 0.450276
Si Si6 0.001759 0.628615 0.897425
Si Si7 0.314205 0.662072 0.288569
Si Si8 0.555112 0.993187 0.372666
O O1 0.717921 0.446305 0.777932
O O2 0.909861 0.778716 0.713667
O O3 0.886887 0.525729 0.869670
O O4 0.500000 0.500000 0.000000
O O5 0.500000 0.500000 0.500000
O O6 0.754772 0.653877 0.212578
O O7 0.899430 0.685484 0.318242
O O8 0.656145 0.849584 0.332497
O O9 0.430720 0.192379 0.829387
O O10 0.141896 0.269717 0.019523
O O11 0.000000 0.000000 0.000000
O O12 0.763622 0.495893 0.571748
O O13 0.151418 0.755269 0.340982
O O14 0.818937 0.844997 0.459273
O O15 0.682845 0.070759 0.560056
O O16 0.000000 0.000000 0.500000
O O17 0.253054 0.794404 0.759472
O O18 0.000000 0.500000 0.000000
O O19 0.500000 0.000000 0.500000
#
# Coordination Sequence:
#
# PCOD9066260 Si02
#       8
#     2   2   2   2   2   2   2   2
#     4  12  26  49  73 105 152 191 239 311 363 441
#     4  12  26  43  76 103 145 192 248 299 369 430
#     4  12  27  50  69 104 151 192 239 306 365 442
#     4  11  25  45  72 111 140 191 245 303 363 435
#     4  12  27  44  76 107 149 191 245 300 372 430
#     4  12  29  47  75 107 149 199 249 301 379 434
#     4  11  26  47  73 107 150 186 247 304 367 438
#     4  12  26  47  72 108 144 189 254 308 351 446
#
# _framework density 22.80556
#
# number of rings (size 3 to 8) (size 9 to 14) (size 15 to 20)
#    0.000    0.250    7.500    0.000   10.500    0.000 
#    0.000    1.250    0.000    0.000    0.000    0.000 
#    0.000    0.000    0.000    0.000    0.000    0.000 
#
# Total GULP energy -89439.596490 kJ/mol
# GULP energy per Si atom -5589.974781 kJ/mol
# Density = 2.275365 g / cm^3
# Si number density = 22.805560 Si / 1000 Ang^3
#
#
#
# Elastic Constant Matrix: (Units=GPa)
#
#
# Indices 1 2 3 4 5 6 
#
# 1 170.8729 21.2221 55.9325 -6.0751 -7.7026 2.7092
# 2 21.2221 58.3456 16.9176 4.5527 -2.0896 -0.4729
# 3 55.9325 16.9176 142.0455 -13.0956 -9.0177 -8.7114
# 4 -6.0751 4.5527 -13.0956 40.6725 6.9302 2.8140
# 5 -7.7026 -2.0896 -9.0177 6.9302 49.9757 8.3379
# 6 2.7092 -0.4729 -8.7114 2.8140 8.3379 33.9226
#
#
#
# Elastic Compliance Matrix: (Units=1/GPa)
#
#
# Indices 1 2 3 4 5 6 
#
# 1 0.006979 -0.001820 -0.002536 0.000406 0.000727 -0.001446
# 2 -0.001820 0.018560 -0.001730 -0.003011 0.000590 0.000065
# 3 -0.002536 -0.001730 0.008618 0.002374 0.000413 0.002093
# 4 0.000406 -0.003011 0.002374 0.026345 -0.003142 -0.000878
# 5 0.000727 0.000590 0.000413 -0.003142 0.021485 -0.004964
# 6 -0.001446 0.000065 0.002093 -0.000878 -0.004964 0.031426
#
#
# Mechanical properties :
#
#
# Convention : Reuss Voigt Hill
#
# Bulk Modulus (GPa) = 45.48855 62.15648 53.82252
# Shear Modulus (GPa) = 37.61860 43.39359 40.50610
#
# Velocity S-wave (km/s) = 4.06585 4.36680 4.21901
# Velocity P-wave (km/s) = 6.48314 7.26219 6.88370
#
# Compressibility (1/GPa) = 0.02198355
#
# Stress axis : x y z
#
# Youngs Moduli (GPa) = 143.29246 53.88051 116.03273
#
# Poissons Ratio (x) = 0.09808 0.29430
# Poissons Ratio (y) = 0.26084 0.20072
# Poissons Ratio (z) = 0.36344 0.09321
#
# Static dielectric constant tensor:
#      x y z
#    x 2.098360 0.311700 0.075180 
#    y 0.311700 2.233010 0.124520 
#    z 0.075180 0.124520 1.843190 
# 
# From -- ./inp_files/188565.got.cif
#   From: 2010.05.17/outbox.cif.g08.bks.cpg/sg2_95_cif.got.tgz:188565.got - 2010.06.03 11:33:40.
