data_PCOD9066079
_publ_section_title
;
Structure prediction by ZEFSAII (Michael W. Deem and Ramdas Pophale) SiO2 
 PCOD9066079
Probable space group: P -1
;
_chemical_formula_sum "Si O2"
_cell_formula_units_Z 13
_cell_length_a 12.792675
_cell_length_b 10.814454
_cell_length_c 10.056789
_cell_angle_alpha 85.709299
_cell_angle_beta 125.240179
_cell_angle_gamma 139.897766
_cell_volume 525.102501
_symmetry_space_group_name_H-M "P -1"
_symmetry_group_IT_number 2
_symmetry_cell_setting 'triclinic'
loop_
_space_group_symop_operation_xyz
x,y,z
-x,-y,-z
loop_
_atom_site_type_symbol
_atom_site_label
_atom_site_fract_x
_atom_site_fract_y
_atom_site_fract_z
Si Si1 0.399518 0.730716 0.564387
Si Si2 0.747314 0.381196 0.820592
Si Si3 0.419078 0.789837 0.989185
Si Si4 0.832948 0.760724 0.216604
Si Si5 0.992996 0.159806 0.366756
Si Si6 0.000000 0.500000 0.500000
Si Si7 0.003111 0.151099 0.963011
O O1 0.406953 0.784445 0.414669
O O2 0.184449 0.431775 0.431625
O O3 0.269231 0.705670 0.582860
O O4 0.700165 0.937733 0.796846
O O5 0.606473 0.242149 0.869725
O O6 0.000000 0.500000 0.000000
O O7 0.811005 0.584493 0.850001
O O8 0.146149 0.540982 0.722368
O O9 0.500000 0.000000 0.000000
O O10 0.677419 0.927875 0.131202
O O11 0.928806 0.784241 0.424578
O O12 0.911246 0.761976 0.136652
O O13 0.009617 0.040297 0.322746
O O14 0.500000 0.500000 0.000000
O O15 0.000000 0.000000 0.000000
#
# Coordination Sequence:
#
# PCOD9066079 Si02
#       7
#     2   2   2   2   2   1   2
#     4  12  28  47  76 109 154 199 261 317 392 455
#     4  12  27  49  73 113 151 202 251 326 386 451
#     4  12  26  47  76 108 150 196 263 318 387 453
#     4  11  25  46  74 110 149 205 258 309 387 465
#     4  11  25  44  74 106 149 200 253 322 377 461
#     4  12  28  44  78 112 142 216 256 314 386 464
#     4  12  29  47  76 113 159 202 254 319 388 466
#
# _framework density 24.757069999999999
#
# number of rings (size 3 to 8) (size 9 to 14) (size 15 to 20)
#    0.000    0.308    3.077    3.692   10.769    6.769 
#    0.000    0.000    0.000    0.000    0.000    0.000 
#    0.000    0.000    0.000    0.000    0.000    0.000 
#
# Total GULP energy -72481.003596 kJ/mol
# GULP energy per Si atom -5575.461815 kJ/mol
# Density = 2.470072 g / cm^3
# Si number density = 24.757070 Si / 1000 Ang^3
#
#
#
# Elastic Constant Matrix: (Units=GPa)
#
#
# Indices 1 2 3 4 5 6 
#
# 1 114.0948 32.5351 49.3712 1.0082 -18.0413 13.6016
# 2 32.5351 89.7184 25.8670 -13.6362 -3.4608 7.8142
# 3 49.3712 25.8670 108.1152 -22.6377 14.8001 17.0614
# 4 1.0082 -13.6362 -22.6377 42.8930 7.2098 -4.8277
# 5 -18.0413 -3.4608 14.8001 7.2098 41.9858 6.2118
# 6 13.6016 7.8142 17.0614 -4.8277 6.2118 65.5943
#
#
#
# Elastic Compliance Matrix: (Units=1/GPa)
#
#
# Indices 1 2 3 4 5 6 
#
# 1 0.016278 -0.003820 -0.009688 -0.008967 0.011959 -0.002193
# 2 -0.003820 0.013260 -0.000332 0.004288 -0.001127 -0.000279
# 3 -0.009688 -0.000332 0.017987 0.011640 -0.012441 -0.000595
# 4 -0.008967 0.004288 0.011640 0.033564 -0.013675 0.002086
# 5 0.011959 -0.001127 -0.012441 -0.013675 0.036121 -0.003537
# 6 -0.002193 -0.000279 -0.000595 0.002086 -0.003537 0.016376
#
#
# Mechanical properties :
#
#
# Convention : Reuss Voigt Hill
#
# Bulk Modulus (GPa) = 50.39198 58.60835 54.50016
# Shear Modulus (GPa) = 29.78303 43.70495 36.74399
#
# Velocity S-wave (km/s) = 3.47221 4.20617 3.85669
# Velocity P-wave (km/s) = 6.03935 6.87851 6.47254
#
# Compressibility (1/GPa) = 0.01984443
#
# Stress axis : x y z
#
# Youngs Moduli (GPa) = 61.43289 75.41707 55.59573
#
# Poissons Ratio (x) = 0.28812 0.53861
# Poissons Ratio (y) = 0.23470 0.01844
# Poissons Ratio (z) = 0.59516 0.02502
#
# Static dielectric constant tensor:
#      x y z
#    x 1.805300 -0.050440 0.021530 
#    y -0.050440 2.006800 -0.010220 
#    z 0.021530 -0.010220 1.957000 
# 
# From -- ./inp_files/262099.got.cif
#   From: 2010.05.17/outbox.cif.g08.bks.cpg/sg2_132_cif.got.tgz:262099.got - 2010.06.03 11:33:40.
