data_PCOD9066421
_publ_section_title
;
Structure prediction by ZEFSAII (Michael W. Deem and Ramdas Pophale) SiO2 
 PCOD9066421
Probable space group: P -1
;
_chemical_formula_sum "Si O2"
_cell_formula_units_Z 16
_cell_length_a 17.255046
_cell_length_b 11.855529
_cell_length_c 8.966559
_cell_angle_alpha 116.708597
_cell_angle_beta 148.989521
_cell_angle_gamma 53.208232
_cell_volume 747.657937
_symmetry_space_group_name_H-M "P -1"
_symmetry_group_IT_number 2
_symmetry_cell_setting 'triclinic'
loop_
_space_group_symop_operation_xyz
x,y,z
-x,-y,-z
loop_
_atom_site_type_symbol
_atom_site_label
_atom_site_fract_x
_atom_site_fract_y
_atom_site_fract_z
Si Si1 0.741710 0.398583 0.294868
Si Si2 0.990371 0.874011 0.315889
Si Si3 0.439133 0.347727 0.660178
Si Si4 0.494686 0.653558 0.574413
Si Si5 0.844978 0.093361 0.687286
Si Si6 0.201103 0.409952 0.743960
Si Si7 0.333568 0.106331 0.371889
Si Si8 0.317843 0.086658 0.675140
O O1 0.924468 0.266156 0.526744
O O2 0.694078 0.490469 0.422476
O O3 0.739729 0.503532 0.222796
O O4 0.607033 0.336707 0.013743
O O5 0.096468 0.848947 0.322843
O O6 0.000000 0.000000 0.500000
O O7 0.813514 0.891075 0.973295
O O8 0.492563 0.314896 0.558219
O O9 0.354428 0.249295 0.509327
O O10 0.500000 0.500000 0.500000
O O11 0.321850 0.777177 0.435860
O O12 0.667229 0.630595 0.926054
O O13 0.794429 0.976265 0.471282
O O14 0.000000 0.000000 0.000000
O O15 0.238074 0.255473 0.654000
O O16 0.000000 0.500000 0.500000
O O17 0.324683 0.052670 0.490646
O O18 0.500000 0.000000 0.500000
O O19 0.500000 0.000000 0.000000
#
# Coordination Sequence:
#
# PCOD9066421 Si02
#       8
#     2   2   2   2   2   2   2   2
#     4  11  26  49  71 108 148 196 242 302 370 445
#     4  12  30  46  75 109 149 195 244 307 372 440
#     4  11  25  45  77  98 149 188 245 295 370 440
#     4  12  26  47  75 106 143 200 242 304 371 439
#     4  12  28  49  74 109 149 192 254 302 372 441
#     4  12  29  47  74 111 148 195 249 304 372 438
#     4  12  27  47  71 109 143 194 246 297 373 439
#     4  12  27  49  76 106 149 197 247 309 367 440
#
# _framework density 21.400161000000001
#
# number of rings (size 3 to 8) (size 9 to 14) (size 15 to 20)
#    0.000    0.250    5.000    2.250   12.250    1.500 
#    0.000    0.000    0.000    0.000    0.000    0.000 
#    0.000    0.000    0.000    0.000    0.000    0.000 
#
# Total GULP energy -89415.365307 kJ/mol
# GULP energy per Si atom -5588.460332 kJ/mol
# Density = 2.135145 g / cm^3
# Si number density = 21.400161 Si / 1000 Ang^3
#
#
#
# Elastic Constant Matrix: (Units=GPa)
#
#
# Indices 1 2 3 4 5 6 
#
# 1 72.3091 35.7359 18.8924 1.8783 11.1798 -10.5551
# 2 35.7359 126.4521 74.4833 -3.1337 2.1979 -10.6272
# 3 18.8924 74.4833 142.2202 1.3687 23.2212 -14.6233
# 4 1.8783 -3.1337 1.3687 36.8804 3.5101 6.3568
# 5 11.1798 2.1979 23.2212 3.5101 31.1275 4.6131
# 6 -10.5551 -10.6272 -14.6233 6.3568 4.6131 42.8532
#
#
#
# Elastic Compliance Matrix: (Units=1/GPa)
#
#
# Indices 1 2 3 4 5 6 
#
# 1 0.018374 -0.006338 0.002870 -0.001621 -0.008870 0.005128
# 2 -0.006338 0.014145 -0.007956 0.001428 0.007313 -0.001767
# 3 0.002870 -0.007956 0.013044 -0.001059 -0.010747 0.004499
# 4 -0.001621 0.001428 -0.001059 0.028246 -0.001253 -0.004461
# 5 -0.008870 0.007313 -0.010747 -0.001253 0.044231 -0.008614
# 6 0.005128 -0.001767 0.004499 -0.004461 -0.008614 0.027285
#
#
# Mechanical properties :
#
#
# Convention : Reuss Voigt Hill
#
# Bulk Modulus (GPa) = 44.02267 66.57827 55.30047
# Shear Modulus (GPa) = 28.45034 36.29685 32.37359
#
# Velocity S-wave (km/s) = 3.65011 4.12284 3.89366
# Velocity P-wave (km/s) = 6.19518 7.33774 6.79053
#
# Compressibility (1/GPa) = 0.02271557
#
# Stress axis : x y z
#
# Youngs Moduli (GPa) = 54.42454 70.69591 76.66191
#
# Poissons Ratio (x) = 0.44806 -0.21999
# Poissons Ratio (y) = 0.34493 0.60990
# Poissons Ratio (z) = -0.15618 0.56243
#
# Static dielectric constant tensor:
#      x y z
#    x 1.843890 0.516500 -0.151640 
#    y 0.516500 3.523530 -0.031320 
#    z -0.151640 -0.031320 1.498410 
# 
# From -- ./inp_files/333656.got.cif
#   From: 2010.05.17/outbox.cif.g08.bks.cpg/sg2_167_cif.got.tgz:333656.got - 2010.06.03 11:33:40.
