data_PCOD9066980
_publ_section_title
;
Structure prediction by ZEFSAII (Michael W. Deem and Ramdas Pophale) SiO2 
 PCOD9066980
Probable space group: P -1
;
_chemical_formula_sum "Si O2"
_cell_formula_units_Z 15
_cell_length_a 9.277563
_cell_length_b 9.310788
_cell_length_c 14.905399
_cell_angle_alpha 141.284935
_cell_angle_beta 75.942166
_cell_angle_gamma 122.492410
_cell_volume 640.207370
_symmetry_space_group_name_H-M "P -1"
_symmetry_group_IT_number 2
_symmetry_cell_setting 'triclinic'
loop_
_space_group_symop_operation_xyz
x,y,z
-x,-y,-z
loop_
_atom_site_type_symbol
_atom_site_label
_atom_site_fract_x
_atom_site_fract_y
_atom_site_fract_z
Si Si1 0.312249 0.470862 0.820951
Si Si2 0.768783 0.738688 0.647668
Si Si3 0.911688 0.262618 0.998347
Si Si4 0.274480 0.194255 0.049579
Si Si5 0.298933 0.686193 0.214544
Si Si6 0.000000 0.500000 0.500000
Si Si7 0.357287 0.263850 0.530146
Si Si8 0.693792 0.909193 0.208691
O O1 0.280032 0.310676 0.654102
O O2 0.277671 0.262368 0.805159
O O3 0.196852 0.597517 0.907541
O O4 0.525835 0.717792 0.911843
O O5 0.920910 0.689122 0.624524
O O6 0.571742 0.510465 0.609006
O O7 0.738042 0.719644 0.536148
O O8 0.839711 0.046930 0.822092
O O9 0.122603 0.509054 0.093062
O O10 0.867185 0.060417 0.991679
O O11 0.248601 0.115146 0.910574
O O12 0.278554 0.474217 0.191633
O O13 0.479099 0.775190 0.176896
O O14 0.324112 0.961296 0.384977
O O15 0.794949 0.228888 0.377437
#
# Coordination Sequence:
#
# PCOD9066980 Si02
#       8
#     2   2   2   2   2   1   2   2
#     4  11  26  47  78 110 151 197 254 306 370 446
#     4  11  27  47  76 110 151 198 248 309 377 443
#     4  12  27  46  80 111 150 197 256 301 375 449
#     4  11  25  47  75 111 147 204 247 310 370 445
#     4  11  25  47  74 107 154 189 254 309 372 438
#     4  12  26  50  78 106 154 198 256 298 386 448
#     4  11  26  48  73 112 152 196 244 316 378 430
#     4  11  27  48  75 110 151 201 245 316 372 441
#
# _framework density 23.429907
#
# number of rings (size 3 to 8) (size 9 to 14) (size 15 to 20)
#    0.000    0.800    2.667    3.200    7.467    5.333 
#    0.000    0.000    0.000    0.000    0.000    0.000 
#    0.000    0.000    0.000    0.000    0.000    0.000 
#
# Total GULP energy -83872.309922 kJ/mol
# GULP energy per Si atom -5591.487328 kJ/mol
# Density = 2.337658 g / cm^3
# Si number density = 23.429907 Si / 1000 Ang^3
#
#
#
# Elastic Constant Matrix: (Units=GPa)
#
#
# Indices 1 2 3 4 5 6 
#
# 1 98.4116 12.5077 65.3929 5.9635 -2.1104 11.2144
# 2 12.5077 114.7606 67.0787 -2.1655 6.8487 -2.3770
# 3 65.3929 67.0787 161.8053 9.2276 -3.7789 2.0527
# 4 5.9635 -2.1655 9.2276 50.3065 4.2075 7.7129
# 5 -2.1104 6.8487 -3.7789 4.2075 47.4129 9.7384
# 6 11.2144 -2.3770 2.0527 7.7129 9.7384 19.0157
#
#
#
# Elastic Compliance Matrix: (Units=1/GPa)
#
#
# Indices 1 2 3 4 5 6 
#
# 1 0.015678 0.002180 -0.007130 0.000845 0.001671 -0.009402
# 2 0.002180 0.012279 -0.006132 0.001353 -0.002637 0.001713
# 3 -0.007130 -0.006132 0.011717 -0.002034 0.001192 0.002388
# 4 0.000845 0.001353 -0.002034 0.021570 -0.000463 -0.008621
# 5 0.001671 -0.002637 0.001192 -0.000463 0.024520 -0.013813
# 6 -0.009402 0.001713 0.002388 -0.008621 -0.013813 0.068660
#
#
# Mechanical properties :
#
#
# Convention : Reuss Voigt Hill
#
# Bulk Modulus (GPa) = 57.10701 73.88179 65.49440
# Shear Modulus (GPa) = 27.40862 38.68024 33.04443
#
# Velocity S-wave (km/s) = 3.42396 4.06752 3.75954
# Velocity P-wave (km/s) = 6.32913 7.32538 6.84540
#
# Compressibility (1/GPa) = 0.01751099
#
# Stress axis : x y z
#
# Youngs Moduli (GPa) = 63.78325 81.44155 85.34281
#
# Poissons Ratio (x) = -0.17757 0.60849
# Poissons Ratio (y) = -0.13907 0.52332
# Poissons Ratio (z) = 0.45477 0.49940
#
# Static dielectric constant tensor:
#      x y z
#    x 1.883350 -0.005390 0.027090 
#    y -0.005390 1.893810 0.007960 
#    z 0.027090 0.007960 1.861500 
# 
# From -- ./inp_files/495836.got.cif
#   From: 2010.05.17/outbox.cif.g08.bks.cpg/sg2_248_cif.got.tgz:495836.got - 2010.06.03 11:33:40.
