data_PCOD9066836
_publ_section_title
;
Structure prediction by ZEFSAII (Michael W. Deem and Ramdas Pophale) SiO2 
 PCOD9066836
Probable space group: P -1
;
_chemical_formula_sum "Si O2"
_cell_formula_units_Z 14
_cell_length_a 12.726013
_cell_length_b 9.371211
_cell_length_c 8.721910
_cell_angle_alpha 137.393759
_cell_angle_beta 75.781941
_cell_angle_gamma 106.756117
_cell_volume 673.347858
_symmetry_space_group_name_H-M "P -1"
_symmetry_group_IT_number 2
_symmetry_cell_setting 'triclinic'
loop_
_space_group_symop_operation_xyz
x,y,z
-x,-y,-z
loop_
_atom_site_type_symbol
_atom_site_label
_atom_site_fract_x
_atom_site_fract_y
_atom_site_fract_z
Si Si1 0.707057 0.200525 0.791809
Si Si2 0.205602 0.192675 0.414042
Si Si3 0.303060 0.877755 0.613971
Si Si4 0.393179 0.500561 0.437763
Si Si5 0.465900 0.288353 0.945784
Si Si6 0.892898 0.093509 0.060323
Si Si7 0.899427 0.478206 0.134920
O O1 0.722822 0.230745 0.627681
O O2 0.580636 0.210959 0.883016
O O3 0.735374 0.968470 0.637057
O O4 0.790432 0.368844 0.994597
O O5 0.290292 0.397208 0.492815
O O6 0.114101 0.288372 0.616381
O O7 0.161832 0.065042 0.177773
O O8 0.372663 0.730020 0.569198
O O9 0.193673 0.898983 0.765035
O O10 0.382236 0.104929 0.745757
O O11 0.500000 0.500000 0.500000
O O12 0.406165 0.353964 0.170360
O O13 0.500000 0.500000 0.000000
O O14 0.916907 0.323923 0.149331
O O15 0.000000 0.000000 0.000000
O O16 0.000000 0.500000 0.000000
#
# Coordination Sequence:
#
# PCOD9066836 Si02
#       7
#     2   2   2   2   2   2   2
#     4  11  27  43  71 102 140 180 230 281 342 413
#     4  11  25  47  68 101 138 179 229 283 345 408
#     4  12  26  46  68 107 138 180 233 278 343 414
#     4  12  25  42  72  98 142 183 222 283 342 404
#     4  12  26  43  68 105 139 181 227 277 344 406
#     4  11  27  46  71 102 136 181 234 283 340 410
#     4  11  27  47  71 100 136 181 232 283 347 405
#
# _framework density 20.791629
#
# number of rings (size 3 to 8) (size 9 to 14) (size 15 to 20)
#    0.000    0.571    4.286    2.143   10.000    4.000 
#    0.000    0.000    0.000    0.000    0.000    0.000 
#    0.000    0.000    0.000    0.000    0.000    0.000 
#
# Total GULP energy -78344.488702 kJ/mol
# GULP energy per Si atom -5596.034907 kJ/mol
# Density = 2.074431 g / cm^3
# Si number density = 20.791629 Si / 1000 Ang^3
#
#
#
# Elastic Constant Matrix: (Units=GPa)
#
#
# Indices 1 2 3 4 5 6 
#
# 1 96.3807 29.8983 13.6480 -3.9923 -29.4365 -14.7664
# 2 29.8983 80.9194 5.9939 7.9822 -10.2010 -10.5772
# 3 13.6480 5.9939 75.0284 -6.1073 -28.9367 -2.5008
# 4 -3.9923 7.9822 -6.1073 37.9320 3.5007 -8.9169
# 5 -29.4365 -10.2010 -28.9367 3.5007 39.6713 -6.5996
# 6 -14.7664 -10.5772 -2.5008 -8.9169 -6.5996 39.3906
#
#
#
# Elastic Compliance Matrix: (Units=1/GPa)
#
#
# Indices 1 2 3 4 5 6 
#
# 1 0.017564 -0.003919 0.003985 0.004036 0.016139 0.009402
# 2 -0.003919 0.014550 -0.000124 -0.003162 0.001345 0.001939
# 3 0.003985 -0.000124 0.020257 0.003564 0.018493 0.006652
# 4 0.004036 -0.003162 0.003564 0.029626 0.003529 0.008188
# 5 0.016139 0.001345 0.018493 0.003529 0.053595 0.017364
# 6 0.009402 0.001939 0.006652 0.008188 0.017364 0.034617
#
#
# Mechanical properties :
#
#
# Convention : Reuss Voigt Hill
#
# Bulk Modulus (GPa) = 19.13685 39.04544 29.09114
# Shear Modulus (GPa) = 26.63195 36.91799 31.77497
#
# Velocity S-wave (km/s) = 3.58285 4.21838 3.91354
# Velocity P-wave (km/s) = 5.13223 6.52277 5.86883
#
# Compressibility (1/GPa) = 0.05225521
#
# Stress axis : x y z
#
# Youngs Moduli (GPa) = 56.93443 68.72745 49.36465
#
# Poissons Ratio (x) = 0.26936 -0.19670
# Poissons Ratio (y) = 0.22314 0.00610
# Poissons Ratio (z) = -0.22686 0.00849
#
# Static dielectric constant tensor:
#      x y z
#    x 1.642670 -0.006380 0.059340 
#    y -0.006380 1.738890 0.001570 
#    z 0.059340 0.001570 1.714690 
# 
# From -- ./inp_files/24245.got.cif
#   From: 2010.05.17/outbox.cif.g08.bks.cpg/sg2_13_cif.got.tgz:24245.got - 2010.06.03 11:33:40.
