data_PCOD9066046
_publ_section_title
;
Structure prediction by ZEFSAII (Michael W. Deem and Ramdas Pophale) SiO2 
 PCOD9066046
Probable space group: P -1
;
_chemical_formula_sum "Si O2"
_cell_formula_units_Z 14
_cell_length_a 9.582592
_cell_length_b 9.906945
_cell_length_c 8.541843
_cell_angle_alpha 69.462437
_cell_angle_beta 72.575326
_cell_angle_gamma 63.973525
_cell_volume 672.086110
_symmetry_space_group_name_H-M "P -1"
_symmetry_group_IT_number 2
_symmetry_cell_setting 'triclinic'
loop_
_space_group_symop_operation_xyz
x,y,z
-x,-y,-z
loop_
_atom_site_type_symbol
_atom_site_label
_atom_site_fract_x
_atom_site_fract_y
_atom_site_fract_z
Si Si1 0.910280 0.395457 0.140882
Si Si2 0.009764 0.657690 0.499079
Si Si3 0.098017 0.082223 0.029366
Si Si4 0.714477 0.895666 0.337392
Si Si5 0.459938 0.488569 0.837295
Si Si6 0.429580 0.795444 0.556239
Si Si7 0.271529 0.788231 0.293266
O O1 0.949972 0.366393 0.322123
O O2 0.724056 0.476443 0.140821
O O3 0.978487 0.231738 0.095382
O O4 0.000000 0.500000 0.000000
O O5 0.144512 0.706244 0.354590
O O6 0.000000 0.500000 0.500000
O O7 0.845225 0.795993 0.458650
O O8 0.203909 0.955952 0.168108
O O9 0.204996 0.127043 0.849591
O O10 0.000000 0.000000 0.000000
O O11 0.569975 0.838338 0.418604
O O12 0.651820 0.075671 0.336861
O O13 0.492660 0.624415 0.677059
O O14 0.569834 0.323767 0.797848
O O15 0.500000 0.500000 0.000000
O O16 0.307776 0.802664 0.456965
#
# Coordination Sequence:
#
# PCOD9066046 Si02
#       7
#     2   2   2   2   2   2   2
#     4  12  29  46  73 107 145 187 238 293 358 425
#     4  12  26  45  73 102 144 190 243 292 350 426
#     4  12  25  47  74 105 142 188 236 294 356 428
#     4  11  25  44  73 100 142 183 241 290 357 424
#     4  12  27  46  70 103 144 183 232 292 359 423
#     4  11  25  46  70 103 139 188 234 299 353 422
#     4  12  26  45  75 100 141 188 240 290 360 416
#
# _framework density 20.830665
#
# number of rings (size 3 to 8) (size 9 to 14) (size 15 to 20)
#    0.000    0.286    2.857    5.571    8.000    1.714 
#    0.000    0.000    0.000    0.000    0.000    0.000 
#    0.000    0.000    0.000    0.000    0.000    0.000 
#
# Total GULP energy -78439.828932 kJ/mol
# GULP energy per Si atom -5602.844924 kJ/mol
# Density = 2.078325 g / cm^3
# Si number density = 20.830665 Si / 1000 Ang^3
#
#
#
# Elastic Constant Matrix: (Units=GPa)
#
#
# Indices 1 2 3 4 5 6 
#
# 1 88.0816 29.5173 7.2308 -3.3279 -7.9674 4.9924
# 2 29.5173 80.9550 -12.3097 0.6790 -13.8094 -2.7056
# 3 7.2308 -12.3097 61.1665 -5.8992 3.5360 6.8380
# 4 -3.3279 0.6790 -5.8992 35.3176 -6.6056 6.0069
# 5 -7.9674 -13.8094 3.5360 -6.6056 42.5258 2.1704
# 6 4.9924 -2.7056 6.8380 6.0069 2.1704 34.3735
#
#
#
# Elastic Compliance Matrix: (Units=1/GPa)
#
#
# Indices 1 2 3 4 5 6 
#
# 1 0.013593 -0.005152 -0.002310 0.001654 0.001440 -0.002300
# 2 -0.005152 0.015422 0.003416 0.000323 0.003758 0.000989
# 3 -0.002310 0.003416 0.018033 0.003309 -0.000128 -0.003553
# 4 0.001654 0.000323 0.003309 0.031143 0.005317 -0.006651
# 5 0.001440 0.003758 -0.000128 0.005317 0.025967 -0.002457
# 6 -0.002300 0.000989 -0.003553 -0.006651 -0.002457 0.031528
#
#
# Mechanical properties :
#
#
# Convention : Reuss Voigt Hill
#
# Bulk Modulus (GPa) = 25.67088 31.00886 28.33987
# Shear Modulus (GPa) = 31.89509 36.16104 34.02806
#
# Velocity S-wave (km/s) = 3.91725 4.17100 4.04611
# Velocity P-wave (km/s) = 5.72801 6.17371 5.95504
#
# Compressibility (1/GPa) = 0.03895465
#
# Stress axis : x y z
#
# Youngs Moduli (GPa) = 73.56967 64.84204 55.45336
#
# Poissons Ratio (x) = 0.33410 0.12811
# Poissons Ratio (y) = 0.37906 -0.18944
# Poissons Ratio (z) = 0.16997 -0.22151
#
# Static dielectric constant tensor:
#      x y z
#    x 1.658070 -0.002250 -0.058260 
#    y -0.002250 1.721090 -0.006150 
#    z -0.058260 -0.006150 1.702440 
# 
# From -- ./inp_files/157111.got.cif
#   From: 2010.05.17/outbox.cif.g08.bks.cpg/sg2_79_cif.got.tgz:157111.got - 2010.06.03 11:33:40.
