data_PCOD9066124
_publ_section_title
;
Structure prediction by ZEFSAII (Michael W. Deem and Ramdas Pophale) SiO2 
 PCOD9066124
Probable space group: P -1
;
_chemical_formula_sum "Si O2"
_cell_formula_units_Z 16
_cell_length_a 11.816619
_cell_length_b 15.071245
_cell_length_c 13.665347
_cell_angle_alpha 147.557673
_cell_angle_beta 148.245317
_cell_angle_gamma 51.676038
_cell_volume 644.818625
_symmetry_space_group_name_H-M "P -1"
_symmetry_group_IT_number 2
_symmetry_cell_setting 'triclinic'
loop_
_space_group_symop_operation_xyz
x,y,z
-x,-y,-z
loop_
_atom_site_type_symbol
_atom_site_label
_atom_site_fract_x
_atom_site_fract_y
_atom_site_fract_z
Si Si1 0.548252 0.206987 0.727798
Si Si2 0.675523 0.523644 0.487372
Si Si3 0.848519 0.933500 0.226972
Si Si4 0.269228 0.617858 0.304137
Si Si5 0.709607 0.261100 0.103183
Si Si6 0.559249 0.013774 0.932351
Si Si7 0.855190 0.791405 0.704806
Si Si8 0.070082 0.684511 0.040097
O O1 0.356989 0.247089 0.561122
O O2 0.500000 0.000000 0.500000
O O3 0.558154 0.263500 0.900031
O O4 0.800153 0.276001 0.930558
O O5 0.429017 0.503314 0.328895
O O6 0.688085 0.396727 0.293071
O O7 0.768891 0.716199 0.680022
O O8 0.843378 0.520613 0.696238
O O9 0.592720 0.876525 0.032867
O O10 0.786771 0.041668 0.190745
O O11 0.000000 0.000000 0.500000
O O12 0.972463 0.817255 0.151225
O O13 0.388468 0.808744 0.618793
O O14 0.268501 0.662062 0.230498
O O15 0.000000 0.500000 0.000000
O O16 0.965438 0.294116 0.285569
O O17 0.620271 0.075807 0.923906
O O18 0.000000 0.000000 0.000000
#
# Coordination Sequence:
#
# PCOD9066124 Si02
#       8
#     2   2   2   2   2   2   2   2
#     4  12  25  43  76 113 147 195 249 303 380 454
#     4  12  27  49  71 109 158 193 252 314 376 449
#     4  11  25  44  79 106 147 195 255 314 369 440
#     4  12  27  48  76 107 149 203 256 309 380 447
#     4  12  28  45  79 112 152 198 245 311 382 450
#     4  11  26  49  74 113 149 195 259 310 372 459
#     4  12  24  45  76 108 148 201 246 302 375 453
#     4  12  25  46  77 105 153 198 246 316 380 446
#
# _framework density 24.813177
#
# number of rings (size 3 to 8) (size 9 to 14) (size 15 to 20)
#    0.000    0.250    6.250    1.875    3.500    4.000 
#    0.000    0.000    0.000    0.000    0.000    0.000 
#    0.000    0.000    0.000    0.000    0.000    0.000 
#
# Total GULP energy -89326.924751 kJ/mol
# GULP energy per Si atom -5582.932797 kJ/mol
# Density = 2.475670 g / cm^3
# Si number density = 24.813177 Si / 1000 Ang^3
#
#
#
# Elastic Constant Matrix: (Units=GPa)
#
#
# Indices 1 2 3 4 5 6 
#
# 1 109.1995 -1.0638 42.6921 -3.9273 -8.3459 0.0978
# 2 -1.0638 64.8343 48.4453 -18.4099 0.0682 2.1025
# 3 42.6921 48.4453 129.7672 -28.4713 -22.0825 -6.1208
# 4 -3.9273 -18.4099 -28.4713 60.2520 4.4822 -11.1692
# 5 -8.3459 0.0682 -22.0825 4.4822 54.9720 -8.7598
# 6 0.0978 2.1025 -6.1208 -11.1692 -8.7598 36.9572
#
#
#
# Elastic Compliance Matrix: (Units=1/GPa)
#
#
# Indices 1 2 3 4 5 6 
#
# 1 0.011354 0.004274 -0.005747 -0.000925 -0.000784 -0.001690
# 2 0.004274 0.024467 -0.011000 0.002222 -0.004561 -0.003635
# 3 -0.005747 -0.011000 0.016038 0.004518 0.006192 0.006130
# 4 -0.000925 0.002222 0.004518 0.020585 0.001127 0.007113
# 5 -0.000784 -0.004561 0.006192 0.001127 0.021546 0.006735
# 6 -0.001690 -0.003635 0.006130 0.007113 0.006735 0.032031
#
#
# Mechanical properties :
#
#
# Convention : Reuss Voigt Hill
#
# Bulk Modulus (GPa) = 37.15812 53.77204 45.46508
# Shear Modulus (GPa) = 31.26185 44.68472 37.97328
#
# Velocity S-wave (km/s) = 3.55334 4.24824 3.91624
# Velocity P-wave (km/s) = 5.64293 6.76618 6.22992
#
# Compressibility (1/GPa) = 0.02691202
#
# Stress axis : x y z
#
# Youngs Moduli (GPa) = 88.07235 40.87114 62.35343
#
# Poissons Ratio (x) = -0.17466 0.35834
# Poissons Ratio (y) = -0.37638 0.68590
# Poissons Ratio (z) = 0.50614 0.44959
#
# Static dielectric constant tensor:
#      x y z
#    x 2.026130 0.137100 0.019460 
#    y 0.137100 2.058990 0.076360 
#    z 0.019460 0.076360 2.007080 
# 
# From -- ./inp_files/523495.got.cif
#   From: 2010.05.17/outbox.cif.g08.bks.cpg/sg2_262_cif.got.tgz:523495.got - 2010.06.03 11:33:40.
