data_PCOD9066752
_publ_section_title
;
Structure prediction by ZEFSAII (Michael W. Deem and Ramdas Pophale) SiO2 
 PCOD9066752
Probable space group: P -1
;
_chemical_formula_sum "Si O2"
_cell_formula_units_Z 15
_cell_length_a 6.182373
_cell_length_b 12.400251
_cell_length_c 8.536931
_cell_angle_alpha 95.420459
_cell_angle_beta 109.417051
_cell_angle_gamma 88.480735
_cell_volume 614.474489
_symmetry_space_group_name_H-M "P -1"
_symmetry_group_IT_number 2
_symmetry_cell_setting 'triclinic'
loop_
_space_group_symop_operation_xyz
x,y,z
-x,-y,-z
loop_
_atom_site_type_symbol
_atom_site_label
_atom_site_fract_x
_atom_site_fract_y
_atom_site_fract_z
Si Si1 0.993505 0.042064 0.681003
Si Si2 0.406285 0.121989 0.968728
Si Si3 0.000000 0.500000 0.000000
Si Si4 0.836040 0.835616 0.757413
Si Si5 0.400429 0.676555 0.114552
Si Si6 0.110948 0.670030 0.612290
Si Si7 0.180296 0.455155 0.727632
Si Si8 0.602573 0.199690 0.552369
O O1 0.759739 0.107219 0.651872
O O2 0.213050 0.114579 0.785546
O O3 0.990107 0.941995 0.785243
O O4 0.000000 0.000000 0.500000
O O5 0.585002 0.213847 0.969258
O O6 0.279776 0.162768 0.100920
O O7 0.500000 0.000000 0.000000
O O8 0.184235 0.600023 0.026514
O O9 0.022821 0.519701 0.197915
O O10 0.981482 0.732719 0.726978
O O11 0.635006 0.842994 0.579605
O O12 0.630885 0.606722 0.132871
O O13 0.419691 0.712256 0.305396
O O14 0.919008 0.617888 0.445154
O O15 0.263284 0.569309 0.692579
O O16 0.258536 0.752314 0.555361
#
# Coordination Sequence:
#
# PCOD9066752 Si02
#       8
#     2   2   1   2   2   2   2   2
#     4  12  24  47  78 109 154 198 252 307 387 456
#     4  12  29  50  77 117 156 197 255 319 384 457
#     4  12  28  46  76 104 150 202 254 316 376 440
#     4  12  26  46  77 112 153 203 252 318 379 451
#     4  12  27  50  76 108 155 198 258 311 386 452
#     4  11  25  46  75 107 148 195 259 307 382 446
#     4  11  26  48  70 110 145 200 253 315 376 453
#     4  12  24  47  77 108 149 204 248 314 377 465
#
# _framework density 24.411104000000002
#
# number of rings (size 3 to 8) (size 9 to 14) (size 15 to 20)
#    0.000    0.267    4.000    4.400    3.733    1.600 
#    0.000    0.000    0.000    0.000    0.000    0.000 
#    0.000    0.000    0.000    0.000    0.000    0.000 
#
# Total GULP energy -83816.755065 kJ/mol
# GULP energy per Si atom -5587.783671 kJ/mol
# Density = 2.435554 g / cm^3
# Si number density = 24.411104 Si / 1000 Ang^3
#
#
#
# Elastic Constant Matrix: (Units=GPa)
#
#
# Indices 1 2 3 4 5 6 
#
# 1 53.2242 46.9908 28.9038 5.1190 2.9769 20.2458
# 2 46.9908 147.2878 19.3361 -5.1195 8.1111 19.0679
# 3 28.9038 19.3361 123.6057 14.5933 -8.9193 12.7498
# 4 5.1190 -5.1195 14.5933 37.9512 2.8784 7.4114
# 5 2.9769 8.1111 -8.9193 2.8784 53.6756 -2.1348
# 6 20.2458 19.0679 12.7498 7.4114 -2.1348 41.4420
#
#
#
# Elastic Compliance Matrix: (Units=1/GPa)
#
#
# Indices 1 2 3 4 5 6 
#
# 1 0.033558 -0.008573 -0.005374 -0.001402 -0.001807 -0.010639
# 2 -0.008573 0.009775 0.000170 0.002673 -0.001153 -0.000899
# 3 -0.005374 0.000170 0.009831 -0.003232 0.002088 0.000208
# 4 -0.001402 0.002673 -0.003232 0.029304 -0.002630 -0.004927
# 5 -0.001807 -0.001153 0.002088 -0.002630 0.019482 0.002245
# 6 -0.010639 -0.000899 0.000208 -0.004927 0.002245 0.030674
#
#
# Mechanical properties :
#
#
# Convention : Reuss Voigt Hill
#
# Bulk Modulus (GPa) = 39.04664 57.17548 48.11106
# Shear Modulus (GPa) = 29.63581 41.87287 35.75434
#
# Velocity S-wave (km/s) = 3.48807 4.14614 3.83126
# Velocity P-wave (km/s) = 5.67912 6.81127 6.27079
#
# Compressibility (1/GPa) = 0.02561040
#
# Stress axis : x y z
#
# Youngs Moduli (GPa) = 29.79882 102.30126 101.71933
#
# Poissons Ratio (x) = 0.87702 0.54660
# Poissons Ratio (y) = 0.25546 -0.01725
# Poissons Ratio (z) = 0.16013 -0.01734
#
# Static dielectric constant tensor:
#      x y z
#    x 1.989710 -0.082680 -0.026820 
#    y -0.082680 1.948730 -0.007500 
#    z -0.026820 -0.007500 1.959620 
# 
# From -- ./inp_files/60475.got.cif
#   From: 2010.05.17/outbox.cif.g08.bks.cpg/sg2_31_cif.got.tgz:60475.got - 2010.06.03 11:33:40.
