data_PCOD9066868
_publ_section_title
;
Structure prediction by ZEFSAII (Michael W. Deem and Ramdas Pophale) SiO2 
 PCOD9066868
Probable space group: P -1
;
_chemical_formula_sum "Si O2"
_cell_formula_units_Z 16
_cell_length_a 20.506353
_cell_length_b 5.138729
_cell_length_c 8.789161
_cell_angle_alpha 85.596537
_cell_angle_beta 124.405335
_cell_angle_gamma 70.298078
_cell_volume 675.486203
_symmetry_space_group_name_H-M "P -1"
_symmetry_group_IT_number 2
_symmetry_cell_setting 'triclinic'
loop_
_space_group_symop_operation_xyz
x,y,z
-x,-y,-z
loop_
_atom_site_type_symbol
_atom_site_label
_atom_site_fract_x
_atom_site_fract_y
_atom_site_fract_z
Si Si1 0.867861 0.714445 0.940324
Si Si2 0.316433 0.369528 0.666560
Si Si3 0.856528 0.256418 0.419684
Si Si4 0.040184 0.113363 0.178040
Si Si5 0.895580 0.709399 0.305529
Si Si6 0.404572 0.712221 0.935137
Si Si7 0.309645 0.347566 0.303832
Si Si8 0.402212 0.714367 0.294863
O O1 0.873668 0.880313 0.787256
O O2 0.790250 0.618662 0.830984
O O3 0.865998 0.858730 0.094426
O O4 0.965473 0.438817 0.097692
O O5 0.211926 0.529166 0.556115
O O6 0.345434 0.569371 0.797907
O O7 0.334739 0.357329 0.512722
O O8 0.366091 0.040322 0.807507
O O9 0.857903 0.474229 0.283911
O O10 0.944620 0.082547 0.644651
O O11 0.849792 0.979814 0.350707
O O12 0.000000 0.000000 0.000000
O O13 0.000000 0.500000 0.500000
O O14 0.500000 0.500000 0.000000
O O15 0.408329 0.725268 0.120894
O O16 0.333198 0.585312 0.245790
O O17 0.367718 0.032188 0.313894
O O18 0.500000 0.500000 0.500000
#
# Coordination Sequence:
#
# PCOD9066868 Si02
#       8
#     2   2   2   2   2   2   2   2
#     4  11  28  44  73 107 151 195 263 308 381 437
#     4  12  27  48  74 112 148 196 246 306 374 451
#     4  12  28  45  73 101 151 190 253 302 375 439
#     4  11  25  47  71 102 147 207 250 310 371 450
#     4  12  26  47  69 103 142 202 246 314 365 440
#     4  12  27  51  81 110 150 196 242 304 380 463
#     4  12  28  47  78 113 152 194 253 316 373 447
#     4  12  28  52  79 113 151 194 244 308 383 459
#
# _framework density 23.686641999999999
#
# number of rings (size 3 to 8) (size 9 to 14) (size 15 to 20)
#    0.000    0.250    1.250    6.375   15.750    0.000 
#    0.000    0.000    0.000    0.000    0.000    0.000 
#    0.000    0.000    0.000    0.000    0.000    0.000 
#
# Total GULP energy -89531.971074 kJ/mol
# GULP energy per Si atom -5595.748192 kJ/mol
# Density = 2.363273 g / cm^3
# Si number density = 23.686642 Si / 1000 Ang^3
#
#
#
# Elastic Constant Matrix: (Units=GPa)
#
#
# Indices 1 2 3 4 5 6 
#
# 1 70.2340 7.4426 8.9296 -8.2504 -11.9114 -16.0059
# 2 7.4426 145.6742 18.0333 -10.7294 -11.9965 -19.2003
# 3 8.9296 18.0333 70.8639 1.3036 -17.3705 -24.4752
# 4 -8.2504 -10.7294 1.3036 42.5846 -0.6445 -8.2855
# 5 -11.9114 -11.9965 -17.3705 -0.6445 33.5434 13.4940
# 6 -16.0059 -19.2003 -24.4752 -8.2855 13.4940 38.0770
#
#
#
# Elastic Compliance Matrix: (Units=1/GPa)
#
#
# Indices 1 2 3 4 5 6 
#
# 1 0.017102 0.000729 0.001323 0.005102 0.003835 0.008158
# 2 0.000729 0.007740 -0.000377 0.002934 0.001208 0.004178
# 3 0.001323 -0.000377 0.019273 0.001812 0.005902 0.011057
# 4 0.005102 0.002934 0.001812 0.027239 0.000014 0.010711
# 5 0.003835 0.001208 0.005902 0.000014 0.037603 -0.007308
# 6 0.008158 0.004178 0.011057 0.010711 -0.007308 0.043827
#
#
# Mechanical properties :
#
#
# Convention : Reuss Voigt Hill
#
# Bulk Modulus (GPa) = 21.06720 39.50925 30.28823
# Shear Modulus (GPa) = 30.25657 39.66545 34.96101
#
# Velocity S-wave (km/s) = 3.57791 4.09662 3.84602
# Velocity P-wave (km/s) = 5.09725 6.25240 5.70414
#
# Compressibility (1/GPa) = 0.04746716
#
# Stress axis : x y z
#
# Youngs Moduli (GPa) = 58.47438 129.19508 51.88562
#
# Poissons Ratio (x) = -0.09422 -0.06866
# Poissons Ratio (y) = -0.04265 0.01954
# Poissons Ratio (z) = -0.07738 0.04864
#
# Static dielectric constant tensor:
#      x y z
#    x 2.127370 -0.028770 0.051000 
#    y -0.028770 1.856340 0.038470 
#    z 0.051000 0.038470 1.966650 
# 
# From -- ./inp_files/339731.got.cif
#   From: 2010.05.17/outbox.cif.g08.bks.cpg/sg2_170_cif.got.tgz:339731.got - 2010.06.03 11:33:40.
