data_PCOD9066750
_publ_section_title
;
Structure prediction by ZEFSAII (Michael W. Deem and Ramdas Pophale) SiO2 
 PCOD9066750
Probable space group: P -1
;
_chemical_formula_sum "Si O2"
_cell_formula_units_Z 12
_cell_length_a 9.040378
_cell_length_b 6.521531
_cell_length_c 12.184984
_cell_angle_alpha 128.913025
_cell_angle_beta 77.980002
_cell_angle_gamma 74.264425
_cell_volume 464.222288
_symmetry_space_group_name_H-M "P -1"
_symmetry_group_IT_number 2
_symmetry_cell_setting 'triclinic'
loop_
_space_group_symop_operation_xyz
x,y,z
-x,-y,-z
loop_
_atom_site_type_symbol
_atom_site_label
_atom_site_fract_x
_atom_site_fract_y
_atom_site_fract_z
Si Si1 0.901751 0.174420 0.463264
Si Si2 0.113587 0.226618 0.266773
Si Si3 0.845568 0.334636 0.177493
Si Si4 0.618377 0.993207 0.377411
Si Si5 0.541657 0.216392 0.230716
Si Si6 0.495271 0.708925 0.973446
O O1 0.838820 0.537498 0.607132
O O2 0.050970 0.064979 0.308701
O O3 0.743656 0.122404 0.437129
O O4 0.000000 0.000000 0.500000
O O5 0.944747 0.424629 0.281371
O O6 0.284451 0.968770 0.089246
O O7 0.747660 0.624592 0.207753
O O8 0.700441 0.279813 0.236421
O O9 0.000000 0.000000 0.000000
O O10 0.500000 0.000000 0.500000
O O11 0.504444 0.180772 0.351924
O O12 0.442089 0.419180 0.202386
O O13 0.588998 0.884911 0.062918
O O14 0.500000 0.500000 0.000000
#
# Coordination Sequence:
#
# PCOD9066750 Si02
#       6
#     2   2   2   2   2   2
#     4  11  25  47  72 108 149 203 250 310 374 455
#     4  11  25  46  75 106 149 194 260 313 378 449
#     4  12  25  48  74 114 147 192 257 317 381 448
#     4  12  29  48  77 113 159 207 252 305 384 463
#     4  11  26  47  73 110 154 199 252 319 380 453
#     4  11  26  48  74 110 149 198 256 319 388 448
#
# _framework density 25.849688
#
# number of rings (size 3 to 8) (size 9 to 14) (size 15 to 20)
#    0.000    0.667    5.000    1.000    4.667    5.333 
#    0.000    0.000    0.000    0.000    0.000    0.000 
#    0.000    0.000    0.000    0.000    0.000    0.000 
#
# Total GULP energy -67105.477627 kJ/mol
# GULP energy per Si atom -5592.123136 kJ/mol
# Density = 2.579085 g / cm^3
# Si number density = 25.849688 Si / 1000 Ang^3
#
#
#
# Elastic Constant Matrix: (Units=GPa)
#
#
# Indices 1 2 3 4 5 6 
#
# 1 160.3940 72.1437 40.8149 -17.8465 26.1653 15.9760
# 2 72.1437 187.6015 53.6749 -35.8985 7.7715 1.7707
# 3 40.8149 53.6749 105.0221 -24.9639 6.8821 6.2751
# 4 -17.8465 -35.8985 -24.9639 60.7270 6.8681 0.8167
# 5 26.1653 7.7715 6.8821 6.8681 40.0410 -4.5052
# 6 15.9760 1.7707 6.2751 0.8167 -4.5052 52.0205
#
#
#
# Elastic Compliance Matrix: (Units=1/GPa)
#
#
# Indices 1 2 3 4 5 6 
#
# 1 0.009153 -0.002618 -0.001348 0.001286 -0.005809 -0.003083
# 2 -0.002618 0.007470 -0.002227 0.002690 0.000272 0.000800
# 3 -0.001348 -0.002227 0.012180 0.003480 -0.001508 -0.001165
# 4 0.001286 0.002690 0.003480 0.020531 -0.005676 -0.001720
# 5 -0.005809 0.000272 -0.001508 -0.005676 0.030477 0.004685
# 6 -0.003083 0.000800 -0.001165 -0.001720 0.004685 0.020716
#
#
# Mechanical properties :
#
#
# Convention : Reuss Voigt Hill
#
# Bulk Modulus (GPa) = 60.91557 87.36496 74.14027
# Shear Modulus (GPa) = 42.23469 49.64997 45.94233
#
# Velocity S-wave (km/s) = 4.04648 4.38735 4.22036
# Velocity P-wave (km/s) = 6.74155 7.71595 7.24515
#
# Compressibility (1/GPa) = 0.01641616
#
# Stress axis : x y z
#
# Youngs Moduli (GPa) = 109.25126 133.86446 82.10448
#
# Poissons Ratio (x) = 0.35049 0.11072
# Poissons Ratio (y) = 0.28605 0.18282
# Poissons Ratio (z) = 0.14733 0.29807
#
# Static dielectric constant tensor:
#      x y z
#    x 2.128540 -0.079550 -0.161730 
#    y -0.079550 2.084010 0.108120 
#    z -0.161730 0.108120 2.362780 
# 
# From -- ./inp_files/373263.got.cif
#   From: 2010.05.17/outbox.cif.g08.bks.cpg/sg2_187_cif.got.tgz:373263.got - 2010.06.03 11:33:40.
