data_PCOD9066403
_publ_section_title
;
Structure prediction by ZEFSAII (Michael W. Deem and Ramdas Pophale) SiO2 
 PCOD9066403
Probable space group: P -1
;
_chemical_formula_sum "Si O2"
_cell_formula_units_Z 12
_cell_length_a 9.337697
_cell_length_b 14.326854
_cell_length_c 6.975017
_cell_angle_alpha 102.812223
_cell_angle_beta 46.407299
_cell_angle_gamma 70.764100
_cell_volume 481.329256
_symmetry_space_group_name_H-M "P -1"
_symmetry_group_IT_number 2
_symmetry_cell_setting 'triclinic'
loop_
_space_group_symop_operation_xyz
x,y,z
-x,-y,-z
loop_
_atom_site_type_symbol
_atom_site_label
_atom_site_fract_x
_atom_site_fract_y
_atom_site_fract_z
Si Si1 0.552562 0.382806 0.494131
Si Si2 0.072853 0.563052 0.313184
Si Si3 0.515941 0.785865 0.712140
Si Si4 0.759550 0.973422 0.687925
Si Si5 0.188822 0.731474 0.442009
Si Si6 0.292944 0.901402 0.581956
O O1 0.500000 0.500000 0.500000
O O2 0.559785 0.298583 0.292711
O O3 0.825003 0.288236 0.326297
O O4 0.292271 0.454434 0.906432
O O5 0.213073 0.611940 0.295722
O O6 0.000000 0.500000 0.500000
O O7 0.799285 0.688904 0.517517
O O8 0.506506 0.835259 0.529730
O O9 0.280644 0.914783 0.107244
O O10 0.723650 0.009015 0.515398
O O11 0.991743 0.835970 0.509306
O O12 0.500000 0.000000 0.000000
O O13 0.340031 0.785758 0.369970
O O14 0.000000 0.000000 0.000000
#
# Coordination Sequence:
#
# PCOD9066403 Si02
#       6
#     2   2   2   2   2   2
#     4  11  27  46  72 105 141 192 246 291 348 426
#     4  12  27  47  73 103 145 192 241 292 356 421
#     4  11  26  47  74 105 149 184 238 300 358 429
#     4  12  26  47  74 112 145 186 232 303 371 416
#     4  11  25  45  77 102 145 185 239 294 360 419
#     4  11  26  45  73 110 144 185 237 288 362 433
#
# _framework density 24.930959000000001
#
# number of rings (size 3 to 8) (size 9 to 14) (size 15 to 20)
#    0.000    0.667    3.333    2.500    7.000    3.333 
#    3.000    0.000    0.000    0.000    0.000    0.000 
#    0.000    0.000    0.000    0.000    0.000    0.000 
#
# Total GULP energy -66870.991693 kJ/mol
# GULP energy per Si atom -5572.582641 kJ/mol
# Density = 2.487421 g / cm^3
# Si number density = 24.930959 Si / 1000 Ang^3
#
#
#
# Elastic Constant Matrix: (Units=GPa)
#
#
# Indices 1 2 3 4 5 6 
#
# 1 103.7039 63.5497 26.2667 6.7491 16.2731 -15.2375
# 2 63.5497 244.5025 64.8082 -21.5094 -4.4623 -20.0927
# 3 26.2667 64.8082 103.7663 -11.5558 -1.9117 8.2055
# 4 6.7491 -21.5094 -11.5558 45.9805 8.4654 14.9340
# 5 16.2731 -4.4623 -1.9117 8.4654 23.3695 12.9531
# 6 -15.2375 -20.0927 8.2055 14.9340 12.9531 53.9507
#
#
#
# Elastic Compliance Matrix: (Units=1/GPa)
#
#
# Indices 1 2 3 4 5 6 
#
# 1 0.016879 -0.003358 -0.003776 -0.005080 -0.016046 0.009350
# 2 -0.003358 0.005924 -0.002631 0.002011 0.002209 0.000571
# 3 -0.003776 -0.002631 0.013257 0.003738 0.005402 -0.006394
# 4 -0.005080 0.002011 0.003738 0.027335 -0.000906 -0.008603
# 5 -0.016046 0.002209 0.005402 -0.000906 0.066359 -0.020212
# 6 0.009350 0.000571 -0.006394 -0.008603 -0.020212 0.029596
#
#
# Mechanical properties :
#
#
# Convention : Reuss Voigt Hill
#
# Bulk Modulus (GPa) = 60.49029 84.58021 72.53525
# Shear Modulus (GPa) = 27.11646 44.48335 35.79990
#
# Velocity S-wave (km/s) = 3.30155 4.22863 3.79352
# Velocity P-wave (km/s) = 6.23293 7.60534 6.95308
#
# Compressibility (1/GPa) = 0.01653158
#
# Stress axis : x y z
#
# Youngs Moduli (GPa) = 59.24480 168.80493 75.43021
#
# Poissons Ratio (x) = 0.56677 0.28485
# Poissons Ratio (y) = 0.19892 0.19842
# Poissons Ratio (z) = 0.22373 0.44405
#
# Static dielectric constant tensor:
#      x y z
#    x -0.581940 0.286160 0.271700 
#    y 0.286160 2.069310 -0.017070 
#    z 0.271700 -0.017070 1.986310 
# 
# From -- ./inp_files/39145.got.cif
#   From: 2010.05.17/outbox.cif.g08.bks.cpg/sg2_20_cif.got.tgz:39145.got - 2010.06.03 11:33:40.
