data_PCOD9066338
_publ_section_title
;
Structure prediction by ZEFSAII (Michael W. Deem and Ramdas Pophale) SiO2 
 PCOD9066338
Probable space group: P -1
;
_chemical_formula_sum "Si O2"
_cell_formula_units_Z 14
_cell_length_a 18.815056
_cell_length_b 5.656834
_cell_length_c 8.437138
_cell_angle_alpha 80.769920
_cell_angle_beta 48.065991
_cell_angle_gamma 106.292582
_cell_volume 559.959259
_symmetry_space_group_name_H-M "P -1"
_symmetry_group_IT_number 2
_symmetry_cell_setting 'triclinic'
loop_
_space_group_symop_operation_xyz
x,y,z
-x,-y,-z
loop_
_atom_site_type_symbol
_atom_site_label
_atom_site_fract_x
_atom_site_fract_y
_atom_site_fract_z
Si Si1 0.714854 0.396681 0.004917
Si Si2 0.076332 0.681905 0.018734
Si Si3 0.289624 0.620041 0.665746
Si Si4 0.811179 0.806517 0.398510
Si Si5 0.463413 0.212518 0.684423
Si Si6 0.946160 0.744491 0.478628
Si Si7 0.383115 0.338042 0.101438
O O1 0.729288 0.571230 0.126068
O O2 0.631945 0.077205 0.221631
O O3 0.835005 0.482926 0.750485
O O4 0.653468 0.462934 0.951017
O O5 0.190932 0.680177 0.846054
O O6 0.118466 0.997674 0.871314
O O7 0.000000 0.500000 0.000000
O O8 0.014214 0.637364 0.284555
O O9 0.257741 0.493484 0.550663
O O10 0.425702 0.793930 0.437612
O O11 0.894597 0.845519 0.407910
O O12 0.717813 0.857947 0.607955
O O13 0.500000 0.500000 0.500000
O O14 0.402792 0.194904 0.940072
O O15 0.000000 0.000000 0.500000
O O16 0.500000 0.500000 0.000000
#
# Coordination Sequence:
#
# PCOD9066338 Si02
#       7
#     2   2   2   2   2   2   2
#     4  11  28  46  76 114 147 200 263 318 390 463
#     4  12  28  46  77 111 153 206 258 319 388 459
#     4  12  26  46  77 108 150 203 254 317 392 456
#     4  11  26  47  73 111 150 197 260 311 389 463
#     4  12  27  48  77 110 154 200 260 321 389 465
#     4  11  26  53  79 110 157 203 261 323 385 462
#     4  11  25  45  74 108 152 198 246 322 385 462
#
# _framework density 25.001816999999999
#
# number of rings (size 3 to 8) (size 9 to 14) (size 15 to 20)
#    0.000    0.571    4.286    1.714    8.000    3.429 
#    0.000    0.000    0.000    0.000    0.000    0.000 
#    0.000    0.000    0.000    0.000    0.000    0.000 
#
# Total GULP energy -78103.623905 kJ/mol
# GULP energy per Si atom -5578.830279 kJ/mol
# Density = 2.494491 g / cm^3
# Si number density = 25.001817 Si / 1000 Ang^3
#
#
#
# Elastic Constant Matrix: (Units=GPa)
#
#
# Indices 1 2 3 4 5 6 
#
# 1 162.0639 42.5265 53.0848 5.2934 -33.6332 28.3576
# 2 42.5265 89.8401 55.8016 16.7965 -17.3073 22.6270
# 3 53.0848 55.8016 191.1368 38.9903 -28.7307 8.6129
# 4 5.2934 16.7965 38.9903 49.6671 -1.0298 7.0102
# 5 -33.6332 -17.3073 -28.7307 -1.0298 56.6451 7.6171
# 6 28.3576 22.6270 8.6129 7.0102 7.6171 31.1036
#
#
#
# Elastic Compliance Matrix: (Units=1/GPa)
#
#
# Indices 1 2 3 4 5 6 
#
# 1 0.009830 -0.000132 -0.001648 0.001891 0.006394 -0.010402
# 2 -0.000132 0.017927 -0.003543 -0.001330 0.005318 -0.012943
# 3 -0.001648 -0.003543 0.007877 -0.005160 0.001478 0.002700
# 4 0.001891 -0.001330 -0.005160 0.025092 -0.000801 -0.004787
# 5 0.006394 0.005318 0.001478 -0.000801 0.026001 -0.016294
# 6 -0.010402 -0.012943 0.002700 -0.004787 -0.016294 0.055372
#
#
# Mechanical properties :
#
#
# Convention : Reuss Voigt Hill
#
# Bulk Modulus (GPa) = 40.01773 82.87407 61.44590
# Shear Modulus (GPa) = 31.04175 46.92501 38.98338
#
# Velocity S-wave (km/s) = 3.52743 4.33698 3.95298
# Velocity P-wave (km/s) = 5.71236 7.63534 6.74275
#
# Compressibility (1/GPa) = 0.02498892
#
# Stress axis : x y z
#
# Youngs Moduli (GPa) = 101.73039 55.78195 126.95272
#
# Poissons Ratio (x) = 0.00735 0.20917
# Poissons Ratio (y) = 0.01340 0.44982
# Poissons Ratio (z) = 0.16761 0.19765
#
# Static dielectric constant tensor:
#      x y z
#    x 2.076300 0.050170 0.014530 
#    y 0.050170 2.220040 0.036340 
#    z 0.014530 0.036340 1.998150 
# 
# From -- ./inp_files/340390.got.cif
#   From: 2010.05.17/outbox.cif.g08.bks.cpg/sg2_171_cif.got.tgz:340390.got - 2010.06.03 11:33:40.
