data_PCOD9066628
_publ_section_title
;
Structure prediction by ZEFSAII (Michael W. Deem and Ramdas Pophale) SiO2 
 PCOD9066628
Probable space group: P -1
;
_chemical_formula_sum "Si O2"
_cell_formula_units_Z 16
_cell_length_a 12.829113
_cell_length_b 5.522354
_cell_length_c 15.128921
_cell_angle_alpha 69.002150
_cell_angle_beta 46.044363
_cell_angle_gamma 81.254489
_cell_volume 712.861683
_symmetry_space_group_name_H-M "P -1"
_symmetry_group_IT_number 2
_symmetry_cell_setting 'triclinic'
loop_
_space_group_symop_operation_xyz
x,y,z
-x,-y,-z
loop_
_atom_site_type_symbol
_atom_site_label
_atom_site_fract_x
_atom_site_fract_y
_atom_site_fract_z
Si Si1 0.730397 0.767345 0.640019
Si Si2 0.618631 0.361981 0.897876
Si Si3 0.656731 0.206385 0.720096
Si Si4 0.059631 0.253259 0.750225
Si Si5 0.973540 0.226583 0.602129
Si Si6 0.102520 0.697970 0.791338
Si Si7 0.780173 0.560464 0.071536
Si Si8 0.745665 0.120866 0.021562
O O1 0.727679 0.594612 0.754695
O O2 0.679349 0.514326 0.639224
O O3 0.889058 0.905644 0.496396
O O4 0.627844 0.987735 0.690765
O O5 0.559717 0.196914 0.867225
O O6 0.500000 0.500000 0.000000
O O7 0.697180 0.208747 0.943396
O O8 0.808625 0.128054 0.683240
O O9 0.996704 0.263604 0.687527
O O10 0.130681 0.534984 0.708535
O O11 0.151489 0.010129 0.725163
O O12 0.923785 0.171237 0.908744
O O13 0.000000 0.500000 0.500000
O O14 0.167693 0.556986 0.853467
O O15 0.925862 0.666465 0.914254
O O16 0.696747 0.323382 0.094499
O O17 0.701683 0.812628 0.103258
#
# Coordination Sequence:
#
# PCOD9066628 Si02
#       8
#     2   2   2   2   2   2   2   2
#     4   9  20  32  48  66  97 131 163 201 241 279
#     4  10  22  35  50  71 102 137 173 208 238 281
#     4   9  19  32  47  67  93 134 162 201 234 284
#     4  10  18  28  47  68  98 127 161 188 239 301
#     4  10  18  32  49  73 102 135 166 196 239 299
#     4   9  18  30  44  69  94 126 155 198 243 290
#     4   9  18  30  47  64  95 124 160 199 241 294
#     4  10  18  30  46  68  92 130 165 194 239 291
#
# _framework density 22.444749000000002
#
# number of rings (size 3 to 8) (size 9 to 14) (size 15 to 20)
#    0.750    1.750    1.250    1.125    1.750    8.500 
#    0.000    0.000    0.000    0.000    0.000    0.000 
#    0.000    6.000    0.000    0.000    0.000    0.000 
#
# Total GULP energy -89104.808431 kJ/mol
# GULP energy per Si atom -5569.050527 kJ/mol
# Density = 2.239366 g / cm^3
# Si number density = 22.444749 Si / 1000 Ang^3
#
#
#
# Elastic Constant Matrix: (Units=GPa)
#
#
# Indices 1 2 3 4 5 6 
#
# 1 24.9254 11.1198 6.5559 -1.4473 0.1898 9.0807
# 2 11.1198 176.8622 11.8465 18.4887 6.6217 10.8184
# 3 6.5559 11.8465 51.6764 18.6331 -3.8950 7.1398
# 4 -1.4473 18.4887 18.6331 31.6985 -0.4798 7.7919
# 5 0.1898 6.6217 -3.8950 -0.4798 18.7602 -0.0794
# 6 9.0807 10.8184 7.1398 7.7919 -0.0794 26.0711
#
#
#
# Elastic Compliance Matrix: (Units=1/GPa)
#
#
# Indices 1 2 3 4 5 6 
#
# 1 0.051000 -0.002896 -0.008137 0.013287 -0.000921 -0.018307
# 2 -0.002896 0.006343 0.000207 -0.003856 -0.002268 -0.000534
# 3 -0.008137 0.000207 0.026463 -0.016048 0.005094 0.000313
# 4 0.013287 -0.003856 -0.016048 0.046935 -0.000958 -0.012663
# 5 -0.000921 -0.002268 0.005094 -0.000958 0.055148 0.000321
# 6 -0.018307 -0.000534 0.000313 -0.012663 0.000321 0.048655
#
#
# Mechanical properties :
#
#
# Convention : Reuss Voigt Hill
#
# Bulk Modulus (GPa) = 16.08929 34.72316 25.40623
# Shear Modulus (GPa) = 18.05606 30.23541 24.14573
#
# Velocity S-wave (km/s) = 2.83939 3.67427 3.28348
# Velocity P-wave (km/s) = 4.23479 5.78830 5.07139
#
# Compressibility (1/GPa) = 0.06215314
#
# Stress axis : x y z
#
# Youngs Moduli (GPa) = 19.60779 157.65195 37.78842
#
# Poissons Ratio (x) = 0.45659 0.30749
# Poissons Ratio (y) = 0.05679 -0.00781
# Poissons Ratio (z) = 0.15955 -0.03260
#
# Static dielectric constant tensor:
#      x y z
#    x 1.875830 0.059790 -0.083170 
#    y 0.059790 1.978070 0.046440 
#    z -0.083170 0.046440 1.879320 
# 
# From -- ./inp_files/123944.got.cif
#   From: 2010.05.17/outbox.cif.g08.bks.cpg/sg2_62_cif.got.tgz:123944.got - 2010.06.03 11:33:40.
