data_PCOD9066662
_publ_section_title
;
Structure prediction by ZEFSAII (Michael W. Deem and Ramdas Pophale) SiO2 
 PCOD9066662
Probable space group: P -1
;
_chemical_formula_sum "Si O2"
_cell_formula_units_Z 15
_cell_length_a 16.278254
_cell_length_b 6.754015
_cell_length_c 10.894316
_cell_angle_alpha 94.409146
_cell_angle_beta 33.620462
_cell_angle_gamma 93.817731
_cell_volume 661.216674
_symmetry_space_group_name_H-M "P -1"
_symmetry_group_IT_number 2
_symmetry_cell_setting 'triclinic'
loop_
_space_group_symop_operation_xyz
x,y,z
-x,-y,-z
loop_
_atom_site_type_symbol
_atom_site_label
_atom_site_fract_x
_atom_site_fract_y
_atom_site_fract_z
Si Si1 0.899843 0.846100 0.384657
Si Si2 0.259443 0.504210 0.578051
Si Si3 0.758111 0.223288 0.038716
Si Si4 0.017772 0.823748 0.871281
Si Si5 0.445116 0.699366 0.143873
Si Si6 0.302571 0.362240 0.787665
Si Si7 0.500000 0.000000 0.500000
Si Si8 0.285643 0.998982 0.171527
O O1 0.791330 0.693325 0.442629
O O2 0.897908 0.063251 0.336952
O O3 0.846103 0.880427 0.591939
O O4 0.066475 0.770874 0.152139
O O5 0.116654 0.642719 0.786384
O O6 0.364737 0.630110 0.364392
O O7 0.324016 0.435403 0.623716
O O8 0.703568 0.449414 0.107666
O O9 0.652436 0.119291 0.265233
O O10 0.749108 0.102755 0.918207
O O11 0.859075 0.743641 0.020629
O O12 0.000000 0.000000 0.000000
O O13 0.343150 0.827352 0.184157
O O14 0.500000 0.500000 0.000000
O O15 0.582012 0.845114 0.006633
O O16 0.429107 0.206039 0.647759
#
# Coordination Sequence:
#
# PCOD9066662 Si02
#       8
#     2   2   2   2   2   2   1   2
#     4  12  23  48  73 110 144 190 248 303 364 430
#     4  12  25  44  79 109 141 186 253 308 357 430
#     4  12  28  48  71 107 152 194 242 295 378 445
#     4  12  23  43  72 107 143 185 244 309 361 421
#     4  11  25  46  73 107 140 190 250 303 356 426
#     4  12  27  47  73 108 147 195 243 306 369 440
#     4  12  30  48  66 104 150 198 244 294 368 442
#     4  11  27  47  74 107 148 197 242 296 368 441
#
# _framework density 22.685454
#
# number of rings (size 3 to 8) (size 9 to 14) (size 15 to 20)
#    0.000    0.267    6.667    2.000    3.733    1.067 
#    0.000    1.333    0.000    0.000    0.000    0.000 
#    0.000    0.000    0.000    0.000    0.000    0.000 
#
# Total GULP energy -83728.630428 kJ/mol
# GULP energy per Si atom -5581.908695 kJ/mol
# Density = 2.263382 g / cm^3
# Si number density = 22.685454 Si / 1000 Ang^3
#
#
#
# Elastic Constant Matrix: (Units=GPa)
#
#
# Indices 1 2 3 4 5 6 
#
# 1 25.4472 4.6269 10.0093 -3.2288 13.0811 19.9921
# 2 4.6269 118.2064 32.6366 5.2821 3.5613 10.1826
# 3 10.0093 32.6366 127.9153 -4.4588 7.7460 6.0609
# 4 -3.2288 5.2821 -4.4588 58.6398 -3.3721 5.5059
# 5 13.0811 3.5613 7.7460 -3.3721 22.4893 7.9213
# 6 19.9921 10.1826 6.0609 5.5059 7.9213 31.7080
#
#
#
# Elastic Compliance Matrix: (Units=1/GPa)
#
#
# Indices 1 2 3 4 5 6 
#
# 1 0.110116 0.002783 -0.003676 0.008948 -0.040366 -0.061090
# 2 0.002783 0.009408 -0.002390 -0.000558 -0.000967 -0.003981
# 3 -0.003676 -0.002390 0.008716 0.000471 -0.000971 0.001580
# 4 0.008948 -0.000558 0.000471 0.018507 0.000640 -0.008926
# 5 -0.040366 -0.000967 -0.000971 0.000640 0.065162 0.009557
# 6 -0.061090 -0.003981 0.001580 -0.008926 0.009557 0.070194
#
#
# Mechanical properties :
#
#
# Convention : Reuss Voigt Hill
#
# Bulk Modulus (GPa) = 8.21870 40.67938 24.44904
# Shear Modulus (GPa) = 15.18712 37.52049 26.35381
#
# Velocity S-wave (km/s) = 2.59021 4.07128 3.41208
# Velocity P-wave (km/s) = 3.54631 6.33019 5.13068
#
# Compressibility (1/GPa) = 0.12167378
#
# Stress axis : x y z
#
# Youngs Moduli (GPa) = 9.08133 106.29493 114.73716
#
# Poissons Ratio (x) = -0.29587 0.42176
# Poissons Ratio (y) = -0.02528 0.27427
# Poissons Ratio (z) = 0.03338 0.25409
#
# Static dielectric constant tensor:
#      x y z
#    x 1.877740 -0.025680 -0.006600 
#    y -0.025680 1.823260 -0.015300 
#    z -0.006600 -0.015300 1.853450 
# 
# From -- ./inp_files/71056.got.cif
#   From: 2010.05.17/outbox.cif.g08.bks.cpg/sg2_36_cif.got.tgz:71056.got - 2010.06.03 11:33:40.
