data_PCOD9066353
_publ_section_title
;
Structure prediction by ZEFSAII (Michael W. Deem and Ramdas Pophale) SiO2 
 PCOD9066353
Probable space group: P -1
;
_chemical_formula_sum "Si O2"
_cell_formula_units_Z 14
_cell_length_a 12.520936
_cell_length_b 11.245128
_cell_length_c 10.863989
_cell_angle_alpha 154.687938
_cell_angle_beta 114.758488
_cell_angle_gamma 66.180739
_cell_volume 592.623228
_symmetry_space_group_name_H-M "P -1"
_symmetry_group_IT_number 2
_symmetry_cell_setting 'triclinic'
loop_
_space_group_symop_operation_xyz
x,y,z
-x,-y,-z
loop_
_atom_site_type_symbol
_atom_site_label
_atom_site_fract_x
_atom_site_fract_y
_atom_site_fract_z
Si Si1 0.682191 0.033152 0.823328
Si Si2 0.296474 0.865135 0.338039
Si Si3 0.165907 0.340725 0.850630
Si Si4 0.083998 0.579390 0.299614
Si Si5 0.484730 0.429063 0.717664
Si Si6 0.575628 0.721543 0.810552
Si Si7 0.818875 0.935821 0.039000
O O1 0.721272 0.969884 0.643640
O O2 0.591765 0.800959 0.598654
O O3 0.610141 0.331908 0.060121
O O4 0.781959 0.035397 0.977632
O O5 0.430979 0.747005 0.312900
O O6 0.252045 0.066173 0.616291
O O7 0.220772 0.597803 0.050429
O O8 0.042534 0.283063 0.672402
O O9 0.137300 0.450141 0.076694
O O10 0.154935 0.809253 0.620279
O O11 0.077873 0.308180 0.130313
O O12 0.570090 0.599885 0.831958
O O13 0.500000 0.500000 0.500000
O O14 0.705964 0.778071 0.885096
O O15 0.500000 0.000000 0.000000
#
# Coordination Sequence:
#
# PCOD9066353 Si02
#       7
#     2   2   2   2   2   2   2
#     4  12  25  43  66 101 145 182 227 272 330 426
#     4  12  25  44  71  99 135 187 233 280 334 399
#     4  11  25  48  70 100 131 170 244 294 335 399
#     4  11  25  45  74  98 130 178 225 294 356 398
#     4  12  23  43  66  98 140 188 225 276 336 400
#     4  12  22  39  62  99 140 173 218 275 328 404
#     4  12  23  42  68 103 139 178 219 279 355 405
#
# _framework density 23.62378
#
# number of rings (size 3 to 8) (size 9 to 14) (size 15 to 20)
#    0.000    0.286    2.857    6.857    0.000    4.571 
#    0.000    4.286    0.000    0.000    0.000    0.000 
#    0.000    0.000    0.000    0.000    0.000    0.000 
#
# Total GULP energy -78321.723064 kJ/mol
# GULP energy per Si atom -5594.408790 kJ/mol
# Density = 2.357001 g / cm^3
# Si number density = 23.623780 Si / 1000 Ang^3
#
#
#
# Elastic Constant Matrix: (Units=GPa)
#
#
# Indices 1 2 3 4 5 6 
#
# 1 15.9270 19.1930 13.6827 -4.1558 4.1760 -5.5028
# 2 19.1930 143.5143 41.4204 -14.6053 3.2593 -6.9142
# 3 13.6827 41.4204 171.4209 -1.9874 7.9084 -12.2101
# 4 -4.1558 -14.6053 -1.9874 46.9477 -9.2716 2.7081
# 5 4.1760 3.2593 7.9084 -9.2716 27.9294 3.7523
# 6 -5.5028 -6.9142 -12.2101 2.7081 3.7523 32.9054
#
#
#
# Elastic Compliance Matrix: (Units=1/GPa)
#
#
# Indices 1 2 3 4 5 6 
#
# 1 0.084441 -0.009420 -0.003028 0.001366 -0.011862 0.012259
# 2 -0.009420 0.008809 -0.001471 0.002199 0.001612 -0.000635
# 3 -0.003028 -0.001471 0.006642 -0.000915 -0.001820 0.001932
# 4 0.001366 0.002199 -0.000915 0.023800 0.008038 -0.002524
# 5 -0.011862 0.001612 -0.001820 0.008038 0.041612 -0.007727
# 6 0.012259 -0.000635 0.001932 -0.002524 -0.007727 0.034112
#
#
# Mechanical properties :
#
#
# Convention : Reuss Voigt Hill
#
# Bulk Modulus (GPa) = 13.87828 53.27270 33.57549
# Shear Modulus (GPa) = 19.89887 38.66091 29.27989
#
# Velocity S-wave (km/s) = 2.90543 4.04979 3.52437
# Velocity P-wave (km/s) = 4.14039 6.66837 5.55022
#
# Compressibility (1/GPa) = 0.07205501
#
# Stress axis : x y z
#
# Youngs Moduli (GPa) = 11.84256 113.52260 150.56686
#
# Poissons Ratio (x) = 1.06938 0.45586
# Poissons Ratio (y) = 0.11156 0.22144
# Poissons Ratio (z) = 0.03585 0.16696
#
# Static dielectric constant tensor:
#      x y z
#    x 1.928120 0.016540 -0.042730 
#    y 0.016540 1.984450 -0.012360 
#    z -0.042730 -0.012360 1.853970 
# 
# From -- ./inp_files/452722.got.cif
#   From: 2010.05.17/outbox.cif.g08.bks.cpg/sg2_227_cif.got.tgz:452722.got - 2010.06.03 11:33:40.
