data_PCOD9066708
_publ_section_title
;
Structure prediction by ZEFSAII (Michael W. Deem and Ramdas Pophale) SiO2 
 PCOD9066708
Probable space group: P -1
;
_chemical_formula_sum "Si O2"
_cell_formula_units_Z 16
_cell_length_a 9.051161
_cell_length_b 9.034325
_cell_length_c 14.446532
_cell_angle_alpha 43.212422
_cell_angle_beta 90.111158
_cell_angle_gamma 99.477654
_cell_volume 785.521025
_symmetry_space_group_name_H-M "P -1"
_symmetry_group_IT_number 2
_symmetry_cell_setting 'triclinic'
loop_
_space_group_symop_operation_xyz
x,y,z
-x,-y,-z
loop_
_atom_site_type_symbol
_atom_site_label
_atom_site_fract_x
_atom_site_fract_y
_atom_site_fract_z
Si Si1 0.416001 0.779997 0.652216
Si Si2 0.594405 0.745812 0.856582
Si Si3 0.937892 0.207979 0.370062
Si Si4 0.946241 0.717371 0.871954
Si Si5 0.959870 0.916767 0.142690
Si Si6 0.607488 0.254288 0.653060
Si Si7 0.082145 0.543831 0.379241
Si Si8 0.352596 0.444418 0.654923
O O1 0.507001 0.774275 0.748837
O O2 0.239652 0.796522 0.645303
O O3 0.422816 0.557618 0.697757
O O4 0.500000 0.000000 0.500000
O O5 0.768399 0.721422 0.871330
O O6 0.600704 0.993174 0.787837
O O7 0.500000 0.500000 0.000000
O O8 0.008286 0.249076 0.249936
O O9 0.997908 0.384818 0.371284
O O10 0.000000 0.000000 0.500000
O O11 0.033671 0.895766 0.865803
O O12 0.000000 0.500000 0.000000
O O13 0.804677 0.726291 0.241048
O O14 0.083954 0.790945 0.234771
O O15 0.000000 0.000000 0.000000
O O16 0.739633 0.440307 0.619394
O O17 0.450748 0.304740 0.662637
O O18 0.648155 0.340214 0.508319
O O19 0.000000 0.500000 0.500000
#
# Coordination Sequence:
#
# PCOD9066708 Si02
#       8
#     2   2   2   2   2   2   2   2
#     4  12  25  46  70 105 150 186 239 298 364 440
#     4  12  28  47  72 104 150 193 234 302 372 433
#     4  12  27  42  75 109 141 191 243 301 362 430
#     4  12  28  49  71 105 147 194 243 298 365 442
#     4  12  26  47  75 101 143 192 242 303 363 429
#     4  11  25  46  74 108 141 193 244 303 366 432
#     4  12  23  46  73 102 143 188 245 299 356 430
#     4  11  26  45  76 106 144 191 246 303 365 435
#
# _framework density 20.368648
#
# number of rings (size 3 to 8) (size 9 to 14) (size 15 to 20)
#    0.000    0.250    5.000    3.000    8.750    0.000 
#    0.000    1.250    0.000    0.000    0.000    0.000 
#    0.000    0.000    0.000    0.000    0.000    0.000 
#
# Total GULP energy -89141.393874 kJ/mol
# GULP energy per Si atom -5571.337117 kJ/mol
# Density = 2.032229 g / cm^3
# Si number density = 20.368648 Si / 1000 Ang^3
#
#
#
# Elastic Constant Matrix: (Units=GPa)
#
#
# Indices 1 2 3 4 5 6 
#
# 1 83.2143 34.5407 43.5586 -5.4027 -8.3802 6.6127
# 2 34.5407 145.3140 55.0057 -12.5181 -6.3819 9.7151
# 3 43.5586 55.0057 158.4431 1.1675 4.7531 -7.3043
# 4 -5.4027 -12.5181 1.1675 39.4896 -1.7706 4.5775
# 5 -8.3802 -6.3819 4.7531 -1.7706 44.4323 -2.8547
# 6 6.6127 9.7151 -7.3043 4.5775 -2.8547 37.8495
#
#
#
# Elastic Compliance Matrix: (Units=1/GPa)
#
#
# Indices 1 2 3 4 5 6 
#
# 1 0.015443 -0.001664 -0.003915 0.002190 0.002983 -0.003066
# 2 -0.001664 0.008837 -0.002797 0.003034 0.001196 -0.002794
# 3 -0.003915 -0.002797 0.008579 -0.002130 -0.001939 0.003169
# 4 0.002190 0.003034 -0.002130 0.027279 0.001860 -0.004731
# 5 0.002983 0.001196 -0.001939 0.001860 0.023544 0.000349
# 6 -0.003066 -0.002794 0.003169 -0.004731 0.000349 0.028883
#
#
# Mechanical properties :
#
#
# Convention : Reuss Voigt Hill
#
# Bulk Modulus (GPa) = 62.08840 72.57574 67.33207
# Shear Modulus (GPa) = 37.12295 41.27870 39.20082
#
# Velocity S-wave (km/s) = 4.27377 4.50664 4.39175
# Velocity P-wave (km/s) = 7.40959 7.92390 7.67105
#
# Compressibility (1/GPa) = 0.01610607
#
# Stress axis : x y z
#
# Youngs Moduli (GPa) = 64.75233 113.16353 116.56707
#
# Poissons Ratio (x) = 0.18834 0.45634
# Poissons Ratio (y) = 0.10777 0.32607
# Poissons Ratio (z) = 0.25350 0.31655
#
# Static dielectric constant tensor:
#      x y z
#    x 2.283590 1.762560 1.221920 
#    y 1.762560 7.064830 3.744340 
#    z 1.221920 3.744340 4.366070 
# 
# From -- ./inp_files/494282.got.cif
#   From: 2010.05.17/outbox.cif.g08.bks.cpg/sg2_248_cif.got.tgz:494282.got - 2010.06.03 11:33:40.
