data_PCOD9066078
_publ_section_title
;
Structure prediction by ZEFSAII (Michael W. Deem and Ramdas Pophale) SiO2 
 PCOD9066078
Probable space group: P -1
;
_chemical_formula_sum "Si O2"
_cell_formula_units_Z 14
_cell_length_a 5.360696
_cell_length_b 18.598377
_cell_length_c 6.696869
_cell_angle_alpha 75.037480
_cell_angle_beta 103.731605
_cell_angle_gamma 102.464862
_cell_volume 618.049856
_symmetry_space_group_name_H-M "P -1"
_symmetry_group_IT_number 2
_symmetry_cell_setting 'triclinic'
loop_
_space_group_symop_operation_xyz
x,y,z
-x,-y,-z
loop_
_atom_site_type_symbol
_atom_site_label
_atom_site_fract_x
_atom_site_fract_y
_atom_site_fract_z
Si Si1 0.431623 0.410523 0.530817
Si Si2 0.210834 0.071312 0.917974
Si Si3 0.705660 0.960007 0.451624
Si Si4 0.255827 0.311520 0.218537
Si Si5 0.526189 0.826666 0.760061
Si Si6 0.969471 0.202779 0.567866
Si Si7 0.935861 0.334835 0.757056
O O1 0.500000 0.500000 0.500000
O O2 0.384920 0.386887 0.304090
O O3 0.679681 0.373392 0.673956
O O4 0.177483 0.381407 0.642021
O O5 0.372928 0.043434 0.789837
O O6 0.055815 0.132643 0.744678
O O7 0.399417 0.122225 0.070374
O O8 0.000000 0.000000 0.000000
O O9 0.703253 0.876597 0.594607
O O10 0.500000 0.000000 0.500000
O O11 0.000000 0.000000 0.500000
O O12 0.423429 0.258969 0.163102
O O13 0.171426 0.260597 0.435266
O O14 0.035234 0.324834 0.009041
O O15 0.244571 0.825681 0.618103
O O16 0.871390 0.254641 0.685673
#
# Coordination Sequence:
#
# PCOD9066078 Si02
#       7
#     2   2   2   2   2   2   2
#     4  11  26  48  75 114 155 190 242 301 362 446
#     4  12  26  47  73 106 142 197 259 314 388 439
#     4  12  27  50  68 101 143 189 245 314 381 446
#     4  11  25  44  74 106 148 195 249 301 371 440
#     4  12  25  44  73  98 145 190 248 313 376 441
#     4  11  25  45  69 105 147 188 254 309 365 447
#     4  11  25  45  76 108 147 201 242 295 371 442
#
# _framework density 22.651896000000001
#
# number of rings (size 3 to 8) (size 9 to 14) (size 15 to 20)
#    0.000    0.571    5.714    1.286    2.000    2.857 
#    2.571    0.000    0.000    0.000    0.000    0.000 
#    0.000    0.000    0.000    0.000    0.000    0.000 
#
# Total GULP energy -78255.089357 kJ/mol
# GULP energy per Si atom -5589.649240 kJ/mol
# Density = 2.260034 g / cm^3
# Si number density = 22.651896 Si / 1000 Ang^3
#
#
#
# Elastic Constant Matrix: (Units=GPa)
#
#
# Indices 1 2 3 4 5 6 
#
# 1 101.3661 43.2430 28.3422 6.8227 13.2213 -6.6301
# 2 43.2430 149.8906 61.1999 36.8037 1.4149 -9.1521
# 3 28.3422 61.1999 139.0523 36.4323 22.1988 -13.3512
# 4 6.8227 36.8037 36.4323 41.6659 4.4565 2.1357
# 5 13.2213 1.4149 22.1988 4.4565 44.2836 -1.8172
# 6 -6.6301 -9.1521 -13.3512 2.1357 -1.8172 35.1769
#
#
#
# Elastic Compliance Matrix: (Units=1/GPa)
#
#
# Indices 1 2 3 4 5 6 
#
# 1 0.011947 -0.003575 -0.000881 0.002280 -0.003213 0.000683
# 2 -0.003575 0.010438 -0.002287 -0.007009 0.002657 0.001737
# 3 -0.000881 -0.002287 0.011437 -0.007552 -0.004481 0.003807
# 4 0.002280 -0.007009 -0.007552 0.036825 -0.000645 -0.006529
# 5 -0.003213 0.002657 -0.004481 -0.000645 0.025757 -0.000245
# 6 0.000683 0.001737 0.003807 -0.006529 -0.000245 0.030837
#
#
# Mechanical properties :
#
#
# Convention : Reuss Voigt Hill
#
# Bulk Modulus (GPa) = 49.16861 72.87548 61.02204
# Shear Modulus (GPa) = 33.89718 41.39353 37.64535
#
# Velocity S-wave (km/s) = 3.87258 4.27942 4.08107
# Velocity P-wave (km/s) = 6.46136 7.52726 7.01458
#
# Compressibility (1/GPa) = 0.02033818
#
# Stress axis : x y z
#
# Youngs Moduli (GPa) = 83.70496 95.80078 87.43517
#
# Poissons Ratio (x) = 0.34247 0.07699
# Poissons Ratio (y) = 0.29923 0.19992
# Poissons Ratio (z) = 0.07371 0.21905
#
# Static dielectric constant tensor:
#      x y z
#    x 1.893320 -0.011500 -0.051400 
#    y -0.011500 1.878440 -0.007200 
#    z -0.051400 -0.007200 1.915130 
# 
# From -- ./inp_files/7746.got.cif
#   From: 2010.05.17/outbox.cif.g08.bks.cpg/sg2_4_cif.got.tgz:7746.got - 2010.06.03 11:33:40.
