data_PCOD9066327
_publ_section_title
;
Structure prediction by ZEFSAII (Michael W. Deem and Ramdas Pophale) SiO2 
 PCOD9066327
Probable space group: P -1
;
_chemical_formula_sum "Si O2"
_cell_formula_units_Z 16
_cell_length_a 8.384964
_cell_length_b 9.626591
_cell_length_c 13.061464
_cell_angle_alpha 79.361437
_cell_angle_beta 103.245006
_cell_angle_gamma 48.963620
_cell_volume 688.809377
_symmetry_space_group_name_H-M "P -1"
_symmetry_group_IT_number 2
_symmetry_cell_setting 'triclinic'
loop_
_space_group_symop_operation_xyz
x,y,z
-x,-y,-z
loop_
_atom_site_type_symbol
_atom_site_label
_atom_site_fract_x
_atom_site_fract_y
_atom_site_fract_z
Si Si1 0.411812 0.623757 0.807414
Si Si2 0.015343 0.295240 0.260503
Si Si3 0.911104 0.929137 0.325408
Si Si4 0.869297 0.442693 0.449387
Si Si5 0.326910 0.857913 0.312915
Si Si6 0.884749 0.496403 0.887282
Si Si7 0.723302 0.162333 0.910016
Si Si8 0.711070 0.953942 0.088459
O O1 0.199984 0.665712 0.829290
O O2 0.630412 0.592096 0.871719
O O3 0.576715 0.391751 0.824413
O O4 0.244834 0.838534 0.690491
O O5 0.906434 0.403327 0.339257
O O6 0.106912 0.380766 0.210141
O O7 0.238297 0.048412 0.337282
O O8 0.014482 0.764362 0.449415
O O9 0.130955 0.859365 0.303590
O O10 0.757606 0.937208 0.218063
O O11 0.589340 0.637752 0.406438
O O12 0.000000 0.500000 0.500000
O O13 0.310805 0.914816 0.183310
O O14 0.051314 0.266394 0.896836
O O15 0.000000 0.500000 0.000000
O O16 0.640516 0.152469 0.007100
O O17 0.000000 0.000000 0.000000
O O18 0.500000 0.000000 0.000000
#
# Coordination Sequence:
#
# PCOD9066327 Si02
#       8
#     2   2   2   2   2   2   2   2
#     4  11  25  45  74 104 150 190 246 304 366 449
#     4  11  27  49  74 108 148 196 247 309 377 434
#     4  11  26  48  71 110 140 197 250 298 377 440
#     4  12  28  50  76 107 146 192 253 311 369 448
#     4  11  25  49  75 106 146 196 243 310 369 444
#     4  12  25  44  71 110 149 194 244 306 369 444
#     4  12  22  44  71 105 145 189 242 294 372 442
#     4  12  25  41  71 103 147 190 238 307 371 440
#
# _framework density 23.228487999999999
#
# number of rings (size 3 to 8) (size 9 to 14) (size 15 to 20)
#    0.000    0.500    3.750    3.375    3.500    3.500 
#    6.750    0.000    0.000    0.000    0.000    0.000 
#    0.000    0.000    0.000    0.000    0.000    0.000 
#
# Total GULP energy -89231.215632 kJ/mol
# GULP energy per Si atom -5576.950977 kJ/mol
# Density = 2.317562 g / cm^3
# Si number density = 23.228488 Si / 1000 Ang^3
#
#
#
# Elastic Constant Matrix: (Units=GPa)
#
#
# Indices 1 2 3 4 5 6 
#
# 1 89.0194 26.5648 43.1581 0.4958 9.8015 11.2361
# 2 26.5648 123.7721 27.3355 -28.7724 4.2078 -0.1968
# 3 43.1581 27.3355 80.6686 -10.7982 7.1769 6.9859
# 4 0.4958 -28.7724 -10.7982 36.6275 -2.3035 -0.5956
# 5 9.8015 4.2078 7.1769 -2.3035 37.6634 -4.3151
# 6 11.2361 -0.1968 6.9859 -0.5956 -4.3151 29.1949
#
#
#
# Elastic Compliance Matrix: (Units=1/GPa)
#
#
# Indices 1 2 3 4 5 6 
#
# 1 0.017138 -0.003011 -0.008084 -0.005288 -0.003515 -0.005309
# 2 -0.003011 0.010904 -0.001166 0.008322 0.000498 0.001755
# 3 -0.008084 -0.001166 0.017905 0.004386 -0.001053 -0.001247
# 4 -0.005288 0.008322 0.004386 0.035363 0.002010 0.002060
# 5 -0.003515 0.000498 -0.001053 0.002010 0.028403 0.005847
# 6 -0.005309 0.001755 -0.001247 0.002060 0.005847 0.037512
#
#
# Mechanical properties :
#
#
# Convention : Reuss Voigt Hill
#
# Bulk Modulus (GPa) = 46.67563 54.17523 50.42543
# Shear Modulus (GPa) = 27.95022 33.79060 30.87041
#
# Velocity S-wave (km/s) = 3.47259 3.81820 3.64949
# Velocity P-wave (km/s) = 6.01799 6.54305 6.28601
#
# Compressibility (1/GPa) = 0.02142446
#
# Stress axis : x y z
#
# Youngs Moduli (GPa) = 58.35054 91.71288 55.84988
#
# Poissons Ratio (x) = 0.27615 0.45148
# Poissons Ratio (y) = 0.17570 0.06513
# Poissons Ratio (z) = 0.47170 0.10695
#
# Static dielectric constant tensor:
#      x y z
#    x 1.943620 0.001210 -0.014290 
#    y 0.001210 1.882620 0.005840 
#    z -0.014290 0.005840 1.854510 
# 
# From -- ./inp_files/320359.got.cif
#   From: 2010.05.17/outbox.cif.g08.bks.cpg/sg2_161_cif.got.tgz:320359.got - 2010.06.03 11:33:40.
