data_PCOD9066632
_publ_section_title
;
Structure prediction by ZEFSAII (Michael W. Deem and Ramdas Pophale) SiO2 
 PCOD9066632
Probable space group: P -1
;
_chemical_formula_sum "Si O2"
_cell_formula_units_Z 16
_cell_length_a 8.032789
_cell_length_b 7.057287
_cell_length_c 13.953962
_cell_angle_alpha 83.407566
_cell_angle_beta 100.532686
_cell_angle_gamma 108.771038
_cell_volume 735.019224
_symmetry_space_group_name_H-M "P -1"
_symmetry_group_IT_number 2
_symmetry_cell_setting 'triclinic'
loop_
_space_group_symop_operation_xyz
x,y,z
-x,-y,-z
loop_
_atom_site_type_symbol
_atom_site_label
_atom_site_fract_x
_atom_site_fract_y
_atom_site_fract_z
Si Si1 0.546049 0.023637 0.669569
Si Si2 0.588342 0.607393 0.099698
Si Si3 0.158858 0.087893 0.383918
Si Si4 0.725315 0.402673 0.291395
Si Si5 0.279215 0.731237 0.146260
Si Si6 0.970372 0.670071 0.778885
Si Si7 0.227617 0.213949 0.596084
Si Si8 0.153624 0.958357 0.954384
O O1 0.657151 0.109792 0.771731
O O2 0.402155 0.142086 0.632620
O O3 0.695545 0.029876 0.605191
O O4 0.428435 0.794858 0.684069
O O5 0.685909 0.480308 0.178553
O O6 0.433542 0.633951 0.148665
O O7 0.717497 0.827785 0.077149
O O8 0.500000 0.500000 0.000000
O O9 0.173978 0.237291 0.287486
O O10 0.194655 0.209804 0.479327
O O11 0.956573 0.938061 0.372197
O O12 0.744084 0.576713 0.360046
O O13 0.904912 0.347205 0.295429
O O14 0.110922 0.548482 0.171128
O O15 0.248276 0.839279 0.040388
O O16 0.075612 0.822942 0.862128
O O17 0.000000 0.000000 0.000000
#
# Coordination Sequence:
#
# PCOD9066632 Si02
#       8
#     2   2   2   2   2   2   2   2
#     4  12  24  47  70 105 139 181 233 286 346 409
#     4  12  23  40  64  98 134 179 228 278 343 407
#     4  11  25  46  73 100 140 184 230 288 346 414
#     4  12  24  44  71  98 142 180 225 290 340 410
#     4  12  24  42  66  99 136 178 228 280 344 413
#     4  12  24  44  68 102 138 184 233 283 349 410
#     4  11  25  49  69 104 139 182 233 285 351 407
#     4  12  24  42  66  98 139 180 230 285 343 414
#
# _framework density 21.768135999999998
#
# number of rings (size 3 to 8) (size 9 to 14) (size 15 to 20)
#    0.000    0.250    2.500    7.875    0.000    1.000 
#    2.250    0.000    0.000    0.000    0.000    0.000 
#    0.000    0.000    0.000    0.000    0.000    0.000 
#
# Total GULP energy -89588.454725 kJ/mol
# GULP energy per Si atom -5599.278420 kJ/mol
# Density = 2.171859 g / cm^3
# Si number density = 21.768136 Si / 1000 Ang^3
#
#
#
# Elastic Constant Matrix: (Units=GPa)
#
#
# Indices 1 2 3 4 5 6 
#
# 1 110.3721 19.3148 0.5385 13.9425 -9.8632 -14.2857
# 2 19.3148 114.3344 44.4233 37.9150 7.5068 -3.4938
# 3 0.5385 44.4233 90.5685 36.1237 3.9034 -0.6847
# 4 13.9425 37.9150 36.1237 43.6669 -8.4077 -2.2635
# 5 -9.8632 7.5068 3.9034 -8.4077 32.8422 3.2960
# 6 -14.2857 -3.4938 -0.6847 -2.2635 3.2960 26.7080
#
#
#
# Elastic Compliance Matrix: (Units=1/GPa)
#
#
# Indices 1 2 3 4 5 6 
#
# 1 0.010501 -0.001492 0.001759 -0.002859 0.002055 0.004971
# 2 -0.001492 0.013916 -0.002160 -0.010985 -0.006266 0.000809
# 3 0.001759 -0.002160 0.018133 -0.014610 -0.004923 0.000492
# 4 -0.002859 -0.010985 -0.014610 0.048438 0.015909 -0.001199
# 5 0.002055 -0.006266 -0.004923 0.015909 0.037469 -0.003122
# 6 0.004971 0.000809 0.000492 -0.001199 -0.003122 0.040503
#
#
# Mechanical properties :
#
#
# Convention : Reuss Voigt Hill
#
# Bulk Modulus (GPa) = 25.79704 49.31423 37.55564
# Shear Modulus (GPa) = 26.92979 37.37664 32.15322
#
# Velocity S-wave (km/s) = 3.52109 4.14821 3.84745
# Velocity P-wave (km/s) = 5.32985 6.75626 6.08499
#
# Compressibility (1/GPa) = 0.03876413
#
# Stress axis : x y z
#
# Youngs Moduli (GPa) = 95.22918 71.85875 55.14765
#
# Poissons Ratio (x) = 0.10724 -0.09699
# Poissons Ratio (y) = 0.14211 0.11909
# Poissons Ratio (z) = -0.16749 0.15518
#
# Static dielectric constant tensor:
#      x y z
#    x 1.984500 0.052260 0.059760 
#    y 0.052260 1.925660 -0.021100 
#    z 0.059760 -0.021100 1.803430 
# 
# From -- ./inp_files/39021.got.cif
#   From: 2010.05.17/outbox.cif.g08.bks.cpg/sg2_20_cif.got.tgz:39021.got - 2010.06.03 11:33:40.
