data_PCOD9066503
_publ_section_title
;
Structure prediction by ZEFSAII (Michael W. Deem and Ramdas Pophale) SiO2 
 PCOD9066503
Probable space group: P -1
;
_chemical_formula_sum "Si O2"
_cell_formula_units_Z 14
_cell_length_a 14.379585
_cell_length_b 5.125663
_cell_length_c 8.311848
_cell_angle_alpha 96.396223
_cell_angle_beta 76.906800
_cell_angle_gamma 113.855785
_cell_volume 545.584841
_symmetry_space_group_name_H-M "P -1"
_symmetry_group_IT_number 2
_symmetry_cell_setting 'triclinic'
loop_
_space_group_symop_operation_xyz
x,y,z
-x,-y,-z
loop_
_atom_site_type_symbol
_atom_site_label
_atom_site_fract_x
_atom_site_fract_y
_atom_site_fract_z
Si Si1 0.083508 0.988524 0.164206
Si Si2 0.381275 0.460253 0.556673
Si Si3 0.026884 0.592706 0.679928
Si Si4 0.406210 0.666501 0.112327
Si Si5 0.398626 0.912442 0.800887
Si Si6 0.707262 0.915830 0.746616
Si Si7 0.786555 0.994006 0.189944
O O1 0.995536 0.676956 0.211925
O O2 0.172976 0.990487 0.252425
O O3 0.132688 0.038993 0.970615
O O4 0.043649 0.234236 0.235082
O O5 0.500000 0.500000 0.500000
O O6 0.392513 0.779435 0.617651
O O7 0.324149 0.277917 0.413365
O O8 0.304862 0.279189 0.717449
O O9 0.145254 0.805624 0.681364
O O10 0.000000 0.500000 0.500000
O O11 0.352224 0.328778 0.116922
O O12 0.507592 0.782882 0.193517
O O13 0.333322 0.829199 0.214099
O O14 0.430554 0.753503 0.922860
O O15 0.280524 0.868049 0.874183
#
# Coordination Sequence:
#
# PCOD9066503 Si02
#       7
#     2   2   2   2   2   2   2
#     4  12  27  51  79 111 150 201 255 312 377 452
#     4  12  27  45  73 112 159 200 252 314 377 449
#     4  12  29  52  79 114 152 192 255 320 383 447
#     4  11  25  46  70 105 147 198 248 305 366 457
#     4  11  26  43  74 103 153 193 259 298 379 447
#     4  12  25  46  73 105 148 195 248 304 383 432
#     4  12  28  47  78 111 151 206 254 311 381 452
#
# _framework density 25.660537000000001
#
# number of rings (size 3 to 8) (size 9 to 14) (size 15 to 20)
#    0.000    0.286    2.857    4.714    8.000    2.286 
#    0.000    0.000    0.000    0.000    0.000    0.000 
#    0.000    0.000    0.000    0.000    0.000    0.000 
#
# Total GULP energy -78414.568244 kJ/mol
# GULP energy per Si atom -5601.040589 kJ/mol
# Density = 2.560213 g / cm^3
# Si number density = 25.660537 Si / 1000 Ang^3
#
#
#
# Elastic Constant Matrix: (Units=GPa)
#
#
# Indices 1 2 3 4 5 6 
#
# 1 101.7386 29.3331 38.4864 25.9332 8.9578 14.1693
# 2 29.3331 108.0073 38.5972 0.7025 -6.1468 11.0716
# 3 38.4864 38.5972 115.8833 16.7176 4.7671 -1.2699
# 4 25.9332 0.7025 16.7176 58.7019 3.8087 2.7871
# 5 8.9578 -6.1468 4.7671 3.8087 41.1750 14.6776
# 6 14.1693 11.0716 -1.2699 2.7871 14.6776 53.6780
#
#
#
# Elastic Compliance Matrix: (Units=1/GPa)
#
#
# Indices 1 2 3 4 5 6 
#
# 1 0.013317 -0.002400 -0.002889 -0.004813 -0.001622 -0.002395
# 2 -0.002400 0.011660 -0.003529 0.001834 0.003542 -0.002919
# 3 -0.002889 -0.003529 0.011132 -0.001843 -0.001857 0.002357
# 4 -0.004813 0.001834 -0.001843 0.019686 -0.000249 -0.000106
# 5 -0.001622 0.003542 -0.001857 -0.000249 0.028282 -0.008067
# 6 -0.002395 -0.002919 0.002357 -0.000106 -0.008067 0.022131
#
#
# Mechanical properties :
#
#
# Convention : Reuss Voigt Hill
#
# Bulk Modulus (GPa) = 54.12849 59.82917 56.97883
# Shear Modulus (GPa) = 38.46114 45.32514 41.89314
#
# Velocity S-wave (km/s) = 3.87569 4.20734 4.04492
# Velocity P-wave (km/s) = 6.41622 6.85336 6.63839
#
# Compressibility (1/GPa) = 0.01847456
#
# Stress axis : x y z
#
# Youngs Moduli (GPa) = 75.09229 85.76032 89.82873
#
# Poissons Ratio (x) = 0.20581 0.25948
# Poissons Ratio (y) = 0.18021 0.31701
# Poissons Ratio (z) = 0.21691 0.30265
#
# Static dielectric constant tensor:
#      x y z
#    x 2.008850 -0.048160 -0.006120 
#    y -0.048160 2.042000 -0.034160 
#    z -0.006120 -0.034160 2.090340 
# 
# From -- ./inp_files/289137.got.cif
#   From: 2010.05.17/outbox.cif.g08.bks.cpg/sg2_145_cif.got.tgz:289137.got - 2010.06.03 11:33:40.
