data_PCOD9066122
_publ_section_title
;
Structure prediction by ZEFSAII (Michael W. Deem and Ramdas Pophale) SiO2 
 PCOD9066122
Probable space group: P -1
;
_chemical_formula_sum "Si O2"
_cell_formula_units_Z 14
_cell_length_a 11.688593
_cell_length_b 9.446777
_cell_length_c 5.025552
_cell_angle_alpha 105.996224
_cell_angle_beta 84.102670
_cell_angle_gamma 87.923152
_cell_volume 529.398826
_symmetry_space_group_name_H-M "P -1"
_symmetry_group_IT_number 2
_symmetry_cell_setting 'triclinic'
loop_
_space_group_symop_operation_xyz
x,y,z
-x,-y,-z
loop_
_atom_site_type_symbol
_atom_site_label
_atom_site_fract_x
_atom_site_fract_y
_atom_site_fract_z
Si Si1 0.389884 0.015553 0.843580
Si Si2 0.298035 0.428909 0.471942
Si Si3 0.500919 0.755466 0.432337
Si Si4 0.943833 0.665718 0.560491
Si Si5 0.320875 0.620776 0.070850
Si Si6 0.866997 0.931226 0.038020
Si Si7 0.877062 0.131003 0.654774
O O1 0.419806 0.130759 0.670763
O O2 0.394652 0.851537 0.637669
O O3 0.268128 0.067233 0.019220
O O4 0.500000 0.000000 0.000000
O O5 0.416395 0.330048 0.422826
O O6 0.183093 0.350766 0.538034
O O7 0.280724 0.495958 0.218304
O O8 0.314407 0.559638 0.745263
O O9 0.445396 0.656573 0.171946
O O10 0.919622 0.765849 0.882474
O O11 0.000000 0.500000 0.500000
O O12 0.030350 0.759216 0.418290
O O13 0.235744 0.765987 0.194526
O O14 0.915834 0.042597 0.865503
O O15 0.858131 0.009135 0.368567
#
# Coordination Sequence:
#
# PCOD9066122 Si02
#       7
#     2   2   2   2   2   2   2
#     4  11  25  44  78 110 151 203 254 319 387 463
#     4  12  29  47  77 113 157 206 257 318 396 458
#     4  11  26  46  74 113 154 202 256 319 387 466
#     4  12  29  54  81 117 159 205 265 327 390 462
#     4  12  26  49  76 114 156 206 253 318 392 470
#     4  12  28  52  81 113 156 202 263 317 392 461
#     4  12  27  53  81 113 154 208 258 321 387 462
#
# _framework density 26.44509
#
# number of rings (size 3 to 8) (size 9 to 14) (size 15 to 20)
#    0.000    0.286    2.857    4.286   10.000    1.714 
#    0.000    0.000    0.000    0.000    0.000    0.000 
#    0.000    0.000    0.000    0.000    0.000    0.000 
#
# Total GULP energy -78581.831069 kJ/mol
# GULP energy per Si atom -5612.987933 kJ/mol
# Density = 2.638490 g / cm^3
# Si number density = 26.445090 Si / 1000 Ang^3
#
#
#
# Elastic Constant Matrix: (Units=GPa)
#
#
# Indices 1 2 3 4 5 6 
#
# 1 85.5062 30.5553 13.4299 21.4385 0.9939 2.0858
# 2 30.5553 157.7167 62.4117 16.4592 -7.3116 -17.6463
# 3 13.4299 62.4117 107.2259 12.8604 2.2963 -2.3827
# 4 21.4385 16.4592 12.8604 51.2868 -4.0441 -2.3204
# 5 0.9939 -7.3116 2.2963 -4.0441 46.5019 11.2443
# 6 2.0858 -17.6463 -2.3827 -2.3204 11.2443 51.6577
#
#
#
# Elastic Compliance Matrix: (Units=1/GPa)
#
#
# Indices 1 2 3 4 5 6 
#
# 1 0.013881 -0.002466 0.000307 -0.005217 -0.000803 -0.001448
# 2 -0.002466 0.009178 -0.004938 -0.000470 0.001031 0.002761
# 3 0.000307 -0.004938 0.012385 -0.001796 -0.001328 -0.000919
# 4 -0.005217 -0.000470 -0.001796 0.022459 0.001946 0.000552
# 5 -0.000803 0.001031 -0.001328 0.001946 0.023031 -0.004603
# 6 -0.001448 0.002761 -0.000919 0.000552 -0.004603 0.021344
#
#
# Mechanical properties :
#
#
# Convention : Reuss Voigt Hill
#
# Bulk Modulus (GPa) = 47.05500 62.58253 54.81877
# Shear Modulus (GPa) = 40.46840 46.15942 43.31391
#
# Velocity S-wave (km/s) = 3.91612 4.18243 4.05146
# Velocity P-wave (km/s) = 6.18709 6.85858 6.53147
#
# Compressibility (1/GPa) = 0.02125173
#
# Stress axis : x y z
#
# Youngs Moduli (GPa) = 72.04348 108.95742 80.74308
#
# Poissons Ratio (x) = 0.26864 -0.02481
# Poissons Ratio (y) = 0.17763 0.39867
# Poissons Ratio (z) = -0.02214 0.53798
#
# Static dielectric constant tensor:
#      x y z
#    x 2.144070 0.037990 0.017320 
#    y 0.037990 2.054250 0.011070 
#    z 0.017320 0.011070 2.058730 
# 
# From -- ./inp_files/60901.got.cif
#   From: 2010.05.17/outbox.cif.g08.bks.cpg/sg2_31_cif.got.tgz:60901.got - 2010.06.03 11:33:40.
