data_PCOD9066208
_publ_section_title
;
Structure prediction by ZEFSAII (Michael W. Deem and Ramdas Pophale) SiO2 
 PCOD9066208
Probable space group: P -1
;
_chemical_formula_sum "Si O2"
_cell_formula_units_Z 16
_cell_length_a 8.886168
_cell_length_b 12.179137
_cell_length_c 11.707201
_cell_angle_alpha 58.840813
_cell_angle_beta 130.367013
_cell_angle_gamma 129.690842
_cell_volume 731.114654
_symmetry_space_group_name_H-M "P -1"
_symmetry_group_IT_number 2
_symmetry_cell_setting 'triclinic'
loop_
_space_group_symop_operation_xyz
x,y,z
-x,-y,-z
loop_
_atom_site_type_symbol
_atom_site_label
_atom_site_fract_x
_atom_site_fract_y
_atom_site_fract_z
Si Si1 0.160283 0.668728 0.179235
Si Si2 0.582179 0.129206 0.603104
Si Si3 0.200223 0.197124 0.298721
Si Si4 0.557529 0.185249 0.207154
Si Si5 0.728273 0.131342 0.084318
Si Si6 0.237137 0.403443 0.411794
Si Si7 0.308024 0.345411 0.029057
Si Si8 0.081166 0.654000 0.520293
O O1 0.355904 0.777903 0.299712
O O2 0.144650 0.512002 0.264248
O O3 0.208687 0.733491 0.041693
O O4 0.931133 0.665700 0.108501
O O5 0.361616 0.127120 0.441641
O O6 0.792680 0.218941 0.576728
O O7 0.540016 0.969053 0.695625
O O8 0.197163 0.282644 0.364527
O O9 0.299316 0.307105 0.180867
O O10 0.937877 0.096932 0.198990
O O11 0.686123 0.172602 0.167167
O O12 0.363084 0.226573 0.060472
O O13 0.729323 0.308834 0.309642
O O14 0.500000 0.000000 0.000000
O O15 0.500000 0.500000 0.500000
O O16 0.122459 0.346505 0.508866
O O17 0.500000 0.500000 0.000000
O O18 0.000000 0.500000 0.500000
#
# Coordination Sequence:
#
# PCOD9066208 Si02
#       8
#     2   2   2   2   2   2   2   2
#     4  11  25  45  71 105 149 188 247 308 360 442
#     4  12  25  48  75 111 150 186 249 314 367 439
#     4  11  25  45  75 107 145 189 249 305 366 438
#     4  12  26  49  75 104 150 198 247 302 383 426
#     4  11  25  49  71 103 150 194 245 292 367 451
#     4  12  24  44  72 109 144 191 241 303 374 424
#     4  11  27  45  71 103 146 196 247 301 365 445
#     4  12  24  45  75 108 146 187 246 307 364 436
#
# _framework density 21.884392999999999
#
# number of rings (size 3 to 8) (size 9 to 14) (size 15 to 20)
#    0.000    0.500    6.250    1.125    1.750    2.000 
#    2.250    0.000    0.000    0.000    0.000    0.000 
#    0.000    0.000    0.000    0.000    0.000    0.000 
#
# Total GULP energy -89509.166484 kJ/mol
# GULP energy per Si atom -5594.322905 kJ/mol
# Density = 2.183458 g / cm^3
# Si number density = 21.884393 Si / 1000 Ang^3
#
#
#
# Elastic Constant Matrix: (Units=GPa)
#
#
# Indices 1 2 3 4 5 6 
#
# 1 153.2881 43.5857 41.4629 -11.8655 3.2531 29.0356
# 2 43.5857 103.2174 31.5462 -11.1250 7.1542 18.7111
# 3 41.4629 31.5462 85.7662 -14.3859 14.3731 19.6941
# 4 -11.8655 -11.1250 -14.3859 44.9344 -8.1948 -1.2129
# 5 3.2531 7.1542 14.3731 -8.1948 41.9915 4.4456
# 6 29.0356 18.7111 19.6941 -1.2129 4.4456 36.9111
#
#
#
# Elastic Compliance Matrix: (Units=1/GPa)
#
#
# Indices 1 2 3 4 5 6 
#
# 1 0.008696 -0.002065 -0.002398 0.001112 0.001205 -0.004623
# 2 -0.002065 0.012047 -0.002392 0.001506 -0.000451 -0.003103
# 3 -0.002398 -0.002392 0.015960 0.003068 -0.003756 -0.004863
# 4 0.001112 0.001506 0.003068 0.024499 0.003697 -0.002915
# 5 0.001205 -0.000451 -0.003756 0.003697 0.025987 -0.001724
# 6 -0.004623 -0.003103 -0.004863 -0.002915 -0.001724 0.035008
#
#
# Mechanical properties :
#
#
# Convention : Reuss Voigt Hill
#
# Bulk Modulus (GPa) = 43.49400 63.94015 53.71707
# Shear Modulus (GPa) = 34.82593 39.81252 37.31923
#
# Velocity S-wave (km/s) = 3.99351 4.26986 4.13400
# Velocity P-wave (km/s) = 6.41730 7.32049 6.88373
#
# Compressibility (1/GPa) = 0.02299168
#
# Stress axis : x y z
#
# Youngs Moduli (GPa) = 115.00121 83.00612 62.65796
#
# Poissons Ratio (x) = 0.17137 0.15028
# Poissons Ratio (y) = 0.23743 0.14991
# Poissons Ratio (z) = 0.27582 0.19859
#
# Static dielectric constant tensor:
#      x y z
#    x 1.806910 0.014890 -0.003750 
#    y 0.014890 1.772410 0.026500 
#    z -0.003750 0.026500 1.821570 
# 
# From -- ./inp_files/274302.got.cif
#   From: 2010.05.17/outbox.cif.g08.bks.cpg/sg2_138_cif.got.tgz:274302.got - 2010.06.03 11:33:40.
