data_PCOD9066767
_publ_section_title
;
Structure prediction by ZEFSAII (Michael W. Deem and Ramdas Pophale) SiO2 
 PCOD9066767
Probable space group: P -1
;
_chemical_formula_sum "Si O2"
_cell_formula_units_Z 12
_cell_length_a 8.487458
_cell_length_b 11.627174
_cell_length_c 9.424500
_cell_angle_alpha 142.183586
_cell_angle_beta 88.613294
_cell_angle_gamma 109.187485
_cell_volume 492.048888
_symmetry_space_group_name_H-M "P -1"
_symmetry_group_IT_number 2
_symmetry_cell_setting 'triclinic'
loop_
_space_group_symop_operation_xyz
x,y,z
-x,-y,-z
loop_
_atom_site_type_symbol
_atom_site_label
_atom_site_fract_x
_atom_site_fract_y
_atom_site_fract_z
Si Si1 0.247138 0.203777 0.441411
Si Si2 0.405466 0.113044 0.788919
Si Si3 0.606890 0.323526 0.707155
Si Si4 0.123638 0.388150 0.398090
Si Si5 0.511269 0.786618 0.801122
Si Si6 0.908362 0.796845 0.085819
O O1 0.430730 0.329188 0.652981
O O2 0.128069 0.304252 0.476329
O O3 0.323289 0.173365 0.260762
O O4 0.115036 0.972953 0.293452
O O5 0.551025 0.247724 0.795834
O O6 0.213405 0.101071 0.761622
O O7 0.384581 0.875368 0.561669
O O8 0.468555 0.236769 0.056818
O O9 0.794234 0.550703 0.906669
O O10 0.330738 0.576770 0.548577
O O11 0.000000 0.500000 0.500000
O O12 0.077452 0.226531 0.108313
O O13 0.500000 0.000000 0.000000
#
# Coordination Sequence:
#
# PCOD9066767 Si02
#       6
#     2   2   2   2   2   2
#     4  12  25  43  73 105 140 183 237 291 356 416
#     4  11  25  46  76 101 143 190 236 288 353 424
#     4  11  26  50  70 104 145 188 235 291 351 422
#     4  12  26  41  70 110 144 181 236 301 350 415
#     4  12  22  44  73 104 137 185 234 291 357 415
#     4  12  25  44  73 104 143 184 236 293 352 417
#
# _framework density 24.387822
#
# number of rings (size 3 to 8) (size 9 to 14) (size 15 to 20)
#    0.000    0.333    5.000    3.500    4.667    0.667 
#    0.000    3.333    0.000    0.000    0.000    0.000 
#    0.000    0.000    0.000    0.000    0.000    0.000 
#
# Total GULP energy -67130.755152 kJ/mol
# GULP energy per Si atom -5594.229596 kJ/mol
# Density = 2.433231 g / cm^3
# Si number density = 24.387822 Si / 1000 Ang^3
#
#
#
# Elastic Constant Matrix: (Units=GPa)
#
#
# Indices 1 2 3 4 5 6 
#
# 1 78.1157 30.7449 31.2659 16.4626 -13.0531 9.1976
# 2 30.7449 128.9501 24.9109 28.7820 18.6003 7.2054
# 3 31.2659 24.9109 63.2243 20.4244 1.7666 7.2469
# 4 16.4626 28.7820 20.4244 54.8090 4.3108 1.5867
# 5 -13.0531 18.6003 1.7666 4.3108 30.5350 13.7023
# 6 9.1976 7.2054 7.2469 1.5867 13.7023 40.4790
#
#
#
# Elastic Compliance Matrix: (Units=1/GPa)
#
#
# Indices 1 2 3 4 5 6 
#
# 1 0.022420 -0.005412 -0.007776 -0.002121 0.017477 -0.008572
# 2 -0.005412 0.011186 -0.000720 -0.003284 -0.009900 0.002847
# 3 -0.007776 -0.000720 0.021779 -0.005138 -0.003079 -0.000760
# 4 -0.002121 -0.003284 -0.005138 0.022677 -0.002715 0.002017
# 5 0.017477 -0.009900 -0.003079 -0.002715 0.056017 -0.020513
# 6 -0.008572 0.002847 -0.000760 0.002017 -0.020513 0.033146
#
#
# Mechanical properties :
#
#
# Convention : Reuss Voigt Hill
#
# Bulk Modulus (GPa) = 36.27104 49.34816 42.80960
# Shear Modulus (GPa) = 24.48212 37.38917 30.93564
#
# Velocity S-wave (km/s) = 3.17182 3.91974 3.56545
# Velocity P-wave (km/s) = 5.32154 6.38471 5.87722
#
# Compressibility (1/GPa) = 0.02757021
#
# Stress axis : x y z
#
# Youngs Moduli (GPa) = 44.60209 89.39478 45.91659
#
# Poissons Ratio (x) = 0.48380 0.35703
# Poissons Ratio (y) = 0.24139 0.03306
# Poissons Ratio (z) = 0.34681 0.06436
#
# Static dielectric constant tensor:
#      x y z
#    x 2.061750 -0.125000 0.050820 
#    y -0.125000 2.003040 -0.020510 
#    z 0.050820 -0.020510 1.954970 
# 
# From -- ./inp_files/191085.got.cif
#   From: 2010.05.17/outbox.cif.g08.bks.cpg/sg2_96_cif.got.tgz:191085.got - 2010.06.03 11:33:40.
