data_PCOD9066029
_publ_section_title
;
Structure prediction by ZEFSAII (Michael W. Deem and Ramdas Pophale) SiO2 
 PCOD9066029
Probable space group: P -1
;
_chemical_formula_sum "Si O2"
_cell_formula_units_Z 14
_cell_length_a 5.345748
_cell_length_b 5.175129
_cell_length_c 20.362979
_cell_angle_alpha 97.655887
_cell_angle_beta 87.585642
_cell_angle_gamma 100.686684
_cell_volume 548.547606
_symmetry_space_group_name_H-M "P -1"
_symmetry_group_IT_number 2
_symmetry_cell_setting 'triclinic'
loop_
_space_group_symop_operation_xyz
x,y,z
-x,-y,-z
loop_
_atom_site_type_symbol
_atom_site_label
_atom_site_fract_x
_atom_site_fract_y
_atom_site_fract_z
Si Si1 0.361276 0.054904 0.699198
Si Si2 0.074537 0.504896 0.716019
Si Si3 0.619918 0.919469 0.563075
Si Si4 0.237420 0.469570 0.042421
Si Si5 0.985908 0.825096 0.847020
Si Si6 0.132869 0.551660 0.428687
Si Si7 0.437759 0.869926 0.170560
O O1 0.310044 0.753264 0.714325
O O2 0.472869 0.039676 0.626393
O O3 0.534937 0.224336 0.758209
O O4 0.127554 0.208470 0.704231
O O5 0.003525 0.567601 0.793856
O O6 0.944166 0.547008 0.648242
O O7 0.639433 0.617661 0.566399
O O8 0.500000 0.000000 0.500000
O O9 0.877837 0.134883 0.567710
O O10 0.119140 0.214244 0.078997
O O11 0.323327 0.675464 0.107366
O O12 0.500000 0.500000 0.000000
O O13 0.000000 0.500000 0.000000
O O14 0.269369 0.002386 0.848758
O O15 0.763146 0.935942 0.816617
O O16 0.000000 0.500000 0.500000
#
# Coordination Sequence:
#
# PCOD9066029 Si02
#       7
#     2   2   2   2   2   2   2
#     4  11  25  44  72 106 144 193 251 317 380 454
#     4  11  25  44  72 106 144 193 251 317 380 454
#     4  12  24  41  66  98 144 194 250 315 380 451
#     4  12  28  46  78 110 152 196 254 318 390 468
#     4  11  27  47  76 109 152 199 255 317 387 463
#     4  12  24  41  66  98 144 194 250 315 380 451
#     4  11  27  47  76 109 152 199 255 317 387 463
#
# _framework density 25.521941999999999
#
# number of rings (size 3 to 8) (size 9 to 14) (size 15 to 20)
#    0.000    0.571    0.000    6.857   12.000    3.429 
#    0.000    0.000    0.000    0.000    0.000    0.000 
#    0.000    0.000    0.000    0.000    0.000    0.000 
#
# Total GULP energy -77982.169730 kJ/mol
# GULP energy per Si atom -5570.154981 kJ/mol
# Density = 2.546385 g / cm^3
# Si number density = 25.521942 Si / 1000 Ang^3
#
#
#
# Elastic Constant Matrix: (Units=GPa)
#
#
# Indices 1 2 3 4 5 6 
#
# 1 125.3417 17.4635 61.8334 -7.9530 10.7307 -5.0112
# 2 17.4635 56.0414 20.2363 -3.0987 -0.8681 -4.7626
# 3 61.8334 20.2363 221.5150 -10.2618 2.8288 -6.7003
# 4 -7.9530 -3.0987 -10.2618 45.8873 1.4301 2.1432
# 5 10.7307 -0.8681 2.8288 1.4301 68.2824 4.1758
# 6 -5.0112 -4.7626 -6.7003 2.1432 4.1758 42.4028
#
#
#
# Elastic Compliance Matrix: (Units=1/GPa)
#
#
# Indices 1 2 3 4 5 6 
#
# 1 0.009681 -0.002054 -0.002430 0.001014 -0.001506 0.000627
# 2 -0.002054 0.019060 -0.001097 0.000593 0.000497 0.001646
# 3 -0.002430 -0.001097 0.005334 0.000676 0.000109 0.000388
# 4 0.001014 0.000593 0.000676 0.022214 -0.000598 -0.000771
# 5 -0.001506 0.000497 0.000109 -0.000598 0.014991 -0.001551
# 6 0.000627 0.001646 0.000388 -0.000771 -0.001551 0.024095
#
#
# Mechanical properties :
#
#
# Convention : Reuss Voigt Hill
#
# Bulk Modulus (GPa) = 43.63856 66.88496 55.26176
# Shear Modulus (GPa) = 43.79220 51.53882 47.66551
#
# Velocity S-wave (km/s) = 4.14679 4.49864 4.32630
# Velocity P-wave (km/s) = 6.32957 7.29708 6.83048
#
# Compressibility (1/GPa) = 0.02291551
#
# Stress axis : x y z
#
# Youngs Moduli (GPa) = 103.29253 52.46473 187.46019
#
# Poissons Ratio (x) = 0.10774 0.45546
# Poissons Ratio (y) = 0.21212 0.20566
# Poissons Ratio (z) = 0.25097 0.05756
#
# Static dielectric constant tensor:
#      x y z
#    x 2.148290 0.166030 -0.053950 
#    y 0.166030 2.272510 -0.036240 
#    z -0.053950 -0.036240 1.820760 
# 
# From -- ./inp_files/546015.got.cif
#   From: 2010.05.17/outbox.cif.g08.bks.cpg/sg2_274_cif.got.tgz:546015.got - 2010.06.03 11:33:40.
