data_PCOD9066958
_publ_section_title
;
Structure prediction by ZEFSAII (Michael W. Deem and Ramdas Pophale) SiO2 
 PCOD9066958
Probable space group: P -1
;
_chemical_formula_sum "Si O2"
_cell_formula_units_Z 14
_cell_length_a 11.016112
_cell_length_b 13.887602
_cell_length_c 7.640130
_cell_angle_alpha 63.030564
_cell_angle_beta 100.300148
_cell_angle_gamma 49.665639
_cell_volume 570.765258
_symmetry_space_group_name_H-M "P -1"
_symmetry_group_IT_number 2
_symmetry_cell_setting 'triclinic'
loop_
_space_group_symop_operation_xyz
x,y,z
-x,-y,-z
loop_
_atom_site_type_symbol
_atom_site_label
_atom_site_fract_x
_atom_site_fract_y
_atom_site_fract_z
Si Si1 0.029713 0.966978 0.745282
Si Si2 0.354209 0.608946 0.549313
Si Si3 0.395615 0.386413 0.247307
Si Si4 0.587592 0.047389 0.758239
Si Si5 0.297065 0.063033 0.759980
Si Si6 0.487076 0.296729 0.947649
Si Si7 0.921181 0.805973 0.765665
O O1 0.981390 0.874572 0.824442
O O2 0.279219 0.824036 0.959158
O O3 0.000000 0.000000 0.500000
O O4 0.864124 0.159063 0.664042
O O5 0.500000 0.500000 0.500000
O O6 0.523946 0.548571 0.770387
O O7 0.313667 0.514193 0.668570
O O8 0.503703 0.230143 0.548472
O O9 0.481800 0.289852 0.160255
O O10 0.132565 0.576245 0.028211
O O11 0.381496 0.119805 0.687040
O O12 0.706574 0.921255 0.716458
O O13 0.763766 0.904094 0.079758
O O14 0.136887 0.140006 0.499856
O O15 0.511657 0.826523 0.012699
#
# Coordination Sequence:
#
# PCOD9066958 Si02
#       7
#     2   2   2   2   2   2   2
#     4  12  21  42  68  95 138 184 225 274 345 420
#     4  12  25  39  64 105 143 180 230 289 344 413
#     4  12  24  44  70 104 140 180 235 293 337 425
#     4  11  25  50  67 100 140 178 241 286 347 412
#     4  11  25  47  73  95 138 189 227 291 347 419
#     4  12  24  41  70  99 137 186 231 274 355 413
#     4  12  24  44  73 101 137 182 231 288 353 408
#
# _framework density 24.528472000000001
#
# number of rings (size 3 to 8) (size 9 to 14) (size 15 to 20)
#    0.000    0.286    7.143    2.571    0.000    2.286 
#    2.571    1.429    0.000    0.000    0.000    0.000 
#    0.000    0.000    0.000    0.000    0.000    0.000 
#
# Total GULP energy -78227.631843 kJ/mol
# GULP energy per Si atom -5587.687989 kJ/mol
# Density = 2.447264 g / cm^3
# Si number density = 24.528472 Si / 1000 Ang^3
#
#
#
# Elastic Constant Matrix: (Units=GPa)
#
#
# Indices 1 2 3 4 5 6 
#
# 1 69.0927 23.0138 20.9985 -7.9657 -17.1427 4.4708
# 2 23.0138 125.5850 36.3051 -6.5456 0.4308 -11.9669
# 3 20.9985 36.3051 109.5197 -14.1760 -7.1796 -17.0201
# 4 -7.9657 -6.5456 -14.1760 36.4931 -6.4388 -2.1582
# 5 -17.1427 0.4308 -7.1796 -6.4388 33.1393 7.0169
# 6 4.4708 -11.9669 -17.0201 -2.1582 7.0169 38.1768
#
#
#
# Elastic Compliance Matrix: (Units=1/GPa)
#
#
# Indices 1 2 3 4 5 6 
#
# 1 0.020382 -0.003475 -0.002350 0.004710 0.012378 -0.006533
# 2 -0.003475 0.009533 -0.002281 -0.000308 -0.003096 0.002930
# 3 -0.002350 -0.002281 0.011687 0.004100 0.001127 0.004795
# 4 0.004710 -0.000308 0.004100 0.031669 0.009212 0.001277
# 5 0.012378 -0.003096 0.001127 0.009212 0.040526 -0.008845
# 6 -0.006533 0.002930 0.004795 0.001277 -0.008845 0.031713
#
#
# Mechanical properties :
#
#
# Convention : Reuss Voigt Hill
#
# Bulk Modulus (GPa) = 39.38654 51.64803 45.51728
# Shear Modulus (GPa) = 29.37962 36.48719 32.93341
#
# Velocity S-wave (km/s) = 3.46465 3.86105 3.66821
# Velocity P-wave (km/s) = 5.66545 6.40149 6.04468
#
# Compressibility (1/GPa) = 0.02538939
#
# Stress axis : x y z
#
# Youngs Moduli (GPa) = 49.06309 104.90100 85.56191
#
# Poissons Ratio (x) = 0.36455 0.20107
# Poissons Ratio (y) = 0.17050 0.19519
# Poissons Ratio (z) = 0.11530 0.23931
#
# Static dielectric constant tensor:
#      x y z
#    x 1.945700 0.026870 -0.026490 
#    y 0.026870 2.018420 0.005860 
#    z -0.026490 0.005860 2.013410 
# 
# From -- ./inp_files/269805.got.cif
#   From: 2010.05.17/outbox.cif.g08.bks.cpg/sg2_135_cif.got.tgz:269805.got - 2010.06.03 11:33:40.
