data_PCOD9066729
_publ_section_title
;
Structure prediction by ZEFSAII (Michael W. Deem and Ramdas Pophale) SiO2 
 PCOD9066729
Probable space group: P -1
;
_chemical_formula_sum "Si O2"
_cell_formula_units_Z 15
_cell_length_a 8.671074
_cell_length_b 11.671770
_cell_length_c 8.361740
_cell_angle_alpha 49.440542
_cell_angle_beta 84.399178
_cell_angle_gamma 86.103404
_cell_volume 639.853431
_symmetry_space_group_name_H-M "P -1"
_symmetry_group_IT_number 2
_symmetry_cell_setting 'triclinic'
loop_
_space_group_symop_operation_xyz
x,y,z
-x,-y,-z
loop_
_atom_site_type_symbol
_atom_site_label
_atom_site_fract_x
_atom_site_fract_y
_atom_site_fract_z
Si Si1 0.756721 0.362242 0.114423
Si Si2 0.797164 0.507148 0.327317
Si Si3 0.251759 0.151669 0.677346
Si Si4 0.969361 0.082130 0.261456
Si Si5 0.451573 0.174280 0.347851
Si Si6 0.842815 0.517442 0.651655
Si Si7 0.500000 0.000000 0.000000
Si Si8 0.700596 0.828038 0.948462
O O1 0.775035 0.415524 0.248288
O O2 0.891216 0.241843 0.166991
O O3 0.594565 0.278064 0.197119
O O4 0.763428 0.483814 0.859950
O O5 0.763764 0.442424 0.569077
O O6 0.980924 0.536759 0.294787
O O7 0.702287 0.661406 0.175631
O O8 0.393765 0.204599 0.505070
O O9 0.152008 0.304753 0.554225
O O10 0.335074 0.084398 0.887029
O O11 0.151614 0.020031 0.730312
O O12 0.128087 0.098048 0.131895
O O13 0.000000 0.000000 0.500000
O O14 0.310923 0.203209 0.215469
O O15 0.500000 0.000000 0.500000
O O16 0.538021 0.922666 0.896876
#
# Coordination Sequence:
#
# PCOD9066729 Si02
#       8
#     2   2   2   2   2   2   1   2
#     4  12  25  47  77 109 150 200 246 308 380 456
#     4  11  25  46  74 112 149 191 253 311 373 445
#     4  12  25  48  74 106 154 196 250 311 371 447
#     4  12  24  44  80 114 138 204 261 305 370 446
#     4  12  24  46  71 105 149 191 246 307 372 446
#     4  11  25  48  74 108 150 197 252 311 370 446
#     4  12  26  46  68 110 156 200 232 320 386 428
#     4  12  24  47  74 107 151 193 249 313 374 447
#
# _framework density 23.442871
#
# number of rings (size 3 to 8) (size 9 to 14) (size 15 to 20)
#    0.000    0.267    6.667    2.000    0.000    2.667 
#    4.800    1.333    0.000    0.000    0.000    0.000 
#    0.000    0.000    0.000    0.000    0.000    0.000 
#
# Total GULP energy -83547.625708 kJ/mol
# GULP energy per Si atom -5569.841714 kJ/mol
# Density = 2.338951 g / cm^3
# Si number density = 23.442871 Si / 1000 Ang^3
#
#
#
# Elastic Constant Matrix: (Units=GPa)
#
#
# Indices 1 2 3 4 5 6 
#
# 1 92.0581 27.6304 15.9034 -18.0092 1.2107 -18.3437
# 2 27.6304 118.1184 27.3468 -7.8519 9.4887 -13.8772
# 3 15.9034 27.3468 69.6158 -2.9216 25.0516 15.8038
# 4 -18.0092 -7.8519 -2.9216 24.3462 -4.9447 13.8203
# 5 1.2107 9.4887 25.0516 -4.9447 40.8098 8.2451
# 6 -18.3437 -13.8772 15.8038 13.8203 8.2451 45.0990
#
#
#
# Elastic Compliance Matrix: (Units=1/GPa)
#
#
# Indices 1 2 3 4 5 6 
#
# 1 0.014359 -0.001631 -0.004149 0.007947 0.002682 0.003867
# 2 -0.001631 0.010429 -0.004595 -0.001146 -0.000628 0.004622
# 3 -0.004149 -0.004595 0.023349 0.001557 -0.010982 -0.009753
# 4 0.007947 -0.001146 0.001557 0.058616 0.009693 -0.017400
# 5 0.002682 -0.000628 -0.010982 0.009693 0.033360 -0.004323
# 6 0.003867 0.004622 -0.009753 -0.017400 -0.004323 0.034708
#
#
# Mechanical properties :
#
#
# Convention : Reuss Voigt Hill
#
# Bulk Modulus (GPa) = 36.51490 46.83926 41.67708
# Shear Modulus (GPa) = 24.42593 35.97845 30.20219
#
# Velocity S-wave (km/s) = 3.23140 3.92181 3.59323
# Velocity P-wave (km/s) = 5.43439 6.36640 5.91877
#
# Compressibility (1/GPa) = 0.02738608
#
# Stress axis : x y z
#
# Youngs Moduli (GPa) = 69.64304 95.88783 42.82859
#
# Poissons Ratio (x) = 0.15641 0.17769
# Poissons Ratio (y) = 0.11360 0.19681
# Poissons Ratio (z) = 0.28893 0.44064
#
# Static dielectric constant tensor:
#      x y z
#    x 2.180150 -0.744080 -1.011000 
#    y -0.744080 3.442940 2.093120 
#    z -1.011000 2.093120 4.678590 
# 
# From -- ./inp_files/174458.got.cif
#   From: 2010.05.17/outbox.cif.g08.bks.cpg/sg2_88_cif.got.tgz:174458.got - 2010.06.03 11:33:40.
