data_PCOD9066131
_publ_section_title
;
Structure prediction by ZEFSAII (Michael W. Deem and Ramdas Pophale) SiO2 
 PCOD9066131
Probable space group: P -1
;
_chemical_formula_sum "Si O2"
_cell_formula_units_Z 16
_cell_length_a 9.403128
_cell_length_b 14.996961
_cell_length_c 9.115889
_cell_angle_alpha 39.069323
_cell_angle_beta 115.169803
_cell_angle_gamma 111.763753
_cell_volume 731.418312
_symmetry_space_group_name_H-M "P -1"
_symmetry_group_IT_number 2
_symmetry_cell_setting 'triclinic'
loop_
_space_group_symop_operation_xyz
x,y,z
-x,-y,-z
loop_
_atom_site_type_symbol
_atom_site_label
_atom_site_fract_x
_atom_site_fract_y
_atom_site_fract_z
Si Si1 0.629179 0.393716 0.237148
Si Si2 0.138076 0.427500 0.076122
Si Si3 0.832416 0.060001 0.024984
Si Si4 0.639060 0.326685 0.670443
Si Si5 0.291135 0.384924 0.501377
Si Si6 0.860032 0.887718 0.537213
Si Si7 0.426210 0.141443 0.333232
Si Si8 0.817222 0.848690 0.038695
O O1 0.634785 0.370494 0.441928
O O2 0.565971 0.251591 0.307434
O O3 0.500000 0.500000 0.000000
O O4 0.789184 0.470090 0.147730
O O5 0.260159 0.403564 0.291861
O O6 0.086621 0.268742 0.208318
O O7 0.000000 0.500000 0.000000
O O8 0.728303 0.181640 0.889367
O O9 0.781356 0.990253 0.934743
O O10 0.013752 0.119736 0.005052
O O11 0.827167 0.929314 0.302721
O O12 0.461468 0.318123 0.667790
O O13 0.714661 0.460214 0.625235
O O14 0.175112 0.278592 0.679326
O O15 0.698360 0.892653 0.548152
O O16 0.000000 0.000000 0.500000
O O17 0.319081 0.191563 0.087801
O O18 0.500000 0.000000 0.500000
#
# Coordination Sequence:
#
# PCOD9066131 Si02
#       8
#     2   2   2   2   2   2   2   2
#     4  12  24  49  71  99 144 184 237 292 347 413
#     4  12  29  47  75 102 141 189 232 294 355 418
#     4  11  26  46  71  98 146 185 229 287 354 413
#     4  11  26  44  72 102 136 186 227 288 351 416
#     4  11  25  45  67 103 140 176 235 284 346 417
#     4  12  26  48  69 105 144 180 238 290 343 422
#     4  12  27  43  73 105 140 189 234 289 352 415
#     4  11  25  45  66 100 144 181 229 293 341 422
#
# _framework density 21.875305000000001
#
# number of rings (size 3 to 8) (size 9 to 14) (size 15 to 20)
#    0.000    0.500    5.000    1.500    8.750    1.000 
#    0.000    0.000    0.000    0.000    0.000    0.000 
#    0.000    0.000    0.000    0.000    0.000    0.000 
#
# Total GULP energy -89465.987765 kJ/mol
# GULP energy per Si atom -5591.624235 kJ/mol
# Density = 2.182552 g / cm^3
# Si number density = 21.875305 Si / 1000 Ang^3
#
#
#
# Elastic Constant Matrix: (Units=GPa)
#
#
# Indices 1 2 3 4 5 6 
#
# 1 102.6714 5.6102 28.7947 -34.4247 -15.7531 -18.1386
# 2 5.6102 105.9598 13.8881 -23.9280 -13.3757 -1.0910
# 3 28.7947 13.8881 62.1167 -7.2131 -29.2291 2.3065
# 4 -34.4247 -23.9280 -7.2131 49.4063 -7.2005 2.8260
# 5 -15.7531 -13.3757 -29.2291 -7.2005 37.4882 -3.9529
# 6 -18.1386 -1.0910 2.3065 2.8260 -3.9529 27.0356
#
#
#
# Elastic Compliance Matrix: (Units=1/GPa)
#
#
# Indices 1 2 3 4 5 6 
#
# 1 0.020769 0.005055 -0.003166 0.017517 0.012953 0.014471
# 2 0.005055 0.012841 0.000403 0.010957 0.009560 0.004128
# 3 -0.003166 0.000403 0.028457 0.005437 0.021844 -0.001910
# 4 0.017517 0.010957 0.005437 0.041508 0.024641 0.010995
# 5 0.012953 0.009560 0.021844 0.024641 0.058687 0.013217
# 6 0.014471 0.004128 -0.001910 0.010995 0.013217 0.047810
#
#
# Mechanical properties :
#
#
# Convention : Reuss Voigt Hill
#
# Bulk Modulus (GPa) = 15.00335 40.81486 27.90910
# Shear Modulus (GPa) = 21.95830 37.61636 29.78733
#
# Velocity S-wave (km/s) = 3.17171 4.15128 3.69411
# Velocity P-wave (km/s) = 4.50405 6.45569 5.56608
#
# Compressibility (1/GPa) = 0.06665178
#
# Stress axis : x y z
#
# Youngs Moduli (GPa) = 48.14941 77.87739 35.14046
#
# Poissons Ratio (x) = -0.39368 0.11125
# Poissons Ratio (y) = -0.24340 -0.01417
# Poissons Ratio (z) = 0.15244 -0.03141
#
# Static dielectric constant tensor:
#      x y z
#    x 1.758780 0.017480 0.002310 
#    y 0.017480 1.851940 -0.008080 
#    z 0.002310 -0.008080 1.947460 
# 
# From -- ./inp_files/205412.got.cif
#   From: 2010.05.17/outbox.cif.g08.bks.cpg/sg2_103_cif.got.tgz:205412.got - 2010.06.03 11:33:40.
