data_PCOD9066687
_publ_section_title
;
Structure prediction by ZEFSAII (Michael W. Deem and Ramdas Pophale) SiO2 
 PCOD9066687
Probable space group: P -1
;
_chemical_formula_sum "Si O2"
_cell_formula_units_Z 16
_cell_length_a 6.836810
_cell_length_b 9.920243
_cell_length_c 16.370825
_cell_angle_alpha 99.546750
_cell_angle_beta 89.476894
_cell_angle_gamma 133.427494
_cell_volume 786.620003
_symmetry_space_group_name_H-M "P -1"
_symmetry_group_IT_number 2
_symmetry_cell_setting 'triclinic'
loop_
_space_group_symop_operation_xyz
x,y,z
-x,-y,-z
loop_
_atom_site_type_symbol
_atom_site_label
_atom_site_fract_x
_atom_site_fract_y
_atom_site_fract_z
Si Si1 0.805418 0.776230 0.968919
Si Si2 0.304337 0.695885 0.539361
Si Si3 0.913051 0.374037 0.756587
Si Si4 0.610180 0.482441 0.350084
Si Si5 0.833322 0.529198 0.056071
Si Si6 0.666312 0.030617 0.314456
Si Si7 0.876193 0.678931 0.781581
Si Si8 0.741994 0.857388 0.428477
O O1 0.487348 0.661965 0.962247
O O2 0.858006 0.729531 0.877213
O O3 0.858293 0.689535 0.030038
O O4 0.000000 0.000000 0.000000
O O5 0.441597 0.641777 0.586171
O O6 0.302352 0.829412 0.608214
O O7 0.481165 0.799144 0.467669
O O8 0.000000 0.500000 0.500000
O O9 0.130602 0.449436 0.692766
O O10 0.053008 0.414182 0.847075
O O11 0.834070 0.495314 0.765266
O O12 0.645937 0.152628 0.723547
O O13 0.677817 0.667656 0.397414
O O14 0.356074 0.368132 0.278854
O O15 0.000000 0.500000 0.000000
O O16 0.837824 0.149645 0.245550
O O17 0.782515 0.953597 0.352358
O O18 0.000000 0.000000 0.500000
#
# Coordination Sequence:
#
# PCOD9066687 Si02
#       8
#     2   2   2   2   2   2   2   2
#     4  11  27  45  73 109 141 181 235 278 343 422
#     4  12  24  44  68 101 140 181 234 294 352 410
#     4  12  25  47  70 104 142 183 234 287 347 415
#     4  12  24  45  71  97 140 185 228 287 358 404
#     4  11  25  46  74 101 145 187 220 286 349 406
#     4  12  26  43  72 103 137 187 236 285 352 419
#     4  12  25  47  68 104 144 179 229 294 342 411
#     4  12  24  42  66 102 136 178 238 288 342 418
#
# _framework density 20.340188999999999
#
# number of rings (size 3 to 8) (size 9 to 14) (size 15 to 20)
#    0.000    0.250    5.000    4.500    1.750    3.500 
#    0.000    0.000    0.000    0.000    0.000    0.000 
#    0.000    0.000    0.000    0.000    0.000    0.000 
#
# Total GULP energy -89621.257275 kJ/mol
# GULP energy per Si atom -5601.328580 kJ/mol
# Density = 2.029389 g / cm^3
# Si number density = 20.340189 Si / 1000 Ang^3
#
#
#
# Elastic Constant Matrix: (Units=GPa)
#
#
# Indices 1 2 3 4 5 6 
#
# 1 79.5672 35.1569 19.2835 8.7144 -3.9256 7.2684
# 2 35.1569 126.0986 26.3882 6.9605 0.7086 12.3431
# 3 19.2835 26.3882 66.0124 -9.2935 2.8704 7.6299
# 4 8.7144 6.9605 -9.2935 26.5764 3.2770 7.7408
# 5 -3.9256 0.7086 2.8704 3.2770 54.9332 -8.2640
# 6 7.2684 12.3431 7.6299 7.7408 -8.2640 31.4546
#
#
#
# Elastic Compliance Matrix: (Units=1/GPa)
#
#
# Indices 1 2 3 4 5 6 
#
# 1 0.015764 -0.003214 -0.004373 -0.006299 0.001881 0.000723
# 2 -0.003214 0.009753 -0.002983 -0.001917 -0.000385 -0.001991
# 3 -0.004373 -0.002983 0.020081 0.011429 -0.002950 -0.006278
# 4 -0.006299 -0.001917 0.011429 0.049093 -0.006095 -0.014248
# 5 0.001881 -0.000385 -0.002950 -0.006095 0.019940 0.007170
# 6 0.000723 -0.001991 -0.006278 -0.014248 0.007170 0.039319
#
#
# Mechanical properties :
#
#
# Convention : Reuss Voigt Hill
#
# Bulk Modulus (GPa) = 40.88281 48.14838 44.51560
# Shear Modulus (GPa) = 27.28622 35.31615 31.30119
#
# Velocity S-wave (km/s) = 3.66661 4.17138 3.92712
# Velocity P-wave (km/s) = 6.16997 6.85007 6.51890
#
# Compressibility (1/GPa) = 0.02446016
#
# Stress axis : x y z
#
# Youngs Moduli (GPa) = 63.43422 102.52856 49.79736
#
# Poissons Ratio (x) = 0.32951 0.21774
# Poissons Ratio (y) = 0.20387 0.14855
# Poissons Ratio (z) = 0.27737 0.30585
#
# Static dielectric constant tensor:
#      x y z
#    x 1.713610 0.003660 0.005690 
#    y 0.003660 1.685340 -0.015530 
#    z 0.005690 -0.015530 1.693790 
# 
# From -- ./inp_files/52635.got.cif
#   From: 2010.05.17/outbox.cif.g08.bks.cpg/sg2_27_cif.got.tgz:52635.got - 2010.06.03 11:33:40.
