data_PCOD9066410
_publ_section_title
;
Structure prediction by ZEFSAII (Michael W. Deem and Ramdas Pophale) SiO2 
 PCOD9066410
Probable space group: P -1
;
_chemical_formula_sum "Si O2"
_cell_formula_units_Z 14
_cell_length_a 8.326105
_cell_length_b 8.097754
_cell_length_c 12.266539
_cell_angle_alpha 115.490679
_cell_angle_beta 121.507743
_cell_angle_gamma 56.619593
_cell_volume 576.823883
_symmetry_space_group_name_H-M "P -1"
_symmetry_group_IT_number 2
_symmetry_cell_setting 'triclinic'
loop_
_space_group_symop_operation_xyz
x,y,z
-x,-y,-z
loop_
_atom_site_type_symbol
_atom_site_label
_atom_site_fract_x
_atom_site_fract_y
_atom_site_fract_z
Si Si1 0.875026 0.537543 0.076768
Si Si2 0.992503 0.825069 0.344523
Si Si3 0.055878 0.791168 0.813338
Si Si4 0.584814 0.024454 0.706310
Si Si5 0.164779 0.708173 0.587741
Si Si6 0.479866 0.715416 0.449055
Si Si7 0.456459 0.853489 0.025364
O O1 0.950022 0.349768 0.130605
O O2 0.627776 0.626917 0.997344
O O3 0.916069 0.711521 0.199922
O O4 0.000000 0.500000 0.000000
O O5 0.995983 0.735842 0.441454
O O6 0.234649 0.775965 0.393565
O O7 0.851706 0.063807 0.356082
O O8 0.109171 0.680370 0.683546
O O9 0.829356 0.967993 0.771601
O O10 0.229841 0.867150 0.925904
O O11 0.551496 0.828509 0.600293
O O12 0.484098 0.191942 0.625520
O O13 0.520917 0.093319 0.826267
O O14 0.377825 0.523458 0.575585
O O15 0.500000 0.000000 0.000000
#
# Coordination Sequence:
#
# PCOD9066410 Si02
#       7
#     2   2   2   2   2   2   2
#     4  12  29  49  77 112 150 203 263 313 388 457
#     4  11  26  47  77 113 157 194 254 322 373 467
#     4  12  26  48  76 110 154 206 251 321 378 460
#     4  11  26  47  75 116 151 198 259 312 389 451
#     4  11  25  45  77 108 153 198 253 303 396 433
#     4  11  25  46  78 112 156 200 251 320 379 460
#     4  12  28  46  77 108 154 204 254 317 383 456
#
# _framework density 24.270841000000001
#
# number of rings (size 3 to 8) (size 9 to 14) (size 15 to 20)
#    0.000    0.571    1.429    4.714   10.000    2.286 
#    0.000    0.000    0.000    0.000    0.000    0.000 
#    0.000    0.000    0.000    0.000    0.000    0.000 
#
# Total GULP energy -78494.879535 kJ/mol
# GULP energy per Si atom -5606.777110 kJ/mol
# Density = 2.421560 g / cm^3
# Si number density = 24.270841 Si / 1000 Ang^3
#
#
#
# Elastic Constant Matrix: (Units=GPa)
#
#
# Indices 1 2 3 4 5 6 
#
# 1 135.9604 48.1668 78.7206 3.1964 -16.6626 -10.4833
# 2 48.1668 145.5031 45.9505 0.0072 -9.7799 1.2578
# 3 78.7206 45.9505 130.8838 0.1164 -28.5192 1.6752
# 4 3.1964 0.0072 0.1164 32.4056 4.4976 -8.6756
# 5 -16.6626 -9.7799 -28.5192 4.4976 55.5352 -8.3329
# 6 -10.4833 1.2578 1.6752 -8.6756 -8.3329 36.1554
#
#
#
# Elastic Compliance Matrix: (Units=1/GPa)
#
#
# Indices 1 2 3 4 5 6 
#
# 1 0.012265 -0.001968 -0.006617 -0.000188 0.000553 0.004014
# 2 -0.001968 0.008046 -0.001663 0.000003 -0.000149 -0.000807
# 3 -0.006617 -0.001663 0.013156 -0.000411 0.004273 -0.001584
# 4 -0.000188 0.000003 -0.000411 0.033139 -0.001826 0.007495
# 5 0.000553 -0.000149 0.004273 -0.001826 0.021149 0.004404
# 6 0.004014 -0.000807 -0.001584 0.007495 0.004404 0.031737
#
#
# Mechanical properties :
#
#
# Convention : Reuss Voigt Hill
#
# Bulk Modulus (GPa) = 77.09478 84.22480 80.65979
# Shear Modulus (GPa) = 34.64703 40.78652 37.71678
#
# Velocity S-wave (km/s) = 3.78235 4.10381 3.94635
# Velocity P-wave (km/s) = 7.13500 7.56521 7.35325
#
# Compressibility (1/GPa) = 0.01297105
#
# Stress axis : x y z
#
# Youngs Moduli (GPa) = 81.53309 124.27793 76.01274
#
# Poissons Ratio (x) = 0.24460 0.50294
# Poissons Ratio (y) = 0.16047 0.12644
# Poissons Ratio (z) = 0.53947 0.20672
#
# Static dielectric constant tensor:
#      x y z
#    x 1.970520 0.003950 -0.018100 
#    y 0.003950 1.929030 -0.011900 
#    z -0.018100 -0.011900 1.911380 
# 
# From -- ./inp_files/383344.got.cif
#   From: 2010.05.17/outbox.cif.g08.bks.cpg/sg2_192_cif.got.tgz:383344.got - 2010.06.03 11:33:40.
