data_PCOD9066755
_publ_section_title
;
Structure prediction by ZEFSAII (Michael W. Deem and Ramdas Pophale) SiO2 
 PCOD9066755
Probable space group: P -1
;
_chemical_formula_sum "Si O2"
_cell_formula_units_Z 14
_cell_length_a 10.352306
_cell_length_b 10.347781
_cell_length_c 12.503498
_cell_angle_alpha 86.496443
_cell_angle_beta 57.395196
_cell_angle_gamma 135.597014
_cell_volume 516.058449
_symmetry_space_group_name_H-M "P -1"
_symmetry_group_IT_number 2
_symmetry_cell_setting 'triclinic'
loop_
_space_group_symop_operation_xyz
x,y,z
-x,-y,-z
loop_
_atom_site_type_symbol
_atom_site_label
_atom_site_fract_x
_atom_site_fract_y
_atom_site_fract_z
Si Si1 0.208879 0.909236 0.611937
Si Si2 0.349239 0.006224 0.781529
Si Si3 0.436495 0.665191 0.145937
Si Si4 0.156665 0.824235 0.175387
Si Si5 0.552588 0.662365 0.540282
Si Si6 0.587496 0.493575 0.155051
Si Si7 0.601398 0.936637 0.731448
O O1 0.412230 0.030584 0.624926
O O2 0.297611 0.989325 0.441638
O O3 0.898300 0.578446 0.763296
O O4 0.160072 0.027740 0.645620
O O5 0.590112 0.278267 0.731577
O O6 0.338751 0.857973 0.850439
O O7 0.987632 0.798934 0.965179
O O8 0.519465 0.455055 0.855703
O O9 0.741625 0.964856 0.936684
O O10 0.121917 0.813235 0.318748
O O11 0.797833 0.518408 0.302303
O O12 0.500000 0.000000 0.000000
O O13 0.500000 0.500000 0.500000
O O14 0.589632 0.639430 0.643970
O O15 0.512443 0.289192 0.165426
#
# Coordination Sequence:
#
# PCOD9066755 Si02
#       7
#     2   2   2   2   2   2   2
#     4  11  29  45  75 114 151 193 255 316 376 443
#     4  12  24  49  75 106 154 199 251 310 378 451
#     4  12  27  47  78 112 148 197 258 311 374 450
#     4  12  26  50  78 111 150 203 257 304 379 460
#     4  11  26  47  77 110 159 202 244 315 390 446
#     4  11  25  46  75 108 149 198 257 307 375 452
#     4  11  26  46  74 108 153 196 248 312 383 444
#
# _framework density 27.128710000000002
#
# number of rings (size 3 to 8) (size 9 to 14) (size 15 to 20)
#    0.000    0.571    2.857    3.000    8.000    7.429 
#    0.000    0.000    0.000    0.000    0.000    0.000 
#    0.000    0.000    0.000    0.000    0.000    0.000 
#
# Total GULP energy -78226.853343 kJ/mol
# GULP energy per Si atom -5587.632382 kJ/mol
# Density = 2.706696 g / cm^3
# Si number density = 27.128710 Si / 1000 Ang^3
#
#
#
# Elastic Constant Matrix: (Units=GPa)
#
#
# Indices 1 2 3 4 5 6 
#
# 1 123.6246 17.7300 22.3357 8.1311 6.9542 -6.3400
# 2 17.7300 135.8345 37.5415 6.7051 11.3018 15.6727
# 3 22.3357 37.5415 72.5608 8.8600 20.1882 11.0663
# 4 8.1311 6.7051 8.8600 41.6603 4.1843 15.2109
# 5 6.9542 11.3018 20.1882 4.1843 49.3987 9.6447
# 6 -6.3400 15.6727 11.0663 15.2109 9.6447 36.7402
#
#
#
# Elastic Compliance Matrix: (Units=1/GPa)
#
#
# Indices 1 2 3 4 5 6 
#
# 1 0.009040 -0.000756 -0.002504 -0.002439 -0.000613 0.003807
# 2 -0.000756 0.008876 -0.004052 0.000664 0.000269 -0.003042
# 3 -0.002504 -0.004052 0.018791 -0.001456 -0.005842 -0.002228
# 4 -0.002439 0.000664 -0.001456 0.029188 0.000764 -0.012551
# 5 -0.000613 0.000269 -0.005842 0.000764 0.023560 -0.004962
# 6 0.003807 -0.003042 -0.002228 -0.012551 -0.004962 0.036342
#
#
# Mechanical properties :
#
#
# Convention : Reuss Voigt Hill
#
# Bulk Modulus (GPa) = 45.28042 54.13716 49.70879
# Shear Modulus (GPa) = 33.83358 42.52070 38.17714
#
# Velocity S-wave (km/s) = 3.53533 3.96330 3.75542
# Velocity P-wave (km/s) = 5.77858 6.39864 6.09650
#
# Compressibility (1/GPa) = 0.02208460
#
# Stress axis : x y z
#
# Youngs Moduli (GPa) = 110.62035 112.66107 53.21579
#
# Poissons Ratio (x) = 0.08515 0.13325
# Poissons Ratio (y) = 0.08361 0.21562
# Poissons Ratio (z) = 0.27698 0.45648
#
# Static dielectric constant tensor:
#      x y z
#    x 2.144300 -0.013550 -0.061500 
#    y -0.013550 2.169890 0.055280 
#    z -0.061500 0.055280 2.124300 
# 
# From -- ./inp_files/425941.got.cif
#   From: 2010.05.17/outbox.cif.g08.bks.cpg/sg2_213_cif.got.tgz:425941.got - 2010.06.03 11:33:40.
