data_PCOD9066477
_publ_section_title
;
Structure prediction by ZEFSAII (Michael W. Deem and Ramdas Pophale) SiO2 
 PCOD9066477
Probable space group: P -1
;
_chemical_formula_sum "Si O2"
_cell_formula_units_Z 14
_cell_length_a 5.097669
_cell_length_b 9.222377
_cell_length_c 15.064313
_cell_angle_alpha 94.801165
_cell_angle_beta 81.229161
_cell_angle_gamma 123.684203
_cell_volume 582.417324
_symmetry_space_group_name_H-M "P -1"
_symmetry_group_IT_number 2
_symmetry_cell_setting 'triclinic'
loop_
_space_group_symop_operation_xyz
x,y,z
-x,-y,-z
loop_
_atom_site_type_symbol
_atom_site_label
_atom_site_fract_x
_atom_site_fract_y
_atom_site_fract_z
Si Si1 0.863387 0.056214 0.750361
Si Si2 0.390391 0.047477 0.918649
Si Si3 0.203461 0.547563 0.081617
Si Si4 0.819157 0.749797 0.833762
Si Si5 0.323831 0.046330 0.440448
Si Si6 0.747556 0.556541 0.249780
Si Si7 0.731135 0.453890 0.440435
O O1 0.583173 0.023036 0.828812
O O2 0.166139 0.249778 0.762026
O O3 0.912847 0.903211 0.762482
O O4 0.754351 0.046902 0.654898
O O5 0.514276 0.249933 0.924094
O O6 0.027581 0.904930 0.905862
O O7 0.500000 0.000000 0.000000
O O8 0.281057 0.405382 0.094489
O O9 0.960047 0.522872 0.171132
O O10 0.000000 0.500000 0.000000
O O11 0.609529 0.596184 0.761925
O O12 0.542834 0.250154 0.420575
O O13 0.500000 0.000000 0.500000
O O14 0.000000 0.000000 0.500000
O O15 0.839157 0.547310 0.345065
O O16 0.500000 0.500000 0.500000
O O17 0.000000 0.500000 0.500000
#
# Coordination Sequence:
#
# PCOD9066477 Si02
#       7
#     2   2   2   2   2   2   2
#     4  11  26  47  69 105 141 187 240 299 362 436
#     4  11  25  46  69 103 145 187 238 300 365 437
#     4  11  25  46  69 103 145 187 238 300 365 437
#     4  12  24  44  76  98 142 186 246 292 370 428
#     4  12  27  48  77 111 150 195 248 307 373 444
#     4  11  26  47  69 105 141 187 240 299 362 436
#     4  12  27  48  77 111 150 195 248 307 373 444
#
# _framework density 24.037745000000001
#
# number of rings (size 3 to 8) (size 9 to 14) (size 15 to 20)
#    0.000    0.571    2.857    4.286    4.000    1.143 
#    0.000    0.000    0.000    0.000    0.000    0.000 
#    0.000    0.000    0.000    0.000    0.000    0.000 
#
# Total GULP energy -77973.881956 kJ/mol
# GULP energy per Si atom -5569.562997 kJ/mol
# Density = 2.398303 g / cm^3
# Si number density = 24.037745 Si / 1000 Ang^3
#
#
#
# Elastic Constant Matrix: (Units=GPa)
#
#
# Indices 1 2 3 4 5 6 
#
# 1 81.1218 17.6429 54.2386 -0.0582 22.5630 -1.1303
# 2 17.6429 161.0706 8.1468 -0.9031 8.1509 -0.3391
# 3 54.2386 8.1468 204.2298 -0.4183 18.2303 -0.9883
# 4 -0.0582 -0.9031 -0.4183 49.5407 -0.1245 18.5684
# 5 22.5630 8.1509 18.2303 -0.1245 48.8362 -0.3376
# 6 -1.1303 -0.3391 -0.9883 18.5684 -0.3376 7.4244
#
#
#
# Elastic Compliance Matrix: (Units=1/GPa)
#
#
# Indices 1 2 3 4 5 6 
#
# 1 0.017354 -0.001393 -0.003879 -0.011521 -0.006155 0.030597
# 2 -0.001393 0.006379 0.000146 0.001375 -0.000495 -0.003364
# 3 -0.003879 0.000146 0.005966 -0.000379 -0.000452 0.001138
# 4 -0.011521 0.001375 -0.000379 0.332953 0.000315 -0.834441
# 5 -0.006155 -0.000495 -0.000452 0.000315 0.023567 -0.000736
# 6 0.030597 -0.003364 0.001138 -0.834441 -0.000736 2.226244
#
#
# Mechanical properties :
#
#
# Convention : Reuss Voigt Hill
#
# Bulk Modulus (GPa) = 51.42312 67.38651 59.40482
# Shear Modulus (GPa) = 1.90172 45.58653 23.74413
#
# Velocity S-wave (km/s) = 0.89042 4.35956 3.14631
# Velocity P-wave (km/s) = 4.74302 7.30996 6.16164
#
# Compressibility (1/GPa) = 0.01944650
#
# Stress axis : x y z
#
# Youngs Moduli (GPa) = 57.62390 156.75511 167.61741
#
# Poissons Ratio (x) = 0.21842 0.65024
# Poissons Ratio (y) = 0.08029 -0.02453
# Poissons Ratio (z) = 0.22354 -0.02294
#
# Static dielectric constant tensor:
#      x y z
#    x 1.984770 0.002160 -0.038170 
#    y 0.002160 1.883850 0.000980 
#    z -0.038170 0.000980 1.911830 
# 
# From -- ./inp_files/480557.got.cif
#   From: 2010.05.17/outbox.cif.g08.bks.cpg/sg2_241_cif.got.tgz:480557.got - 2010.06.03 11:33:40.
