data_PCOD9066497
_publ_section_title
;
Structure prediction by ZEFSAII (Michael W. Deem and Ramdas Pophale) SiO2 
 PCOD9066497
Probable space group: P -1
;
_chemical_formula_sum "Si O2"
_cell_formula_units_Z 11
_cell_length_a 9.514561
_cell_length_b 12.003083
_cell_length_c 8.951277
_cell_angle_alpha 150.908519
_cell_angle_beta 91.237926
_cell_angle_gamma 76.726906
_cell_volume 447.803107
_symmetry_space_group_name_H-M "P -1"
_symmetry_group_IT_number 2
_symmetry_cell_setting 'triclinic'
loop_
_space_group_symop_operation_xyz
x,y,z
-x,-y,-z
loop_
_atom_site_type_symbol
_atom_site_label
_atom_site_fract_x
_atom_site_fract_y
_atom_site_fract_z
Si Si1 0.900917 0.864837 0.270546
Si Si2 0.500000 0.500000 0.500000
Si Si3 0.970173 0.632296 0.493690
Si Si4 0.745301 0.283601 0.522356
Si Si5 0.353420 0.232130 0.698705
Si Si6 0.364012 0.229653 0.351972
O O1 0.791406 0.836549 0.361878
O O2 0.793043 0.028585 0.322206
O O3 0.000000 0.000000 0.500000
O O4 0.008781 0.588126 0.883853
O O5 0.606867 0.372963 0.504040
O O6 0.351206 0.471204 0.541978
O O7 0.788791 0.823280 0.716879
O O8 0.000000 0.500000 0.500000
O O9 0.095108 0.734764 0.570954
O O10 0.689891 0.511911 0.909882
O O11 0.391670 0.252321 0.552512
O O12 0.500000 0.000000 0.500000
O O13 0.500000 0.000000 0.000000
#
# Coordination Sequence:
#
# PCOD9066497 Si02
#       6
#     2   1   2   2   2   2
#     4  11  25  46  76 106 136 191 248 294 359 434
#     4  12  26  42  68 108 138 186 246 282 356 426
#     4  11  25  47  70 105 146 184 235 298 364 418
#     4  11  25  46  74 105 144 190 243 299 357 428
#     4  11  25  46  70 103 146 187 235 299 359 417
#     4  12  27  45  72 102 145 188 235 299 356 426
#
# _framework density 24.564367000000001
#
# number of rings (size 3 to 8) (size 9 to 14) (size 15 to 20)
#    0.000    0.727    1.818    4.364    5.091   12.364 
#    0.000    0.000    0.000    0.000    0.000    0.000 
#    0.000    0.000    0.000    0.000    0.000    0.000 
#
# Total GULP energy -61410.701498 kJ/mol
# GULP energy per Si atom -5582.791045 kJ/mol
# Density = 2.450846 g / cm^3
# Si number density = 24.564367 Si / 1000 Ang^3
#
#
#
# Elastic Constant Matrix: (Units=GPa)
#
#
# Indices 1 2 3 4 5 6 
#
# 1 136.8682 42.5302 56.1225 -19.5393 -15.7099 6.7003
# 2 42.5302 194.6912 26.3309 -22.4138 -9.6853 20.9544
# 3 56.1225 26.3309 79.2799 -13.2531 -20.3466 10.5645
# 4 -19.5393 -22.4138 -13.2531 29.5626 3.2384 -8.4407
# 5 -15.7099 -9.6853 -20.3466 3.2384 44.2867 -4.1826
# 6 6.7003 20.9544 10.5645 -8.4407 -4.1826 56.4361
#
#
#
# Elastic Compliance Matrix: (Units=1/GPa)
#
#
# Indices 1 2 3 4 5 6 
#
# 1 0.010960 -0.001149 -0.006827 0.003550 0.000331 0.000959
# 2 -0.001149 0.005978 -0.000350 0.003142 0.000365 -0.001521
# 3 -0.006827 -0.000350 0.019908 0.002924 0.006256 -0.001885
# 4 0.003550 0.003142 0.002924 0.040945 0.000677 0.004039
# 5 0.000331 0.000365 0.006256 0.000677 0.025664 0.000657
# 6 0.000959 -0.001521 -0.001885 0.004039 0.000657 0.019176
#
#
# Mechanical properties :
#
#
# Convention : Reuss Voigt Hill
#
# Bulk Modulus (GPa) = 49.51814 73.42294 61.47054
# Shear Modulus (GPa) = 34.24296 45.11413 39.67855
#
# Velocity S-wave (km/s) = 3.73769 4.29017 4.02343
# Velocity P-wave (km/s) = 6.23133 7.38212 6.83100
#
# Compressibility (1/GPa) = 0.02019462
#
# Stress axis : x y z
#
# Youngs Moduli (GPa) = 91.23673 167.27153 50.23090
#
# Poissons Ratio (x) = 0.19220 0.34291
# Poissons Ratio (y) = 0.10484 0.01761
# Poissons Ratio (z) = 0.62283 0.05863
#
# Static dielectric constant tensor:
#      x y z
#    x 2.068290 -0.021590 0.011830 
#    y -0.021590 1.907820 0.044190 
#    z 0.011830 0.044190 1.981250 
# 
# From -- ./inp_files/17102.got.cif
#   From: 2010.05.17/outbox.cif.g08.bks.cpg/sg2_9_cif.got.tgz:17102.got - 2010.06.03 11:33:40.
