data_PCOD9066875
_publ_section_title
;
Structure prediction by ZEFSAII (Michael W. Deem and Ramdas Pophale) SiO2 
 PCOD9066875
Probable space group: P -1
;
_chemical_formula_sum "Si O2"
_cell_formula_units_Z 16
_cell_length_a 9.005303
_cell_length_b 14.330275
_cell_length_c 5.804229
_cell_angle_alpha 66.095379
_cell_angle_beta 96.887293
_cell_angle_gamma 92.000437
_cell_volume 679.757642
_symmetry_space_group_name_H-M "P -1"
_symmetry_group_IT_number 2
_symmetry_cell_setting 'triclinic'
loop_
_space_group_symop_operation_xyz
x,y,z
-x,-y,-z
loop_
_atom_site_type_symbol
_atom_site_label
_atom_site_fract_x
_atom_site_fract_y
_atom_site_fract_z
Si Si1 0.456429 0.547666 0.691751
Si Si2 0.208606 0.805864 0.749020
Si Si3 0.465601 0.764660 0.539475
Si Si4 0.950726 0.674244 0.878375
Si Si5 0.440320 0.892932 0.006041
Si Si6 0.297509 0.155536 0.208344
Si Si7 0.896136 0.461155 0.316900
Si Si8 0.923175 0.023762 0.711928
O O1 0.500000 0.500000 0.500000
O O2 0.535038 0.657346 0.594053
O O3 0.275785 0.560079 0.636291
O O4 0.500000 0.500000 0.000000
O O5 0.349327 0.742063 0.743373
O O6 0.119977 0.859183 0.467528
O O7 0.096451 0.735170 0.940162
O O8 0.298533 0.896233 0.805060
O O9 0.380641 0.819886 0.265059
O O10 0.587655 0.846138 0.556678
O O11 0.819351 0.755243 0.834152
O O12 0.021229 0.637261 0.683120
O O13 0.894824 0.564192 0.059715
O O14 0.585046 0.832096 0.990224
O O15 0.500000 0.000000 0.000000
O O16 0.215387 0.052060 0.241867
O O17 0.000000 0.500000 0.500000
O O18 0.000000 0.000000 0.500000
O O19 0.000000 0.000000 0.000000
#
# Coordination Sequence:
#
# PCOD9066875 Si02
#       8
#     2   2   2   2   2   2   2   2
#     4  12  30  51  81 114 158 205 265 326 392 467
#     4  11  25  47  72 105 147 201 251 310 382 464
#     4  11  26  45  76 105 150 202 257 312 389 459
#     4  11  25  47  71 104 157 190 261 308 397 451
#     4  11  26  45  75 108 151 196 259 317 385 458
#     4  11  26  45  73 108 148 197 257 312 385 455
#     4  11  28  46  75 109 152 203 253 327 390 462
#     4  12  28  47  73 112 152 197 247 315 378 452
#
# _framework density 23.537801999999999
#
# number of rings (size 3 to 8) (size 9 to 14) (size 15 to 20)
#    0.000    0.750    2.500    2.250   17.500    3.000 
#    0.000    0.000    0.000    0.000    0.000    0.000 
#    0.000    0.000    0.000    0.000    0.000    0.000 
#
# Total GULP energy -89079.114201 kJ/mol
# GULP energy per Si atom -5567.444638 kJ/mol
# Density = 2.348423 g / cm^3
# Si number density = 23.537802 Si / 1000 Ang^3
#
#
#
# Elastic Constant Matrix: (Units=GPa)
#
#
# Indices 1 2 3 4 5 6 
#
# 1 124.2879 28.5178 17.1348 22.5149 -15.1085 -2.0161
# 2 28.5178 118.9467 29.2241 7.6559 3.7502 6.4148
# 3 17.1348 29.2241 78.9132 13.9845 4.0697 1.0981
# 4 22.5149 7.6559 13.9845 35.9010 3.4328 -3.0752
# 5 -15.1085 3.7502 4.0697 3.4328 34.5202 6.7630
# 6 -2.0161 6.4148 1.0981 -3.0752 6.7630 53.6097
#
#
#
# Elastic Compliance Matrix: (Units=1/GPa)
#
#
# Indices 1 2 3 4 5 6 
#
# 1 0.010452 -0.002089 -0.000639 -0.006432 0.005599 -0.000419
# 2 -0.002089 0.009749 -0.003160 0.000519 -0.001463 -0.000966
# 3 -0.000639 -0.003160 0.014860 -0.004603 -0.001219 -0.000061
# 4 -0.006432 0.000519 -0.004603 0.034386 -0.006248 0.002551
# 5 0.005599 -0.001463 -0.001219 -0.006248 0.033152 -0.004130
# 6 -0.000419 -0.000966 -0.000061 0.002551 -0.004130 0.019422
#
#
# Mechanical properties :
#
#
# Convention : Reuss Voigt Hill
#
# Bulk Modulus (GPa) = 42.94416 52.43346 47.68881
# Shear Modulus (GPa) = 35.32090 41.29093 38.30592
#
# Velocity S-wave (km/s) = 3.87796 4.19291 4.03851
# Velocity P-wave (km/s) = 6.19160 6.76500 6.48464
#
# Compressibility (1/GPa) = 0.02328605
#
# Stress axis : x y z
#
# Youngs Moduli (GPa) = 95.67443 102.57336 67.29261
#
# Poissons Ratio (x) = 0.21426 0.04300
# Poissons Ratio (y) = 0.19985 0.21264
# Poissons Ratio (z) = 0.06114 0.32413
#
# Static dielectric constant tensor:
#      x y z
#    x 1.930180 -0.051150 -0.023710 
#    y -0.051150 1.979570 0.049420 
#    z -0.023710 0.049420 1.984920 
# 
# From -- ./inp_files/37626.got.cif
#   From: 2010.05.17/outbox.cif.g08.bks.cpg/sg2_19_cif.got.tgz:37626.got - 2010.06.03 11:33:40.
