data_PCOD9066219
_publ_section_title
;
Structure prediction by ZEFSAII (Michael W. Deem and Ramdas Pophale) SiO2 
 PCOD9066219
Probable space group: P -1
;
_chemical_formula_sum "Si O2"
_cell_formula_units_Z 16
_cell_length_a 27.482822
_cell_length_b 9.342069
_cell_length_c 8.876030
_cell_angle_alpha 69.978470
_cell_angle_beta 139.242120
_cell_angle_gamma 141.901790
_cell_volume 713.008466
_symmetry_space_group_name_H-M "P -1"
_symmetry_group_IT_number 2
_symmetry_cell_setting 'triclinic'
loop_
_space_group_symop_operation_xyz
x,y,z
-x,-y,-z
loop_
_atom_site_type_symbol
_atom_site_label
_atom_site_fract_x
_atom_site_fract_y
_atom_site_fract_z
Si Si1 0.105506 0.326595 0.098490
Si Si2 0.341353 0.292507 0.733367
Si Si3 0.926396 0.210203 0.905971
Si Si4 0.840870 0.140701 0.245256
Si Si5 0.634847 0.320532 0.871783
Si Si6 0.313835 0.826102 0.182464
Si Si7 0.100994 0.036317 0.782080
Si Si8 0.351271 0.646225 0.764939
O O1 0.185690 0.495602 0.069874
O O2 0.233239 0.540123 0.442457
O O3 0.003939 0.288358 0.908914
O O4 0.000000 0.000000 0.000000
O O5 0.359588 0.503058 0.744146
O O6 0.243551 0.092875 0.426839
O O7 0.248656 0.059579 0.740349
O O8 0.500000 0.500000 0.000000
O O9 0.000000 0.500000 0.000000
O O10 0.959622 0.156879 0.143004
O O11 0.000000 0.500000 0.500000
O O12 0.870345 0.043079 0.248205
O O13 0.737290 0.090924 0.950604
O O14 0.661014 0.194394 0.919836
O O15 0.466055 0.062606 0.539966
O O16 0.741463 0.619814 0.924066
O O17 0.686829 0.442796 0.118445
O O18 0.000000 0.000000 0.500000
O O19 0.500000 0.000000 0.000000
#
# Coordination Sequence:
#
# PCOD9066219 Si02
#       8
#     2   2   2   2   2   2   2   2
#     4  12  24  46  76 106 150 197 254 314 375 458
#     4  12  30  49  75 114 157 201 255 318 388 463
#     4  12  28  48  78 112 154 200 254 314 392 458
#     4  12  27  49  74 108 157 197 254 316 390 457
#     4  11  25  45  71 111 146 199 253 309 382 458
#     4  11  26  44  74 108 150 197 252 315 383 461
#     4  12  26  48  78 109 147 200 259 314 381 461
#     4  12  26  47  74 108 148 197 255 316 382 458
#
# _framework density 22.440125999999999
#
# number of rings (size 3 to 8) (size 9 to 14) (size 15 to 20)
#    0.000    0.250    3.750    4.500    5.250    1.500 
#    0.000    0.000    0.000    0.000    0.000    0.000 
#    0.000    0.000    0.000    0.000    0.000    0.000 
#
# Total GULP energy -89419.716774 kJ/mol
# GULP energy per Si atom -5588.732298 kJ/mol
# Density = 2.238905 g / cm^3
# Si number density = 22.440126 Si / 1000 Ang^3
#
#
#
# Elastic Constant Matrix: (Units=GPa)
#
#
# Indices 1 2 3 4 5 6 
#
# 1 125.0150 37.0936 48.7159 -4.4589 18.0318 -12.4321
# 2 37.0936 126.8481 36.4692 11.2513 9.3168 1.5357
# 3 48.7159 36.4692 128.3375 6.4003 21.5196 -5.7228
# 4 -4.4589 11.2513 6.4003 39.9235 2.3755 -4.2051
# 5 18.0318 9.3168 21.5196 2.3755 39.0843 3.1830
# 6 -12.4321 1.5357 -5.7228 -4.2051 3.1830 43.8863
#
#
#
# Elastic Compliance Matrix: (Units=1/GPa)
#
#
# Indices 1 2 3 4 5 6 
#
# 1 0.010703 -0.002366 -0.002843 0.002854 -0.003247 0.003253
# 2 -0.002366 0.009320 -0.001694 -0.002782 0.000093 -0.001491
# 3 -0.002843 -0.001694 0.010084 -0.001152 -0.003827 0.000736
# 4 0.002854 -0.002782 -0.001152 0.026815 -0.001931 0.003465
# 5 -0.003247 0.000093 -0.003827 -0.001931 0.029592 -0.003753
# 6 0.003253 -0.001491 0.000736 0.003465 -0.003753 0.024460
#
#
# Mechanical properties :
#
#
# Convention : Reuss Voigt Hill
#
# Bulk Modulus (GPa) = 61.34488 69.41755 65.38121
# Shear Modulus (GPa) = 38.39835 41.77360 40.08597
#
# Velocity S-wave (km/s) = 4.14109 4.31926 4.23111
# Velocity P-wave (km/s) = 7.08952 7.47505 7.28484
#
# Compressibility (1/GPa) = 0.01630128
#
# Stress axis : x y z
#
# Youngs Moduli (GPa) = 93.43518 107.29239 99.16323
#
# Poissons Ratio (x) = 0.25389 0.28193
# Poissons Ratio (y) = 0.22110 0.16794
# Poissons Ratio (z) = 0.26564 0.18171
#
# Static dielectric constant tensor:
#      x y z
#    x 1.910520 0.127010 0.012820 
#    y 0.127010 1.966730 -0.039370 
#    z 0.012820 -0.039370 1.773130 
# 
# From -- ./inp_files/356606.got.cif
#   From: 2010.05.17/outbox.cif.g08.bks.cpg/sg2_179_cif.got.tgz:356606.got - 2010.06.03 11:33:40.
