data_PCOD9066093
_publ_section_title
;
Structure prediction by ZEFSAII (Michael W. Deem and Ramdas Pophale) SiO2 
 PCOD9066093
Probable space group: P -1
;
_chemical_formula_sum "Si O2"
_cell_formula_units_Z 14
_cell_length_a 9.800666
_cell_length_b 8.843417
_cell_length_c 18.339707
_cell_angle_alpha 28.385644
_cell_angle_beta 131.342622
_cell_angle_gamma 132.161717
_cell_volume 548.966463
_symmetry_space_group_name_H-M "P -1"
_symmetry_group_IT_number 2
_symmetry_cell_setting 'triclinic'
loop_
_space_group_symop_operation_xyz
x,y,z
-x,-y,-z
loop_
_atom_site_type_symbol
_atom_site_label
_atom_site_fract_x
_atom_site_fract_y
_atom_site_fract_z
Si Si1 0.119340 0.685991 0.842123
Si Si2 0.189072 0.288156 0.504312
Si Si3 0.776923 0.844705 0.993113
Si Si4 0.911461 0.741697 0.237116
Si Si5 0.412371 0.575130 0.340811
Si Si6 0.452517 0.629443 0.667513
Si Si7 0.201833 0.394387 0.127319
O O1 0.233287 0.469225 0.928378
O O2 0.906414 0.569591 0.850045
O O3 0.119564 0.976629 0.663607
O O4 0.219137 0.706143 0.947838
O O5 0.253353 0.278478 0.446706
O O6 0.390947 0.449357 0.543713
O O7 0.040203 0.503384 0.359982
O O8 0.772815 0.784104 0.104143
O O9 0.657884 0.090485 0.817071
O O10 0.000000 0.000000 0.000000
O O11 0.765899 0.542316 0.329531
O O12 0.063016 0.071556 0.177342
O O13 0.458478 0.564177 0.277856
O O14 0.591381 0.651314 0.775017
O O15 0.500000 0.000000 0.500000
#
# Coordination Sequence:
#
# PCOD9066093 Si02
#       7
#     2   2   2   2   2   2   2
#     4  11  25  44  75 108 150 195 252 305 373 441
#     4  11  25  47  77 107 150 200 248 311 372 440
#     4  12  24  47  72 109 149 199 249 306 369 447
#     4  12  27  50  80 106 154 201 245 308 380 436
#     4  11  26  47  74 111 153 196 250 307 377 443
#     4  12  28  46  78 115 149 194 255 307 370 449
#     4  11  25  48  74 112 152 195 245 314 369 445
#
# _framework density 25.502468
#
# number of rings (size 3 to 8) (size 9 to 14) (size 15 to 20)
#    0.000    0.571    2.857    3.429    6.000    4.571 
#    0.000    0.000    0.000    0.000    0.000    0.000 
#    0.000    0.000    0.000    0.000    0.000    0.000 
#
# Total GULP energy -78096.313782 kJ/mol
# GULP energy per Si atom -5578.308127 kJ/mol
# Density = 2.544442 g / cm^3
# Si number density = 25.502468 Si / 1000 Ang^3
#
#
#
# Elastic Constant Matrix: (Units=GPa)
#
#
# Indices 1 2 3 4 5 6 
#
# 1 129.2131 38.8440 36.2846 -8.3332 -12.4293 11.6195
# 2 38.8440 52.3574 9.3391 4.9691 -12.3167 16.4467
# 3 36.2846 9.3391 113.8122 1.7694 -8.3672 21.9095
# 4 -8.3332 4.9691 1.7694 33.3876 8.0225 12.3945
# 5 -12.4293 -12.3167 -8.3672 8.0225 40.7400 5.2886
# 6 11.6195 16.4467 21.9095 12.3945 5.2886 34.5192
#
#
#
# Elastic Compliance Matrix: (Units=1/GPa)
#
#
# Indices 1 2 3 4 5 6 
#
# 1 0.011379 -0.008769 -0.003230 0.004120 -0.000789 0.001040
# 2 -0.008769 0.032626 0.003907 -0.004195 0.010793 -0.015220
# 3 -0.003230 0.003907 0.011433 0.000377 0.003601 -0.008718
# 4 0.004120 -0.004195 0.000377 0.037495 -0.005732 -0.012213
# 5 -0.000789 0.010793 0.003601 -0.005732 0.030710 -0.009809
# 6 0.001040 -0.015220 -0.008718 -0.012213 -0.009809 0.047292
#
#
# Mechanical properties :
#
#
# Convention : Reuss Voigt Hill
#
# Bulk Modulus (GPa) = 25.47553 51.59092 38.53322
# Shear Modulus (GPa) = 24.97466 35.79036 30.38251
#
# Velocity S-wave (km/s) = 3.13278 3.75027 3.45535
# Velocity P-wave (km/s) = 4.80592 6.24711 5.57330
#
# Compressibility (1/GPa) = 0.03925336
#
# Stress axis : x y z
#
# Youngs Moduli (GPa) = 87.88385 30.65016 87.46787
#
# Poissons Ratio (x) = 0.26877 0.28255
# Poissons Ratio (y) = 0.77065 -0.34174
# Poissons Ratio (z) = 0.28389 -0.11975
#
# Static dielectric constant tensor:
#      x y z
#    x 1.190020 1.711490 -0.049240 
#    y 1.711490 -1.444730 0.021940 
#    z -0.049240 0.021940 2.099210 
# 
# From -- ./inp_files/556746.got.cif
#   From: 2010.05.17/outbox.cif.g08.bks.cpg/sg2_279_cif.got.tgz:556746.got - 2010.06.03 11:33:40.
