data_PCOD9066694
_publ_section_title
;
Structure prediction by ZEFSAII (Michael W. Deem and Ramdas Pophale) SiO2 
 PCOD9066694
Probable space group: P -1
;
_chemical_formula_sum "Si O2"
_cell_formula_units_Z 16
_cell_length_a 8.413890
_cell_length_b 20.519319
_cell_length_c 8.673694
_cell_angle_alpha 55.523650
_cell_angle_beta 82.019553
_cell_angle_gamma 127.831218
_cell_volume 648.789911
_symmetry_space_group_name_H-M "P -1"
_symmetry_group_IT_number 2
_symmetry_cell_setting 'triclinic'
loop_
_space_group_symop_operation_xyz
x,y,z
-x,-y,-z
loop_
_atom_site_type_symbol
_atom_site_label
_atom_site_fract_x
_atom_site_fract_y
_atom_site_fract_z
Si Si1 0.123976 0.541053 0.607958
Si Si2 0.406205 0.415258 0.780481
Si Si3 0.749254 0.819920 0.857026
Si Si4 0.137352 0.131506 0.899123
Si Si5 0.369625 0.057267 0.340916
Si Si6 0.087212 0.386256 0.340610
Si Si7 0.273168 0.882099 0.053999
Si Si8 0.893656 0.285345 0.152732
O O1 0.490536 0.707722 0.368706
O O2 0.953461 0.537556 0.733939
O O3 0.000000 0.500000 0.500000
O O4 0.032684 0.420347 0.864935
O O5 0.500000 0.500000 0.500000
O O6 0.586854 0.509188 0.787203
O O7 0.436862 0.334859 0.866451
O O8 0.060495 0.286827 0.032889
O O9 0.563988 0.821175 0.853229
O O10 0.940225 0.921819 0.844220
O O11 0.006113 0.903459 0.588413
O O12 0.972589 0.148387 0.877451
O O13 0.000000 0.000000 0.000000
O O14 0.542995 0.120077 0.395124
O O15 0.529434 0.067071 0.184125
O O16 0.888787 0.263993 0.665272
O O17 0.981204 0.321184 0.271445
O O18 0.500000 0.000000 0.000000
#
# Coordination Sequence:
#
# PCOD9066694 Si02
#       8
#     2   2   2   2   2   2   2   2
#     4  12  25  47  78 104 149 200 251 302 374 454
#     4  12  25  46  74 104 144 199 248 302 370 450
#     4  11  25  46  74 105 144 190 247 304 371 446
#     4  12  26  46  75 109 145 192 247 310 375 445
#     4  11  26  47  74 107 144 195 244 306 374 449
#     4  12  26  45  70 109 147 189 247 309 369 439
#     4  12  27  47  74 107 148 196 249 305 377 449
#     4  12  26  44  71 110 148 191 245 307 373 436
#
# _framework density 24.661296
#
# number of rings (size 3 to 8) (size 9 to 14) (size 15 to 20)
#    0.000    0.250    0.000   10.500    5.250    1.000 
#    2.250    0.000    0.000    0.000    0.000    0.000 
#    0.000    0.000    0.000    0.000    0.000    0.000 
#
# Total GULP energy -89280.598421 kJ/mol
# GULP energy per Si atom -5580.037401 kJ/mol
# Density = 2.460517 g / cm^3
# Si number density = 24.661296 Si / 1000 Ang^3
#
#
#
# Elastic Constant Matrix: (Units=GPa)
#
#
# Indices 1 2 3 4 5 6 
#
# 1 160.6447 41.6975 50.6430 1.9457 2.2018 0.9827
# 2 41.6975 135.7482 19.9041 11.1313 -15.6374 17.7032
# 3 50.6430 19.9041 80.1577 -2.2410 0.2466 4.2134
# 4 1.9457 11.1313 -2.2410 35.3632 2.1952 -1.0104
# 5 2.2018 -15.6374 0.2466 2.1952 61.8648 -10.0783
# 6 0.9827 17.7032 4.2134 -1.0104 -10.0783 48.1510
#
#
#
# Elastic Compliance Matrix: (Units=1/GPa)
#
#
# Indices 1 2 3 4 5 6 
#
# 1 0.008253 -0.002018 -0.004757 -0.000056 -0.000644 0.000854
# 2 -0.002018 0.008957 -0.000890 -0.002969 0.001985 -0.002821
# 3 -0.004757 -0.000890 0.015798 0.001535 -0.000335 -0.000996
# 4 -0.000056 -0.002969 0.001535 0.029447 -0.001597 0.001242
# 5 -0.000644 0.001985 -0.000335 -0.001597 0.017217 0.002883
# 6 0.000854 -0.002821 -0.000996 0.001242 0.002883 0.022504
#
#
# Mechanical properties :
#
#
# Convention : Reuss Voigt Hill
#
# Bulk Modulus (GPa) = 56.57019 66.78218 61.67619
# Shear Modulus (GPa) = 40.51867 46.69619 43.60743
#
# Velocity S-wave (km/s) = 4.05780 4.35616 4.20962
# Velocity P-wave (km/s) = 6.70395 7.24155 6.97793
#
# Compressibility (1/GPa) = 0.01767715
#
# Stress axis : x y z
#
# Youngs Moduli (GPa) = 121.17015 111.64438 63.29791
#
# Poissons Ratio (x) = 0.22535 0.30113
# Poissons Ratio (y) = 0.24457 0.05632
# Poissons Ratio (z) = 0.57645 0.09933
#
# Static dielectric constant tensor:
#      x y z
#    x 2.072360 -0.020270 0.017390 
#    y -0.020270 2.006450 -0.107810 
#    z 0.017390 -0.107810 2.192990 
# 
# From -- ./inp_files/223418.got.cif
#   From: 2010.05.17/outbox.cif.g08.bks.cpg/sg2_112_cif.got.tgz:223418.got - 2010.06.03 11:33:40.
