data_PCOD9066597
_publ_section_title
;
Structure prediction by ZEFSAII (Michael W. Deem and Ramdas Pophale) SiO2 
 PCOD9066597
Probable space group: P -1
;
_chemical_formula_sum "Si O2"
_cell_formula_units_Z 16
_cell_length_a 8.823580
_cell_length_b 9.456791
_cell_length_c 12.030910
_cell_angle_alpha 130.489111
_cell_angle_beta 83.957796
_cell_angle_gamma 87.569397
_cell_volume 751.062680
_symmetry_space_group_name_H-M "P -1"
_symmetry_group_IT_number 2
_symmetry_cell_setting 'triclinic'
loop_
_space_group_symop_operation_xyz
x,y,z
-x,-y,-z
loop_
_atom_site_type_symbol
_atom_site_label
_atom_site_fract_x
_atom_site_fract_y
_atom_site_fract_z
Si Si1 0.061397 0.343276 0.008526
Si Si2 0.389493 0.859793 0.975370
Si Si3 0.048566 0.558671 0.690312
Si Si4 0.608055 0.806787 0.377741
Si Si5 0.922593 0.966024 0.805219
Si Si6 0.401981 0.518816 0.629255
Si Si7 0.587412 0.675577 0.062786
Si Si8 0.080417 0.147320 0.498239
O O1 0.241835 0.357097 0.020616
O O2 0.036437 0.126690 0.874890
O O3 0.000000 0.500000 0.000000
O O4 0.964419 0.397549 0.155172
O O5 0.399282 0.703229 0.799053
O O6 0.466070 0.793507 0.052291
O O7 0.500000 0.000000 0.000000
O O8 0.215928 0.951443 0.060592
O O9 0.223619 0.513310 0.611349
O O10 0.986554 0.356075 0.584375
O O11 0.980216 0.753939 0.735742
O O12 0.542942 0.649920 0.376305
O O13 0.615389 0.757961 0.223158
O O14 0.775516 0.818073 0.420317
O O15 0.500000 0.000000 0.500000
O O16 0.870228 0.943927 0.671044
O O17 0.500000 0.500000 0.500000
O O18 0.500000 0.500000 0.000000
O O19 0.000000 0.000000 0.500000
#
# Coordination Sequence:
#
# PCOD9066597 Si02
#       8
#     2   2   2   2   2   2   2   2
#     4  12  24  44  74 103 144 193 241 303 360 427
#     4  12  27  45  72 108 143 191 246 296 364 426
#     4  11  25  46  72 105 142 192 244 294 368 432
#     4  11  25  47  69 102 140 187 234 292 363 426
#     4  12  25  47  74 104 149 191 246 302 355 444
#     4  11  26  47  71 102 150 188 237 302 362 434
#     4  12  25  46  73 106 143 187 246 299 358 431
#     4  11  25  47  69 105 142 185 237 294 362 430
#
# _framework density 21.303149000000001
#
# number of rings (size 3 to 8) (size 9 to 14) (size 15 to 20)
#    0.000    0.500    2.500    6.000    7.000    2.000 
#    4.500    0.000    0.000    0.000    0.000    0.000 
#    0.000    0.000    0.000    0.000    0.000    0.000 
#
# Total GULP energy -89367.092716 kJ/mol
# GULP energy per Si atom -5585.443295 kJ/mol
# Density = 2.125466 g / cm^3
# Si number density = 21.303149 Si / 1000 Ang^3
#
#
#
# Elastic Constant Matrix: (Units=GPa)
#
#
# Indices 1 2 3 4 5 6 
#
# 1 78.4263 34.1419 22.0042 14.6847 -12.0548 14.3142
# 2 34.1419 164.9339 48.9756 16.3860 -12.2152 14.9903
# 3 22.0042 48.9756 135.1587 -4.9030 -5.1151 12.8930
# 4 14.6847 16.3860 -4.9030 52.1640 3.9682 2.9025
# 5 -12.0548 -12.2152 -5.1151 3.9682 39.6409 4.4904
# 6 14.3142 14.9903 12.8930 2.9025 4.4904 37.4751
#
#
#
# Elastic Compliance Matrix: (Units=1/GPa)
#
#
# Indices 1 2 3 4 5 6 
#
# 1 0.016537 -0.001638 -0.001536 -0.004392 0.005381 -0.005438
# 2 -0.001638 0.007613 -0.002338 -0.002205 0.001957 -0.001679
# 3 -0.001536 -0.002338 0.008724 0.002084 -0.000086 -0.001631
# 4 -0.004392 -0.002205 0.002084 0.021562 -0.003978 0.000649
# 5 0.005381 0.001957 -0.000086 -0.003978 0.028524 -0.005919
# 6 -0.005438 -0.001679 -0.001631 0.000649 -0.005919 0.030653
#
#
# Mechanical properties :
#
#
# Convention : Reuss Voigt Hill
#
# Bulk Modulus (GPa) = 45.76528 65.41804 55.59166
# Shear Modulus (GPa) = 37.90232 44.08249 40.99241
#
# Velocity S-wave (km/s) = 4.22262 4.55389 4.39138
# Velocity P-wave (km/s) = 6.73079 7.64365 7.20170
#
# Compressibility (1/GPa) = 0.02185062
#
# Stress axis : x y z
#
# Youngs Moduli (GPa) = 60.47131 131.35553 114.63022
#
# Poissons Ratio (x) = 0.21517 0.17603
# Poissons Ratio (y) = 0.09906 0.26797
# Poissons Ratio (z) = 0.09286 0.30707
#
# Static dielectric constant tensor:
#      x y z
#    x 1.788320 0.004550 -0.032310 
#    y 0.004550 1.774460 0.028310 
#    z -0.032310 0.028310 1.811450 
# 
# From -- ./inp_files/243989.got.cif
#   From: 2010.05.17/outbox.cif.g08.bks.cpg/sg2_122_cif.got.tgz:243989.got - 2010.06.03 11:33:40.
