data_PCOD9066199
_publ_section_title
;
Structure prediction by ZEFSAII (Michael W. Deem and Ramdas Pophale) SiO2 
 PCOD9066199
Probable space group: P -1
;
_chemical_formula_sum "Si O2"
_cell_formula_units_Z 14
_cell_length_a 6.598906
_cell_length_b 15.672324
_cell_length_c 24.108897
_cell_angle_alpha 157.679052
_cell_angle_beta 138.645016
_cell_angle_gamma 45.089290
_cell_volume 625.006152
_symmetry_space_group_name_H-M "P -1"
_symmetry_group_IT_number 2
_symmetry_cell_setting 'triclinic'
loop_
_space_group_symop_operation_xyz
x,y,z
-x,-y,-z
loop_
_atom_site_type_symbol
_atom_site_label
_atom_site_fract_x
_atom_site_fract_y
_atom_site_fract_z
Si Si1 0.300929 0.552071 0.786127
Si Si2 0.635513 0.501898 0.937582
Si Si3 0.643711 0.660307 0.673076
Si Si4 0.642274 0.908143 0.312499
Si Si5 0.396014 0.004138 0.916806
Si Si6 0.661519 0.154776 0.581354
Si Si7 0.292887 0.967889 0.180338
O O1 0.429438 0.456950 0.813669
O O2 0.484885 0.395188 0.685914
O O3 0.942188 0.547645 0.696967
O O4 0.407713 0.804724 0.955740
O O5 0.560636 0.306433 0.847413
O O6 0.497476 0.745324 0.073517
O O7 0.000000 0.500000 0.000000
O O8 0.500000 0.500000 0.500000
O O9 0.747888 0.867579 0.780899
O O10 0.441632 0.779599 0.753050
O O11 0.489752 0.068202 0.330798
O O12 0.985401 0.824841 0.316967
O O13 0.654303 0.039065 0.450989
O O14 0.038887 0.078713 0.891656
O O15 0.500000 0.000000 0.000000
O O16 0.500000 0.000000 0.500000
#
# Coordination Sequence:
#
# PCOD9066199 Si02
#       7
#     2   2   2   2   2   2   2
#     4  12  24  47  77 100 145 191 245 301 364 438
#     4  12  24  44  77 107 144 193 244 306 367 437
#     4  12  30  46  73 110 146 196 242 308 376 433
#     4  11  26  43  70 109 141 191 240 291 378 439
#     4  12  25  49  75 104 141 195 251 298 366 441
#     4  11  25  45  71 103 146 191 236 302 368 432
#     4  12  26  45  73 102 150 183 246 297 368 443
#
# _framework density 22.39978
#
# number of rings (size 3 to 8) (size 9 to 14) (size 15 to 20)
#    0.000    0.286    4.286    4.286    4.000    1.714 
#    0.000    0.000    0.000    0.000    0.000    0.000 
#    0.000    0.000    0.000    0.000    0.000    0.000 
#
# Total GULP energy -78267.533709 kJ/mol
# GULP energy per Si atom -5590.538122 kJ/mol
# Density = 2.234880 g / cm^3
# Si number density = 22.399780 Si / 1000 Ang^3
#
#
#
# Elastic Constant Matrix: (Units=GPa)
#
#
# Indices 1 2 3 4 5 6 
#
# 1 109.2726 45.4134 51.2047 -20.6143 -7.1585 -23.0421
# 2 45.4134 119.8108 33.8107 -36.1372 -5.6783 -15.4936
# 3 51.2047 33.8107 98.0892 -11.3736 -10.9686 -22.6341
# 4 -20.6143 -36.1372 -11.3736 32.4580 -4.4555 5.4156
# 5 -7.1585 -5.6783 -10.9686 -4.4555 40.3119 -3.0886
# 6 -23.0421 -15.4936 -22.6341 5.4156 -3.0886 51.2091
#
#
#
# Elastic Compliance Matrix: (Units=1/GPa)
#
#
# Indices 1 2 3 4 5 6 
#
# 1 0.014033 -0.002008 -0.005245 0.004546 0.001514 0.002999
# 2 -0.002008 0.014089 -0.001546 0.014034 0.002863 0.001364
# 3 -0.005245 -0.001546 0.014695 -0.000118 0.003133 0.003869
# 4 0.004546 0.014034 -0.000118 0.050194 0.008410 0.001439
# 5 0.001514 0.002863 0.003133 0.008410 0.027544 0.003704
# 6 0.002999 0.001364 0.003869 0.001439 0.003704 0.023071
#
#
# Mechanical properties :
#
#
# Convention : Reuss Voigt Hill
#
# Bulk Modulus (GPa) = 39.65217 65.33671 52.49444
# Shear Modulus (GPa) = 29.47573 37.91206 33.69389
#
# Velocity S-wave (km/s) = 3.63146 4.11849 3.88262
# Velocity P-wave (km/s) = 5.94338 7.20053 6.60195
#
# Compressibility (1/GPa) = 0.02521930
#
# Stress axis : x y z
#
# Youngs Moduli (GPa) = 71.26069 70.97707 68.05113
#
# Poissons Ratio (x) = 0.14253 0.35691
# Poissons Ratio (y) = 0.14310 0.10519
# Poissons Ratio (z) = 0.37375 0.10972
#
# Static dielectric constant tensor:
#      x y z
#    x 1.868290 0.045270 -0.076950 
#    y 0.045270 1.848710 -0.027730 
#    z -0.076950 -0.027730 1.901870 
# 
# From -- ./inp_files/604645.got.cif
#   From: 2010.05.17/outbox.cif.g08.bks.cpg/sg2_303_cif.got.tgz:604645.got - 2010.06.03 11:33:40.
