data_PCOD9066802
_publ_section_title
;
Structure prediction by ZEFSAII (Michael W. Deem and Ramdas Pophale) SiO2 
 PCOD9066802
Probable space group: P -1
;
_chemical_formula_sum "Si O2"
_cell_formula_units_Z 14
_cell_length_a 11.712265
_cell_length_b 21.090622
_cell_length_c 14.604112
_cell_angle_alpha 20.227604
_cell_angle_beta 28.625756
_cell_angle_gamma 29.995614
_cell_volume 577.623084
_symmetry_space_group_name_H-M "P -1"
_symmetry_group_IT_number 2
_symmetry_cell_setting 'triclinic'
loop_
_space_group_symop_operation_xyz
x,y,z
-x,-y,-z
loop_
_atom_site_type_symbol
_atom_site_label
_atom_site_fract_x
_atom_site_fract_y
_atom_site_fract_z
Si Si1 0.674907 0.653176 0.247683
Si Si2 0.211736 0.313978 0.082505
Si Si3 0.957594 0.941262 0.007224
Si Si4 0.899177 0.314689 0.984770
Si Si5 0.387995 0.596803 0.203714
Si Si6 0.137187 0.911013 0.303027
Si Si7 0.378780 0.324550 0.413382
O O1 0.688024 0.477274 0.545211
O O2 0.423418 0.802808 0.256810
O O3 0.663265 0.654622 0.144204
O O4 0.944131 0.685526 0.033589
O O5 0.057781 0.155739 0.405435
O O6 0.397004 0.307302 0.045804
O O7 0.000000 0.500000 0.000000
O O8 0.713312 0.865657 0.268925
O O9 0.186856 0.761427 0.072719
O O10 0.940311 0.109768 0.719420
O O11 0.000000 0.000000 0.000000
O O12 0.630981 0.287139 0.230296
O O13 0.835148 0.512167 0.706745
O O14 0.077838 0.136886 0.049723
O O15 0.433963 0.417756 0.344330
#
# Coordination Sequence:
#
# PCOD9066802 Si02
#       7
#     2   2   2   2   2   2   2
#     4  12  26  49  76 108 152 201 250 304 381 443
#     4  12  28  47  72 113 153 198 253 305 374 446
#     4  12  27  46  78 112 149 196 251 315 373 443
#     4  11  25  46  77 109 151 199 250 312 371 450
#     4  12  24  49  79 104 152 204 246 310 377 447
#     4  12  28  48  73 114 152 195 255 308 375 444
#     4  11  25  49  75 112 151 194 254 309 381 439
#
# _framework density 24.237259000000002
#
# number of rings (size 3 to 8) (size 9 to 14) (size 15 to 20)
#    0.000    0.286    4.286    3.857    6.000    3.429 
#    0.000    0.000    0.000    0.000    0.000    0.000 
#    0.000    0.000    0.000    0.000    0.000    0.000 
#
# Total GULP energy -78206.569774 kJ/mol
# GULP energy per Si atom -5586.183555 kJ/mol
# Density = 2.418209 g / cm^3
# Si number density = 24.237259 Si / 1000 Ang^3
#
#
#
# Elastic Constant Matrix: (Units=GPa)
#
#
# Indices 1 2 3 4 5 6 
#
# 1 122.9437 14.1136 9.2966 7.5094 2.1177 -10.6941
# 2 14.1136 82.1718 13.0749 4.7498 1.1528 -15.5858
# 3 9.2966 13.0749 63.3864 16.6865 7.8938 -7.2516
# 4 7.5094 4.7498 16.6865 31.8817 -4.3409 -0.5517
# 5 2.1177 1.1528 7.8938 -4.3409 37.1820 1.1145
# 6 -10.6941 -15.5858 -7.2516 -0.5517 1.1145 51.7580
#
#
#
# Elastic Compliance Matrix: (Units=1/GPa)
#
#
# Indices 1 2 3 4 5 6 
#
# 1 0.008516 -0.001035 -0.000342 -0.001734 -0.000625 0.001395
# 2 -0.001035 0.013377 -0.002021 -0.000645 -0.000108 0.003527
# 3 -0.000342 -0.002021 0.020015 -0.010805 -0.005492 0.002128
# 4 -0.001734 -0.000645 -0.010805 0.038441 0.006955 -0.001806
# 5 -0.000625 -0.000108 -0.005492 0.006955 0.028956 -0.001480
# 6 0.001395 0.003527 0.002128 -0.001806 -0.001480 0.020982
#
#
# Mechanical properties :
#
#
# Convention : Reuss Voigt Hill
#
# Bulk Modulus (GPa) = 28.47902 37.94132 33.21017
# Shear Modulus (GPa) = 33.60524 39.63214 36.61869
#
# Velocity S-wave (km/s) = 3.72763 4.04812 3.89117
# Velocity P-wave (km/s) = 5.50478 6.12681 5.82410
#
# Compressibility (1/GPa) = 0.03511356
#
# Stress axis : x y z
#
# Youngs Moduli (GPa) = 117.41977 74.75746 49.96223
#
# Poissons Ratio (x) = 0.07736 0.01708
# Poissons Ratio (y) = 0.12150 0.10096
# Poissons Ratio (z) = 0.04013 0.15106
#
# Static dielectric constant tensor:
#      x y z
#    x 2.047320 0.070730 -0.102460 
#    y 0.070730 1.948420 -0.009610 
#    z -0.102460 -0.009610 2.157920 
# 
# From -- ./inp_files/523988.got.cif
#   From: 2010.05.17/outbox.cif.g08.bks.cpg/sg2_262_cif.got.tgz:523988.got - 2010.06.03 11:33:40.
