data_PCOD9066606
_publ_section_title
;
Structure prediction by ZEFSAII (Michael W. Deem and Ramdas Pophale) SiO2 
 PCOD9066606
Probable space group: P -1
;
_chemical_formula_sum "Si O2"
_cell_formula_units_Z 16
_cell_length_a 5.452107
_cell_length_b 8.693674
_cell_length_c 19.114562
_cell_angle_alpha 51.184087
_cell_angle_beta 114.051620
_cell_angle_gamma 115.579247
_cell_volume 624.538478
_symmetry_space_group_name_H-M "P -1"
_symmetry_group_IT_number 2
_symmetry_cell_setting 'triclinic'
loop_
_space_group_symop_operation_xyz
x,y,z
-x,-y,-z
loop_
_atom_site_type_symbol
_atom_site_label
_atom_site_fract_x
_atom_site_fract_y
_atom_site_fract_z
Si Si1 0.695689 0.441113 0.449378
Si Si2 0.113763 0.570946 0.159826
Si Si3 0.789764 0.115830 0.032722
Si Si4 0.515700 0.210297 0.616080
Si Si5 0.524878 0.345445 0.309666
Si Si6 0.800538 0.108167 0.803657
Si Si7 0.640482 0.318336 0.088775
Si Si8 0.964341 0.094146 0.392547
O O1 0.574991 0.226328 0.535842
O O2 0.486682 0.572544 0.413326
O O3 0.704915 0.458718 0.362918
O O4 0.000000 0.500000 0.500000
O O5 0.388151 0.485207 0.203579
O O6 0.178362 0.682107 0.210932
O O7 0.851650 0.390830 0.157174
O O8 0.067480 0.754223 0.053549
O O9 0.793498 0.277172 0.048092
O O10 0.916718 0.947492 0.130324
O O11 0.500000 0.000000 0.000000
O O12 0.731800 0.127643 0.709378
O O13 0.199573 0.086800 0.624316
O O14 0.732971 0.225245 0.335304
O O15 0.251271 0.211674 0.356910
O O16 0.571565 0.902980 0.859724
O O17 0.500000 0.500000 0.000000
O O18 0.000000 0.000000 0.500000
#
# Coordination Sequence:
#
# PCOD9066606 Si02
#       8
#     2   2   2   2   2   2   2   2
#     4  11  25  46  72 106 146 201 246 314 383 458
#     4  12  26  49  74 110 152 195 254 315 381 461
#     4  12  26  46  76 107 146 197 246 312 383 452
#     4  11  26  44  74 105 149 193 254 313 383 460
#     4  12  28  48  77 113 152 202 257 316 387 455
#     4  12  26  49  72 110 147 198 250 313 382 456
#     4  12  26  47  77 105 148 197 253 312 384 458
#     4  12  26  49  78 111 152 202 256 321 386 458
#
# _framework density 25.618915000000001
#
# number of rings (size 3 to 8) (size 9 to 14) (size 15 to 20)
#    0.000    0.250    5.000    3.375    5.250    4.000 
#    0.000    0.000    0.000    0.000    0.000    0.000 
#    0.000    0.000    0.000    0.000    0.000    0.000 
#
# Total GULP energy -89465.807603 kJ/mol
# GULP energy per Si atom -5591.612975 kJ/mol
# Density = 2.556061 g / cm^3
# Si number density = 25.618915 Si / 1000 Ang^3
#
#
#
# Elastic Constant Matrix: (Units=GPa)
#
#
# Indices 1 2 3 4 5 6 
#
# 1 71.5493 21.4725 22.4521 1.3197 26.1803 4.7010
# 2 21.4725 118.9922 26.8279 15.9700 9.8754 21.4591
# 3 22.4521 26.8279 140.0807 25.6411 34.2319 1.4199
# 4 1.3197 15.9700 25.6411 34.3638 2.8746 11.7837
# 5 26.1803 9.8754 34.2319 2.8746 49.3667 -0.2528
# 6 4.7010 21.4591 1.4199 11.7837 -0.2528 52.4720
#
#
#
# Elastic Compliance Matrix: (Units=1/GPa)
#
#
# Indices 1 2 3 4 5 6 
#
# 1 0.018188 -0.002481 -0.000648 0.002054 -0.008825 -0.001101
# 2 -0.002481 0.010017 -0.001038 -0.002688 0.000171 -0.003242
# 3 -0.000648 -0.001038 0.010245 -0.007243 -0.006122 0.001802
# 4 0.002054 -0.002688 -0.007243 0.038034 0.002218 -0.007419
# 5 -0.008825 0.000171 -0.006122 0.002218 0.029021 0.000528
# 6 -0.001101 -0.003242 0.001802 -0.007419 0.000528 0.022102
#
#
# Mechanical properties :
#
#
# Convention : Reuss Voigt Hill
#
# Bulk Modulus (GPa) = 33.20463 52.45856 42.83160
# Shear Modulus (GPa) = 34.25176 44.56518 39.40847
#
# Velocity S-wave (km/s) = 3.66043 4.17531 3.92632
# Velocity P-wave (km/s) = 5.55465 6.61553 6.10816
#
# Compressibility (1/GPa) = 0.03011628
#
# Stress axis : x y z
#
# Youngs Moduli (GPa) = 54.98203 99.83366 97.60931
#
# Poissons Ratio (x) = 0.24764 0.06328
# Poissons Ratio (y) = 0.13638 0.10129
# Poissons Ratio (z) = 0.03564 0.10360
#
# Static dielectric constant tensor:
#      x y z
#    x 2.108140 0.010490 -0.052810 
#    y 0.010490 2.121210 -0.121040 
#    z -0.052810 -0.121040 2.095740 
# 
# From -- ./inp_files/124751.got.cif
#   From: 2010.05.17/outbox.cif.g08.bks.cpg/sg2_63_cif.got.tgz:124751.got - 2010.06.03 11:33:40.
