data_PCOD9066233
_publ_section_title
;
Structure prediction by ZEFSAII (Michael W. Deem and Ramdas Pophale) SiO2 
 PCOD9066233
Probable space group: P -1
;
_chemical_formula_sum "Si O2"
_cell_formula_units_Z 12
_cell_length_a 14.642119
_cell_length_b 9.535947
_cell_length_c 15.436722
_cell_angle_alpha 51.880755
_cell_angle_beta 159.933510
_cell_angle_gamma 126.621081
_cell_volume 580.696391
_symmetry_space_group_name_H-M "P -1"
_symmetry_group_IT_number 2
_symmetry_cell_setting 'triclinic'
loop_
_space_group_symop_operation_xyz
x,y,z
-x,-y,-z
loop_
_atom_site_type_symbol
_atom_site_label
_atom_site_fract_x
_atom_site_fract_y
_atom_site_fract_z
Si Si1 0.237883 0.881960 0.730596
Si Si2 0.265534 0.619593 0.210338
Si Si3 0.560130 0.247359 0.872471
Si Si4 0.723676 0.384585 0.287254
Si Si5 0.988258 0.210646 0.919484
Si Si6 0.409703 0.623833 0.631517
O O1 0.221104 0.776999 0.666143
O O2 0.471166 0.037765 0.870601
O O3 0.265403 0.746196 0.886741
O O4 0.000000 0.000000 0.500000
O O5 0.500000 0.500000 0.500000
O O6 0.337341 0.709676 0.148406
O O7 0.180397 0.751177 0.159364
O O8 0.000000 0.500000 0.000000
O O9 0.371543 0.409731 0.662419
O O10 0.624065 0.332611 0.314222
O O11 0.000000 0.500000 0.500000
O O12 0.500000 0.500000 0.000000
O O13 0.815554 0.286511 0.658656
O O14 0.287727 0.307410 0.152738
O O15 0.000000 0.000000 0.000000
#
# Coordination Sequence:
#
# PCOD9066233 Si02
#       6
#     2   2   2   2   2   2
#     4  11  27  45  73 108 145 188 243 302 347 431
#     4  12  25  45  74 104 136 190 239 289 356 427
#     4  11  25  45  72 103 147 184 245 287 364 413
#     4  12  26  46  73 104 143 188 238 286 363 425
#     4  12  27  47  70 106 143 183 240 296 362 422
#     4  12  25  47  74 101 145 192 229 299 361 430
#
# _framework density 20.664843999999999
#
# number of rings (size 3 to 8) (size 9 to 14) (size 15 to 20)
#    0.000    0.333    5.000    2.500    9.333    1.333 
#    0.000    0.000    0.000    0.000    0.000    0.000 
#    0.000    0.000    0.000    0.000    0.000    0.000 
#
# Total GULP energy -67023.700700 kJ/mol
# GULP energy per Si atom -5585.308392 kJ/mol
# Density = 2.061781 g / cm^3
# Si number density = 20.664844 Si / 1000 Ang^3
#
#
#
# Elastic Constant Matrix: (Units=GPa)
#
#
# Indices 1 2 3 4 5 6 
#
# 1 195.5066 52.0511 36.2039 -12.0594 -19.3462 -20.6354
# 2 52.0511 110.4404 47.5933 -13.3980 -8.6831 -30.1789
# 3 36.2039 47.5933 132.8382 -12.2993 -6.2114 5.9612
# 4 -12.0594 -13.3980 -12.2993 41.3925 3.0664 0.7477
# 5 -19.3462 -8.6831 -6.2114 3.0664 36.9084 -6.3087
# 6 -20.6354 -30.1789 5.9612 0.7477 -6.3087 53.2492
#
#
#
# Elastic Compliance Matrix: (Units=1/GPa)
#
#
# Indices 1 2 3 4 5 6 
#
# 1 0.006295 -0.001683 -0.000991 0.000737 0.003007 0.001942
# 2 -0.001683 0.014853 -0.004877 0.002485 0.003061 0.008639
# 3 -0.000991 -0.004877 0.009811 0.001191 -0.000861 -0.004365
# 4 0.000737 0.002485 0.001191 0.025568 -0.000763 0.001111
# 5 0.003007 0.003061 -0.000861 -0.000763 0.030440 0.006614
# 6 0.001942 0.008639 -0.004365 0.001111 0.006614 0.025685
#
#
# Mechanical properties :
#
#
# Convention : Reuss Voigt Hill
#
# Bulk Modulus (GPa) = 63.06630 78.94244 71.00437
# Shear Modulus (GPa) = 37.58291 46.50582 42.04437
#
# Velocity S-wave (km/s) = 4.26923 4.74907 4.51553
# Velocity P-wave (km/s) = 7.40856 8.26776 7.84992
#
# Compressibility (1/GPa) = 0.01585633
#
# Stress axis : x y z
#
# Youngs Moduli (GPa) = 158.86756 67.32835 101.92373
#
# Poissons Ratio (x) = 0.11332 0.10099
# Poissons Ratio (y) = 0.26739 0.49710
# Poissons Ratio (z) = 0.15741 0.32837
#
# Static dielectric constant tensor:
#      x y z
#    x 1.766710 -0.069120 -0.008690 
#    y -0.069120 1.751060 0.068250 
#    z -0.008690 0.068250 1.776860 
# 
# From -- ./inp_files/18470.got.cif
#   From: 2010.05.17/outbox.cif.g08.bks.cpg/sg2_10_cif.got.tgz:18470.got - 2010.06.03 11:33:40.
