data_PCOD9066043
_publ_section_title
;
Structure prediction by ZEFSAII (Michael W. Deem and Ramdas Pophale) SiO2 
 PCOD9066043
Probable space group: P -1
;
_chemical_formula_sum "Si O2"
_cell_formula_units_Z 16
_cell_length_a 12.142875
_cell_length_b 8.702717
_cell_length_c 9.006775
_cell_angle_alpha 98.420436
_cell_angle_beta 132.782497
_cell_angle_gamma 92.300200
_cell_volume 678.137251
_symmetry_space_group_name_H-M "P -1"
_symmetry_group_IT_number 2
_symmetry_cell_setting 'triclinic'
loop_
_space_group_symop_operation_xyz
x,y,z
-x,-y,-z
loop_
_atom_site_type_symbol
_atom_site_label
_atom_site_fract_x
_atom_site_fract_y
_atom_site_fract_z
Si Si1 0.857974 0.375448 0.931151
Si Si2 0.138418 0.054682 0.467458
Si Si3 0.665438 0.576048 0.958097
Si Si4 0.328421 0.565647 0.726276
Si Si5 0.815377 0.915261 0.021921
Si Si6 0.957175 0.618224 0.604689
Si Si7 0.682665 0.023314 0.637571
Si Si8 0.675150 0.079919 0.142314
O O1 0.928297 0.338231 0.149547
O O2 0.727182 0.467798 0.878887
O O3 0.774781 0.208339 0.756716
O O4 0.000000 0.500000 0.000000
O O5 0.091928 0.223080 0.475585
O O6 0.288507 0.048977 0.506077
O O7 0.190440 0.983073 0.655394
O O8 0.993344 0.958135 0.231742
O O9 0.485677 0.565434 0.789894
O O10 0.687570 0.527409 0.143504
O O11 0.747829 0.752364 0.018803
O O12 0.195601 0.487701 0.484596
O O13 0.311797 0.739865 0.779294
O O14 0.717947 0.042951 0.010476
O O15 0.772790 0.919332 0.811947
O O16 0.000000 0.500000 0.500000
O O17 0.500000 0.000000 0.500000
O O18 0.500000 0.000000 0.000000
#
# Coordination Sequence:
#
# PCOD9066043 Si02
#       8
#     2   2   2   2   2   2   2   2
#     4  12  28  50  77 111 154 207 256 317 385 464
#     4  12  28  48  76 112 152 201 253 314 380 455
#     4  11  25  44  76 107 154 191 250 318 386 452
#     4  11  25  44  72 112 150 193 248 318 389 449
#     4  12  24  48  75 110 148 199 256 313 378 458
#     4  12  26  48  76 110 150 196 252 316 384 452
#     4  12  29  52  78 108 160 206 260 313 383 464
#     4  12  25  44  74 110 149 197 255 314 379 453
#
# _framework density 23.594044
#
# number of rings (size 3 to 8) (size 9 to 14) (size 15 to 20)
#    0.000    0.250    3.750    4.500    8.750    0.000 
#    0.000    1.250    0.000    0.000    0.000    0.000 
#    0.000    0.000    0.000    0.000    0.000    0.000 
#
# Total GULP energy -89431.211647 kJ/mol
# GULP energy per Si atom -5589.450728 kJ/mol
# Density = 2.354034 g / cm^3
# Si number density = 23.594044 Si / 1000 Ang^3
#
#
#
# Elastic Constant Matrix: (Units=GPa)
#
#
# Indices 1 2 3 4 5 6 
#
# 1 108.0627 62.7787 -6.8831 9.5614 4.0816 -23.7506
# 2 62.7787 156.6009 39.9468 10.3500 22.2437 6.1201
# 3 -6.8831 39.9468 67.0497 7.4513 17.3813 -3.1297
# 4 9.5614 10.3500 7.4513 25.5912 3.1459 5.8175
# 5 4.0816 22.2437 17.3813 3.1459 35.9426 -2.4980
# 6 -23.7506 6.1201 -3.1297 5.8175 -2.4980 37.8877
#
#
#
# Elastic Compliance Matrix: (Units=1/GPa)
#
#
# Indices 1 2 3 4 5 6 
#
# 1 0.021523 -0.011600 0.010705 -0.010779 0.001754 0.018021
# 2 -0.011600 0.014210 -0.009646 0.004457 -0.003988 -0.011311
# 3 0.010705 -0.009646 0.024773 -0.009200 -0.005631 0.011356
# 4 -0.010779 0.004457 -0.009200 0.047848 -0.002367 -0.015740
# 5 0.001754 -0.003988 -0.005631 -0.002367 0.033288 0.003837
# 6 0.018021 -0.011311 0.011356 -0.015740 0.003837 0.043125
#
#
# Mechanical properties :
#
#
# Convention : Reuss Voigt Hill
#
# Bulk Modulus (GPa) = 25.36599 58.15535 41.76067
# Shear Modulus (GPa) = 22.83196 35.60901 29.22048
#
# Velocity S-wave (km/s) = 3.11416 3.88910 3.52301
# Velocity P-wave (km/s) = 4.86878 6.69841 5.85550
#
# Compressibility (1/GPa) = 0.03942286
#
# Stress axis : x y z
#
# Youngs Moduli (GPa) = 46.46269 70.37077 40.36721
#
# Poissons Ratio (x) = 0.81628 -0.43212
# Poissons Ratio (y) = 0.53895 0.38940
# Poissons Ratio (z) = -0.49737 0.67883
#
# Static dielectric constant tensor:
#      x y z
#    x 1.926240 0.009520 -0.007840 
#    y 0.009520 1.937670 0.001810 
#    z -0.007840 0.001810 1.964380 
# 
# From -- ./inp_files/244804.got.cif
#   From: 2010.05.17/outbox.cif.g08.bks.cpg/sg2_123_cif.got.tgz:244804.got - 2010.06.03 11:33:40.
