data_PCOD9066038
_publ_section_title
;
Structure prediction by ZEFSAII (Michael W. Deem and Ramdas Pophale) SiO2 
 PCOD9066038
Probable space group: P -1
;
_chemical_formula_sum "Si O2"
_cell_formula_units_Z 16
_cell_length_a 11.323316
_cell_length_b 11.404139
_cell_length_c 6.596604
_cell_angle_alpha 97.164859
_cell_angle_beta 83.544290
_cell_angle_gamma 126.633950
_cell_volume 677.457534
_symmetry_space_group_name_H-M "P -1"
_symmetry_group_IT_number 2
_symmetry_cell_setting 'triclinic'
loop_
_space_group_symop_operation_xyz
x,y,z
-x,-y,-z
loop_
_atom_site_type_symbol
_atom_site_label
_atom_site_fract_x
_atom_site_fract_y
_atom_site_fract_z
Si Si1 0.243474 0.415663 0.071227
Si Si2 0.151212 0.868377 0.418743
Si Si3 0.632718 0.658939 0.593983
Si Si4 0.002359 0.602861 0.685797
Si Si5 0.720877 0.952096 0.209211
Si Si6 0.752692 0.208593 0.004659
Si Si7 0.895942 0.844471 0.257504
Si Si8 0.519340 0.276968 0.069697
O O1 0.304148 0.370003 0.227265
O O2 0.155403 0.470961 0.201329
O O3 0.132704 0.275824 0.924554
O O4 0.372248 0.548834 0.944936
O O5 0.047146 0.745766 0.580813
O O6 0.054440 0.913016 0.339475
O O7 0.284672 0.997161 0.554033
O O8 0.198323 0.797735 0.232151
O O9 0.500000 0.500000 0.500000
O O10 0.763946 0.752930 0.428005
O O11 0.570110 0.744806 0.715178
O O12 0.000000 0.500000 0.500000
O O13 0.120166 0.656947 0.854166
O O14 0.865167 0.953087 0.185490
O O15 0.725795 0.065254 0.081602
O O16 0.588335 0.794428 0.118809
O O17 0.612918 0.212023 0.043871
#
# Coordination Sequence:
#
# PCOD9066038 Si02
#       8
#     2   2   2   2   2   2   2   2
#     4  12  24  45  73 109 142 174 236 297 350 410
#     4  11  25  47  72 105 135 187 237 285 351 406
#     4  12  25  43  70 106 144 180 230 286 359 412
#     4  11  25  44  72 108 140 179 234 290 351 415
#     4  11  27  48  68 103 143 189 239 279 341 421
#     4  11  27  48  70 101 144 188 234 285 343 417
#     4  12  24  46  74 105 139 181 235 296 348 404
#     4  12  26  47  70 103 147 187 228 287 349 419
#
# _framework density 23.617716000000001
#
# number of rings (size 3 to 8) (size 9 to 14) (size 15 to 20)
#    0.000    0.500    5.000    2.625    5.250    2.000 
#    4.500    0.000    0.000    0.000    0.000    0.000 
#    0.000    0.000    0.000    0.000    0.000    0.000 
#
# Total GULP energy -89638.291190 kJ/mol
# GULP energy per Si atom -5602.393199 kJ/mol
# Density = 2.356396 g / cm^3
# Si number density = 23.617716 Si / 1000 Ang^3
#
#
#
# Elastic Constant Matrix: (Units=GPa)
#
#
# Indices 1 2 3 4 5 6 
#
# 1 123.5750 0.2774 46.4732 5.9978 -13.0337 -12.5508
# 2 0.2774 62.8604 22.4463 8.0770 3.7608 -4.3752
# 3 46.4732 22.4463 125.7245 26.1813 -12.4769 7.6036
# 4 5.9978 8.0770 26.1813 49.9003 -2.5505 4.4933
# 5 -13.0337 3.7608 -12.4769 -2.5505 46.8865 2.3012
# 6 -12.5508 -4.3752 7.6036 4.4933 2.3012 32.3202
#
#
#
# Elastic Compliance Matrix: (Units=1/GPa)
#
#
# Indices 1 2 3 4 5 6 
#
# 1 0.010397 0.001761 -0.004417 0.000386 0.001341 0.005166
# 2 0.001761 0.017990 -0.004047 -0.001520 -0.002331 0.004449
# 3 -0.004417 -0.004047 0.011729 -0.004445 0.002200 -0.004561
# 4 0.000386 -0.001520 -0.004445 0.022790 0.000395 -0.002207
# 5 0.001341 -0.002331 0.002200 0.000395 0.022592 -0.001976
# 6 0.005166 0.004449 -0.004561 -0.002207 -0.001976 0.035069
#
#
# Mechanical properties :
#
#
# Convention : Reuss Voigt Hill
#
# Bulk Modulus (GPa) = 37.43915 50.06154 43.75034
# Shear Modulus (GPa) = 34.99534 42.01895 38.50715
#
# Velocity S-wave (km/s) = 3.85351 4.22255 4.04224
# Velocity P-wave (km/s) = 5.97378 6.70938 6.35224
#
# Compressibility (1/GPa) = 0.02671001
#
# Stress axis : x y z
#
# Youngs Moduli (GPa) = 96.18255 55.58673 85.25881
#
# Poissons Ratio (x) = -0.09790 0.37662
# Poissons Ratio (y) = -0.16939 0.34502
# Poissons Ratio (z) = 0.42487 0.22494
#
# Static dielectric constant tensor:
#      x y z
#    x 1.865630 -0.014580 0.001630 
#    y -0.014580 1.935970 -0.006320 
#    z 0.001630 -0.006320 1.853010 
# 
# From -- ./inp_files/71246.got.cif
#   From: 2010.05.17/outbox.cif.g08.bks.cpg/sg2_36_cif.got.tgz:71246.got - 2010.06.03 11:33:40.
