data_PCOD9066945
_publ_section_title
;
Structure prediction by ZEFSAII (Michael W. Deem and Ramdas Pophale) SiO2 
 PCOD9066945
Probable space group: P -1
;
_chemical_formula_sum "Si O2"
_cell_formula_units_Z 14
_cell_length_a 5.023365
_cell_length_b 11.887794
_cell_length_c 15.031664
_cell_angle_alpha 43.324003
_cell_angle_beta 107.786688
_cell_angle_gamma 115.913576
_cell_volume 553.854737
_symmetry_space_group_name_H-M "P -1"
_symmetry_group_IT_number 2
_symmetry_cell_setting 'triclinic'
loop_
_space_group_symop_operation_xyz
x,y,z
-x,-y,-z
loop_
_atom_site_type_symbol
_atom_site_label
_atom_site_fract_x
_atom_site_fract_y
_atom_site_fract_z
Si Si1 0.597948 0.343489 0.059338
Si Si2 0.774511 0.102120 0.905560
Si Si3 0.787586 0.966682 0.584029
Si Si4 0.706678 0.064418 0.709373
Si Si5 0.192634 0.395889 0.197604
Si Si6 0.885225 0.492584 0.689426
Si Si7 0.673473 0.416273 0.466079
O O1 0.908136 0.357874 0.127510
O O2 0.423768 0.142025 0.169073
O O3 0.500000 0.500000 0.000000
O O4 0.617869 0.407508 0.922325
O O5 0.786215 0.120959 0.787570
O O6 0.848015 0.300113 0.827827
O O7 0.500000 0.000000 0.000000
O O8 0.000000 0.000000 0.000000
O O9 0.691419 0.762695 0.716023
O O10 0.500000 0.000000 0.500000
O O11 0.882716 0.067039 0.631533
O O12 0.000000 0.000000 0.500000
O O13 0.552244 0.209680 0.588439
O O14 0.101386 0.388052 0.294075
O O15 0.588098 0.498723 0.602394
O O16 0.198161 0.556123 0.635920
O O17 0.000000 0.500000 0.500000
#
# Coordination Sequence:
#
# PCOD9066945 Si02
#       7
#     2   2   2   2   2   2   2
#     4  11  25  47  73 109 152 204 254 316 391 457
#     4  12  29  48  78 116 155 207 266 319 389 466
#     4  12  26  46  73 114 148 196 255 313 387 462
#     4  12  27  49  82 108 164 199 268 324 395 460
#     4  11  26  46  76 110 156 201 260 318 393 464
#     4  12  27  50  79 112 159 200 260 323 387 469
#     4  12  27  50  77 113 153 204 256 319 393 459
#
# _framework density 25.277384999999999
#
# number of rings (size 3 to 8) (size 9 to 14) (size 15 to 20)
#    0.000    0.286    2.857    4.714    4.000    3.429 
#    0.000    0.000    0.000    0.000    0.000    0.000 
#    0.000    0.000    0.000    0.000    0.000    0.000 
#
# Total GULP energy -78049.357751 kJ/mol
# GULP energy per Si atom -5574.954125 kJ/mol
# Density = 2.521985 g / cm^3
# Si number density = 25.277385 Si / 1000 Ang^3
#
#
#
# Elastic Constant Matrix: (Units=GPa)
#
#
# Indices 1 2 3 4 5 6 
#
# 1 152.5587 9.9170 56.0438 -4.8525 20.3384 -19.0783
# 2 9.9170 70.7812 2.5688 -6.6540 4.6087 -28.1098
# 3 56.0438 2.5688 153.8342 -37.3532 21.0674 -2.2777
# 4 -4.8525 -6.6540 -37.3532 70.8285 -20.7752 -5.1053
# 5 20.3384 4.6087 21.0674 -20.7752 45.2900 -2.2996
# 6 -19.0783 -28.1098 -2.2777 -5.1053 -2.2996 24.4500
#
#
#
# Elastic Compliance Matrix: (Units=1/GPa)
#
#
# Indices 1 2 3 4 5 6 
#
# 1 0.009011 0.002670 -0.003013 -0.000880 -0.002845 0.009369
# 2 0.002670 0.028713 0.000471 0.005799 0.000166 0.036365
# 3 -0.003013 0.000471 0.008716 0.004171 -0.000846 -0.000205
# 4 -0.000880 0.005799 0.004171 0.019819 0.007525 0.011215
# 5 -0.002845 0.000166 -0.000846 0.007525 0.027289 0.002031
# 6 0.009369 0.036365 -0.000205 0.011215 0.002031 0.092533
#
#
# Mechanical properties :
#
#
# Convention : Reuss Voigt Hill
#
# Bulk Modulus (GPa) = 21.41419 57.13702 39.27560
# Shear Modulus (GPa) = 24.82765 48.69000 36.75883
#
# Velocity S-wave (km/s) = 3.13742 4.39364 3.81756
# Velocity P-wave (km/s) = 4.64915 6.95643 5.91635
#
# Compressibility (1/GPa) = 0.04669801
#
# Stress axis : x y z
#
# Youngs Moduli (GPa) = 110.97603 34.82738 114.73224
#
# Poissons Ratio (x) = -0.09300 0.34565
# Poissons Ratio (y) = -0.29634 -0.05409
# Poissons Ratio (z) = 0.33434 -0.01642
#
# Static dielectric constant tensor:
#      x y z
#    x 2.087670 -0.033850 -0.431460 
#    y -0.033850 2.175530 0.301370 
#    z -0.431460 0.301370 3.488400 
# 
# From -- ./inp_files/482572.got.cif
#   From: 2010.05.17/outbox.cif.g08.bks.cpg/sg2_242_cif.got.tgz:482572.got - 2010.06.03 11:33:40.
