data_PCOD9066888
_publ_section_title
;
Structure prediction by ZEFSAII (Michael W. Deem and Ramdas Pophale) SiO2 
 PCOD9066888
Probable space group: P -1
;
_chemical_formula_sum "Si O2"
_cell_formula_units_Z 16
_cell_length_a 5.046019
_cell_length_b 25.321241
_cell_length_c 15.323801
_cell_angle_alpha 19.595169
_cell_angle_beta 83.750778
_cell_angle_gamma 85.194242
_cell_volume 651.702620
_symmetry_space_group_name_H-M "P -1"
_symmetry_group_IT_number 2
_symmetry_cell_setting 'triclinic'
loop_
_space_group_symop_operation_xyz
x,y,z
-x,-y,-z
loop_
_atom_site_type_symbol
_atom_site_label
_atom_site_fract_x
_atom_site_fract_y
_atom_site_fract_z
Si Si1 0.352602 0.328658 0.257921
Si Si2 0.202894 0.795687 0.450188
Si Si3 0.915239 0.348442 0.912846
Si Si4 0.334868 0.426011 0.542093
Si Si5 0.512771 0.170537 0.325225
Si Si6 0.005932 0.970451 0.670388
Si Si7 0.019471 0.124474 0.992840
Si Si8 0.233539 0.641073 0.502526
O O1 0.530147 0.215864 0.485240
O O2 0.386327 0.280971 0.230734
O O3 0.047670 0.302971 0.341635
O O4 0.500000 0.500000 0.000000
O O5 0.252631 0.725470 0.462703
O O6 0.129968 0.977468 0.167080
O O7 0.880294 0.449913 0.668542
O O8 0.051701 0.478963 0.768250
O O9 0.648703 0.274663 0.081939
O O10 0.062684 0.196602 0.112537
O O11 0.500000 0.500000 0.500000
O O12 0.238676 0.246258 0.838698
O O13 0.498246 0.413729 0.465153
O O14 0.267674 0.053354 0.487041
O O15 0.755338 0.079044 0.503200
O O16 0.109744 0.947747 0.801690
O O17 0.872329 0.235343 0.757906
#
# Coordination Sequence:
#
# PCOD9066888 Si02
#       8
#     2   2   2   2   2   2   2   2
#     4  12  26  47  74 107 148 197 238 296 365 436
#     4  12  27  47  75 107 148 188 246 303 363 430
#     4  11  27  45  71 107 146 189 246 301 363 431
#     4  11  26  46  77 105 146 195 242 305 364 435
#     4  12  26  47  73 110 144 193 242 298 365 435
#     4  12  26  46  75 107 147 191 242 299 365 436
#     4  11  25  47  71 109 142 195 244 298 366 432
#     4  11  27  45  73 106 145 193 246 305 358 433
#
# _framework density 24.551074
#
# number of rings (size 3 to 8) (size 9 to 14) (size 15 to 20)
#    0.000    0.500    2.500    3.750   14.000    2.500 
#    0.000    0.000    0.000    0.000    0.000    0.000 
#    0.000    0.000    0.000    0.000    0.000    0.000 
#
# Total GULP energy -89615.569162 kJ/mol
# GULP energy per Si atom -5600.973073 kJ/mol
# Density = 2.449519 g / cm^3
# Si number density = 24.551074 Si / 1000 Ang^3
#
#
#
# Elastic Constant Matrix: (Units=GPa)
#
#
# Indices 1 2 3 4 5 6 
#
# 1 69.0534 5.8943 12.2728 4.6690 -3.3114 -6.3859
# 2 5.8943 140.8356 33.6039 -2.1401 -2.6373 -4.1389
# 3 12.2728 33.6039 120.1051 -18.6044 -6.0133 -1.4404
# 4 4.6690 -2.1401 -18.6044 39.4702 1.7845 -5.9730
# 5 -3.3114 -2.6373 -6.0133 1.7845 37.2783 3.2181
# 6 -6.3859 -4.1389 -1.4404 -5.9730 3.2181 35.0422
#
#
#
# Elastic Compliance Matrix: (Units=1/GPa)
#
#
# Indices 1 2 3 4 5 6 
#
# 1 0.015225 -0.000160 -0.001803 -0.002373 0.000975 0.002188
# 2 -0.000160 0.007644 -0.002184 -0.000499 0.000139 0.000686
# 3 -0.001803 -0.002184 0.009924 0.004810 0.001008 0.000549
# 4 -0.002373 -0.000499 0.004810 0.028624 -0.001246 0.004700
# 5 0.000975 0.000139 0.001008 -0.001246 0.027359 -0.002489
# 6 0.002188 0.000686 0.000549 0.004700 -0.002489 0.030069
#
#
# Mechanical properties :
#
#
# Convention : Reuss Voigt Hill
#
# Bulk Modulus (GPa) = 40.82258 48.17067 44.49663
# Shear Modulus (GPa) = 36.95340 40.90635 38.92988
#
# Velocity S-wave (km/s) = 3.88385 4.08631 3.98637
# Velocity P-wave (km/s) = 6.06433 6.47511 6.27309
#
# Compressibility (1/GPa) = 0.02449624
#
# Stress axis : x y z
#
# Youngs Moduli (GPa) = 65.68047 130.82947 100.77047
#
# Poissons Ratio (x) = 0.02099 0.18173
# Poissons Ratio (y) = 0.01054 0.22011
# Poissons Ratio (z) = 0.11845 0.28576
#
# Static dielectric constant tensor:
#      x y z
#    x 2.051710 -0.070970 0.004680 
#    y -0.070970 1.966280 0.008920 
#    z 0.004680 0.008920 1.959630 
# 
# From -- ./inp_files/124314.got.cif
#   From: 2010.05.17/outbox.cif.g08.bks.cpg/sg2_63_cif.got.tgz:124314.got - 2010.06.03 11:33:40.
