data_PCOD9066247
_publ_section_title
;
Structure prediction by ZEFSAII (Michael W. Deem and Ramdas Pophale) SiO2 
 PCOD9066247
Probable space group: P -1
;
_chemical_formula_sum "Si O2"
_cell_formula_units_Z 16
_cell_length_a 13.909669
_cell_length_b 6.650833
_cell_length_c 11.758476
_cell_angle_alpha 95.857559
_cell_angle_beta 104.151011
_cell_angle_gamma 138.018418
_cell_volume 634.410934
_symmetry_space_group_name_H-M "P -1"
_symmetry_group_IT_number 2
_symmetry_cell_setting 'triclinic'
loop_
_space_group_symop_operation_xyz
x,y,z
-x,-y,-z
loop_
_atom_site_type_symbol
_atom_site_label
_atom_site_fract_x
_atom_site_fract_y
_atom_site_fract_z
Si Si1 0.951384 0.183845 0.821804
Si Si2 0.427192 0.892141 0.643177
Si Si3 0.757821 0.363095 0.649570
Si Si4 0.380713 0.199745 0.036982
Si Si5 0.748514 0.271940 0.205292
Si Si6 0.013791 0.754724 0.918924
Si Si7 0.637069 0.761594 0.305374
Si Si8 0.304331 0.193269 0.440043
O O1 0.077527 0.369487 0.764889
O O2 0.944166 0.411385 0.868017
O O3 0.778722 0.844166 0.697079
O O4 0.020139 0.213744 0.963221
O O5 0.315696 0.655106 0.487532
O O6 0.342198 0.730842 0.732250
O O7 0.609340 0.113565 0.683621
O O8 0.441509 0.160180 0.662849
O O9 0.921296 0.701939 0.781108
O O10 0.777659 0.163261 0.604655
O O11 0.488061 0.389299 0.191546
O O12 0.500000 0.500000 0.000000
O O13 0.342065 0.923029 0.951389
O O14 0.209987 0.044058 0.986695
O O15 0.752075 0.057378 0.259743
O O16 0.722965 0.787261 0.435379
O O17 0.500000 0.500000 0.500000
#
# Coordination Sequence:
#
# PCOD9066247 Si02
#       8
#     2   2   2   2   2   2   2   2
#     4   9  17  29  44  67  97 119 155 194 230 282
#     4   8  16  31  50  67  93 122 160 194 228 271
#     4   9  17  32  48  69  93 123 161 193 229 277
#     4   9  15  28  44  68  99 119 147 191 234 275
#     4   8  16  29  48  69  91 124 151 194 235 268
#     4   9  17  28  45  67  94 129 153 187 235 275
#     4   8  16  28  46  70  92 122 153 186 236 275
#     4  10  18  28  46  72  92 121 154 190 243 281
#
# _framework density 25.220245999999999
#
# number of rings (size 3 to 8) (size 9 to 14) (size 15 to 20)
#    0.750    2.500    0.000    0.750    0.000    1.500 
#    4.500    1.250    0.000    0.750    0.000    0.000 
#    0.000    0.000    0.000    0.000    0.000    0.000 
#
# Total GULP energy -89165.735662 kJ/mol
# GULP energy per Si atom -5572.858479 kJ/mol
# Density = 2.516284 g / cm^3
# Si number density = 25.220246 Si / 1000 Ang^3
#
#
#
# Elastic Constant Matrix: (Units=GPa)
#
#
# Indices 1 2 3 4 5 6 
#
# 1 57.1213 20.5940 37.4979 -7.8352 -1.6358 9.4432
# 2 20.5940 113.2474 65.3715 -1.7152 2.7629 24.7365
# 3 37.4979 65.3715 199.9092 11.2165 -11.9318 20.5030
# 4 -7.8352 -1.7152 11.2165 37.1120 -0.8620 -1.4649
# 5 -1.6358 2.7629 -11.9318 -0.8620 43.8571 -12.1456
# 6 9.4432 24.7365 20.5030 -1.4649 -12.1456 38.4339
#
#
#
# Elastic Compliance Matrix: (Units=1/GPa)
#
#
# Indices 1 2 3 4 5 6 
#
# 1 0.021539 -0.001057 -0.003781 0.005519 -0.000779 -0.002630
# 2 -0.001057 0.012732 -0.003510 0.001054 -0.003774 -0.007215
# 3 -0.003781 -0.003510 0.007162 -0.003086 0.001929 -0.000141
# 4 0.005519 0.001054 -0.003086 0.029123 0.000079 0.000747
# 5 -0.000779 -0.003774 0.001929 0.000079 0.026278 0.009898
# 6 -0.002630 -0.007215 -0.000141 0.000747 0.009898 0.034540
#
#
# Mechanical properties :
#
#
# Convention : Reuss Voigt Hill
#
# Bulk Modulus (GPa) = 40.42340 68.57829 54.50084
# Shear Modulus (GPa) = 31.98635 40.33488 36.16061
#
# Velocity S-wave (km/s) = 3.56516 4.00347 3.79065
# Velocity P-wave (km/s) = 5.74544 6.97289 6.38871
#
# Compressibility (1/GPa) = 0.02473815
#
# Stress axis : x y z
#
# Youngs Moduli (GPa) = 46.42648 78.53963 139.62883
#
# Poissons Ratio (x) = 0.08304 0.52792
# Poissons Ratio (y) = 0.04909 0.49004
# Poissons Ratio (z) = 0.17553 0.27564
#
# Static dielectric constant tensor:
#      x y z
#    x 2.086810 -0.063810 0.075620 
#    y -0.063810 2.023060 0.049270 
#    z 0.075620 0.049270 2.307280 
# 
# From -- ./inp_files/435843.got.cif
#   From: 2010.05.17/outbox.cif.g08.bks.cpg/sg2_218_cif.got.tgz:435843.got - 2010.06.03 11:33:40.
