data_PCOD9066075
_publ_section_title
;
Structure prediction by ZEFSAII (Michael W. Deem and Ramdas Pophale) SiO2 
 PCOD9066075
Probable space group: P -1
;
_chemical_formula_sum "Si O2"
_cell_formula_units_Z 14
_cell_length_a 9.438498
_cell_length_b 7.798158
_cell_length_c 9.050248
_cell_angle_alpha 73.897109
_cell_angle_beta 98.668234
_cell_angle_gamma 111.001423
_cell_volume 596.497351
_symmetry_space_group_name_H-M "P -1"
_symmetry_group_IT_number 2
_symmetry_cell_setting 'triclinic'
loop_
_space_group_symop_operation_xyz
x,y,z
-x,-y,-z
loop_
_atom_site_type_symbol
_atom_site_label
_atom_site_fract_x
_atom_site_fract_y
_atom_site_fract_z
Si Si1 0.356109 0.057240 0.424579
Si Si2 0.164387 0.480550 0.549301
Si Si3 0.126397 0.052438 0.631675
Si Si4 0.420856 0.628340 0.778890
Si Si5 0.875092 0.081718 0.030295
Si Si6 0.461325 0.228336 0.933985
Si Si7 0.270425 0.743560 0.246593
O O1 0.274009 0.059549 0.563180
O O2 0.426004 0.261797 0.313034
O O3 0.500000 0.000000 0.500000
O O4 0.264942 0.905511 0.324562
O O5 0.146105 0.264791 0.634759
O O6 0.272833 0.607895 0.662348
O O7 0.242950 0.557065 0.385813
O O8 0.000000 0.500000 0.500000
O O9 0.088635 0.903977 0.793961
O O10 0.000000 0.000000 0.500000
O O11 0.423596 0.420225 0.861033
O O12 0.438570 0.741880 0.907681
O O13 0.701652 0.932929 0.034456
O O14 0.857825 0.257860 0.893995
O O15 0.000000 0.000000 0.000000
O O16 0.567770 0.206177 0.822598
#
# Coordination Sequence:
#
# PCOD9066075 Si02
#       7
#     2   2   2   2   2   2   2
#     4  12  24  41  71 104 139 185 239 290 351 427
#     4  12  26  48  73 106 146 192 241 301 362 434
#     4  12  28  47  72 102 146 192 241 294 364 425
#     4  11  25  44  74 100 150 184 245 292 366 418
#     4  12  25  45  72 104 148 185 235 300 358 427
#     4  11  25  46  73 107 141 194 240 299 359 430
#     4  12  26  44  74 107 142 187 245 293 360 427
#
# _framework density 23.470348999999999
#
# number of rings (size 3 to 8) (size 9 to 14) (size 15 to 20)
#    0.000    0.286    4.286    4.714    2.000    1.143 
#    0.000    1.429    0.000    0.000    0.000    0.000 
#    0.000    0.000    0.000    0.000    0.000    0.000 
#
# Total GULP energy -78350.276574 kJ/mol
# GULP energy per Si atom -5596.448327 kJ/mol
# Density = 2.341693 g / cm^3
# Si number density = 23.470349 Si / 1000 Ang^3
#
#
#
# Elastic Constant Matrix: (Units=GPa)
#
#
# Indices 1 2 3 4 5 6 
#
# 1 118.7329 -9.8431 22.8898 16.0650 -6.8260 -2.5935
# 2 -9.8431 43.7799 1.0179 1.8418 8.6752 4.4139
# 3 22.8898 1.0179 156.0672 13.4580 14.1828 9.8299
# 4 16.0650 1.8418 13.4580 35.7220 4.2244 1.5823
# 5 -6.8260 8.6752 14.1828 4.2244 43.4121 3.3034
# 6 -2.5935 4.4139 9.8299 1.5823 3.3034 23.5843
#
#
#
# Elastic Compliance Matrix: (Units=1/GPa)
#
#
# Indices 1 2 3 4 5 6 
#
# 1 0.009524 0.001851 -0.001298 -0.004165 0.001861 0.001261
# 2 0.001851 0.024549 0.000332 -0.001547 -0.004281 -0.003826
# 3 -0.001298 0.000332 0.007120 -0.001731 -0.002219 -0.002745
# 4 -0.004165 -0.001547 -0.001731 0.030970 -0.002707 -0.001146
# 5 0.001861 -0.004281 -0.002219 -0.002707 0.025280 -0.001428
# 6 0.001261 -0.003826 -0.002745 -0.001146 -0.001428 0.044677
#
#
# Mechanical properties :
#
#
# Convention : Reuss Voigt Hill
#
# Bulk Modulus (GPa) = 23.27649 38.52323 30.89986
# Shear Modulus (GPa) = 32.32643 40.84470 36.58557
#
# Velocity S-wave (km/s) = 3.71527 4.17618 3.95245
# Velocity P-wave (km/s) = 5.32383 6.30104 5.83294
#
# Compressibility (1/GPa) = 0.04296180
#
# Stress axis : x y z
#
# Youngs Moduli (GPa) = 104.99626 40.73462 140.45656
#
# Poissons Ratio (x) = -0.07539 0.18236
# Poissons Ratio (y) = -0.19433 -0.04662
# Poissons Ratio (z) = 0.13632 -0.01352
#
# Static dielectric constant tensor:
#      x y z
#    x 1.844110 0.012040 0.007090 
#    y 0.012040 1.926700 -0.016320 
#    z 0.007090 -0.016320 1.964740 
# 
# From -- ./inp_files/156608.got.cif
#   From: 2010.05.17/outbox.cif.g08.bks.cpg/sg2_79_cif.got.tgz:156608.got - 2010.06.03 11:33:40.
