data_PCOD9066943
_publ_section_title
;
Structure prediction by ZEFSAII (Michael W. Deem and Ramdas Pophale) SiO2 
 PCOD9066943
Probable space group: P -1
;
_chemical_formula_sum "Si O2"
_cell_formula_units_Z 14
_cell_length_a 9.330598
_cell_length_b 16.190101
_cell_length_c 15.723964
_cell_angle_alpha 144.676634
_cell_angle_beta 140.580151
_cell_angle_gamma 29.346643
_cell_volume 657.138289
_symmetry_space_group_name_H-M "P -1"
_symmetry_group_IT_number 2
_symmetry_cell_setting 'triclinic'
loop_
_space_group_symop_operation_xyz
x,y,z
-x,-y,-z
loop_
_atom_site_type_symbol
_atom_site_label
_atom_site_fract_x
_atom_site_fract_y
_atom_site_fract_z
Si Si1 0.894205 0.070416 0.645480
Si Si2 0.144218 0.144894 0.968228
Si Si3 0.176956 0.426386 0.861198
Si Si4 0.837873 0.201704 0.051999
Si Si5 0.693186 0.782160 0.431649
Si Si6 0.828178 0.429405 0.391326
Si Si7 0.133212 0.724635 0.352082
O O1 0.537855 0.213577 0.613947
O O2 0.978644 0.152145 0.681819
O O3 0.028072 0.061001 0.788363
O O4 0.003631 0.873311 0.494635
O O5 0.989488 0.352894 0.035705
O O6 0.033257 0.172466 0.036836
O O7 0.500000 0.000000 0.000000
O O8 0.218685 0.346918 0.718234
O O9 0.982679 0.388087 0.788862
O O10 0.504144 0.306535 0.952663
O O11 0.820300 0.327654 0.222422
O O12 0.000000 0.000000 0.000000
O O13 0.973245 0.710515 0.556752
O O14 0.500000 0.000000 0.500000
O O15 0.490187 0.589372 0.402467
O O16 0.000000 0.500000 0.500000
#
# Coordination Sequence:
#
# PCOD9066943 Si02
#       7
#     2   2   2   2   2   2   2
#     4  11  25  47  73 109 149 191 245 304 369 434
#     4  12  30  47  74 110 152 195 251 309 368 436
#     4  12  27  50  76 107 153 199 244 303 377 439
#     4  12  29  49  77 109 148 197 246 302 374 443
#     4  12  24  46  74 107 145 192 238 301 368 439
#     4  12  27  46  74 107 145 189 247 296 361 439
#     4  11  27  45  78 108 145 193 247 308 364 436
#
# _framework density 21.304496
#
# number of rings (size 3 to 8) (size 9 to 14) (size 15 to 20)
#    0.000    0.286    4.286    3.000    8.000    1.714 
#    0.000    0.000    0.000    0.000    0.000    0.000 
#    0.000    0.000    0.000    0.000    0.000    0.000 
#
# Total GULP energy -78404.796708 kJ/mol
# GULP energy per Si atom -5600.342622 kJ/mol
# Density = 2.125601 g / cm^3
# Si number density = 21.304496 Si / 1000 Ang^3
#
#
#
# Elastic Constant Matrix: (Units=GPa)
#
#
# Indices 1 2 3 4 5 6 
#
# 1 82.8612 37.6426 31.3936 -9.7702 18.6021 -6.9658
# 2 37.6426 134.9600 29.9318 -21.0573 10.0133 -4.7561
# 3 31.3936 29.9318 102.1619 -18.1762 -14.2672 -2.6143
# 4 -9.7702 -21.0573 -18.1762 38.8007 5.8650 11.2974
# 5 18.6021 10.0133 -14.2672 5.8650 43.2596 0.6056
# 6 -6.9658 -4.7561 -2.6143 11.2974 0.6056 41.8179
#
#
#
# Elastic Compliance Matrix: (Units=1/GPa)
#
#
# Indices 1 2 3 4 5 6 
#
# 1 0.017834 -0.002801 -0.005684 0.001055 -0.009068 0.002143
# 2 -0.002801 0.009273 -0.001409 0.004135 -0.001959 -0.000589
# 3 -0.005684 -0.001409 0.013477 0.003474 0.006762 -0.001301
# 4 0.001055 0.004135 0.003474 0.032927 -0.004618 -0.007965
# 5 -0.009068 -0.001959 0.006762 -0.004618 0.030332 -0.000502
# 6 0.002143 -0.000589 -0.001301 -0.007965 -0.000502 0.026281
#
#
# Mechanical properties :
#
#
# Convention : Reuss Voigt Hill
#
# Bulk Modulus (GPa) = 48.08379 57.54655 52.81517
# Shear Modulus (GPa) = 31.87865 39.50998 35.69431
#
# Velocity S-wave (km/s) = 3.87244 4.31111 4.09765
# Velocity P-wave (km/s) = 6.52788 7.20076 6.87256
#
# Compressibility (1/GPa) = 0.02079703
#
# Stress axis : x y z
#
# Youngs Moduli (GPa) = 56.07113 107.83913 74.20068
#
# Poissons Ratio (x) = 0.30204 0.42173
# Poissons Ratio (y) = 0.15705 0.10457
# Poissons Ratio (z) = 0.31869 0.15197
#
# Static dielectric constant tensor:
#      x y z
#    x 1.805980 0.041960 0.014510 
#    y 0.041960 1.813440 0.002420 
#    z 0.014510 0.002420 1.743560 
# 
# From -- ./inp_files/154409.got.cif
#   From: 2010.05.17/outbox.cif.g08.bks.cpg/sg2_78_cif.got.tgz:154409.got - 2010.06.03 11:33:40.
