data_PCOD9066524
_publ_section_title
;
Structure prediction by ZEFSAII (Michael W. Deem and Ramdas Pophale) SiO2 
 PCOD9066524
Probable space group: P -1
;
_chemical_formula_sum "Si O2"
_cell_formula_units_Z 14
_cell_length_a 19.483836
_cell_length_b 5.313490
_cell_length_c 8.564889
_cell_angle_alpha 93.034911
_cell_angle_beta 40.326465
_cell_angle_gamma 79.538287
_cell_volume 538.161637
_symmetry_space_group_name_H-M "P -1"
_symmetry_group_IT_number 2
_symmetry_cell_setting 'triclinic'
loop_
_space_group_symop_operation_xyz
x,y,z
-x,-y,-z
loop_
_atom_site_type_symbol
_atom_site_label
_atom_site_fract_x
_atom_site_fract_y
_atom_site_fract_z
Si Si1 0.562280 0.106582 0.027356
Si Si2 0.410647 0.498740 0.521133
Si Si3 0.316911 0.279971 0.942733
Si Si4 0.096187 0.269983 0.420789
Si Si5 0.038974 0.422157 0.101231
Si Si6 0.175706 0.800861 0.821867
Si Si7 0.210970 0.773531 0.387023
O O1 0.479153 0.391323 0.241216
O O2 0.686848 0.100231 0.766957
O O3 0.500000 0.000000 0.000000
O O4 0.582015 0.926071 0.143250
O O5 0.500000 0.500000 0.500000
O O6 0.301024 0.744745 0.669915
O O7 0.352677 0.316369 0.708767
O O8 0.209019 0.187401 0.124208
O O9 0.271180 0.539072 0.146879
O O10 0.000000 0.500000 0.500000
O O11 0.106871 0.990960 0.478727
O O12 0.081999 0.465639 0.598639
O O13 0.117457 0.605490 0.001589
O O14 0.101377 0.107758 0.992692
O O15 0.000000 0.500000 0.000000
O O16 0.184033 0.747908 0.617176
#
# Coordination Sequence:
#
# PCOD9066524 Si02
#       7
#     2   2   2   2   2   2   2
#     4  11  26  46  77 106 145 200 251 314 384 454
#     4  12  27  48  74 110 154 202 252 321 385 458
#     4  11  25  46  71 105 148 191 254 307 378 461
#     4  11  26  44  73 103 148 193 248 314 384 449
#     4  12  26  50  76 111 149 203 255 321 387 455
#     4  12  29  46  77 113 152 199 265 314 382 468
#     4  11  25  46  70 109 145 193 255 311 374 465
#
# _framework density 26.014491
#
# number of rings (size 3 to 8) (size 9 to 14) (size 15 to 20)
#    0.000    0.571    2.857    3.429   10.000    2.857 
#    0.000    0.000    0.000    0.000    0.000    0.000 
#    0.000    0.000    0.000    0.000    0.000    0.000 
#
# Total GULP energy -78140.355287 kJ/mol
# GULP energy per Si atom -5581.453949 kJ/mol
# Density = 2.595528 g / cm^3
# Si number density = 26.014491 Si / 1000 Ang^3
#
#
#
# Elastic Constant Matrix: (Units=GPa)
#
#
# Indices 1 2 3 4 5 6 
#
# 1 68.5290 6.5338 8.8644 6.6538 -11.9147 -0.2604
# 2 6.5338 95.2288 22.5480 15.6797 -18.2558 -7.4526
# 3 8.8644 22.5480 126.1457 2.5089 -8.6196 2.2390
# 4 6.6538 15.6797 2.5089 54.7617 -12.7088 5.0671
# 5 -11.9147 -18.2558 -8.6196 -12.7088 43.8295 10.8931
# 6 -0.2604 -7.4526 2.2390 5.0671 10.8931 38.9875
#
#
#
# Elastic Compliance Matrix: (Units=1/GPa)
#
#
# Indices 1 2 3 4 5 6 
#
# 1 0.015471 -0.000042 -0.000773 -0.000819 0.004016 -0.000876
# 2 -0.000042 0.012220 -0.001924 -0.002780 0.003435 0.001848
# 3 -0.000773 -0.001924 0.008413 0.000641 0.001141 -0.001258
# 4 -0.000819 -0.002780 0.000641 0.021000 0.006078 -0.005001
# 5 0.004016 0.003435 0.001141 0.006078 0.029410 -0.008389
# 6 -0.000876 0.001848 -0.001258 -0.005001 -0.008389 0.029063
#
#
# Mechanical properties :
#
#
# Convention : Reuss Voigt Hill
#
# Bulk Modulus (GPa) = 32.65298 40.64399 36.64849
# Shear Modulus (GPa) = 38.09094 44.31292 41.20193
#
# Velocity S-wave (km/s) = 3.83066 4.13170 3.98402
# Velocity P-wave (km/s) = 5.66960 6.19828 5.93983
#
# Compressibility (1/GPa) = 0.03062507
#
# Stress axis : x y z
#
# Youngs Moduli (GPa) = 64.63754 81.83130 118.86075
#
# Poissons Ratio (x) = 0.00345 0.09192
# Poissons Ratio (y) = 0.00272 0.22871
# Poissons Ratio (z) = 0.04999 0.15746
#
# Static dielectric constant tensor:
#      x y z
#    x 2.139040 0.195480 -0.071640 
#    y 0.195480 2.968000 -0.275430 
#    z -0.071640 -0.275430 2.099070 
# 
# From -- ./inp_files/47916.got.cif
#   From: 2010.05.17/outbox.cif.g08.bks.cpg/sg2_24_cif.got.tgz:47916.got - 2010.06.03 11:33:40.
