data_PCOD9066331
_publ_section_title
;
Structure prediction by ZEFSAII (Michael W. Deem and Ramdas Pophale) SiO2 
 PCOD9066331
Probable space group: P -1
;
_chemical_formula_sum "Si O2"
_cell_formula_units_Z 16
_cell_length_a 5.961226
_cell_length_b 11.346948
_cell_length_c 11.890617
_cell_angle_alpha 60.909195
_cell_angle_beta 110.432178
_cell_angle_gamma 102.208484
_cell_volume 657.764809
_symmetry_space_group_name_H-M "P -1"
_symmetry_group_IT_number 2
_symmetry_cell_setting 'triclinic'
loop_
_space_group_symop_operation_xyz
x,y,z
-x,-y,-z
loop_
_atom_site_type_symbol
_atom_site_label
_atom_site_fract_x
_atom_site_fract_y
_atom_site_fract_z
Si Si1 0.904352 0.399627 0.317573
Si Si2 0.246968 0.627076 0.219034
Si Si3 0.439026 0.897551 0.870293
Si Si4 0.106078 0.693983 0.396424
Si Si5 0.584869 0.558063 0.868203
Si Si6 0.333097 0.984104 0.370168
Si Si7 0.027707 0.232421 0.221917
Si Si8 0.650947 0.832066 0.148663
O O1 0.937746 0.392764 0.458918
O O2 0.631762 0.361897 0.257829
O O3 0.986070 0.545365 0.210968
O O4 0.048724 0.290969 0.324692
O O5 0.268595 0.627130 0.360110
O O6 0.372408 0.545806 0.178566
O O7 0.377398 0.773855 0.152369
O O8 0.239764 0.779575 0.866663
O O9 0.527742 0.958690 0.740736
O O10 0.326381 0.020085 0.861836
O O11 0.655150 0.847350 0.007721
O O12 0.239497 0.832383 0.398862
O O13 0.855039 0.739721 0.276266
O O14 0.814415 0.660227 0.872817
O O15 0.500000 0.500000 0.000000
O O16 0.500000 0.000000 0.500000
O O17 0.119496 0.083618 0.304842
#
# Coordination Sequence:
#
# PCOD9066331 Si02
#       8
#     2   2   2   2   2   2   2   2
#     4  11  27  47  73 108 142 193 247 301 356 429
#     4  11  26  47  75 103 145 194 237 300 363 426
#     4  11  25  46  68 108 147 190 240 291 361 431
#     4  12  25  47  73 107 146 189 246 298 364 427
#     4  11  27  48  73 108 144 190 244 298 362 434
#     4  12  26  44  74 109 149 189 239 297 361 431
#     4  11  25  45  74 105 145 190 236 302 359 426
#     4  11  26  44  71 104 146 191 238 295 358 432
#
# _framework density 24.324805000000001
#
# number of rings (size 3 to 8) (size 9 to 14) (size 15 to 20)
#    0.000    0.750    2.500    3.375    7.000    6.500 
#    0.000    0.000    0.000    0.000    0.000    0.000 
#    0.000    0.000    0.000    0.000    0.000    0.000 
#
# Total GULP energy -89361.451344 kJ/mol
# GULP energy per Si atom -5585.090709 kJ/mol
# Density = 2.426944 g / cm^3
# Si number density = 24.324805 Si / 1000 Ang^3
#
#
#
# Elastic Constant Matrix: (Units=GPa)
#
#
# Indices 1 2 3 4 5 6 
#
# 1 63.3463 33.1631 57.1785 5.8456 -20.6674 1.8641
# 2 33.1631 125.5456 22.6397 18.9363 -16.6185 12.5335
# 3 57.1785 22.6397 179.4731 19.2316 -19.6200 0.6808
# 4 5.8456 18.9363 19.2316 35.5657 -0.6302 -9.5691
# 5 -20.6674 -16.6185 -19.6200 -0.6302 45.2841 3.6395
# 6 1.8641 12.5335 0.6808 -9.5691 3.6395 50.2101
#
#
#
# Elastic Compliance Matrix: (Units=1/GPa)
#
#
# Indices 1 2 3 4 5 6 
#
# 1 0.027605 -0.005396 -0.007602 0.002686 0.007329 0.000406
# 2 -0.005396 0.010855 0.001330 -0.006636 0.002323 -0.003960
# 3 -0.007602 0.001330 0.008357 -0.004240 0.000662 -0.001019
# 4 0.002686 -0.006636 -0.004240 0.035776 -0.003245 0.008668
# 5 0.007329 0.002323 0.000662 -0.003245 0.026797 -0.003422
# 6 0.000406 -0.003960 -0.001019 0.008668 -0.003422 0.022804
#
#
# Mechanical properties :
#
#
# Convention : Reuss Voigt Hill
#
# Bulk Modulus (GPa) = 42.59102 66.03641 54.31371
# Shear Modulus (GPa) = 30.60814 43.23755 36.92285
#
# Velocity S-wave (km/s) = 3.55111 4.22063 3.90026
# Velocity P-wave (km/s) = 5.86184 7.13851 6.53144
#
# Compressibility (1/GPa) = 0.02347913
#
# Stress axis : x y z
#
# Youngs Moduli (GPa) = 36.22585 92.12688 119.66634
#
# Poissons Ratio (x) = 0.49715 0.90970
# Poissons Ratio (y) = 0.19549 -0.15916
# Poissons Ratio (z) = 0.27539 -0.12253
#
# Static dielectric constant tensor:
#      x y z
#    x 1.964530 -0.023490 0.014460 
#    y -0.023490 1.948180 -0.001540 
#    z 0.014460 -0.001540 1.934510 
# 
# From -- ./inp_files/364145.got.cif
#   From: 2010.05.17/outbox.cif.g08.bks.cpg/sg2_183_cif.got.tgz:364145.got - 2010.06.03 11:33:40.
