data_PCOD9066475
_publ_section_title
;
Structure prediction by ZEFSAII (Michael W. Deem and Ramdas Pophale) SiO2 
 PCOD9066475
Probable space group: P -1
;
_chemical_formula_sum "Si O2"
_cell_formula_units_Z 16
_cell_length_a 8.871108
_cell_length_b 12.471207
_cell_length_c 13.179328
_cell_angle_alpha 139.014794
_cell_angle_beta 114.125550
_cell_angle_gamma 44.800444
_cell_volume 647.945412
_symmetry_space_group_name_H-M "P -1"
_symmetry_group_IT_number 2
_symmetry_cell_setting 'triclinic'
loop_
_space_group_symop_operation_xyz
x,y,z
-x,-y,-z
loop_
_atom_site_type_symbol
_atom_site_label
_atom_site_fract_x
_atom_site_fract_y
_atom_site_fract_z
Si Si1 0.810423 0.734579 0.170428
Si Si2 0.006301 0.827918 0.474221
Si Si3 0.209740 0.492767 0.641298
Si Si4 0.480631 0.676825 0.055351
Si Si5 0.656994 0.319555 0.694699
Si Si6 0.828537 0.552328 0.615892
Si Si7 0.382689 0.952459 0.855049
Si Si8 0.030654 0.946379 0.851872
O O1 0.904900 0.789278 0.324360
O O2 0.695111 0.908587 0.170679
O O3 0.634168 0.725205 0.162989
O O4 0.000000 0.500000 0.000000
O O5 0.245251 0.725279 0.423202
O O6 0.036109 0.694505 0.483861
O O7 0.854538 0.087237 0.636683
O O8 0.438853 0.352741 0.661648
O O9 0.220462 0.367909 0.457976
O O10 0.998279 0.586100 0.717441
O O11 0.170320 0.687500 0.710225
O O12 0.580799 0.542775 0.879826
O O13 0.500000 0.500000 0.000000
O O14 0.223974 0.896058 0.140603
O O15 0.590234 0.698996 0.705694
O O16 0.175668 0.989740 0.869404
O O17 0.500000 0.000000 0.000000
O O18 0.000000 0.000000 0.000000
#
# Coordination Sequence:
#
# PCOD9066475 Si02
#       8
#     2   2   2   2   2   2   2   2
#     4  12  24  45  71 104 141 183 232 285 352 417
#     4  11  26  45  73 102 140 185 234 287 348 418
#     4  11  25  46  71 102 142 176 236 286 349 416
#     4  12  27  44  69 104 144 186 229 287 349 414
#     4  11  25  46  69 103 141 181 236 287 345 415
#     4  11  26  46  71 104 137 186 228 288 350 413
#     4  12  26  44  73 102 139 181 233 288 345 412
#     4  12  25  44  71 102 136 182 230 287 345 412
#
# _framework density 24.693436999999999
#
# number of rings (size 3 to 8) (size 9 to 14) (size 15 to 20)
#    0.000    0.500    2.500    5.250    3.500    4.500 
#    0.000    0.000    0.000    0.000    0.000    0.000 
#    0.000    0.000    0.000    0.000    0.000    0.000 
#
# Total GULP energy -89486.535592 kJ/mol
# GULP energy per Si atom -5592.908475 kJ/mol
# Density = 2.463723 g / cm^3
# Si number density = 24.693437 Si / 1000 Ang^3
#
#
#
# Elastic Constant Matrix: (Units=GPa)
#
#
# Indices 1 2 3 4 5 6 
#
# 1 158.8689 28.6655 16.4403 7.5872 2.5507 -15.3416
# 2 28.6655 78.4405 8.7040 15.6100 -12.4226 8.0593
# 3 16.4403 8.7040 42.7950 12.4146 -19.9943 -13.0117
# 4 7.5872 15.6100 12.4146 42.3375 2.5990 -2.1666
# 5 2.5507 -12.4226 -19.9943 2.5990 27.0396 10.5084
# 6 -15.3416 8.0593 -13.0117 -2.1666 10.5084 47.7699
#
#
#
# Elastic Compliance Matrix: (Units=1/GPa)
#
#
# Indices 1 2 3 4 5 6 
#
# 1 0.008184 -0.004758 -0.006170 0.002870 -0.009324 0.003932
# 2 -0.004758 0.019329 0.007122 -0.009868 0.018398 -0.007344
# 3 -0.006170 0.007122 0.049403 -0.018583 0.042105 0.000168
# 4 0.002870 -0.009868 -0.018583 0.033847 -0.023437 0.004216
# 5 -0.009324 0.018398 0.042105 -0.023437 0.085322 -0.014462
# 6 0.003932 -0.007344 0.000168 0.004216 -0.014462 0.026854
#
#
# Mechanical properties :
#
#
# Convention : Reuss Voigt Hill
#
# Bulk Modulus (GPa) = 14.42918 43.08044 28.75481
# Shear Modulus (GPa) = 19.71207 38.51570 29.11388
#
# Velocity S-wave (km/s) = 2.82844 3.95366 3.43740
# Velocity P-wave (km/s) = 4.06482 6.19079 5.23682
#
# Compressibility (1/GPa) = 0.06930401
#
# Stress axis : x y z
#
# Youngs Moduli (GPa) = 122.19358 51.73617 20.24165
#
# Poissons Ratio (x) = 0.24615 0.12488
# Poissons Ratio (y) = 0.58138 -0.14416
# Poissons Ratio (z) = 0.75390 -0.36845
#
# Static dielectric constant tensor:
#      x y z
#    x 1.914250 0.011440 -0.195930 
#    y 0.011440 1.939840 -0.012160 
#    z -0.195930 -0.012160 1.108300 
# 
# From -- ./inp_files/329040.got.cif
#   From: 2010.05.17/outbox.cif.g08.bks.cpg/sg2_165_cif.got.tgz:329040.got - 2010.06.03 11:33:40.
