data_PCOD9066584
_publ_section_title
;
Structure prediction by ZEFSAII (Michael W. Deem and Ramdas Pophale) SiO2 
 PCOD9066584
Probable space group: P -1
;
_chemical_formula_sum "Si O2"
_cell_formula_units_Z 16
_cell_length_a 9.333893
_cell_length_b 9.802290
_cell_length_c 14.695197
_cell_angle_alpha 114.529034
_cell_angle_beta 94.869545
_cell_angle_gamma 132.675731
_cell_volume 752.431643
_symmetry_space_group_name_H-M "P -1"
_symmetry_group_IT_number 2
_symmetry_cell_setting 'triclinic'
loop_
_space_group_symop_operation_xyz
x,y,z
-x,-y,-z
loop_
_atom_site_type_symbol
_atom_site_label
_atom_site_fract_x
_atom_site_fract_y
_atom_site_fract_z
Si Si1 0.274400 0.995434 0.525050
Si Si2 0.969794 0.853930 0.877139
Si Si3 0.248110 0.777840 0.878999
Si Si4 0.750790 0.717993 0.121621
Si Si5 0.763887 0.435866 0.344655
Si Si6 0.510273 0.943141 0.633667
Si Si7 0.973386 0.354270 0.880934
Si Si8 0.581000 0.578396 0.281993
O O1 0.417437 0.029591 0.622562
O O2 0.020522 0.714602 0.435053
O O3 0.387175 0.044753 0.448701
O O4 0.285705 0.181905 0.590334
O O5 0.693131 0.606356 0.783871
O O6 0.099879 0.806063 0.893648
O O7 0.101464 0.024337 0.841475
O O8 0.000000 0.000000 0.000000
O O9 0.258379 0.733768 0.763237
O O10 0.114657 0.532819 0.852258
O O11 0.500000 0.000000 0.000000
O O12 0.692903 0.671297 0.212769
O O13 0.906036 0.701029 0.100821
O O14 0.500000 0.500000 0.000000
O O15 0.685817 0.325132 0.410064
O O16 0.608069 0.437876 0.290611
O O17 0.710460 0.117393 0.768597
O O18 0.000000 0.500000 0.000000
#
# Coordination Sequence:
#
# PCOD9066584 Si02
#       8
#     2   2   2   2   2   2   2   2
#     4  11  26  46  73 102 142 182 235 288 343 417
#     4  12  25  43  67 100 142 183 232 287 347 414
#     4  12  24  43  69 103 140 181 232 288 346 416
#     4  12  25  44  68 101 146 183 231 289 349 416
#     4  12  25  47  70 102 141 179 237 287 347 414
#     4  11  25  46  72 103 139 181 236 288 345 414
#     4  12  24  44  72 102 141 186 228 289 352 411
#     4  12  26  45  72 103 140 188 232 287 350 416
#
# _framework density 21.264388
#
# number of rings (size 3 to 8) (size 9 to 14) (size 15 to 20)
#    0.000    0.250    3.750    5.250    5.250    1.500 
#    0.000    0.000    0.000    0.000    0.000    0.000 
#    0.000    0.000    0.000    0.000    0.000    0.000 
#
# Total GULP energy -89560.866144 kJ/mol
# GULP energy per Si atom -5597.554134 kJ/mol
# Density = 2.121599 g / cm^3
# Si number density = 21.264388 Si / 1000 Ang^3
#
#
#
# Elastic Constant Matrix: (Units=GPa)
#
#
# Indices 1 2 3 4 5 6 
#
# 1 107.6659 -3.5401 44.1548 9.4119 10.2449 -3.9209
# 2 -3.5401 115.0365 5.3549 -0.2965 -5.0409 18.8003
# 3 44.1548 5.3549 77.4679 12.4833 -0.0449 4.8226
# 4 9.4119 -0.2965 12.4833 29.6565 -4.0363 4.4600
# 5 10.2449 -5.0409 -0.0449 -4.0363 23.7615 5.8303
# 6 -3.9209 18.8003 4.8226 4.4600 5.8303 36.7642
#
#
#
# Elastic Compliance Matrix: (Units=1/GPa)
#
#
# Indices 1 2 3 4 5 6 
#
# 1 0.013411 -0.000222 -0.007444 -0.002719 -0.007288 0.004006
# 2 -0.000222 0.009837 -0.000475 0.001778 0.003913 -0.005828
# 3 -0.007444 -0.000475 0.018073 -0.004394 0.003103 -0.002881
# 4 -0.002719 0.001778 -0.004394 0.038824 0.009827 -0.006891
# 5 -0.007288 0.003913 0.003103 0.009827 0.050783 -0.012431
# 6 0.004006 -0.005828 -0.002881 -0.006891 -0.012431 0.033793
#
#
# Mechanical properties :
#
#
# Convention : Reuss Voigt Hill
#
# Bulk Modulus (GPa) = 39.93663 43.56770 41.75216
# Shear Modulus (GPa) = 26.40648 34.98318 30.69483
#
# Velocity S-wave (km/s) = 3.52777 4.06045 3.80344
# Velocity P-wave (km/s) = 5.95107 6.52043 6.24225
#
# Compressibility (1/GPa) = 0.02503967
#
# Stress axis : x y z
#
# Youngs Moduli (GPa) = 74.56836 101.66023 55.32995
#
# Poissons Ratio (x) = 0.02255 0.41186
# Poissons Ratio (y) = 0.01654 0.02628
# Poissons Ratio (z) = 0.55507 0.04828
#
# Static dielectric constant tensor:
#      x y z
#    x 1.768530 0.013580 0.061630 
#    y 0.013580 1.786010 -0.084870 
#    z 0.061630 -0.084870 1.985320 
# 
# From -- ./inp_files/225888.got.cif
#   From: 2010.05.17/outbox.cif.g08.bks.cpg/sg2_113_cif.got.tgz:225888.got - 2010.06.03 11:33:40.
