data_PCOD9066071
_publ_section_title
;
Structure prediction by ZEFSAII (Michael W. Deem and Ramdas Pophale) SiO2 
 PCOD9066071
Probable space group: P -1
;
_chemical_formula_sum "Si O2"
_cell_formula_units_Z 14
_cell_length_a 15.712705
_cell_length_b 12.594322
_cell_length_c 10.045855
_cell_angle_alpha 28.617032
_cell_angle_beta 134.333108
_cell_angle_gamma 148.138077
_cell_volume 493.951257
_symmetry_space_group_name_H-M "P -1"
_symmetry_group_IT_number 2
_symmetry_cell_setting 'triclinic'
loop_
_space_group_symop_operation_xyz
x,y,z
-x,-y,-z
loop_
_atom_site_type_symbol
_atom_site_label
_atom_site_fract_x
_atom_site_fract_y
_atom_site_fract_z
Si Si1 0.499930 0.674737 0.427039
Si Si2 0.111354 0.704050 0.733692
Si Si3 0.100393 0.298258 0.870354
Si Si4 0.721087 0.241151 0.851896
Si Si5 0.353294 0.943274 0.326915
Si Si6 0.092685 0.183296 0.268356
Si Si7 0.328984 0.208590 0.239560
O O1 0.500000 0.500000 0.500000
O O2 0.324090 0.561448 0.387823
O O3 0.553363 0.695412 0.614265
O O4 0.629456 0.005113 0.133690
O O5 0.176024 0.843376 0.503518
O O6 0.158827 0.015593 0.498462
O O7 0.084632 0.555770 0.166296
O O8 0.172751 0.526551 0.012334
O O9 0.008735 0.162978 0.061386
O O10 0.267875 0.379184 0.999762
O O11 0.176198 0.599944 0.540933
O O12 0.000000 0.000000 0.000000
O O13 0.638471 0.055051 0.826361
O O14 0.366052 0.192981 0.144624
O O15 0.500000 0.000000 0.500000
O O16 0.000000 0.000000 0.500000
#
# Coordination Sequence:
#
# PCOD9066071 Si02
#       7
#     2   2   2   2   2   2   2
#     4  11  28  51  73 107 155 204 264 328 396 481
#     4  11  26  46  77 118 149 203 261 335 397 470
#     4  11  27  47  73 112 158 201 260 334 403 476
#     4  11  28  46  75 110 154 201 261 324 404 471
#     4  12  25  48  75 108 155 203 264 321 401 496
#     4  11  25  44  73 112 156 199 262 325 396 468
#     4  11  26  48  78 108 151 206 261 326 401 474
#
# _framework density 28.342877000000001
#
# number of rings (size 3 to 8) (size 9 to 14) (size 15 to 20)
#    0.000    0.857    2.857    2.143   12.000    2.857 
#    0.000    0.000    0.000    0.000    0.000    0.000 
#    0.000    0.000    0.000    0.000    0.000    0.000 
#
# Total GULP energy -77996.379505 kJ/mol
# GULP energy per Si atom -5571.169965 kJ/mol
# Density = 2.827837 g / cm^3
# Si number density = 28.342877 Si / 1000 Ang^3
#
#
#
# Elastic Constant Matrix: (Units=GPa)
#
#
# Indices 1 2 3 4 5 6 
#
# 1 115.6330 42.3331 42.5074 2.9364 0.5632 -42.2039
# 2 42.3331 180.2368 53.8016 -1.0420 -3.9996 -33.7574
# 3 42.5074 53.8016 161.0958 -10.7321 -24.7100 -20.2070
# 4 2.9364 -1.0420 -10.7321 55.3296 -8.8561 0.4166
# 5 0.5632 -3.9996 -24.7100 -8.8561 70.4681 4.2590
# 6 -42.2039 -33.7574 -20.2070 0.4166 4.2590 57.1233
#
#
#
# Elastic Compliance Matrix: (Units=1/GPa)
#
#
# Indices 1 2 3 4 5 6 
#
# 1 0.012941 -0.000783 -0.002467 -0.001517 -0.001709 0.008364
# 2 -0.000783 0.006786 -0.001790 -0.000270 -0.000441 0.002833
# 3 -0.002467 -0.001790 0.008026 0.002139 0.003019 -0.000282
# 4 -0.001517 -0.000270 0.002139 0.019083 0.003200 -0.000901
# 5 -0.001709 -0.000441 0.003019 0.003200 0.015740 -0.001653
# 6 0.008364 0.002833 -0.000282 -0.000901 -0.001653 0.025390
#
#
# Mechanical properties :
#
#
# Convention : Reuss Voigt Hill
#
# Bulk Modulus (GPa) = 56.58386 81.58332 69.08359
# Shear Modulus (GPa) = 48.10559 57.80576 52.95567
#
# Velocity S-wave (km/s) = 4.12427 4.52100 4.32718
# Velocity P-wave (km/s) = 6.53352 7.48996 7.02803
#
# Compressibility (1/GPa) = 0.01767288
#
# Stress axis : x y z
#
# Youngs Moduli (GPa) = 77.27144 147.36662 124.58827
#
# Poissons Ratio (x) = 0.11542 0.30739
# Poissons Ratio (y) = 0.06052 0.22300
# Poissons Ratio (z) = 0.19065 0.26377
#
# Static dielectric constant tensor:
#      x y z
#    x 2.540020 0.133940 0.055780 
#    y 0.133940 2.459390 0.080520 
#    z 0.055780 0.080520 2.285740 
# 
# From -- ./inp_files/332664.got.cif
#   From: 2010.05.17/outbox.cif.g08.bks.cpg/sg2_167_cif.got.tgz:332664.got - 2010.06.03 11:33:40.
