data_PCOD9066544
_publ_section_title
;
Structure prediction by ZEFSAII (Michael W. Deem and Ramdas Pophale) SiO2 
 PCOD9066544
Probable space group: P -1
;
_chemical_formula_sum "Si O2"
_cell_formula_units_Z 16
_cell_length_a 12.019938
_cell_length_b 13.132131
_cell_length_c 12.050742
_cell_angle_alpha 105.781863
_cell_angle_beta 150.405038
_cell_angle_gamma 57.125536
_cell_volume 691.193632
_symmetry_space_group_name_H-M "P -1"
_symmetry_group_IT_number 2
_symmetry_cell_setting 'triclinic'
loop_
_space_group_symop_operation_xyz
x,y,z
-x,-y,-z
loop_
_atom_site_type_symbol
_atom_site_label
_atom_site_fract_x
_atom_site_fract_y
_atom_site_fract_z
Si Si1 0.800269 0.545100 0.948942
Si Si2 0.433859 0.065507 0.341516
Si Si3 0.704423 0.198183 0.519978
Si Si4 0.755319 0.019708 0.217553
Si Si5 0.256653 0.680366 0.197384
Si Si6 0.344894 0.115736 0.729240
Si Si7 0.807452 0.575796 0.529593
Si Si8 0.827449 0.395734 0.302936
O O1 0.532877 0.707333 0.753757
O O2 0.681273 0.460903 0.817389
O O3 0.000000 0.500000 0.000000
O O4 0.000360 0.501667 0.216975
O O5 0.620950 0.113507 0.483710
O O6 0.500000 0.000000 0.500000
O O7 0.508260 0.955246 0.280772
O O8 0.090101 0.198875 0.082250
O O9 0.673102 0.302270 0.612462
O O10 0.027628 0.100596 0.720272
O O11 0.605789 0.997994 0.180138
O O12 0.000000 0.000000 0.500000
O O13 0.515126 0.149222 0.966177
O O14 0.467649 0.686063 0.303486
O O15 0.997280 0.240823 0.448438
O O16 0.833177 0.473887 0.433837
O O17 0.948641 0.632332 0.606445
O O18 0.500000 0.500000 0.000000
#
# Coordination Sequence:
#
# PCOD9066544 Si02
#       8
#     2   2   2   2   2   2   2   2
#     4  12  25  42  74 105 145 183 239 310 368 436
#     4  12  28  46  71 106 150 194 242 299 365 446
#     4  12  26  45  71 108 146 194 242 301 377 429
#     4  11  25  46  71 104 142 187 245 300 365 438
#     4  12  25  47  70 108 144 188 245 304 370 435
#     4  11  27  46  73 106 143 194 246 301 367 441
#     4  11  27  46  71 107 142 191 243 301 374 437
#     4  11  28  49  72 104 147 198 249 302 364 440
#
# _framework density 23.148361000000001
#
# number of rings (size 3 to 8) (size 9 to 14) (size 15 to 20)
#    0.000    0.500    5.000    1.125   10.500    2.500 
#    0.000    0.000    0.000    0.000    0.000    0.000 
#    0.000    0.000    0.000    0.000    0.000    0.000 
#
# Total GULP energy -89370.162226 kJ/mol
# GULP energy per Si atom -5585.635139 kJ/mol
# Density = 2.309567 g / cm^3
# Si number density = 23.148361 Si / 1000 Ang^3
#
#
#
# Elastic Constant Matrix: (Units=GPa)
#
#
# Indices 1 2 3 4 5 6 
#
# 1 139.3687 28.1901 66.5080 4.6349 4.9244 -13.4875
# 2 28.1901 50.5063 41.6174 -3.8968 -12.3933 0.9630
# 3 66.5080 41.6174 135.6094 -4.6302 -8.4999 -0.4590
# 4 4.6349 -3.8968 -4.6302 34.2886 -11.8669 0.8800
# 5 4.9244 -12.3933 -8.4999 -11.8669 60.2452 3.7090
# 6 -13.4875 0.9630 -0.4590 0.8800 3.7090 22.6236
#
#
#
# Elastic Compliance Matrix: (Units=1/GPa)
#
#
# Indices 1 2 3 4 5 6 
#
# 1 0.011122 -0.003696 -0.004654 -0.003977 -0.003567 0.007433
# 2 -0.003696 0.029531 -0.006654 0.005442 0.006813 -0.004924
# 3 -0.004654 -0.006654 0.011834 0.001959 0.001223 -0.002528
# 4 -0.003977 0.005442 0.001959 0.033729 0.008691 -0.005300
# 5 -0.003567 0.006813 0.001223 0.008691 0.020552 -0.006099
# 6 0.007433 -0.004924 -0.002528 -0.005300 -0.006099 0.049997
#
#
# Mechanical properties :
#
#
# Convention : Reuss Voigt Hill
#
# Bulk Modulus (GPa) = 44.48893 66.45725 55.47309
# Shear Modulus (GPa) = 25.73801 36.04274 30.89038
#
# Velocity S-wave (km/s) = 3.33809 3.95021 3.65698
# Velocity P-wave (km/s) = 5.84105 7.04110 6.46896
#
# Compressibility (1/GPa) = 0.02247750
#
# Stress axis : x y z
#
# Youngs Moduli (GPa) = 89.91574 33.86280 84.50404
#
# Poissons Ratio (x) = 0.12516 0.39331
# Poissons Ratio (y) = 0.33235 0.56228
# Poissons Ratio (z) = 0.41850 0.22532
#
# Static dielectric constant tensor:
#      x y z
#    x 4.130450 3.667680 7.280100 
#    y 3.667680 7.717010 11.600040 
#    z 7.280100 11.600040 25.209700 
# 
# From -- ./inp_files/434148.got.cif
#   From: 2010.05.17/outbox.cif.g08.bks.cpg/sg2_218_cif.got.tgz:434148.got - 2010.06.03 11:33:40.
