data_PCOD9066322
_publ_section_title
;
Structure prediction by ZEFSAII (Michael W. Deem and Ramdas Pophale) SiO2 
 PCOD9066322
Probable space group: P -1
;
_chemical_formula_sum "Si O2"
_cell_formula_units_Z 13
_cell_length_a 10.417666
_cell_length_b 8.938356
_cell_length_c 15.047516
_cell_angle_alpha 119.205855
_cell_angle_beta 152.447932
_cell_angle_gamma 76.931802
_cell_volume 486.134525
_symmetry_space_group_name_H-M "P -1"
_symmetry_group_IT_number 2
_symmetry_cell_setting 'triclinic'
loop_
_space_group_symop_operation_xyz
x,y,z
-x,-y,-z
loop_
_atom_site_type_symbol
_atom_site_label
_atom_site_fract_x
_atom_site_fract_y
_atom_site_fract_z
Si Si1 0.698176 0.273316 0.945947
Si Si2 0.500000 0.500000 0.500000
Si Si3 0.824094 0.822619 0.106867
Si Si4 0.178770 0.543934 0.736570
Si Si5 0.311472 0.117202 0.161270
Si Si6 0.189153 0.599718 0.234472
Si Si7 0.114830 0.247654 0.491697
O O1 0.475609 0.291009 0.740537
O O2 0.574688 0.044268 0.818652
O O3 0.711434 0.384899 0.076166
O O4 0.067401 0.405648 0.172516
O O5 0.526526 0.332782 0.398858
O O6 0.551884 0.659618 0.488898
O O7 0.089512 0.754733 0.250249
O O8 0.499834 0.652263 0.903810
O O9 0.775065 0.853922 0.983153
O O10 0.915734 0.019407 0.275308
O O11 0.027662 0.312614 0.551091
O O12 0.961208 0.628275 0.589421
O O13 0.000000 0.000000 0.000000
O O14 0.000000 0.500000 0.000000
#
# Coordination Sequence:
#
# PCOD9066322 Si02
#       7
#     2   1   2   2   2   2   2
#     4  12  25  49  72 104 148 182 236 297 345 425
#     4  12  26  48  76 104 136 196 230 290 360 406
#     4  12  25  49  72 104 148 182 236 297 345 425
#     4  11  26  47  70 110 142 183 238 293 348 426
#     4  12  26  47  73 105 142 185 240 288 348 422
#     4  12  26  47  73 105 142 185 240 288 348 422
#     4  11  25  45  74 103 142 193 225 292 366 402
#
# _framework density 26.741571
#
# number of rings (size 3 to 8) (size 9 to 14) (size 15 to 20)
#    0.000    0.308    6.154    1.846    0.000    6.769 
#    0.000    3.077    0.000    0.000    0.000    0.000 
#    0.000    0.000    0.000    0.000    0.000    0.000 
#
# Total GULP energy -72697.057520 kJ/mol
# GULP energy per Si atom -5592.081348 kJ/mol
# Density = 2.668071 g / cm^3
# Si number density = 26.741571 Si / 1000 Ang^3
#
#
#
# Elastic Constant Matrix: (Units=GPa)
#
#
# Indices 1 2 3 4 5 6 
#
# 1 95.1556 46.3804 29.3897 8.8416 -19.4754 2.1322
# 2 46.3804 202.2673 87.8892 4.1617 -21.5900 -36.0931
# 3 29.3897 87.8892 157.0641 3.9594 -35.2152 -7.3219
# 4 8.8416 4.1617 3.9594 72.4391 -11.2825 -12.4413
# 5 -19.4754 -21.5900 -35.2152 -11.2825 51.2175 7.9811
# 6 2.1322 -36.0931 -7.3219 -12.4413 7.9811 48.9659
#
#
#
# Elastic Compliance Matrix: (Units=1/GPa)
#
#
# Indices 1 2 3 4 5 6 
#
# 1 0.013138 -0.003346 0.000159 -0.001492 0.003996 -0.004046
# 2 -0.003346 0.008461 -0.004134 0.001017 -0.001295 0.006234
# 3 0.000159 -0.004134 0.009750 0.000109 0.005428 -0.002453
# 4 -0.001492 0.001017 0.000109 0.015053 0.002593 0.004233
# 5 0.003996 -0.001295 0.005428 0.002593 0.025393 -0.003797
# 6 -0.004046 0.006234 -0.002453 0.004233 -0.003797 0.026521
#
#
# Mechanical properties :
#
#
# Convention : Reuss Voigt Hill
#
# Bulk Modulus (GPa) = 59.85479 86.86729 73.36104
# Shear Modulus (GPa) = 42.18439 53.91303 48.04871
#
# Velocity S-wave (km/s) = 3.97606 4.49494 4.24344
# Velocity P-wave (km/s) = 6.59621 7.71323 7.17649
#
# Compressibility (1/GPa) = 0.01670710
#
# Stress axis : x y z
#
# Youngs Moduli (GPa) = 76.11353 118.19524 102.56343
#
# Poissons Ratio (x) = 0.39553 -0.01633
# Poissons Ratio (y) = 0.25471 0.42396
# Poissons Ratio (z) = -0.01212 0.48858
#
# Static dielectric constant tensor:
#      x y z
#    x 2.199140 0.004080 0.079500 
#    y 0.004080 2.074270 -0.044300 
#    z 0.079500 -0.044300 2.221650 
# 
# From -- ./inp_files/190112.got.cif
#   From: 2010.05.17/outbox.cif.g08.bks.cpg/sg2_96_cif.got.tgz:190112.got - 2010.06.03 11:33:40.
