data_PCOD9066009
_publ_section_title
;
Structure prediction by ZEFSAII (Michael W. Deem and Ramdas Pophale) SiO2 
 PCOD9066009
Probable space group: P -1
;
_chemical_formula_sum "Si O2"
_cell_formula_units_Z 12
_cell_length_a 11.038167
_cell_length_b 7.686614
_cell_length_c 6.345458
_cell_angle_alpha 117.997230
_cell_angle_beta 107.382855
_cell_angle_gamma 88.807091
_cell_volume 449.090037
_symmetry_space_group_name_H-M "P -1"
_symmetry_group_IT_number 2
_symmetry_cell_setting 'triclinic'
loop_
_space_group_symop_operation_xyz
x,y,z
-x,-y,-z
loop_
_atom_site_type_symbol
_atom_site_label
_atom_site_fract_x
_atom_site_fract_y
_atom_site_fract_z
Si Si1 0.145457 0.463320 0.416753
Si Si2 0.644318 0.496480 0.809405
Si Si3 0.116305 0.049777 0.426627
Si Si4 0.868331 0.319106 0.071661
Si Si5 0.468473 0.139638 0.375795
Si Si6 0.341762 0.060124 0.881204
O O1 0.265721 0.463985 0.328368
O O2 0.131148 0.267398 0.448880
O O3 0.157250 0.660469 0.679989
O O4 0.011670 0.448297 0.209914
O O5 0.512301 0.357301 0.610322
O O6 0.744585 0.399338 0.952533
O O7 0.609925 0.703945 0.994260
O O8 0.231566 0.032745 0.636136
O O9 0.000000 0.000000 0.500000
O O10 0.110482 0.883167 0.147714
O O11 0.500000 0.000000 0.500000
O O12 0.572389 0.104654 0.233664
O O13 0.337992 0.063837 0.138298
#
# Coordination Sequence:
#
# PCOD9066009 Si02
#       6
#     2   2   2   2   2   2
#     4  11  27  43  70 107 144 192 233 289 352 420
#     4  12  25  46  74 102 143 182 240 298 349 420
#     4  12  26  46  73 107 148 188 232 290 355 425
#     4  11  25  44  71 105 147 190 234 286 353 422
#     4  11  28  49  75 102 140 189 240 295 351 421
#     4  11  26  49  71 109 142 182 242 291 355 422
#
# _framework density 26.720697999999999
#
# number of rings (size 3 to 8) (size 9 to 14) (size 15 to 20)
#    0.000    0.667    3.333    2.500    7.000    6.000 
#    0.000    0.000    0.000    0.000    0.000    0.000 
#    0.000    0.000    0.000    0.000    0.000    0.000 
#
# Total GULP energy -67108.735789 kJ/mol
# GULP energy per Si atom -5592.394649 kJ/mol
# Density = 2.665988 g / cm^3
# Si number density = 26.720698 Si / 1000 Ang^3
#
#
#
# Elastic Constant Matrix: (Units=GPa)
#
#
# Indices 1 2 3 4 5 6 
#
# 1 71.0824 1.8920 30.0835 4.2452 -1.4105 -3.6928
# 2 1.8920 94.7377 40.7106 -9.5038 -6.8697 -8.1088
# 3 30.0835 40.7106 205.7869 14.2151 12.9416 -3.8694
# 4 4.2452 -9.5038 14.2151 60.4348 -17.2878 -3.4116
# 5 -1.4105 -6.8697 12.9416 -17.2878 38.9257 -6.4942
# 6 -3.6928 -8.1088 -3.8694 -3.4116 -6.4942 43.1740
#
#
#
# Elastic Compliance Matrix: (Units=1/GPa)
#
#
# Indices 1 2 3 4 5 6 
#
# 1 0.015230 0.001130 -0.002576 0.000393 0.002053 0.001624
# 2 0.001130 0.013259 -0.003447 0.004812 0.006265 0.003601
# 3 -0.002576 -0.003447 0.006397 -0.003210 -0.004457 -0.001218
# 4 0.000393 0.004812 -0.003210 0.021792 0.012313 0.004224
# 5 0.002053 0.006265 -0.004457 0.012313 0.035021 0.007194
# 6 0.001624 0.003601 -0.001218 0.004224 0.007194 0.025284
#
#
# Mechanical properties :
#
#
# Convention : Reuss Voigt Hill
#
# Bulk Modulus (GPa) = 39.83957 57.44215 48.64086
# Shear Modulus (GPa) = 37.00022 48.43495 42.71758
#
# Velocity S-wave (km/s) = 3.72520 4.26213 4.00268
# Velocity P-wave (km/s) = 5.78315 6.76498 6.29324
#
# Compressibility (1/GPa) = 0.02510067
#
# Stress axis : x y z
#
# Youngs Moduli (GPa) = 65.66072 75.41892 156.32530
#
# Poissons Ratio (x) = -0.08521 0.40263
# Poissons Ratio (y) = -0.07419 0.53884
# Poissons Ratio (z) = 0.16912 0.25996
#
# Static dielectric constant tensor:
#      x y z
#    x 2.269640 0.013850 0.092400 
#    y 0.013850 2.156310 -0.043890 
#    z 0.092400 -0.043890 2.135290 
# 
# From -- ./inp_files/61323.got.cif
#   From: 2010.05.17/outbox.cif.g08.bks.cpg/sg2_31_cif.got.tgz:61323.got - 2010.06.03 11:33:40.
