data_PCOD9066992
_publ_section_title
;
Structure prediction by ZEFSAII (Michael W. Deem and Ramdas Pophale) SiO2 
 PCOD9066992
Probable space group: P -1
;
_chemical_formula_sum "Si O2"
_cell_formula_units_Z 13
_cell_length_a 8.794524
_cell_length_b 16.452246
_cell_length_c 5.614308
_cell_angle_alpha 120.608772
_cell_angle_beta 115.294414
_cell_angle_gamma 45.792866
_cell_volume 497.715830
_symmetry_space_group_name_H-M "P -1"
_symmetry_group_IT_number 2
_symmetry_cell_setting 'triclinic'
loop_
_space_group_symop_operation_xyz
x,y,z
-x,-y,-z
loop_
_atom_site_type_symbol
_atom_site_label
_atom_site_fract_x
_atom_site_fract_y
_atom_site_fract_z
Si Si1 0.282833 0.466703 0.233920
Si Si2 0.838824 0.702564 0.215552
Si Si3 0.500000 0.500000 0.000000
Si Si4 0.327726 0.704961 0.443921
Si Si5 0.918555 0.131720 0.077857
Si Si6 0.579439 0.156368 0.587243
Si Si7 0.738846 0.916162 0.144517
O O1 0.381313 0.461761 0.039031
O O2 0.459605 0.420374 0.491563
O O3 0.073674 0.602952 0.330329
O O4 0.215927 0.380650 0.061735
O O5 0.664153 0.778950 0.419465
O O6 0.792242 0.801228 0.143082
O O7 0.295262 0.644405 0.116985
O O8 0.133245 0.783797 0.609068
O O9 0.389351 0.789888 0.543223
O O10 0.685061 0.186960 0.900767
O O11 0.084754 0.117551 0.982659
O O12 0.000000 0.000000 0.000000
O O13 0.716820 0.013780 0.451738
O O14 0.500000 0.000000 0.000000
#
# Coordination Sequence:
#
# PCOD9066992 Si02
#       7
#     2   2   1   2   2   2   2
#     4  11  26  48  73 109 150 206 250 314 374 458
#     4  11  25  47  74 109 155 197 251 311 389 449
#     4  12  26  48  74 106 152 204 258 312 368 456
#     4  12  25  48  78 111 152 194 262 311 379 451
#     4  12  26  48  82 112 151 205 260 313 383 457
#     4  12  25  50  78 113 155 197 258 321 376 464
#     4  12  27  48  77 116 154 204 247 321 393 452
#
# _framework density 26.119323999999999
#
# number of rings (size 3 to 8) (size 9 to 14) (size 15 to 20)
#    0.000    0.308    4.615    3.231    4.308    1.846 
#    2.769    0.000    0.000    0.000    0.000    0.000 
#    0.000    0.000    0.000    0.000    0.000    0.000 
#
# Total GULP energy -72637.896190 kJ/mol
# GULP energy per Si atom -5587.530476 kJ/mol
# Density = 2.605987 g / cm^3
# Si number density = 26.119324 Si / 1000 Ang^3
#
#
#
# Elastic Constant Matrix: (Units=GPa)
#
#
# Indices 1 2 3 4 5 6 
#
# 1 123.3764 90.3445 38.0648 25.7236 -25.2032 16.4748
# 2 90.3445 222.3394 31.3612 37.7846 -1.1962 16.5295
# 3 38.0648 31.3612 60.2699 45.1566 -14.8053 0.2700
# 4 25.7236 37.7846 45.1566 57.0752 -11.1029 8.5714
# 5 -25.2032 -1.1962 -14.8053 -11.1029 57.1649 12.9979
# 6 16.4748 16.5295 0.2700 8.5714 12.9979 74.2878
#
#
#
# Elastic Compliance Matrix: (Units=1/GPa)
#
#
# Indices 1 2 3 4 5 6 
#
# 1 0.016197 -0.005910 -0.010846 0.007097 0.006542 -0.004201
# 2 -0.005910 0.007283 0.003349 -0.005479 -0.002834 0.000806
# 3 -0.010846 0.003349 0.049824 -0.037730 -0.000481 0.005917
# 4 0.007097 -0.005479 -0.037730 0.049670 0.004418 -0.006722
# 5 0.006542 -0.002834 -0.000481 0.004418 0.022238 -0.005219
# 6 -0.004201 0.000806 0.005917 -0.006722 -0.005219 0.015881
#
#
# Mechanical properties :
#
#
# Convention : Reuss Voigt Hill
#
# Bulk Modulus (GPa) = 21.51042 80.61408 51.06225
# Shear Modulus (GPa) = 24.58172 54.11993 39.35082
#
# Velocity S-wave (km/s) = 3.07111 4.55689 3.88568
# Velocity P-wave (km/s) = 4.56388 7.65622 6.30265
#
# Compressibility (1/GPa) = 0.04648910
#
# Stress axis : x y z
#
# Youngs Moduli (GPa) = 61.73992 137.30999 20.07073
#
# Poissons Ratio (x) = 0.81153 0.21769
# Poissons Ratio (y) = 0.36489 -0.06721
# Poissons Ratio (z) = 0.66963 -0.45983
#
# Static dielectric constant tensor:
#      x y z
#    x 2.031140 -0.011050 0.036330 
#    y -0.011050 2.183590 -0.580470 
#    z 0.036330 -0.580470 4.369150 
# 
# From -- ./inp_files/35723.got.cif
#   From: 2010.05.17/outbox.cif.g08.bks.cpg/sg2_18_cif.got.tgz:35723.got - 2010.06.03 11:33:40.
