data_PCOD9066968
_publ_section_title
;
Structure prediction by ZEFSAII (Michael W. Deem and Ramdas Pophale) SiO2 
 PCOD9066968
Probable space group: P -1
;
_chemical_formula_sum "Si O2"
_cell_formula_units_Z 13
_cell_length_a 7.003841
_cell_length_b 9.308271
_cell_length_c 11.797550
_cell_angle_alpha 59.291086
_cell_angle_beta 112.782490
_cell_angle_gamma 92.466834
_cell_volume 597.957042
_symmetry_space_group_name_H-M "P -1"
_symmetry_group_IT_number 2
_symmetry_cell_setting 'triclinic'
loop_
_space_group_symop_operation_xyz
x,y,z
-x,-y,-z
loop_
_atom_site_type_symbol
_atom_site_label
_atom_site_fract_x
_atom_site_fract_y
_atom_site_fract_z
Si Si1 0.784419 0.133410 0.612633
Si Si2 0.276308 0.548087 0.084120
Si Si3 0.691566 0.740950 0.603739
Si Si4 0.273005 0.394663 0.898594
Si Si5 0.922555 0.872961 0.944613
Si Si6 0.105603 0.537708 0.393220
Si Si7 0.000000 0.000000 0.500000
O O1 0.550236 0.162910 0.495805
O O2 0.946289 0.121085 0.550638
O O3 0.806303 0.292269 0.633564
O O4 0.843976 0.971809 0.772880
O O5 0.272513 0.382589 0.227739
O O6 0.513177 0.583996 0.121981
O O7 0.238080 0.507680 0.959633
O O8 0.109886 0.711496 0.023900
O O9 0.720836 0.614063 0.554013
O O10 0.852719 0.869078 0.574281
O O11 0.078574 0.439897 0.751469
O O12 0.268990 0.203966 0.015558
O O13 0.000000 0.000000 0.000000
O O14 0.000000 0.500000 0.500000
#
# Coordination Sequence:
#
# PCOD9066968 Si02
#       7
#     2   2   2   2   2   2   1
#     4  12  27  46  74 109 147 187 238 299 362 423
#     4  11  26  46  79 102 141 196 247 285 355 434
#     4  12  26  49  77 105 141 193 244 295 358 429
#     4  11  25  47  74 105 142 195 242 293 349 428
#     4  12  25  46  69 109 148 185 233 301 358 421
#     4  12  24  47  75 104 146 191 242 294 356 429
#     4  12  28  46  72 108 152 178 238 308 358 420
#
# _framework density 21.740691999999999
#
# number of rings (size 3 to 8) (size 9 to 14) (size 15 to 20)
#    0.000    0.308    4.615    3.231    2.154    4.308 
#    0.000    0.000    0.000    0.000    0.000    0.000 
#    0.000    0.000    0.000    0.000    0.000    0.000 
#
# Total GULP energy -72496.631311 kJ/mol
# GULP energy per Si atom -5576.663947 kJ/mol
# Density = 2.169121 g / cm^3
# Si number density = 21.740692 Si / 1000 Ang^3
#
#
#
# Elastic Constant Matrix: (Units=GPa)
#
#
# Indices 1 2 3 4 5 6 
#
# 1 118.0326 31.5480 62.8285 -20.7803 -25.5846 17.9315
# 2 31.5480 121.5246 24.2976 -10.4169 -0.0865 9.5643
# 3 62.8285 24.2976 130.5468 -15.5013 -6.5683 -5.0594
# 4 -20.7803 -10.4169 -15.5013 29.5671 1.0209 -8.1162
# 5 -25.5846 -0.0865 -6.5683 1.0209 34.5537 2.2873
# 6 17.9315 9.5643 -5.0594 -8.1162 2.2873 43.4816
#
#
#
# Elastic Compliance Matrix: (Units=1/GPa)
#
#
# Indices 1 2 3 4 5 6 
#
# 1 0.017356 -0.002070 -0.007004 0.005433 0.011825 -0.007125
# 2 -0.002070 0.009073 -0.000666 0.001198 -0.001612 -0.000911
# 3 -0.007004 -0.000666 0.011453 0.002333 -0.003409 0.004982
# 4 0.005433 0.001198 0.002333 0.040609 0.002925 0.005194
# 5 0.011825 -0.001612 -0.003409 0.002925 0.037377 -0.006339
# 6 -0.007125 -0.000911 0.004982 0.005194 -0.006339 0.028020
#
#
# Mechanical properties :
#
#
# Convention : Reuss Voigt Hill
#
# Bulk Modulus (GPa) = 54.34497 67.49469 60.91983
# Shear Modulus (GPa) = 29.49816 38.28249 33.89033
#
# Velocity S-wave (km/s) = 3.68750 4.20082 3.95250
# Velocity P-wave (km/s) = 6.57125 7.39202 6.99369
#
# Compressibility (1/GPa) = 0.01840097
#
# Stress axis : x y z
#
# Youngs Moduli (GPa) = 57.61817 110.22059 87.31098
#
# Poissons Ratio (x) = 0.22820 0.61148
# Poissons Ratio (y) = 0.11929 0.05819
# Poissons Ratio (z) = 0.40353 0.07345
#
# Static dielectric constant tensor:
#      x y z
#    x 1.751150 0.074210 0.050280 
#    y 0.074210 1.717460 -0.082750 
#    z 0.050280 -0.082750 1.767620 
# 
# From -- ./inp_files/360556.got.cif
#   From: 2010.05.17/outbox.cif.g08.bks.cpg/sg2_181_cif.got.tgz:360556.got - 2010.06.03 11:33:40.
