data_PCOD9066031
_publ_section_title
;
Structure prediction by ZEFSAII (Michael W. Deem and Ramdas Pophale) SiO2 
 PCOD9066031
Probable space group: P -1
;
_chemical_formula_sum "Si O2"
_cell_formula_units_Z 14
_cell_length_a 5.650278
_cell_length_b 10.592151
_cell_length_c 11.783244
_cell_angle_alpha 54.654528
_cell_angle_beta 101.313546
_cell_angle_gamma 92.941439
_cell_volume 562.340926
_symmetry_space_group_name_H-M "P -1"
_symmetry_group_IT_number 2
_symmetry_cell_setting 'triclinic'
loop_
_space_group_symop_operation_xyz
x,y,z
-x,-y,-z
loop_
_atom_site_type_symbol
_atom_site_label
_atom_site_fract_x
_atom_site_fract_y
_atom_site_fract_z
Si Si1 0.013652 0.900800 0.880424
Si Si2 0.210619 0.941964 0.639271
Si Si3 0.653852 0.422306 0.206814
Si Si4 0.658531 0.119259 0.886040
Si Si5 0.473978 0.208701 0.586957
Si Si6 0.772448 0.620738 0.915754
Si Si7 0.946798 0.379400 0.461789
O O1 0.839358 0.789572 0.861501
O O2 0.142454 0.973400 0.748772
O O3 0.859041 0.026396 0.874451
O O4 0.197126 0.808332 0.034231
O O5 0.250886 0.753756 0.731670
O O6 0.443343 0.044665 0.604282
O O7 0.000000 0.000000 0.500000
O O8 0.372414 0.393474 0.206845
O O9 0.825281 0.467991 0.297383
O O10 0.638088 0.565318 0.043909
O O11 0.505111 0.211033 0.726750
O O12 0.500000 0.000000 0.000000
O O13 0.721123 0.277189 0.528977
O O14 0.207104 0.295188 0.497569
O O15 0.000000 0.500000 0.000000
O O16 0.000000 0.500000 0.500000
#
# Coordination Sequence:
#
# PCOD9066031 Si02
#       7
#     2   2   2   2   2   2   2
#     4  11  25  45  73 109 151 199 254 320 378 456
#     4  12  24  47  77 113 155 195 257 319 387 459
#     4  11  27  46  72 109 146 200 255 315 383 459
#     4  11  25  44  72 106 148 194 257 311 383 450
#     4  12  27  49  75 110 149 202 252 321 388 450
#     4  11  25  45  73 103 148 197 254 311 382 453
#     4  12  30  51  74 109 153 201 257 310 390 468
#
# _framework density 24.895931000000001
#
# number of rings (size 3 to 8) (size 9 to 14) (size 15 to 20)
#    0.000    0.571    4.286    2.143    8.000    1.714 
#    0.000    0.000    0.000    0.000    0.000    0.000 
#    0.000    0.000    0.000    0.000    0.000    0.000 
#
# Total GULP energy -78137.571925 kJ/mol
# GULP energy per Si atom -5581.255137 kJ/mol
# Density = 2.483927 g / cm^3
# Si number density = 24.895931 Si / 1000 Ang^3
#
#
#
# Elastic Constant Matrix: (Units=GPa)
#
#
# Indices 1 2 3 4 5 6 
#
# 1 100.7421 31.6126 39.3777 15.1484 13.2374 18.3859
# 2 31.6126 85.1338 -12.6254 11.8137 10.2177 18.5453
# 3 39.3777 -12.6254 81.9950 28.6962 22.6539 10.9233
# 4 15.1484 11.8137 28.6962 44.3483 13.6695 2.8306
# 5 13.2374 10.2177 22.6539 13.6695 53.2927 5.8724
# 6 18.3859 18.5453 10.9233 2.8306 5.8724 46.1401
#
#
#
# Elastic Compliance Matrix: (Units=1/GPa)
#
#
# Indices 1 2 3 4 5 6 
#
# 1 0.015837 -0.007598 -0.009889 0.002734 0.001161 -0.001231
# 2 -0.007598 0.019292 0.011464 -0.008371 -0.003828 -0.006440
# 3 -0.009889 0.011464 0.026231 -0.014266 -0.006665 -0.005154
# 4 0.002734 -0.008371 -0.014266 0.033451 -0.002015 0.003857
# 5 0.001161 -0.003828 -0.006665 -0.002015 0.022570 -0.000095
# 6 -0.001231 -0.006440 -0.005154 0.003857 -0.000095 0.025748
#
#
# Mechanical properties :
#
#
# Convention : Reuss Voigt Hill
#
# Bulk Modulus (GPa) = 20.27791 42.73342 31.50567
# Shear Modulus (GPa) = 29.13557 42.72327 35.92942
#
# Velocity S-wave (km/s) = 3.42467 4.14705 3.80305
# Velocity P-wave (km/s) = 4.87858 6.33504 5.65391
#
# Compressibility (1/GPa) = 0.04931474
#
# Stress axis : x y z
#
# Youngs Moduli (GPa) = 63.14345 51.83611 38.12271
#
# Poissons Ratio (x) = 0.39384 0.37700
# Poissons Ratio (y) = 0.47975 -0.43706
# Poissons Ratio (z) = 0.62443 -0.59427
#
# Static dielectric constant tensor:
#      x y z
#    x 2.535450 0.181510 -0.302370 
#    y 0.181510 2.026060 -0.106250 
#    z -0.302370 -0.106250 2.164800 
# 
# From -- ./inp_files/69411.got.cif
#   From: 2010.05.17/outbox.cif.g08.bks.cpg/sg2_35_cif.got.tgz:69411.got - 2010.06.03 11:33:40.
