data_PCOD9066531
_publ_section_title
;
Structure prediction by ZEFSAII (Michael W. Deem and Ramdas Pophale) SiO2 
 PCOD9066531
Probable space group: P -1
;
_chemical_formula_sum "Si O2"
_cell_formula_units_Z 16
_cell_length_a 11.031857
_cell_length_b 9.407868
_cell_length_c 18.815280
_cell_angle_alpha 150.390039
_cell_angle_beta 52.682003
_cell_angle_gamma 117.026480
_cell_volume 754.092934
_symmetry_space_group_name_H-M "P -1"
_symmetry_group_IT_number 2
_symmetry_cell_setting 'triclinic'
loop_
_space_group_symop_operation_xyz
x,y,z
-x,-y,-z
loop_
_atom_site_type_symbol
_atom_site_label
_atom_site_fract_x
_atom_site_fract_y
_atom_site_fract_z
Si Si1 0.861757 0.598963 0.690546
Si Si2 0.666195 0.643807 0.303773
Si Si3 0.449567 0.834312 0.188106
Si Si4 0.983569 0.509138 0.926179
Si Si5 0.939990 0.105146 0.144227
Si Si6 0.860622 0.921135 0.681195
Si Si7 0.612255 0.343425 0.331682
Si Si8 0.409745 0.738111 0.326878
O O1 0.830127 0.787556 0.711232
O O2 0.708823 0.484556 0.720362
O O3 0.930575 0.785945 0.807131
O O4 0.998996 0.318864 0.504935
O O5 0.845568 0.506068 0.173511
O O6 0.585624 0.492700 0.329497
O O7 0.576539 0.619067 0.251443
O O8 0.654742 0.979267 0.478330
O O9 0.426128 0.830623 0.279952
O O10 0.292687 0.004093 0.279963
O O11 0.580278 0.016074 0.197905
O O12 0.500000 0.500000 0.000000
O O13 0.916059 0.230420 0.804321
O O14 0.000000 0.500000 0.000000
O O15 0.889424 0.825853 0.077785
O O16 0.787514 0.349557 0.295229
O O17 0.000000 0.000000 0.000000
O O18 0.500000 0.500000 0.500000
#
# Coordination Sequence:
#
# PCOD9066531 Si02
#       8
#     2   2   2   2   2   2   2   2
#     4  11  25  46  71 102 136 184 232 286 348 415
#     4  11  25  47  70 103 141 184 237 284 357 422
#     4  12  28  44  69 105 139 181 233 291 354 412
#     4  12  25  45  71 104 141 186 230 292 360 419
#     4  12  27  44  71 106 142 182 237 291 353 416
#     4  11  25  46  71 100 138 182 233 285 346 425
#     4  12  25  47  72 101 139 189 232 286 346 423
#     4  11  26  44  71 102 139 182 231 294 347 420
#
# _framework density 21.217544
#
# number of rings (size 3 to 8) (size 9 to 14) (size 15 to 20)
#    0.000    0.500    5.000    2.250    7.000    1.500 
#    0.000    1.875    0.000    0.000    0.000    0.000 
#    0.000    0.000    0.000    0.000    0.000    0.000 
#
# Total GULP energy -89520.136698 kJ/mol
# GULP energy per Si atom -5595.008544 kJ/mol
# Density = 2.116925 g / cm^3
# Si number density = 21.217544 Si / 1000 Ang^3
#
#
#
# Elastic Constant Matrix: (Units=GPa)
#
#
# Indices 1 2 3 4 5 6 
#
# 1 149.9020 49.2153 17.6852 4.3607 6.0638 -16.9598
# 2 49.2153 105.5175 2.0778 8.9058 21.5688 -7.4974
# 3 17.6852 2.0778 43.6190 8.9032 14.9097 -1.3248
# 4 4.3607 8.9058 8.9032 41.3787 5.3066 7.2040
# 5 6.0638 21.5688 14.9097 5.3066 34.4649 2.2369
# 6 -16.9598 -7.4974 -1.3248 7.2040 2.2369 41.6839
#
#
#
# Elastic Compliance Matrix: (Units=1/GPa)
#
#
# Indices 1 2 3 4 5 6 
#
# 1 0.008797 -0.004454 -0.004310 0.000157 0.002921 0.002457
# 2 -0.004454 0.013803 0.005083 -0.002659 -0.009762 0.001816
# 3 -0.004310 0.005083 0.030770 -0.005673 -0.014985 0.001923
# 4 0.000157 -0.002659 -0.005673 0.026818 0.000302 -0.005246
# 5 0.002921 -0.009762 -0.014985 0.000302 0.041261 -0.003310
# 6 0.002457 0.001816 0.001923 -0.005246 -0.003310 0.026462
#
#
# Mechanical properties :
#
#
# Convention : Reuss Voigt Hill
#
# Bulk Modulus (GPa) = 21.73520 48.55500 35.14510
# Shear Modulus (GPa) = 29.30660 38.84284 34.07472
#
# Velocity S-wave (km/s) = 3.72054 4.28330 4.01180
# Velocity P-wave (km/s) = 5.35936 6.88450 6.16924
#
# Compressibility (1/GPa) = 0.04600832
#
# Stress axis : x y z
#
# Youngs Moduli (GPa) = 113.67305 72.44647 32.49929
#
# Poissons Ratio (x) = 0.32267 0.14008
# Poissons Ratio (y) = 0.50629 -0.16520
# Poissons Ratio (z) = 0.48996 -0.36825
#
# Static dielectric constant tensor:
#      x y z
#    x 1.766980 0.043440 -0.003500 
#    y 0.043440 1.711230 0.002380 
#    z -0.003500 0.002380 1.766680 
# 
# From -- ./inp_files/317931.got.cif
#   From: 2010.05.17/outbox.cif.g08.bks.cpg/sg2_159_cif.got.tgz:317931.got - 2010.06.03 11:33:40.
