data_PCOD9066189
_publ_section_title
;
Structure prediction by ZEFSAII (Michael W. Deem and Ramdas Pophale) SiO2 
 PCOD9066189
Probable space group: P -1
;
_chemical_formula_sum "Si O2"
_cell_formula_units_Z 16
_cell_length_a 10.080618
_cell_length_b 5.180185
_cell_length_c 14.266313
_cell_angle_alpha 95.682850
_cell_angle_beta 120.520667
_cell_angle_gamma 102.127944
_cell_volume 608.431083
_symmetry_space_group_name_H-M "P -1"
_symmetry_group_IT_number 2
_symmetry_cell_setting 'triclinic'
loop_
_space_group_symop_operation_xyz
x,y,z
-x,-y,-z
loop_
_atom_site_type_symbol
_atom_site_label
_atom_site_fract_x
_atom_site_fract_y
_atom_site_fract_z
Si Si1 0.629158 0.625228 0.929286
Si Si2 0.353820 0.605820 0.417809
Si Si3 0.863264 0.735484 0.477598
Si Si4 0.088721 0.611861 0.690385
Si Si5 0.429972 0.005309 0.834883
Si Si6 0.954912 0.640375 0.139949
Si Si7 0.849492 0.758152 0.828313
Si Si8 0.412567 0.997539 0.611041
O O1 0.543564 0.856877 0.923003
O O2 0.722805 0.686055 0.865331
O O3 0.494911 0.330714 0.874942
O O4 0.771821 0.619166 0.049925
O O5 0.500000 0.500000 0.500000
O O6 0.242052 0.379700 0.302680
O O7 0.314459 0.743032 0.503664
O O8 0.576874 0.141255 0.620179
O O9 0.938807 0.701790 0.603501
O O10 0.304481 0.200392 0.579704
O O11 0.858441 0.512048 0.388873
O O12 0.000000 0.000000 0.500000
O O13 0.242029 0.861267 0.786728
O O14 0.035913 0.393080 0.745957
O O15 0.444715 0.940706 0.726999
O O16 0.012980 0.391779 0.111487
O O17 0.067445 0.923392 0.148622
#
# Coordination Sequence:
#
# PCOD9066189 Si02
#       8
#     2   2   2   2   2   2   2   2
#     4  12  26  51  79 109 142 203 254 325 386 437
#     4  11  27  41  72 111 154 188 248 299 381 450
#     4  11  25  47  74 103 160 200 253 295 382 457
#     4  11  29  46  73 115 148 209 248 315 372 450
#     4  12  25  48  79 104 153 194 259 311 379 450
#     4  12  30  49  77 109 153 194 263 315 377 451
#     4  12  27  48  76 109 154 198 245 319 383 457
#     4  11  25  45  70 111 150 201 239 308 370 464
#
# _framework density 26.297146000000001
#
# number of rings (size 3 to 8) (size 9 to 14) (size 15 to 20)
#    0.000    0.500    2.500    3.750   10.500    1.000 
#    0.000    0.000    0.000    0.000    0.000    0.000 
#    0.000    0.000    0.000    0.000    0.000    0.000 
#
# Total GULP energy -89805.620484 kJ/mol
# GULP energy per Si atom -5612.851280 kJ/mol
# Density = 2.623729 g / cm^3
# Si number density = 26.297146 Si / 1000 Ang^3
#
#
#
# Elastic Constant Matrix: (Units=GPa)
#
#
# Indices 1 2 3 4 5 6 
#
# 1 79.9657 29.7166 19.6030 -12.6457 -10.0115 -5.1805
# 2 29.7166 154.4026 36.8240 -3.5676 5.4266 18.9944
# 3 19.6030 36.8240 109.4713 -19.0178 8.9938 -10.5733
# 4 -12.6457 -3.5676 -19.0178 49.7278 1.1691 13.4252
# 5 -10.0115 5.4266 8.9938 1.1691 43.4610 -5.1362
# 6 -5.1805 18.9944 -10.5733 13.4252 -5.1362 39.9650
#
#
#
# Elastic Compliance Matrix: (Units=1/GPa)
#
#
# Indices 1 2 3 4 5 6 
#
# 1 0.015053 -0.003021 -0.001382 0.002211 0.004408 0.002845
# 2 -0.003021 0.008422 -0.002603 0.000353 -0.001861 -0.005441
# 3 -0.001382 -0.002603 0.011225 0.003066 -0.002076 0.002731
# 4 0.002211 0.000353 0.003066 0.023882 -0.001675 -0.007308
# 5 0.004408 -0.001861 -0.002076 -0.001675 0.025289 0.004720
# 6 0.002845 -0.005441 0.002731 -0.007308 0.004720 0.031760
#
#
# Mechanical properties :
#
#
# Convention : Reuss Voigt Hill
#
# Bulk Modulus (GPa) = 48.34230 57.34739 52.84485
# Shear Modulus (GPa) = 36.61928 43.81051 40.21489
#
# Velocity S-wave (km/s) = 3.73570 4.08607 3.91480
# Velocity P-wave (km/s) = 6.08525 6.64199 6.36971
#
# Compressibility (1/GPa) = 0.02068582
#
# Stress axis : x y z
#
# Youngs Moduli (GPa) = 66.43318 118.73986 89.08671
#
# Poissons Ratio (x) = 0.35874 0.12316
# Poissons Ratio (y) = 0.20071 0.23191
# Poissons Ratio (z) = 0.09184 0.30910
#
# Static dielectric constant tensor:
#      x y z
#    x 2.103250 0.034910 0.001660 
#    y 0.034910 2.100400 0.003870 
#    z 0.001660 0.003870 2.039950 
# 
# From -- ./inp_files/511045.got.cif
#   From: 2010.05.17/outbox.cif.g08.bks.cpg/sg2_256_cif.got.tgz:511045.got - 2010.06.03 11:33:40.
