data_PCOD9066732
_publ_section_title
;
Structure prediction by ZEFSAII (Michael W. Deem and Ramdas Pophale) SiO2 
 PCOD9066732
Probable space group: P -1
;
_chemical_formula_sum "Si O2"
_cell_formula_units_Z 12
_cell_length_a 9.650374
_cell_length_b 9.050642
_cell_length_c 12.834435
_cell_angle_alpha 140.123883
_cell_angle_beta 133.906260
_cell_angle_gamma 66.160896
_cell_volume 497.516880
_symmetry_space_group_name_H-M "P -1"
_symmetry_group_IT_number 2
_symmetry_cell_setting 'triclinic'
loop_
_space_group_symop_operation_xyz
x,y,z
-x,-y,-z
loop_
_atom_site_type_symbol
_atom_site_label
_atom_site_fract_x
_atom_site_fract_y
_atom_site_fract_z
Si Si1 0.959464 0.041128 0.358688
Si Si2 0.631432 0.521345 0.183400
Si Si3 0.494566 0.242163 0.569004
Si Si4 0.191651 0.223125 0.221395
Si Si5 0.325755 0.968848 0.977896
Si Si6 0.152769 0.705307 0.380604
O O1 0.869801 0.043272 0.199807
O O2 0.814205 0.107772 0.405214
O O3 0.172165 0.247352 0.590889
O O4 0.989866 0.787042 0.270785
O O5 0.497310 0.561975 0.232473
O O6 0.692078 0.278815 0.105259
O O7 0.500000 0.500000 0.000000
O O8 0.300464 0.234256 0.394332
O O9 0.669945 0.283749 0.600015
O O10 0.500000 0.000000 0.500000
O O11 0.114363 0.450443 0.276608
O O12 0.341032 0.176680 0.183727
O O13 0.000000 0.000000 0.000000
O O14 0.500000 0.000000 0.000000
#
# Coordination Sequence:
#
# PCOD9066732 Si02
#       6
#     2   2   2   2   2   2
#     4  11  25  48  72 103 145 187 232 293 354 413
#     4  12  26  47  74 102 141 187 238 291 351 421
#     4  12  24  47  72 103 143 182 235 291 351 416
#     4  12  26  46  72 107 140 185 235 289 350 423
#     4  12  26  45  73 106 142 183 239 285 353 423
#     4  11  25  46  74  99 145 185 234 286 357 412
#
# _framework density 24.119783000000002
#
# number of rings (size 3 to 8) (size 9 to 14) (size 15 to 20)
#    0.000    0.333    1.667    7.000    4.667    0.667 
#    0.000    0.000    0.000    0.000    0.000    0.000 
#    0.000    0.000    0.000    0.000    0.000    0.000 
#
# Total GULP energy -67264.454900 kJ/mol
# GULP energy per Si atom -5605.371242 kJ/mol
# Density = 2.406489 g / cm^3
# Si number density = 24.119783 Si / 1000 Ang^3
#
#
#
# Elastic Constant Matrix: (Units=GPa)
#
#
# Indices 1 2 3 4 5 6 
#
# 1 133.2775 19.7727 27.8227 -8.1625 -18.9914 -1.9153
# 2 19.7727 279.4001 84.3633 -5.6653 -10.5738 -4.6137
# 3 27.8227 84.3633 96.0511 -36.4184 -17.1528 2.0661
# 4 -8.1625 -5.6653 -36.4184 50.1607 9.5305 -14.7908
# 5 -18.9914 -10.5738 -17.1528 9.5305 39.3992 6.7527
# 6 -1.9153 -4.6137 2.0661 -14.7908 6.7527 37.8445
#
#
#
# Elastic Compliance Matrix: (Units=1/GPa)
#
#
# Indices 1 2 3 4 5 6 
#
# 1 0.008390 0.000256 -0.002494 -0.001207 0.003402 -0.000487
# 2 0.000256 0.005391 -0.006384 -0.004133 -0.000110 -0.000577
# 3 -0.002494 -0.006384 0.023367 0.016454 0.002629 0.003781
# 4 -0.001207 -0.004133 0.016454 0.036355 -0.005680 0.013759
# 5 0.003402 -0.000110 0.002629 -0.005680 0.030831 -0.007706
# 6 -0.000487 -0.000577 0.003781 0.013759 -0.007706 0.032875
#
#
# Mechanical properties :
#
#
# Convention : Reuss Voigt Hill
#
# Bulk Modulus (GPa) = 50.24202 85.84957 68.04579
# Shear Modulus (GPa) = 31.03894 50.59887 40.81890
#
# Velocity S-wave (km/s) = 3.59118 4.58516 4.11827
# Velocity P-wave (km/s) = 6.17016 7.98135 7.13347
#
# Compressibility (1/GPa) = 0.01990366
#
# Stress axis : x y z
#
# Youngs Moduli (GPa) = 119.19232 185.49592 42.79491
#
# Poissons Ratio (x) = -0.04742 0.10674
# Poissons Ratio (y) = -0.03047 0.27318
# Poissons Ratio (z) = 0.29730 1.18412
#
# Static dielectric constant tensor:
#      x y z
#    x 1.988030 -0.021460 0.038320 
#    y -0.021460 2.125680 0.048190 
#    z 0.038320 0.048190 1.905770 
# 
# From -- ./inp_files/152432.got.cif
#   From: 2010.05.17/outbox.cif.g08.bks.cpg/sg2_77_cif.got.tgz:152432.got - 2010.06.03 11:33:40.
