data_PCOD9066347
_publ_section_title
;
Structure prediction by ZEFSAII (Michael W. Deem and Ramdas Pophale) SiO2 
 PCOD9066347
Probable space group: P -1
;
_chemical_formula_sum "Si O2"
_cell_formula_units_Z 12
_cell_length_a 12.130334
_cell_length_b 7.842097
_cell_length_c 4.980567
_cell_angle_alpha 96.003932
_cell_angle_beta 100.012891
_cell_angle_gamma 80.564844
_cell_volume 458.845186
_symmetry_space_group_name_H-M "P -1"
_symmetry_group_IT_number 2
_symmetry_cell_setting 'triclinic'
loop_
_space_group_symop_operation_xyz
x,y,z
-x,-y,-z
loop_
_atom_site_type_symbol
_atom_site_label
_atom_site_fract_x
_atom_site_fract_y
_atom_site_fract_z
Si Si1 0.886507 0.317793 0.946067
Si Si2 0.734380 0.130859 0.481002
Si Si3 0.324856 0.191765 0.294709
Si Si4 0.154587 0.446229 0.521549
Si Si5 0.884709 0.854582 0.186734
Si Si6 0.477363 0.627679 0.762496
O O1 0.785254 0.229360 0.762424
O O2 0.001306 0.182946 0.942198
O O3 0.858752 0.408281 0.232769
O O4 0.103932 0.526738 0.236807
O O5 0.646062 0.260319 0.294932
O O6 0.669501 0.980708 0.552920
O O7 0.841278 0.037888 0.337961
O O8 0.222059 0.180136 0.043049
O O9 0.281413 0.356798 0.493033
O O10 0.434145 0.234276 0.195587
O O11 0.101148 0.284921 0.588810
O O12 0.500000 0.500000 0.500000
O O13 0.500000 0.500000 0.000000
#
# Coordination Sequence:
#
# PCOD9066347 Si02
#       6
#     2   2   2   2   2   2
#     4  12  26  45  77 117 157 205 255 305 376 453
#     4  11  29  48  78 113 159 204 252 319 384 458
#     4  11  27  50  79 114 157 202 255 314 391 450
#     4  11  25  45  74 112 155 207 252 310 366 451
#     4  11  26  46  77 113 162 202 251 310 382 458
#     4  12  31  53  82 111 146 201 263 325 381 454
#
# _framework density 26.152609000000002
#
# number of rings (size 3 to 8) (size 9 to 14) (size 15 to 20)
#    0.000    0.667    1.667    3.000   16.333    1.333 
#    0.000    0.000    0.000    0.000    0.000    0.000 
#    0.000    0.000    0.000    0.000    0.000    0.000 
#
# Total GULP energy -67359.077191 kJ/mol
# GULP energy per Si atom -5613.256433 kJ/mol
# Density = 2.609308 g / cm^3
# Si number density = 26.152609 Si / 1000 Ang^3
#
#
#
# Elastic Constant Matrix: (Units=GPa)
#
#
# Indices 1 2 3 4 5 6 
#
# 1 127.7106 47.5733 39.9850 -10.6886 10.5195 -8.5327
# 2 47.5733 157.5712 63.8667 -16.7295 9.0958 -23.3080
# 3 39.9850 63.8667 160.8061 2.3877 3.4413 -7.3069
# 4 -10.6886 -16.7295 2.3877 50.8160 -0.8979 -5.7528
# 5 10.5195 9.0958 3.4413 -0.8979 32.7569 2.3871
# 6 -8.5327 -23.3080 -7.3069 -5.7528 2.3871 27.8568
#
#
#
# Elastic Compliance Matrix: (Units=1/GPa)
#
#
# Indices 1 2 3 4 5 6 
#
# 1 0.009385 -0.001630 -0.001583 0.001655 -0.002470 0.001649
# 2 -0.001630 0.009833 -0.003149 0.003896 -0.002346 0.007908
# 3 -0.001583 -0.003149 0.007809 -0.001897 0.000621 -0.001516
# 4 0.001655 0.003896 -0.001897 0.022279 -0.001386 0.007989
# 5 -0.002470 -0.002346 0.000621 -0.001386 0.032278 -0.005609
# 6 0.001649 0.007908 -0.001516 0.007989 -0.005609 0.044753
#
#
# Mechanical properties :
#
#
# Convention : Reuss Voigt Hill
#
# Bulk Modulus (GPa) = 69.90733 83.21534 76.56133
# Shear Modulus (GPa) = 34.76378 41.93014 38.34696
#
# Velocity S-wave (km/s) = 3.64987 4.00845 3.83335
# Velocity P-wave (km/s) = 6.67462 7.30149 6.99508
#
# Compressibility (1/GPa) = 0.01430465
#
# Stress axis : x y z
#
# Youngs Moduli (GPa) = 106.55221 101.69414 128.05977
#
# Poissons Ratio (x) = 0.16571 0.20275
# Poissons Ratio (y) = 0.17363 0.40321
# Poissons Ratio (z) = 0.16869 0.32020
#
# Static dielectric constant tensor:
#      x y z
#    x 2.077310 0.032910 -0.029100 
#    y 0.032910 2.069990 -0.011310 
#    z -0.029100 -0.011310 2.022610 
# 
# From -- ./inp_files/60404.got.cif
#   From: 2010.05.17/outbox.cif.g08.bks.cpg/sg2_31_cif.got.tgz:60404.got - 2010.06.03 11:33:40.
