data_PCOD9066378
_publ_section_title
;
Structure prediction by ZEFSAII (Michael W. Deem and Ramdas Pophale) SiO2 
 PCOD9066378
Probable space group: P -1
;
_chemical_formula_sum "Si O2"
_cell_formula_units_Z 12
_cell_length_a 9.751166
_cell_length_b 9.501227
_cell_length_c 12.250873
_cell_angle_alpha 128.514074
_cell_angle_beta 34.272567
_cell_angle_gamma 122.765481
_cell_volume 499.203905
_symmetry_space_group_name_H-M "P -1"
_symmetry_group_IT_number 2
_symmetry_cell_setting 'triclinic'
loop_
_space_group_symop_operation_xyz
x,y,z
-x,-y,-z
loop_
_atom_site_type_symbol
_atom_site_label
_atom_site_fract_x
_atom_site_fract_y
_atom_site_fract_z
Si Si1 0.908100 0.530282 0.952951
Si Si2 0.877174 0.704372 0.472263
Si Si3 0.812979 0.784435 0.957490
Si Si4 0.652372 0.523281 0.744056
Si Si5 0.320259 0.974981 0.343665
Si Si6 0.257944 0.893046 0.568383
O O1 0.874604 0.723406 0.009762
O O2 0.105463 0.448008 0.703027
O O3 0.629061 0.447353 0.084799
O O4 0.000000 0.500000 0.000000
O O5 0.818124 0.623632 0.590663
O O6 0.136775 0.816665 0.342729
O O7 0.681370 0.847904 0.641414
O O8 0.728302 0.608423 0.852718
O O9 0.051327 0.869542 0.782918
O O10 0.588073 0.910317 0.155907
O O11 0.686927 0.309911 0.605791
O O12 0.189537 0.004904 0.560593
O O13 0.500000 0.000000 0.500000
#
# Coordination Sequence:
#
# PCOD9066378 Si02
#       6
#     2   2   2   2   2   2
#     4  12  27  44  74 112 148 192 250 312 368 437
#     4  11  25  46  75 113 149 189 249 312 366 433
#     4  12  24  49  81 105 143 206 257 290 369 458
#     4  12  24  48  82 104 143 206 254 294 368 456
#     4  11  25  45  75 113 148 190 250 310 364 441
#     4  12  27  44  74 110 149 192 246 315 371 432
#
# _framework density 24.038274999999999
#
# number of rings (size 3 to 8) (size 9 to 14) (size 15 to 20)
#    0.000    0.333    6.667    2.000    2.333    4.667 
#    0.000    0.000    0.000    0.000    0.000    0.000 
#    0.000    0.000    0.000    0.000    0.000    0.000 
#
# Total GULP energy -67149.761098 kJ/mol
# GULP energy per Si atom -5595.813425 kJ/mol
# Density = 2.398356 g / cm^3
# Si number density = 24.038275 Si / 1000 Ang^3
#
#
#
# Elastic Constant Matrix: (Units=GPa)
#
#
# Indices 1 2 3 4 5 6 
#
# 1 146.4495 46.7129 37.9838 -1.3211 -3.0707 -19.4783
# 2 46.7129 105.3406 31.8125 -4.3017 -14.5209 -3.8077
# 3 37.9838 31.8125 108.1323 -11.2915 -18.0371 -6.0778
# 4 -1.3211 -4.3017 -11.2915 37.4038 -2.0061 -3.7011
# 5 -3.0707 -14.5209 -18.0371 -2.0061 38.8545 -4.0146
# 6 -19.4783 -3.8077 -6.0778 -3.7011 -4.0146 35.0983
#
#
#
# Elastic Compliance Matrix: (Units=1/GPa)
#
#
# Indices 1 2 3 4 5 6 
#
# 1 0.008973 -0.003351 -0.002169 -0.000382 -0.001150 0.004069
# 2 -0.003351 0.011990 -0.001705 0.000894 0.003433 -0.000367
# 3 -0.002169 -0.001705 0.011835 0.003732 0.005047 0.001631
# 4 -0.000382 0.000894 0.003732 0.028556 0.003923 0.003991
# 5 -0.001150 0.003433 0.005047 0.003923 0.029934 0.004446
# 6 0.004069 -0.000367 0.001631 0.003991 0.004446 0.031922
#
#
# Mechanical properties :
#
#
# Convention : Reuss Voigt Hill
#
# Bulk Modulus (GPa) = 54.50266 65.88230 60.19248
# Shear Modulus (GPa) = 34.77601 38.49887 36.63744
#
# Velocity S-wave (km/s) = 3.80767 4.00630 3.90825
# Velocity P-wave (km/s) = 6.48488 6.99052 6.74244
#
# Compressibility (1/GPa) = 0.01834773
#
# Stress axis : x y z
#
# Youngs Moduli (GPa) = 111.43994 83.39983 84.49702
#
# Poissons Ratio (x) = 0.27949 0.18329
# Poissons Ratio (y) = 0.37345 0.14408
# Poissons Ratio (z) = 0.24173 0.14221
#
# Static dielectric constant tensor:
#      x y z
#    x 1.978170 0.069140 0.041260 
#    y 0.069140 1.964740 0.064550 
#    z 0.041260 0.064550 1.947390 
# 
# From -- ./inp_files/149673.got.cif
#   From: 2010.05.17/outbox.cif.g08.bks.cpg/sg2_75_cif.got.tgz:149673.got - 2010.06.03 11:33:40.
