data_PCOD9066466
_publ_section_title
;
Structure prediction by ZEFSAII (Michael W. Deem and Ramdas Pophale) SiO2 
 PCOD9066466
Probable space group: P -1
;
_chemical_formula_sum "Si O2"
_cell_formula_units_Z 14
_cell_length_a 12.971696
_cell_length_b 9.741126
_cell_length_c 15.393536
_cell_angle_alpha 56.077337
_cell_angle_beta 29.329650
_cell_angle_gamma 44.389355
_cell_volume 654.424361
_symmetry_space_group_name_H-M "P -1"
_symmetry_group_IT_number 2
_symmetry_cell_setting 'triclinic'
loop_
_space_group_symop_operation_xyz
x,y,z
-x,-y,-z
loop_
_atom_site_type_symbol
_atom_site_label
_atom_site_fract_x
_atom_site_fract_y
_atom_site_fract_z
Si Si1 0.174380 0.284049 0.492178
Si Si2 0.277274 0.738893 0.455869
Si Si3 0.284054 0.722800 0.108207
Si Si4 0.950190 0.925075 0.973492
Si Si5 0.516558 0.702047 0.587964
Si Si6 0.547682 0.853810 0.335142
Si Si7 0.307781 0.931758 0.187716
O O1 0.383769 0.277626 0.400469
O O2 0.000000 0.500000 0.500000
O O3 0.979037 0.261330 0.699068
O O4 0.327102 0.084870 0.391799
O O5 0.323820 0.529730 0.471124
O O6 0.467964 0.719840 0.396070
O O7 0.340868 0.824318 0.294151
O O8 0.988987 0.883972 0.651760
O O9 0.334459 0.786587 0.141539
O O10 0.238660 0.884254 0.014091
O O11 0.500000 0.500000 0.000000
O O12 0.221237 0.787729 0.777935
O O13 0.815795 0.809975 0.127493
O O14 0.000000 0.000000 0.000000
O O15 0.549825 0.825422 0.446506
O O16 0.500000 0.000000 0.000000
#
# Coordination Sequence:
#
# PCOD9066466 Si02
#       7
#     2   2   2   2   2   2   2
#     4  12  24  43  70 100 139 181 232 285 344 409
#     4  11  26  44  72 101 141 188 229 284 350 418
#     4  12  26  44  71 104 137 181 236 289 343 410
#     4  12  25  43  70 101 139 178 231 287 345 409
#     4  12  26  45  70 104 139 183 233 286 348 413
#     4  12  24  47  70  97 141 184 227 287 349 408
#     4  11  25  46  68 102 145 180 232 288 347 412
#
# _framework density 21.392847
#
# number of rings (size 3 to 8) (size 9 to 14) (size 15 to 20)
#    0.000    0.286    4.286    4.286    6.000    1.714 
#    0.000    0.000    0.000    0.000    0.000    0.000 
#    0.000    0.000    0.000    0.000    0.000    0.000 
#
# Total GULP energy -78326.548121 kJ/mol
# GULP energy per Si atom -5594.753437 kJ/mol
# Density = 2.134416 g / cm^3
# Si number density = 21.392847 Si / 1000 Ang^3
#
#
#
# Elastic Constant Matrix: (Units=GPa)
#
#
# Indices 1 2 3 4 5 6 
#
# 1 71.1040 8.9697 15.4759 5.9334 4.2601 3.6664
# 2 8.9697 79.8973 33.3337 9.0904 1.9851 13.7610
# 3 15.4759 33.3337 154.5880 -6.9851 -9.7054 -5.1561
# 4 5.9334 9.0904 -6.9851 30.2498 2.8555 8.4240
# 5 4.2601 1.9851 -9.7054 2.8555 32.5164 -3.0195
# 6 3.6664 13.7610 -5.1561 8.4240 -3.0195 38.1889
#
#
#
# Elastic Compliance Matrix: (Units=1/GPa)
#
#
# Indices 1 2 3 4 5 6 
#
# 1 0.014905 -0.000410 -0.001706 -0.002668 -0.002305 -0.001107
# 2 -0.000410 0.015567 -0.003805 -0.003756 -0.002207 -0.005430
# 3 -0.001706 -0.003805 0.007819 0.002384 0.002793 0.002286
# 4 -0.002668 -0.003756 0.002384 0.037317 -0.002591 -0.006505
# 5 -0.002305 -0.002207 0.002793 -0.002591 0.032674 0.004548
# 6 -0.001107 -0.005430 0.002286 -0.006505 0.004548 0.030352
#
#
# Mechanical properties :
#
#
# Convention : Reuss Voigt Hill
#
# Bulk Modulus (GPa) = 37.80839 46.79420 42.30129
# Shear Modulus (GPa) = 31.38902 36.71169 34.05035
#
# Velocity S-wave (km/s) = 3.83465 4.14705 3.99390
# Velocity P-wave (km/s) = 6.10883 6.69716 6.40975
#
# Compressibility (1/GPa) = 0.02644916
#
# Stress axis : x y z
#
# Youngs Moduli (GPa) = 67.09245 64.23895 127.88839
#
# Poissons Ratio (x) = 0.02634 0.21817
# Poissons Ratio (y) = 0.02751 0.48661
# Poissons Ratio (z) = 0.11446 0.24443
#
# Static dielectric constant tensor:
#      x y z
#    x 1.488710 -0.153260 -0.048130 
#    y -0.153260 1.704180 -0.041910 
#    z -0.048130 -0.041910 1.743320 
# 
# From -- ./inp_files/183738.got.cif
#   From: 2010.05.17/outbox.cif.g08.bks.cpg/sg2_92_cif.got.tgz:183738.got - 2010.06.03 11:33:40.
