data_PCOD9066294
_publ_section_title
;
Structure prediction by ZEFSAII (Michael W. Deem and Ramdas Pophale) SiO2 
 PCOD9066294
Probable space group: P -1
;
_chemical_formula_sum "Si O2"
_cell_formula_units_Z 12
_cell_length_a 17.428213
_cell_length_b 9.924979
_cell_length_c 5.192678
_cell_angle_alpha 109.824071
_cell_angle_beta 64.485519
_cell_angle_gamma 145.114192
_cell_volume 463.444634
_symmetry_space_group_name_H-M "P -1"
_symmetry_group_IT_number 2
_symmetry_cell_setting 'triclinic'
loop_
_space_group_symop_operation_xyz
x,y,z
-x,-y,-z
loop_
_atom_site_type_symbol
_atom_site_label
_atom_site_fract_x
_atom_site_fract_y
_atom_site_fract_z
Si Si1 0.462482 0.817075 0.111692
Si Si2 0.704002 0.631776 0.227557
Si Si3 0.872119 0.222505 0.497809
Si Si4 0.790175 0.899765 0.785513
Si Si5 0.057998 0.275547 0.929815
Si Si6 0.723274 0.231675 0.340129
O O1 0.330230 0.694570 0.390749
O O2 0.593015 0.988193 0.223109
O O3 0.423647 0.635879 0.862293
O O4 0.500000 0.000000 0.000000
O O5 0.708747 0.705302 0.552551
O O6 0.837700 0.702585 0.091887
O O7 0.714146 0.764135 0.074514
O O8 0.767541 0.171212 0.440145
O O9 0.000000 0.500000 0.500000
O O10 0.806113 0.080899 0.767180
O O11 0.947604 0.185168 0.240491
O O12 0.953437 0.081431 0.730793
O O13 0.150926 0.534949 0.863539
#
# Coordination Sequence:
#
# PCOD9066294 Si02
#       6
#     2   2   2   2   2   2
#     4  11  25  47  75  99 136 195 243 302 338 417
#     4  12  26  45  71 108 146 183 246 288 357 426
#     4  12  26  43  71 109 150 187 231 291 366 434
#     4  12  27  43  71 110 147 189 227 300 364 420
#     4  12  24  44  76 108 148 183 230 304 361 421
#     4  11  25  45  73 108 139 184 251 290 353 422
#
# _framework density 25.893060999999999
#
# number of rings (size 3 to 8) (size 9 to 14) (size 15 to 20)
#    0.000    0.333    5.000    3.500    4.667    0.000 
#    0.000    1.667    0.000    0.000    0.000    0.000 
#    0.000    0.000    0.000    0.000    0.000    0.000 
#
# Total GULP energy -67178.161853 kJ/mol
# GULP energy per Si atom -5598.180154 kJ/mol
# Density = 2.583413 g / cm^3
# Si number density = 25.893061 Si / 1000 Ang^3
#
#
#
# Elastic Constant Matrix: (Units=GPa)
#
#
# Indices 1 2 3 4 5 6 
#
# 1 112.6434 -5.7348 10.4692 -6.2901 40.3179 -7.2145
# 2 -5.7348 99.3076 15.1372 16.2229 27.1663 -8.3609
# 3 10.4692 15.1372 95.5123 12.2023 19.3668 8.0054
# 4 -6.2901 16.2229 12.2023 54.5068 6.8109 17.4178
# 5 40.3179 27.1663 19.3668 6.8109 52.5318 3.4611
# 6 -7.2145 -8.3609 8.0054 17.4178 3.4611 46.9636
#
#
#
# Elastic Compliance Matrix: (Units=1/GPa)
#
#
# Indices 1 2 3 4 5 6 
#
# 1 0.014376 0.004824 0.000065 0.000728 -0.013898 0.003811
# 2 0.004824 0.014572 -0.000591 -0.004134 -0.010864 0.005770
# 3 0.000065 -0.000591 0.011617 -0.001559 -0.003745 -0.001221
# 4 0.000728 -0.004134 -0.001559 0.022856 -0.000228 -0.008819
# 5 -0.013898 -0.010864 -0.003745 -0.000228 0.037132 -0.006083
# 6 0.003811 0.005770 -0.001221 -0.008819 -0.006083 0.026833
#
#
# Mechanical properties :
#
#
# Convention : Reuss Voigt Hill
#
# Bulk Modulus (GPa) = 20.34073 38.57850 29.45962
# Shear Modulus (GPa) = 36.98888 49.97321 43.48105
#
# Velocity S-wave (km/s) = 3.78368 4.39793 4.10232
# Velocity P-wave (km/s) = 5.19240 6.38126 5.81728
#
# Compressibility (1/GPa) = 0.04916245
#
# Stress axis : x y z
#
# Youngs Moduli (GPa) = 69.55966 68.62711 86.07920
#
# Poissons Ratio (x) = -0.33106 -0.00563
# Poissons Ratio (y) = -0.33556 0.05084
# Poissons Ratio (z) = -0.00455 0.04053
#
# Static dielectric constant tensor:
#      x y z
#    x 1.926820 -0.031110 -0.016560 
#    y -0.031110 2.058460 0.009970 
#    z -0.016560 0.009970 2.221520 
# 
# From -- ./inp_files/105573.got.cif
#   From: 2010.05.17/outbox.cif.g08.bks.cpg/sg2_53_cif.got.tgz:105573.got - 2010.06.03 11:33:40.
