data_PCOD9066998
_publ_section_title
;
Structure prediction by ZEFSAII (Michael W. Deem and Ramdas Pophale) SiO2 
 PCOD9066998
Probable space group: P -1
;
_chemical_formula_sum "Si O2"
_cell_formula_units_Z 16
_cell_length_a 11.763413
_cell_length_b 12.551078
_cell_length_c 12.533662
_cell_angle_alpha 154.879962
_cell_angle_beta 122.570065
_cell_angle_gamma 56.851559
_cell_volume 652.841399
_symmetry_space_group_name_H-M "P -1"
_symmetry_group_IT_number 2
_symmetry_cell_setting 'triclinic'
loop_
_space_group_symop_operation_xyz
x,y,z
-x,-y,-z
loop_
_atom_site_type_symbol
_atom_site_label
_atom_site_fract_x
_atom_site_fract_y
_atom_site_fract_z
Si Si1 0.444864 0.644617 0.374792
Si Si2 0.028964 0.231799 0.650568
Si Si3 0.827961 0.136085 0.964073
Si Si4 0.273211 0.605820 0.654471
Si Si5 0.375677 0.897705 0.789286
Si Si6 0.970899 0.639772 0.475147
Si Si7 0.415256 0.770294 0.241364
Si Si8 0.781446 0.660908 0.980214
O O1 0.608761 0.577635 0.388011
O O2 0.412913 0.831115 0.626255
O O3 0.374134 0.739605 0.315214
O O4 0.368974 0.410648 0.154931
O O5 0.048240 0.223312 0.526149
O O6 0.895304 0.444030 0.793164
O O7 0.162802 0.301199 0.839177
O O8 0.000000 0.000000 0.500000
O O9 0.707107 0.158172 0.837227
O O10 0.922716 0.869316 0.742454
O O11 0.765425 0.153443 0.067490
O O12 0.892341 0.397479 0.220670
O O13 0.344748 0.667535 0.637157
O O14 0.129565 0.533613 0.483172
O O15 0.500000 0.000000 0.000000
O O16 0.235939 0.098293 0.888676
O O17 0.500000 0.000000 0.500000
O O18 0.500000 0.500000 0.000000
#
# Coordination Sequence:
#
# PCOD9066998 Si02
#       8
#     2   2   2   2   2   2   2   2
#     4  12  27  48  75 113 154 201 259 319 402 464
#     4  11  26  47  77 110 151 203 256 329 385 468
#     4  12  29  53  78 116 152 214 259 329 383 469
#     4  12  27  51  75 111 159 204 263 322 391 470
#     4  12  28  45  78 113 155 202 253 329 396 478
#     4  12  29  50  80 111 157 207 270 312 397 462
#     4  12  28  51  81 114 154 205 261 327 393 461
#     4  11  25  47  74 112 151 197 255 318 401 459
#
# _framework density 24.508251000000001
#
# number of rings (size 3 to 8) (size 9 to 14) (size 15 to 20)
#    0.000    0.250    2.500    4.875   14.000    0.000 
#    0.000    0.000    0.000    0.000    0.000    0.000 
#    0.000    0.000    0.000    0.000    0.000    0.000 
#
# Total GULP energy -89598.143979 kJ/mol
# GULP energy per Si atom -5599.883999 kJ/mol
# Density = 2.445247 g / cm^3
# Si number density = 24.508251 Si / 1000 Ang^3
#
#
#
# Elastic Constant Matrix: (Units=GPa)
#
#
# Indices 1 2 3 4 5 6 
#
# 1 62.6646 17.5720 41.3393 -10.2995 -2.6745 -15.3717
# 2 17.5720 113.3616 22.9775 -15.9321 -7.4030 -8.1021
# 3 41.3393 22.9775 129.6381 -11.0195 0.2018 -2.8314
# 4 -10.2995 -15.9321 -11.0195 47.2989 1.8866 -5.6602
# 5 -2.6745 -7.4030 0.2018 1.8866 44.0720 -16.3285
# 6 -15.3717 -8.1021 -2.8314 -5.6602 -16.3285 55.2319
#
#
#
# Elastic Compliance Matrix: (Units=1/GPa)
#
#
# Indices 1 2 3 4 5 6 
#
# 1 0.023377 -0.000888 -0.006801 0.003959 0.003947 0.007600
# 2 -0.000888 0.009926 -0.001175 0.003041 0.002279 0.002134
# 3 -0.006801 -0.001175 0.010076 0.000295 -0.001383 -0.001927
# 4 0.003959 0.003041 0.000295 0.023567 0.001364 0.004382
# 5 0.003947 0.002279 -0.001383 0.001364 0.026746 0.009409
# 6 0.007600 0.002134 -0.001927 0.004382 0.009409 0.023665
#
#
# Mechanical properties :
#
#
# Convention : Reuss Voigt Hill
#
# Bulk Modulus (GPa) = 38.98347 52.16022 45.57184
# Shear Modulus (GPa) = 34.81067 44.23893 39.52480
#
# Velocity S-wave (km/s) = 3.77286 4.25321 4.02022
# Velocity P-wave (km/s) = 5.90932 6.74156 6.33912
#
# Compressibility (1/GPa) = 0.02565190
#
# Stress axis : x y z
#
# Youngs Moduli (GPa) = 42.77783 100.74761 99.24804
#
# Poissons Ratio (x) = 0.08945 0.67495
# Poissons Ratio (y) = 0.03798 0.11658
# Poissons Ratio (z) = 0.29092 0.11834
#
# Static dielectric constant tensor:
#      x y z
#    x 2.035160 0.129650 0.026000 
#    y 0.129650 2.107640 0.106810 
#    z 0.026000 0.106810 1.989420 
# 
# From -- ./inp_files/429280.got.cif
#   From: 2010.05.17/outbox.cif.g08.bks.cpg/sg2_215_cif.got.tgz:429280.got - 2010.06.03 11:33:40.
