data_PCOD9066999
_publ_section_title
;
Structure prediction by ZEFSAII (Michael W. Deem and Ramdas Pophale) SiO2 
 PCOD9066999
Probable space group: P -1
;
_chemical_formula_sum "Si O2"
_cell_formula_units_Z 14
_cell_length_a 5.065295
_cell_length_b 10.568901
_cell_length_c 11.740572
_cell_angle_alpha 60.495555
_cell_angle_beta 85.126379
_cell_angle_gamma 72.564016
_cell_volume 520.397854
_symmetry_space_group_name_H-M "P -1"
_symmetry_group_IT_number 2
_symmetry_cell_setting 'triclinic'
loop_
_space_group_symop_operation_xyz
x,y,z
-x,-y,-z
loop_
_atom_site_type_symbol
_atom_site_label
_atom_site_fract_x
_atom_site_fract_y
_atom_site_fract_z
Si Si1 0.813433 0.091887 0.800804
Si Si2 0.834334 0.994660 0.395491
Si Si3 0.130818 0.187009 0.955904
Si Si4 0.080408 0.350611 0.468788
Si Si5 0.135683 0.632619 0.905345
Si Si6 0.365861 0.310920 0.259842
Si Si7 0.319013 0.379390 0.688303
O O1 0.603796 0.253942 0.702208
O O2 0.986583 0.015749 0.720102
O O3 0.001113 0.129183 0.876910
O O4 0.687784 0.962962 0.915572
O O5 0.794346 0.829147 0.471673
O O6 0.571247 0.140761 0.336569
O O7 0.000000 0.000000 0.500000
O O8 0.259636 0.312689 0.841682
O O9 0.901894 0.269775 0.020564
O O10 0.256113 0.403181 0.339483
O O11 0.119517 0.366759 0.595146
O O12 0.765705 0.437306 0.399881
O O13 0.442677 0.606544 0.855157
O O14 0.910048 0.707484 0.782565
O O15 0.000000 0.500000 0.000000
#
# Coordination Sequence:
#
# PCOD9066999 Si02
#       7
#     2   2   2   2   2   2   2
#     4  11  25  47  78 110 152 205 264 320 395 464
#     4  12  25  48  77 116 155 207 265 322 390 470
#     4  11  25  47  74 114 151 205 263 324 384 476
#     4  11  26  48  74 115 152 201 262 323 392 472
#     4  12  28  50  81 117 160 207 261 325 397 467
#     4  12  27  51  79 116 159 205 263 323 392 464
#     4  11  25  47  75 107 154 200 255 326 395 462
#
# _framework density 26.902494000000001
#
# number of rings (size 3 to 8) (size 9 to 14) (size 15 to 20)
#    0.000    0.571    2.857    3.857    4.000    0.571 
#   10.286    0.000    0.000    0.000    0.000    0.000 
#    0.000    0.000    0.000    0.000    0.000    0.000 
#
# Total GULP energy -78251.863084 kJ/mol
# GULP energy per Si atom -5589.418792 kJ/mol
# Density = 2.684126 g / cm^3
# Si number density = 26.902494 Si / 1000 Ang^3
#
#
#
# Elastic Constant Matrix: (Units=GPa)
#
#
# Indices 1 2 3 4 5 6 
#
# 1 70.0725 12.9233 35.9925 14.2598 10.2345 -9.6421
# 2 12.9233 103.1357 55.7688 18.0999 1.4298 -32.1669
# 3 35.9925 55.7688 150.2003 13.0699 -9.0808 -19.4063
# 4 14.2598 18.0999 13.0699 81.5847 -7.3234 8.2603
# 5 10.2345 1.4298 -9.0808 -7.3234 48.1138 -5.9830
# 6 -9.6421 -32.1669 -19.4063 8.2603 -5.9830 31.0658
#
#
#
# Elastic Compliance Matrix: (Units=1/GPa)
#
#
# Indices 1 2 3 4 5 6 
#
# 1 0.018500 0.002857 -0.004649 -0.004158 -0.004787 0.005979
# 2 0.002857 0.018839 -0.004768 -0.005880 -0.000617 0.018859
# 3 -0.004649 -0.004768 0.009691 0.000582 0.003062 0.000108
# 4 -0.004158 -0.005880 0.000582 0.015476 0.002193 -0.010708
# 5 -0.004787 -0.000617 0.003062 0.002193 0.023189 0.003671
# 6 0.005979 0.018859 0.000108 -0.010708 0.003671 0.057195
#
#
# Mechanical properties :
#
#
# Convention : Reuss Voigt Hill
#
# Bulk Modulus (GPa) = 29.49156 59.19755 44.34455
# Shear Modulus (GPa) = 29.88419 46.73445 38.30932
#
# Velocity S-wave (km/s) = 3.33653 4.17247 3.77769
# Velocity P-wave (km/s) = 5.08227 6.72792 5.96215
#
# Compressibility (1/GPa) = 0.03390801
#
# Stress axis : x y z
#
# Youngs Moduli (GPa) = 54.05427 53.08230 103.19168
#
# Poissons Ratio (x) = -0.15163 0.47972
# Poissons Ratio (y) = -0.15441 0.49205
# Poissons Ratio (z) = 0.25129 0.25311
#
# Static dielectric constant tensor:
#      x y z
#    x 2.108420 0.043840 -0.111700 
#    y 0.043840 2.293320 -0.042270 
#    z -0.111700 -0.042270 2.267680 
# 
# From -- ./inp_files/363817.got.cif
#   From: 2010.05.17/outbox.cif.g08.bks.cpg/sg2_182_cif.got.tgz:363817.got - 2010.06.03 11:33:40.
