data_PCOD9066709
_publ_section_title
;
Structure prediction by ZEFSAII (Michael W. Deem and Ramdas Pophale) SiO2 
 PCOD9066709
Probable space group: P -1
;
_chemical_formula_sum "Si O2"
_cell_formula_units_Z 14
_cell_length_a 12.195082
_cell_length_b 5.534061
_cell_length_c 24.672519
_cell_angle_alpha 129.089728
_cell_angle_beta 24.912037
_cell_angle_gamma 131.376349
_cell_volume 523.766096
_symmetry_space_group_name_H-M "P -1"
_symmetry_group_IT_number 2
_symmetry_cell_setting 'triclinic'
loop_
_space_group_symop_operation_xyz
x,y,z
-x,-y,-z
loop_
_atom_site_type_symbol
_atom_site_label
_atom_site_fract_x
_atom_site_fract_y
_atom_site_fract_z
Si Si1 0.615536 0.649607 0.622433
Si Si2 0.042340 0.667328 0.910377
Si Si3 0.122278 0.068661 0.294705
Si Si4 0.379089 0.973766 0.991048
Si Si5 0.652814 0.297375 0.650825
Si Si6 0.801603 0.421961 0.405864
Si Si7 0.870321 0.205047 0.229761
O O1 0.354286 0.667399 0.777394
O O2 0.766858 0.446793 0.562775
O O3 0.574860 0.461093 0.556315
O O4 0.747198 0.018282 0.599458
O O5 0.028586 0.589131 0.840548
O O6 0.797770 0.378973 0.000641
O O7 0.000000 0.000000 0.000000
O O8 0.354288 0.908373 0.147541
O O9 0.293241 0.395876 0.292268
O O10 0.961803 0.199993 0.336302
O O11 0.955455 0.794881 0.372416
O O12 0.500000 0.000000 0.000000
O O13 0.147847 0.153906 0.119130
O O14 0.346368 0.093531 0.743908
O O15 0.726069 0.278177 0.359437
#
# Coordination Sequence:
#
# PCOD9066709 Si02
#       7
#     2   2   2   2   2   2   2
#     4  11  25  48  75 109 149 197 243 309 358 449
#     4  11  26  46  75 111 144 195 247 306 369 438
#     4  12  28  46  75 113 148 198 242 315 365 442
#     4  12  24  45  73 106 150 187 249 305 375 430
#     4  11  25  46  74 108 146 191 249 297 375 430
#     4  12  28  49  75 109 153 196 250 296 377 434
#     4  11  26  46  73 109 146 200 243 306 367 447
#
# _framework density 26.729488
#
# number of rings (size 3 to 8) (size 9 to 14) (size 15 to 20)
#    0.000    0.571    2.857    4.286    4.000    8.571 
#    0.000    0.000    0.000    0.000    0.000    0.000 
#    0.000    0.000    0.000    0.000    0.000    0.000 
#
# Total GULP energy -78137.270139 kJ/mol
# GULP energy per Si atom -5581.233581 kJ/mol
# Density = 2.666865 g / cm^3
# Si number density = 26.729488 Si / 1000 Ang^3
#
#
#
# Elastic Constant Matrix: (Units=GPa)
#
#
# Indices 1 2 3 4 5 6 
#
# 1 133.6250 32.3672 26.7725 0.1257 -11.6216 -11.0122
# 2 32.3672 150.2889 28.9602 -2.9018 -9.3359 -12.0011
# 3 26.7725 28.9602 161.4919 -3.9038 -0.1944 4.4475
# 4 0.1257 -2.9018 -3.9038 28.9302 0.6860 13.0886
# 5 -11.6216 -9.3359 -0.1944 0.6860 44.2458 2.9639
# 6 -11.0122 -12.0011 4.4475 13.0886 2.9639 52.0812
#
#
#
# Elastic Compliance Matrix: (Units=1/GPa)
#
#
# Indices 1 2 3 4 5 6 
#
# 1 0.008354 -0.001334 -0.001220 -0.001172 0.001808 0.001755
# 2 -0.001334 0.007344 -0.001137 -0.000102 0.001097 0.001471
# 3 -0.001220 -0.001137 0.006672 0.001448 -0.000458 -0.001428
# 4 -0.001172 -0.000102 0.001448 0.039416 -0.000245 -0.010287
# 5 0.001808 0.001097 -0.000458 -0.000245 0.023349 -0.000593
# 6 0.001755 0.001471 -0.001428 -0.010287 -0.000593 0.022652
#
#
# Mechanical properties :
#
#
# Convention : Reuss Voigt Hill
#
# Bulk Modulus (GPa) = 66.72567 69.06731 67.89649
# Shear Modulus (GPa) = 41.60901 48.87185 45.24043
#
# Velocity S-wave (km/s) = 3.94975 4.28060 4.11850
# Velocity P-wave (km/s) = 6.76891 7.09414 6.93344
#
# Compressibility (1/GPa) = 0.01498674
#
# Stress axis : x y z
#
# Youngs Moduli (GPa) = 119.69949 136.16544 149.87325
#
# Poissons Ratio (x) = 0.18168 0.18287
# Poissons Ratio (y) = 0.15971 0.17047
# Poissons Ratio (z) = 0.14605 0.15488
#
# Static dielectric constant tensor:
#      x y z
#    x 2.193380 -0.054920 0.005150 
#    y -0.054920 2.163410 -0.024960 
#    z 0.005150 -0.024960 2.190260 
# 
# From -- ./inp_files/70961.got.cif
#   From: 2010.05.17/outbox.cif.g08.bks.cpg/sg2_36_cif.got.tgz:70961.got - 2010.06.03 11:33:40.
