data_PCOD9066768
_publ_section_title
;
Structure prediction by ZEFSAII (Michael W. Deem and Ramdas Pophale) SiO2 
 PCOD9066768
Probable space group: P -1
;
_chemical_formula_sum "Si O2"
_cell_formula_units_Z 16
_cell_length_a 11.332342
_cell_length_b 9.682107
_cell_length_c 9.102363
_cell_angle_alpha 127.067361
_cell_angle_beta 102.490252
_cell_angle_gamma 63.645468
_cell_volume 712.238413
_symmetry_space_group_name_H-M "P -1"
_symmetry_group_IT_number 2
_symmetry_cell_setting 'triclinic'
loop_
_space_group_symop_operation_xyz
x,y,z
-x,-y,-z
loop_
_atom_site_type_symbol
_atom_site_label
_atom_site_fract_x
_atom_site_fract_y
_atom_site_fract_z
Si Si1 0.946013 0.867412 0.808559
Si Si2 0.716606 0.819210 0.886120
Si Si3 0.448737 0.494967 0.821757
Si Si4 0.455038 0.782585 0.768761
Si Si5 0.860563 0.430441 0.841285
Si Si6 0.674812 0.235403 0.561354
Si Si7 0.839696 0.485435 0.218055
Si Si8 0.889971 0.841910 0.451860
O O1 0.805057 0.882026 0.840040
O O2 0.938295 0.903509 0.655447
O O3 0.049517 0.656806 0.738043
O O4 0.000000 0.000000 0.000000
O O5 0.599956 0.768181 0.752766
O O6 0.813414 0.637821 0.888280
O O7 0.636318 0.998732 0.082160
O O8 0.468731 0.655600 0.833606
O O9 0.540697 0.289447 0.651160
O O10 0.296627 0.533401 0.805675
O O11 0.500000 0.500000 0.000000
O O12 0.377779 0.714068 0.584565
O O13 0.745565 0.360657 0.729317
O O14 0.988813 0.277330 0.697915
O O15 0.877188 0.440562 0.026941
O O16 0.780752 0.022888 0.463331
O O17 0.826565 0.694890 0.381456
#
# Coordination Sequence:
#
# PCOD9066768 Si02
#       8
#     2   2   2   2   2   2   2   2
#     4  12  28  47  72 105 146 190 241 300 358 421
#     4  11  25  46  76 102 147 185 244 291 361 420
#     4  12  26  48  74 106 148 184 240 296 361 423
#     4  11  26  46  75 107 140 194 238 294 359 433
#     4  12  25  49  74 107 148 186 245 291 362 430
#     4  12  27  45  75 106 144 191 239 295 359 427
#     4  12  26  47  76 105 145 194 235 301 359 423
#     4  12  29  47  72 109 145 191 244 297 357 429
#
# _framework density 22.464386999999999
#
# number of rings (size 3 to 8) (size 9 to 14) (size 15 to 20)
#    0.000    0.250    3.750    3.750    8.750    1.500 
#    0.000    0.000    0.000    0.000    0.000    0.000 
#    0.000    0.000    0.000    0.000    0.000    0.000 
#
# Total GULP energy -89600.648676 kJ/mol
# GULP energy per Si atom -5600.040542 kJ/mol
# Density = 2.241326 g / cm^3
# Si number density = 22.464387 Si / 1000 Ang^3
#
#
#
# Elastic Constant Matrix: (Units=GPa)
#
#
# Indices 1 2 3 4 5 6 
#
# 1 124.2272 24.9357 26.2652 -1.4242 -9.8309 -9.1361
# 2 24.9357 117.7918 31.9109 0.3699 -10.8706 -20.4184
# 3 26.2652 31.9109 83.2586 -12.3870 4.4802 -8.1313
# 4 -1.4242 0.3699 -12.3870 37.9266 -8.7415 1.8889
# 5 -9.8309 -10.8706 4.4802 -8.7415 45.7136 10.3785
# 6 -9.1361 -20.4184 -8.1313 1.8889 10.3785 32.6473
#
#
#
# Elastic Compliance Matrix: (Units=1/GPa)
#
#
# Indices 1 2 3 4 5 6 
#
# 1 0.008959 -0.000924 -0.002510 -0.000105 0.001763 0.000750
# 2 -0.000924 0.010668 -0.003545 -0.001265 0.001263 0.005202
# 3 -0.002510 -0.003545 0.015049 0.004248 -0.002347 0.001329
# 4 -0.000105 -0.001265 0.004248 0.029209 0.005578 -0.003225
# 5 0.001763 0.001263 -0.002347 0.005578 0.025615 -0.007767
# 6 0.000750 0.005202 0.001329 -0.003225 -0.007767 0.037081
#
#
# Mechanical properties :
#
#
# Convention : Reuss Voigt Hill
#
# Bulk Modulus (GPa) = 48.26420 54.61123 51.43771
# Shear Modulus (GPa) = 33.91109 39.40188 36.65648
#
# Velocity S-wave (km/s) = 3.88951 4.19259 4.04389
# Velocity P-wave (km/s) = 6.45774 6.91375 6.68963
#
# Compressibility (1/GPa) = 0.02071929
#
# Stress axis : x y z
#
# Youngs Moduli (GPa) = 111.61695 93.73976 66.44766
#
# Poissons Ratio (x) = 0.08659 0.16675
# Poissons Ratio (y) = 0.10310 0.23558
# Poissons Ratio (z) = 0.28011 0.33234
#
# Static dielectric constant tensor:
#      x y z
#    x 1.843770 0.007310 -0.003060 
#    y 0.007310 1.812040 0.005720 
#    z -0.003060 0.005720 1.851710 
# 
# From -- ./inp_files/245565.got.cif
#   From: 2010.05.17/outbox.cif.g08.bks.cpg/sg2_123_cif.got.tgz:245565.got - 2010.06.03 11:33:40.
