data_PCOD9066376
_publ_section_title
;
Structure prediction by ZEFSAII (Michael W. Deem and Ramdas Pophale) SiO2 
 PCOD9066376
Probable space group: P -1
;
_chemical_formula_sum "Si O2"
_cell_formula_units_Z 14
_cell_length_a 20.515985
_cell_length_b 12.276323
_cell_length_c 14.842469
_cell_angle_alpha 41.384368
_cell_angle_beta 17.149581
_cell_angle_gamma 31.706649
_cell_volume 529.906508
_symmetry_space_group_name_H-M "P -1"
_symmetry_group_IT_number 2
_symmetry_cell_setting 'triclinic'
loop_
_space_group_symop_operation_xyz
x,y,z
-x,-y,-z
loop_
_atom_site_type_symbol
_atom_site_label
_atom_site_fract_x
_atom_site_fract_y
_atom_site_fract_z
Si Si1 0.201510 0.160756 0.356065
Si Si2 0.298862 0.380890 0.373472
Si Si3 0.668269 0.585828 0.349019
Si Si4 0.685579 0.229641 0.463780
Si Si5 0.271571 0.048505 0.694451
Si Si6 0.590847 0.163612 0.952695
Si Si7 0.151647 0.654335 0.567651
O O1 0.942390 0.384743 0.505538
O O2 0.163828 0.994940 0.541248
O O3 0.285724 0.226660 0.290720
O O4 0.500000 0.000000 0.000000
O O5 0.216299 0.232677 0.588819
O O6 0.316887 0.449940 0.405684
O O7 0.583139 0.235044 0.020543
O O8 0.594023 0.430050 0.522421
O O9 0.603866 0.677000 0.273254
O O10 0.919354 0.412884 0.205162
O O11 0.432254 0.817913 0.572288
O O12 0.959782 0.152167 0.086712
O O13 0.500000 0.000000 0.500000
O O14 0.638747 0.289034 0.742565
O O15 0.854065 0.892979 0.771779
#
# Coordination Sequence:
#
# PCOD9066376 Si02
#       7
#     2   2   2   2   2   2   2
#     4  12  26  51  79 110 150 198 258 306 375 451
#     4  12  27  46  76 110 153 193 252 313 376 448
#     4  11  26  48  77 105 156 197 254 301 378 446
#     4  11  29  50  78 109 150 203 250 310 378 448
#     4  12  28  49  74 115 151 194 250 308 379 452
#     4  11  26  45  73 113 152 198 249 309 384 437
#     4  11  25  45  75 112 151 197 251 314 372 448
#
# _framework density 26.419754000000001
#
# number of rings (size 3 to 8) (size 9 to 14) (size 15 to 20)
#    0.000    0.571    2.857    3.000   12.000    1.714 
#    0.000    0.000    0.000    0.000    0.000    0.000 
#    0.000    0.000    0.000    0.000    0.000    0.000 
#
# Total GULP energy -78308.148059 kJ/mol
# GULP energy per Si atom -5593.439147 kJ/mol
# Density = 2.635962 g / cm^3
# Si number density = 26.419754 Si / 1000 Ang^3
#
#
#
# Elastic Constant Matrix: (Units=GPa)
#
#
# Indices 1 2 3 4 5 6 
#
# 1 234.2527 103.8294 96.8610 -33.1978 -17.6898 9.1652
# 2 103.8294 256.1123 96.6785 -31.4003 5.2173 -8.0949
# 3 96.8610 96.6785 146.8556 -43.2421 -0.9143 -0.6107
# 4 -33.1978 -31.4003 -43.2421 51.7860 -2.1695 17.2786
# 5 -17.6898 5.2173 -0.9143 -2.1695 50.3662 -4.9242
# 6 9.1652 -8.0949 -0.6107 17.2786 -4.9242 57.0918
#
#
#
# Elastic Compliance Matrix: (Units=1/GPa)
#
#
# Indices 1 2 3 4 5 6 
#
# 1 0.006579 -0.001479 -0.002916 0.001501 0.002324 -0.001551
# 2 -0.001479 0.005571 -0.002770 -0.000256 -0.001062 0.000983
# 3 -0.002916 -0.002770 0.012880 0.007931 -0.000379 -0.002220
# 4 0.001501 -0.000256 0.007931 0.029831 0.001090 -0.009126
# 5 0.002324 -0.001062 -0.000379 0.001090 0.020913 0.000946
# 6 -0.001551 0.000983 -0.002220 -0.009126 0.000946 0.020724
#
#
# Mechanical properties :
#
#
# Convention : Reuss Voigt Hill
#
# Bulk Modulus (GPa) = 93.45197 136.88425 115.16811
# Shear Modulus (GPa) = 43.70888 54.50559 49.10723
#
# Velocity S-wave (km/s) = 4.07185 4.54702 4.31598
# Velocity P-wave (km/s) = 7.58653 8.91577 8.27787
#
# Compressibility (1/GPa) = 0.01070068
#
# Stress axis : x y z
#
# Youngs Moduli (GPa) = 152.00271 179.49949 77.64165
#
# Poissons Ratio (x) = 0.26545 0.22638
# Poissons Ratio (y) = 0.22478 0.21506
# Poissons Ratio (z) = 0.44319 0.49720
#
# Static dielectric constant tensor:
#      x y z
#    x 2.202620 0.044980 -0.125050 
#    y 0.044980 2.015010 -0.071610 
#    z -0.125050 -0.071610 2.219570 
# 
# From -- ./inp_files/541084.got.cif
#   From: 2010.05.17/outbox.cif.g08.bks.cpg/sg2_271_cif.got.tgz:541084.got - 2010.06.03 11:33:40.
