data_PCOD9066026
_publ_section_title
;
Structure prediction by ZEFSAII (Michael W. Deem and Ramdas Pophale) SiO2 
 PCOD9066026
Probable space group: P -1
;
_chemical_formula_sum "Si O2"
_cell_formula_units_Z 12
_cell_length_a 5.362812
_cell_length_b 5.093420
_cell_length_c 19.185055
_cell_angle_alpha 64.440030
_cell_angle_beta 101.027725
_cell_angle_gamma 86.297508
_cell_volume 457.577232
_symmetry_space_group_name_H-M "P -1"
_symmetry_group_IT_number 2
_symmetry_cell_setting 'triclinic'
loop_
_space_group_symop_operation_xyz
x,y,z
-x,-y,-z
loop_
_atom_site_type_symbol
_atom_site_label
_atom_site_fract_x
_atom_site_fract_y
_atom_site_fract_z
Si Si1 0.606070 0.821702 0.177668
Si Si2 0.942351 0.796744 0.852116
Si Si3 0.158332 0.757870 0.489280
Si Si4 0.255533 0.988497 0.317951
Si Si5 0.533490 0.437245 0.339683
Si Si6 0.376635 0.342422 0.949016
O O1 0.680215 0.631410 0.273915
O O2 0.565065 0.607334 0.135601
O O3 0.833718 0.001950 0.149294
O O4 0.332299 0.043265 0.150315
O O5 0.070626 0.473327 0.923441
O O6 0.906909 0.780527 0.768445
O O7 0.183429 0.912206 0.399996
O O8 0.391776 0.635348 0.567468
O O9 0.000000 0.500000 0.500000
O O10 0.000000 0.000000 0.500000
O O11 0.282996 0.683657 0.311608
O O12 0.504842 0.142187 0.330581
O O13 0.500000 0.500000 0.000000
O O14 0.500000 0.000000 0.000000
#
# Coordination Sequence:
#
# PCOD9066026 Si02
#       6
#     2   2   2   2   2   2
#     4  11  28  51  81 115 157 205 260 319 391 465
#     4  11  28  51  81 115 157 205 260 319 391 465
#     4  12  24  40  68 106 152 202 255 313 372 446
#     4  11  25  44  72 105 150 203 255 313 376 450
#     4  11  25  44  72 105 150 203 255 313 376 450
#     4  12  28  52  82 115 156 201 256 326 394 472
#
# _framework density 26.225079000000001
#
# number of rings (size 3 to 8) (size 9 to 14) (size 15 to 20)
#    0.000    0.667    1.667    4.000   11.667    1.333 
#    0.000    0.000    0.000    0.000    0.000    0.000 
#    0.000    0.000    0.000    0.000    0.000    0.000 
#
# Total GULP energy -67026.280784 kJ/mol
# GULP energy per Si atom -5585.523399 kJ/mol
# Density = 2.616539 g / cm^3
# Si number density = 26.225079 Si / 1000 Ang^3
#
#
#
# Elastic Constant Matrix: (Units=GPa)
#
#
# Indices 1 2 3 4 5 6 
#
# 1 100.4291 37.7791 16.9926 -3.1804 8.2377 -3.4108
# 2 37.7791 150.3429 22.9348 13.2582 4.3848 -4.9691
# 3 16.9926 22.9348 134.0504 23.8286 14.5009 -5.0487
# 4 -3.1804 13.2582 23.8286 47.2821 -1.4789 1.9808
# 5 8.2377 4.3848 14.5009 -1.4789 48.4040 1.9240
# 6 -3.4108 -4.9691 -5.0487 1.9808 1.9240 39.9255
#
#
#
# Elastic Compliance Matrix: (Units=1/GPa)
#
#
# Indices 1 2 3 4 5 6 
#
# 1 0.011404 -0.002818 -0.001180 0.002094 -0.001285 0.000432
# 2 -0.002818 0.007656 -0.000534 -0.002103 -0.000148 0.000756
# 3 -0.001180 -0.000534 0.008832 -0.004516 -0.002586 0.001298
# 4 0.002094 -0.002103 -0.004516 0.024301 0.002007 -0.001956
# 5 -0.001285 -0.000148 -0.002586 0.002007 0.021792 -0.001605
# 6 0.000432 0.000756 0.001298 -0.001956 -0.001605 0.025516
#
#
# Mechanical properties :
#
#
# Convention : Reuss Voigt Hill
#
# Bulk Modulus (GPa) = 53.11750 60.02616 56.57183
# Shear Modulus (GPa) = 43.53816 47.59671 45.56743
#
# Velocity S-wave (km/s) = 4.07894 4.26482 4.17292
# Velocity P-wave (km/s) = 6.51783 6.86951 6.69598
#
# Compressibility (1/GPa) = 0.01882619
#
# Stress axis : x y z
#
# Youngs Moduli (GPa) = 87.69171 130.61683 113.22035
#
# Poissons Ratio (x) = 0.36813 0.13363
# Poissons Ratio (y) = 0.24715 0.06048
# Poissons Ratio (z) = 0.10350 0.06977
#
# Static dielectric constant tensor:
#      x y z
#    x 2.174690 -0.052310 0.130640 
#    y -0.052310 2.129500 -0.199560 
#    z 0.130640 -0.199560 2.531460 
# 
# From -- ./inp_files/545792.got.cif
#   From: 2010.05.17/outbox.cif.g08.bks.cpg/sg2_273_cif.got.tgz:545792.got - 2010.06.03 11:33:40.
