data_PCOD9066340
_publ_section_title
;
Structure prediction by ZEFSAII (Michael W. Deem and Ramdas Pophale) SiO2 
 PCOD9066340
Probable space group: P -1
;
_chemical_formula_sum "Si O2"
_cell_formula_units_Z 16
_cell_length_a 5.681557
_cell_length_b 14.101334
_cell_length_c 18.857516
_cell_angle_alpha 150.568177
_cell_angle_beta 111.900119
_cell_angle_gamma 69.230975
_cell_volume 687.354342
_symmetry_space_group_name_H-M "P -1"
_symmetry_group_IT_number 2
_symmetry_cell_setting 'triclinic'
loop_
_space_group_symop_operation_xyz
x,y,z
-x,-y,-z
loop_
_atom_site_type_symbol
_atom_site_label
_atom_site_fract_x
_atom_site_fract_y
_atom_site_fract_z
Si Si1 0.968361 0.153704 0.961841
Si Si2 0.190446 0.837447 0.380771
Si Si3 0.274757 0.763711 0.752342
Si Si4 0.898715 0.562501 0.952613
Si Si5 0.617090 0.964468 0.607674
Si Si6 0.542220 0.894554 0.175864
Si Si7 0.893456 0.248607 0.425804
Si Si8 0.874029 0.639545 0.747362
O O1 0.710509 0.044624 0.857408
O O2 0.200682 0.993079 0.885447
O O3 0.952739 0.280402 0.971281
O O4 0.001828 0.291417 0.121412
O O5 0.108566 0.623473 0.219169
O O6 0.430614 0.836780 0.459456
O O7 0.252616 0.915407 0.360360
O O8 0.000000 0.000000 0.500000
O O9 0.193015 0.671712 0.608584
O O10 0.578757 0.725699 0.770036
O O11 0.080013 0.696582 0.747471
O O12 0.636025 0.686672 0.019965
O O13 0.000000 0.500000 0.000000
O O14 0.814347 0.828128 0.585805
O O15 0.488019 0.109470 0.745119
O O16 0.736991 0.060974 0.298023
O O17 0.850175 0.411261 0.586092
#
# Coordination Sequence:
#
# PCOD9066340 Si02
#       8
#     2   2   2   2   2   2   2   2
#     4  12  28  47  77 112 154 204 257 329 399 464
#     4  11  26  46  74 113 156 196 259 325 389 478
#     4  12  26  53  76 117 154 212 262 333 395 472
#     4  12  27  47  76 114 151 208 257 316 401 478
#     4  11  25  45  74 109 153 205 252 325 394 465
#     4  12  25  48  75 106 161 202 260 317 390 484
#     4  12  26  47  76 112 151 207 255 326 394 469
#     4  12  31  47  83 114 158 204 276 328 397 471
#
# _framework density 23.277659
#
# number of rings (size 3 to 8) (size 9 to 14) (size 15 to 20)
#    0.000    0.250    2.500    5.250    8.750    3.000 
#    0.000    0.000    0.000    0.000    0.000    0.000 
#    0.000    0.000    0.000    0.000    0.000    0.000 
#
# Total GULP energy -89482.306094 kJ/mol
# GULP energy per Si atom -5592.644131 kJ/mol
# Density = 2.322468 g / cm^3
# Si number density = 23.277659 Si / 1000 Ang^3
#
#
#
# Elastic Constant Matrix: (Units=GPa)
#
#
# Indices 1 2 3 4 5 6 
#
# 1 98.7607 37.1492 24.7416 -3.3209 -6.9328 -0.1439
# 2 37.1492 57.9112 18.0295 -9.3805 7.1217 -7.9737
# 3 24.7416 18.0295 157.3900 7.0488 -8.3289 -2.1701
# 4 -3.3209 -9.3805 7.0488 43.1453 -1.9582 0.7951
# 5 -6.9328 7.1217 -8.3289 -1.9582 35.1842 -7.1436
# 6 -0.1439 -7.9737 -2.1701 0.7951 -7.1436 27.7619
#
#
#
# Elastic Compliance Matrix: (Units=1/GPa)
#
#
# Indices 1 2 3 4 5 6 
#
# 1 0.014284 -0.009736 -0.000903 -0.000648 0.004191 -0.001696
# 2 -0.009736 0.026484 -0.001982 0.004942 -0.006330 0.005631
# 3 -0.000903 -0.001982 0.006898 -0.001552 0.001869 0.000491
# 4 -0.000648 0.004942 -0.001552 0.024444 -0.000015 0.000591
# 5 0.004191 -0.006330 0.001869 -0.000015 0.032324 0.006668
# 6 -0.001696 0.005631 0.000491 0.000591 0.006668 0.039366
#
#
# Mechanical properties :
#
#
# Convention : Reuss Voigt Hill
#
# Bulk Modulus (GPa) = 44.59307 52.65584 48.62446
# Shear Modulus (GPa) = 28.32600 36.82771 32.57685
#
# Velocity S-wave (km/s) = 3.49216 3.98188 3.74503
# Velocity P-wave (km/s) = 5.95473 6.61894 6.29560
#
# Compressibility (1/GPa) = 0.02242501
#
# Stress axis : x y z
#
# Youngs Moduli (GPa) = 70.00999 37.75809 144.97413
#
# Poissons Ratio (x) = 0.36760 0.13087
# Poissons Ratio (y) = 0.68159 0.28735
# Poissons Ratio (z) = 0.06320 0.07484
#
# Static dielectric constant tensor:
#      x y z
#    x 1.979350 0.010840 -0.016530 
#    y 0.010840 1.883560 0.007010 
#    z -0.016530 0.007010 1.853180 
# 
# From -- ./inp_files/550209.got.cif
#   From: 2010.05.17/outbox.cif.g08.bks.cpg/sg2_276_cif.got.tgz:550209.got - 2010.06.03 11:33:40.
