data_PCOD9066581
_publ_section_title
;
Structure prediction by ZEFSAII (Michael W. Deem and Ramdas Pophale) SiO2 
 PCOD9066581
Probable space group: P -1
;
_chemical_formula_sum "Si O2"
_cell_formula_units_Z 12
_cell_length_a 9.135560
_cell_length_b 8.664766
_cell_length_c 9.504733
_cell_angle_alpha 131.055715
_cell_angle_beta 55.410743
_cell_angle_gamma 99.365924
_cell_volume 439.492854
_symmetry_space_group_name_H-M "P -1"
_symmetry_group_IT_number 2
_symmetry_cell_setting 'triclinic'
loop_
_space_group_symop_operation_xyz
x,y,z
-x,-y,-z
loop_
_atom_site_type_symbol
_atom_site_label
_atom_site_fract_x
_atom_site_fract_y
_atom_site_fract_z
Si Si1 0.751577 0.873066 0.652101
Si Si2 0.620646 0.622537 0.207632
Si Si3 0.375633 0.769100 0.825273
Si Si4 0.236771 0.011649 0.584737
Si Si5 0.855814 0.510662 0.745647
Si Si6 0.114536 0.751646 0.694145
O O1 0.577410 0.782384 0.671119
O O2 0.768718 0.016781 0.595420
O O3 0.951445 0.681259 0.435280
O O4 0.701618 0.022367 0.906059
O O5 0.612059 0.435716 0.204653
O O6 0.765802 0.743891 0.249623
O O7 0.426952 0.825190 0.422070
O O8 0.693777 0.536384 0.961175
O O9 0.249538 0.756193 0.751762
O O10 0.086458 0.958747 0.733213
O O11 0.804457 0.449355 0.581773
O O12 0.920749 0.720987 0.831126
#
# Coordination Sequence:
#
# PCOD9066581 Si02
#       6
#     2   2   2   2   2   2
#     4  11  26  47  74 107 141 186 240 291 351 420
#     4  11  25  46  73 104 142 188 237 291 353 421
#     4  11  25  47  75 103 143 192 236 285 351 432
#     4  11  25  46  72 102 141 192 238 282 353 434
#     4  11  27  47  72 108 144 182 236 300 355 409
#     4  11  26  46  72 104 145 186 233 290 355 420
#
# _framework density 27.304198
#
# number of rings (size 3 to 8) (size 9 to 14) (size 15 to 20)
#    0.000    1.000    0.000    5.000    0.000   20.667 
#    0.000    0.000    0.000    1.000    0.000    0.000 
#    0.000    0.000    0.000    0.000    0.000    0.000 
#
# Total GULP energy -67362.449621 kJ/mol
# GULP energy per Si atom -5613.537468 kJ/mol
# Density = 2.724205 g / cm^3
# Si number density = 27.304198 Si / 1000 Ang^3
#
#
#
# Elastic Constant Matrix: (Units=GPa)
#
#
# Indices 1 2 3 4 5 6 
#
# 1 165.6997 80.3091 47.1000 -13.8559 27.0807 19.4648
# 2 80.3091 222.7175 46.9193 -26.5279 -0.2899 14.6070
# 3 47.1000 46.9193 138.8149 -14.9626 17.2535 7.3436
# 4 -13.8559 -26.5279 -14.9626 50.2919 -4.6489 13.0797
# 5 27.0807 -0.2899 17.2535 -4.6489 44.0574 -0.3021
# 6 19.4648 14.6070 7.3436 13.0797 -0.3021 49.4358
#
#
#
# Elastic Compliance Matrix: (Units=1/GPa)
#
#
# Indices 1 2 3 4 5 6 
#
# 1 0.008888 -0.002648 -0.001259 0.000956 -0.004906 -0.002813
# 2 -0.002648 0.006086 -0.001093 0.002712 0.002373 -0.001297
# 3 -0.001259 -0.001093 0.008521 0.001621 -0.002405 -0.000891
# 4 0.000956 0.002712 0.001621 0.024213 0.001297 -0.007817
# 5 -0.004906 0.002373 -0.002405 0.001297 0.026817 0.001409
# 6 -0.002813 -0.001297 -0.000891 -0.007817 0.001409 0.023928
#
#
# Mechanical properties :
#
#
# Convention : Reuss Voigt Hill
#
# Bulk Modulus (GPa) = 74.09445 97.32101 85.70773
# Shear Modulus (GPa) = 44.26629 52.28395 48.27512
#
# Velocity S-wave (km/s) = 4.03081 4.38067 4.20938
# Velocity P-wave (km/s) = 6.98991 7.82992 7.42181
#
# Compressibility (1/GPa) = 0.01349629
#
# Stress axis : x y z
#
# Youngs Moduli (GPa) = 112.50501 164.30769 117.35359
#
# Poissons Ratio (x) = 0.43506 0.14778
# Poissons Ratio (y) = 0.29790 0.12823
# Poissons Ratio (z) = 0.14167 0.17954
#
# Static dielectric constant tensor:
#      x y z
#    x 2.169850 0.073860 -0.001350 
#    y 0.073860 2.159480 0.018380 
#    z -0.001350 0.018380 2.148200 
# 
# From -- ./inp_files/152405.got.cif
#   From: 2010.05.17/outbox.cif.g08.bks.cpg/sg2_77_cif.got.tgz:152405.got - 2010.06.03 11:33:40.
