data_PCOD9066929
_publ_section_title
;
Structure prediction by ZEFSAII (Michael W. Deem and Ramdas Pophale) SiO2 
 PCOD9066929
Probable space group: P -1
;
_chemical_formula_sum "Si O2"
_cell_formula_units_Z 16
_cell_length_a 6.657709
_cell_length_b 14.995483
_cell_length_c 7.410714
_cell_angle_alpha 85.534741
_cell_angle_beta 87.082795
_cell_angle_gamma 67.075763
_cell_volume 679.181015
_symmetry_space_group_name_H-M "P -1"
_symmetry_group_IT_number 2
_symmetry_cell_setting 'triclinic'
loop_
_space_group_symop_operation_xyz
x,y,z
-x,-y,-z
loop_
_atom_site_type_symbol
_atom_site_label
_atom_site_fract_x
_atom_site_fract_y
_atom_site_fract_z
Si Si1 0.443038 0.945107 0.849561
Si Si2 0.074560 0.389721 0.277342
Si Si3 0.279764 0.595855 0.006465
Si Si4 0.069814 0.143620 0.770705
Si Si5 0.269784 0.538389 0.396934
Si Si6 0.823951 0.109810 0.498837
Si Si7 0.201024 0.801663 0.884189
Si Si8 0.680973 0.823000 0.569997
O O1 0.355526 0.860462 0.913855
O O2 0.645100 0.906543 0.708309
O O3 0.231281 0.031322 0.769383
O O4 0.500000 0.000000 0.000000
O O5 0.903462 0.415371 0.445768
O O6 0.211069 0.455938 0.306687
O O7 0.233002 0.277881 0.310727
O O8 0.925806 0.409244 0.098261
O O9 0.243699 0.611929 0.220955
O O10 0.500000 0.500000 0.000000
O O11 0.320572 0.686641 0.908547
O O12 0.182651 0.191097 0.617439
O O13 0.850051 0.152936 0.681047
O O14 0.002500 0.173504 0.973164
O O15 0.500000 0.500000 0.500000
O O16 0.570609 0.135130 0.485640
O O17 0.000000 0.000000 0.500000
O O18 0.125715 0.832429 0.678757
#
# Coordination Sequence:
#
# PCOD9066929 Si02
#       8
#     2   2   2   2   2   2   2   2
#     4  11  27  45  72 107 156 199 259 315 383 469
#     4  11  26  49  77 114 154 203 263 321 390 475
#     4  12  26  48  81 110 155 207 259 324 395 464
#     4  12  25  45  75 104 149 197 255 318 382 453
#     4  11  25  50  80 113 156 199 261 328 392 462
#     4  11  25  47  73 102 152 199 253 310 390 454
#     4  11  27  47  75 111 147 208 257 315 390 464
#     4  11  26  46  75 109 151 204 254 318 386 462
#
# _framework density 23.557784000000002
#
# number of rings (size 3 to 8) (size 9 to 14) (size 15 to 20)
#    0.000    0.750    3.750    2.625    8.750    2.000 
#    0.000    0.000    0.000    0.000    0.000    0.000 
#    0.000    0.000    0.000    0.000    0.000    0.000 
#
# Total GULP energy -89338.755820 kJ/mol
# GULP energy per Si atom -5583.672239 kJ/mol
# Density = 2.350417 g / cm^3
# Si number density = 23.557784 Si / 1000 Ang^3
#
#
#
# Elastic Constant Matrix: (Units=GPa)
#
#
# Indices 1 2 3 4 5 6 
#
# 1 78.6057 21.2529 24.1569 -14.2576 20.0345 -7.7729
# 2 21.2529 126.9836 17.0128 -29.0706 7.0775 -3.4512
# 3 24.1569 17.0128 142.3293 -19.0553 14.8698 -0.5183
# 4 -14.2576 -29.0706 -19.0553 42.0804 -5.5593 -7.8845
# 5 20.0345 7.0775 14.8698 -5.5593 58.9764 2.2927
# 6 -7.7729 -3.4512 -0.5183 -7.8845 2.2927 34.9004
#
#
#
# Elastic Compliance Matrix: (Units=1/GPa)
#
#
# Indices 1 2 3 4 5 6 
#
# 1 0.015896 -0.001112 -0.001498 0.004196 -0.004675 0.004663
# 2 -0.001112 0.009667 -0.000042 0.006670 -0.000230 0.002230
# 3 -0.001498 -0.000042 0.007805 0.002938 -0.001197 0.000520
# 4 0.004196 0.006670 0.002938 0.032791 -0.000228 0.009061
# 5 -0.004675 -0.000230 -0.001197 -0.000228 0.018944 -0.002378
# 6 0.004663 0.002230 0.000520 0.009061 -0.002378 0.032123
#
#
# Mechanical properties :
#
#
# Convention : Reuss Voigt Hill
#
# Bulk Modulus (GPa) = 35.63091 52.52930 44.08010
# Shear Modulus (GPa) = 37.91149 46.22451 42.06800
#
# Velocity S-wave (km/s) = 4.01596 4.43445 4.23038
# Velocity P-wave (km/s) = 6.05488 6.96890 6.52791
#
# Compressibility (1/GPa) = 0.02806552
#
# Stress axis : x y z
#
# Youngs Moduli (GPa) = 62.90761 103.44315 128.11520
#
# Poissons Ratio (x) = 0.11504 0.19192
# Poissons Ratio (y) = 0.06996 0.00534
# Poissons Ratio (z) = 0.09424 0.00431
#
# Static dielectric constant tensor:
#      x y z
#    x 2.008910 0.048860 0.041780 
#    y 0.048860 1.916400 0.009550 
#    z 0.041780 0.009550 1.973560 
# 
# From -- ./inp_files/137732.got.cif
#   From: 2010.05.17/outbox.cif.g08.bks.cpg/sg2_69_cif.got.tgz:137732.got - 2010.06.03 11:33:40.
