data_PCOD9066399
_publ_section_title
;
Structure prediction by ZEFSAII (Michael W. Deem and Ramdas Pophale) SiO2 
 PCOD9066399
Probable space group: P -1
;
_chemical_formula_sum "Si O2"
_cell_formula_units_Z 14
_cell_length_a 9.250353
_cell_length_b 12.470573
_cell_length_c 15.524659
_cell_angle_alpha 29.066440
_cell_angle_beta 47.170453
_cell_angle_gamma 57.925461
_cell_volume 627.966520
_symmetry_space_group_name_H-M "P -1"
_symmetry_group_IT_number 2
_symmetry_cell_setting 'triclinic'
loop_
_space_group_symop_operation_xyz
x,y,z
-x,-y,-z
loop_
_atom_site_type_symbol
_atom_site_label
_atom_site_fract_x
_atom_site_fract_y
_atom_site_fract_z
Si Si1 0.204985 0.441537 0.757931
Si Si2 0.893506 0.159429 0.370300
Si Si3 0.386607 0.591327 0.116210
Si Si4 0.936194 0.394234 0.474695
Si Si5 0.480947 0.834763 0.725345
Si Si6 0.443591 0.739521 0.174969
Si Si7 0.942549 0.086693 0.218149
O O1 0.122651 0.621561 0.724026
O O2 0.191272 0.533284 0.603659
O O3 0.421264 0.405242 0.725427
O O4 0.064681 0.206354 0.004039
O O5 0.993172 0.216688 0.196682
O O6 0.674811 0.021343 0.532796
O O7 0.000000 0.000000 0.500000
O O8 0.463707 0.360807 0.221971
O O9 0.488463 0.714002 0.073586
O O10 0.151688 0.548132 0.265224
O O11 0.422656 0.729917 0.916474
O O12 0.786150 0.371502 0.632375
O O13 0.995175 0.148969 0.620359
O O14 0.289834 0.925452 0.702501
O O15 0.500000 0.000000 0.000000
#
# Coordination Sequence:
#
# PCOD9066399 Si02
#       7
#     2   2   2   2   2   2   2
#     4  12  26  47  73 107 146 194 239 305 368 420
#     4  12  25  42  75 112 150 187 236 308 369 431
#     4  11  25  48  75 105 146 194 242 298 370 430
#     4  12  25  51  70 103 148 195 246 293 357 443
#     4  11  25  45  76 111 145 190 242 300 368 444
#     4  12  28  48  75 106 145 197 249 301 356 428
#     4  12  24  45  71 106 152 188 245 290 373 440
#
# _framework density 22.294180999999998
#
# number of rings (size 3 to 8) (size 9 to 14) (size 15 to 20)
#    0.000    0.286    5.714    2.571    8.000    0.000 
#    0.000    1.429    0.000    0.000    0.000    0.000 
#    0.000    0.000    0.000    0.000    0.000    0.000 
#
# Total GULP energy -78272.159462 kJ/mol
# GULP energy per Si atom -5590.868533 kJ/mol
# Density = 2.224344 g / cm^3
# Si number density = 22.294181 Si / 1000 Ang^3
#
#
#
# Elastic Constant Matrix: (Units=GPa)
#
#
# Indices 1 2 3 4 5 6 
#
# 1 104.1639 58.5006 33.1962 8.0949 23.4499 -3.5004
# 2 58.5006 28.4981 -0.8739 28.7856 31.8357 0.4868
# 3 33.1962 -0.8739 87.6054 19.1753 27.4338 0.0329
# 4 8.0949 28.7856 19.1753 34.5923 -8.7839 3.3283
# 5 23.4499 31.8357 27.4338 -8.7839 43.9942 10.0379
# 6 -3.5004 0.4868 0.0329 3.3283 10.0379 43.1325
#
#
#
# Elastic Compliance Matrix: (Units=1/GPa)
#
#
# Indices 1 2 3 4 5 6 
#
# 1 0.010665 0.003757 0.002491 -0.010807 -0.013193 0.004725
# 2 0.003757 -0.010132 -0.010794 0.018280 0.016828 -0.004899
# 3 0.002491 -0.010794 0.008945 0.003931 0.001781 -0.000401
# 4 -0.010807 0.018280 0.003931 0.012192 -0.007416 -0.000301
# 5 -0.013193 0.016828 0.001781 -0.007416 0.016001 -0.004413
# 6 0.004725 -0.004899 -0.000401 -0.000301 -0.004413 0.024674
#
#
# Mechanical properties :
#
#
# Convention : Reuss Voigt Hill
#
# Bulk Modulus (GPa) = 2587.12630 44.65699 1315.89165
# Shear Modulus (GPa) = 69.86660 32.97342 51.42001
#
# Velocity S-wave (km/s) = 5.60415 3.84997 4.80774
# Velocity P-wave (km/s) = 34.71086 6.31168 24.94675
#
# Compressibility (1/GPa) = 0.00038653
#
# Stress axis : x y z
#
# Youngs Moduli (GPa) = 93.76321 -98.69466 111.79409
#
# Poissons Ratio (x) = 0.37077 -0.27851
# Poissons Ratio (y) = -0.35224 1.20667
# Poissons Ratio (z) = -0.23359 -1.06528
#
# Static dielectric constant tensor:
#      x y z
#    x 1.812330 0.009620 -0.031000 
#    y 0.009620 1.816720 0.021480 
#    z -0.031000 0.021480 1.864530 
# 
# From -- ./inp_files/223284.got.cif
#   From: 2010.05.17/outbox.cif.g08.bks.cpg/sg2_112_cif.got.tgz:223284.got - 2010.06.03 11:33:40.
