data_PCOD9066657
_publ_section_title
;
Structure prediction by ZEFSAII (Michael W. Deem and Ramdas Pophale) SiO2 
 PCOD9066657
Probable space group: P -1
;
_chemical_formula_sum "Si O2"
_cell_formula_units_Z 13
_cell_length_a 15.557441
_cell_length_b 22.710832
_cell_length_c 5.569577
_cell_angle_alpha 55.755765
_cell_angle_beta 116.564163
_cell_angle_gamma 161.206423
_cell_volume 496.306934
_symmetry_space_group_name_H-M "P -1"
_symmetry_group_IT_number 2
_symmetry_cell_setting 'triclinic'
loop_
_space_group_symop_operation_xyz
x,y,z
-x,-y,-z
loop_
_atom_site_type_symbol
_atom_site_label
_atom_site_fract_x
_atom_site_fract_y
_atom_site_fract_z
Si Si1 0.173725 0.465292 0.276718
Si Si2 0.000000 0.000000 0.500000
Si Si3 0.062089 0.238321 0.614602
Si Si4 0.369381 0.881055 0.857985
Si Si5 0.435434 0.394738 0.974509
Si Si6 0.682955 0.878713 0.698167
Si Si7 0.250148 0.641580 0.331611
O O1 0.083113 0.325517 0.594157
O O2 0.129057 0.501542 0.310473
O O3 0.959976 0.325777 0.104904
O O4 0.497012 0.700961 0.054391
O O5 0.041528 0.968216 0.413041
O O6 0.334990 0.253469 0.297806
O O7 0.147656 0.224225 0.884693
O O8 0.311240 0.429507 0.297924
O O9 0.782670 0.020830 0.628512
O O10 0.500000 0.000000 0.500000
O O11 0.393493 0.812912 0.021532
O O12 0.500000 0.000000 0.000000
O O13 0.500000 0.500000 0.000000
O O14 0.480514 0.762746 0.500042
O O15 0.000000 0.500000 0.500000
#
# Coordination Sequence:
#
# PCOD9066657 Si02
#       7
#     2   1   2   2   2   2   2
#     4  12  28  47  81 114 160 206 267 336 408 489
#     4  12  26  48  76 110 156 206 256 324 402 468
#     4  11  27  46  73 113 151 207 264 321 403 474
#     4  12  28  51  83 118 162 213 275 344 413 490
#     4  11  25  46  73 105 159 200 260 326 389 480
#     4  12  28  47  80 116 158 207 268 330 403 490
#     4  12  28  53  78 113 160 210 271 337 415 489
#
# _framework density 26.193469
#
# number of rings (size 3 to 8) (size 9 to 14) (size 15 to 20)
#    0.000    0.308    4.615    2.308    8.615    0.615 
#    0.000    0.000    0.000    0.000    0.000    0.000 
#    0.000    0.000    0.000    0.000    0.000    0.000 
#
# Total GULP energy -72571.927088 kJ/mol
# GULP energy per Si atom -5582.455930 kJ/mol
# Density = 2.613385 g / cm^3
# Si number density = 26.193469 Si / 1000 Ang^3
#
#
#
# Elastic Constant Matrix: (Units=GPa)
#
#
# Indices 1 2 3 4 5 6 
#
# 1 161.9778 38.0649 37.0212 -1.1789 -3.7671 -23.1897
# 2 38.0649 138.0680 31.6339 -0.0946 9.4130 -31.2241
# 3 37.0212 31.6339 93.1807 -15.1566 -0.1890 -5.4255
# 4 -1.1789 -0.0946 -15.1566 40.6811 -2.0756 8.7601
# 5 -3.7671 9.4130 -0.1890 -2.0756 52.7420 -5.1892
# 6 -23.1897 -31.2241 -5.4255 8.7601 -5.1892 56.6246
#
#
#
# Elastic Compliance Matrix: (Units=1/GPa)
#
#
# Indices 1 2 3 4 5 6 
#
# 1 0.007375 -0.000904 -0.002683 -0.001291 0.000878 0.002545
# 2 -0.000904 0.009305 -0.002880 -0.002158 -0.001359 0.004694
# 3 -0.002683 -0.002880 0.013535 0.005451 0.000369 -0.002200
# 4 -0.001291 -0.002158 0.005451 0.027780 0.000873 -0.005414
# 5 0.000878 -0.001359 0.000369 0.000873 0.019428 0.001291
# 6 0.002545 0.004694 -0.002200 -0.005414 0.001291 0.022036
#
#
# Mechanical properties :
#
#
# Convention : Reuss Voigt Hill
#
# Bulk Modulus (GPa) = 57.87027 67.40740 62.63883
# Shear Modulus (GPa) = 42.31805 49.10997 45.71401
#
# Velocity S-wave (km/s) = 4.02381 4.33470 4.18214
# Velocity P-wave (km/s) = 6.61282 7.13044 6.87650
#
# Compressibility (1/GPa) = 0.01728003
#
# Stress axis : x y z
#
# Youngs Moduli (GPa) = 135.59851 107.47456 73.88227
#
# Poissons Ratio (x) = 0.09711 0.19825
# Poissons Ratio (y) = 0.12252 0.21280
# Poissons Ratio (z) = 0.36386 0.30955
#
# Static dielectric constant tensor:
#      x y z
#    x 2.213990 0.024810 0.073870 
#    y 0.024810 2.119590 0.028570 
#    z 0.073870 0.028570 2.181560 
# 
# From -- ./inp_files/100535.got.cif
#   From: 2010.05.17/outbox.cif.g08.bks.cpg/sg2_51_cif.got.tgz:100535.got - 2010.06.03 11:33:40.
