data_PCOD9066343
_publ_section_title
;
Structure prediction by ZEFSAII (Michael W. Deem and Ramdas Pophale) SiO2 
 PCOD9066343
Probable space group: P -1
;
_chemical_formula_sum "Si O2"
_cell_formula_units_Z 16
_cell_length_a 5.322764
_cell_length_b 11.838148
_cell_length_c 11.180754
_cell_angle_alpha 68.048117
_cell_angle_beta 106.127400
_cell_angle_gamma 103.967622
_cell_volume 620.200504
_symmetry_space_group_name_H-M "P -1"
_symmetry_group_IT_number 2
_symmetry_cell_setting 'triclinic'
loop_
_space_group_symop_operation_xyz
x,y,z
-x,-y,-z
loop_
_atom_site_type_symbol
_atom_site_label
_atom_site_fract_x
_atom_site_fract_y
_atom_site_fract_z
Si Si1 0.756163 0.023342 0.607722
Si Si2 0.587221 0.595290 0.603541
Si Si3 0.641847 0.198510 0.009015
Si Si4 0.663509 0.617098 0.038788
Si Si5 0.040491 0.441509 0.683616
Si Si6 0.187230 0.222945 0.630601
Si Si7 0.600703 0.068459 0.837939
Si Si8 0.114394 0.241610 0.214887
O O1 0.699430 0.062584 0.719531
O O2 0.975549 0.136899 0.553552
O O3 0.500000 0.000000 0.500000
O O4 0.859704 0.894308 0.685583
O O5 0.296156 0.538960 0.634187
O O6 0.604779 0.698758 0.462184
O O7 0.758077 0.661269 0.709942
O O8 0.767658 0.496333 0.618666
O O9 0.814872 0.237440 0.133867
O O10 0.455354 0.071267 0.067977
O O11 0.505141 0.316250 0.916070
O O12 0.776392 0.153402 0.924633
O O13 0.903304 0.580555 0.160646
O O14 0.500000 0.500000 0.000000
O O15 0.741740 0.717015 0.906986
O O16 0.057080 0.319524 0.655789
O O17 0.333706 0.130580 0.765264
#
# Coordination Sequence:
#
# PCOD9066343 Si02
#       8
#     2   2   2   2   2   2   2   2
#     4  12  29  47  77 112 157 206 262 327 393 479
#     4  12  30  51  80 113 163 207 271 325 388 469
#     4  11  25  45  74 110 154 196 257 329 384 479
#     4  12  25  45  74 106 155 202 253 317 391 457
#     4  12  29  52  77 119 154 209 270 328 389 474
#     4  12  28  49  81 109 153 212 259 327 399 467
#     4  11  25  46  75 111 153 197 259 321 401 459
#     4  12  27  46  76 112 155 200 262 322 396 468
#
# _framework density 25.798107000000002
#
# number of rings (size 3 to 8) (size 9 to 14) (size 15 to 20)
#    0.000    0.250    5.000    2.250   10.500    2.500 
#    0.000    0.000    0.000    0.000    0.000    0.000 
#    0.000    0.000    0.000    0.000    0.000    0.000 
#
# Total GULP energy -89673.120650 kJ/mol
# GULP energy per Si atom -5604.570041 kJ/mol
# Density = 2.573939 g / cm^3
# Si number density = 25.798107 Si / 1000 Ang^3
#
#
#
# Elastic Constant Matrix: (Units=GPa)
#
#
# Indices 1 2 3 4 5 6 
#
# 1 81.6720 38.3035 11.8729 -19.1335 -4.8813 9.8707
# 2 38.3035 160.4886 26.6195 6.8482 -6.6373 19.5088
# 3 11.8729 26.6195 100.2158 11.6622 -3.0629 4.9400
# 4 -19.1335 6.8482 11.6622 37.9191 -7.6909 6.0388
# 5 -4.8813 -6.6373 -3.0629 -7.6909 44.6235 3.1469
# 6 9.8707 19.5088 4.9400 6.0388 3.1469 48.4902
#
#
#
# Elastic Compliance Matrix: (Units=1/GPa)
#
#
# Indices 1 2 3 4 5 6 
#
# 1 0.017657 -0.003779 -0.002149 0.011513 0.003454 -0.003513
# 2 -0.003779 0.007685 -0.001192 -0.002556 0.000342 -0.001905
# 3 -0.002149 -0.001192 0.011031 -0.004411 -0.000442 0.000371
# 4 0.011513 -0.002556 -0.004411 0.036408 0.007266 -0.005872
# 5 0.003454 0.000342 -0.000442 0.007266 0.024291 -0.003277
# 6 -0.003513 -0.001905 0.000371 -0.005872 -0.003277 0.023010
#
#
# Mechanical properties :
#
#
# Convention : Reuss Voigt Hill
#
# Bulk Modulus (GPa) = 45.18090 55.10759 50.14424
# Shear Modulus (GPa) = 35.28543 43.91191 39.59867
#
# Velocity S-wave (km/s) = 3.70233 4.13017 3.92209
# Velocity P-wave (km/s) = 5.98561 6.64469 6.32374
#
# Compressibility (1/GPa) = 0.02213325
#
# Stress axis : x y z
#
# Youngs Moduli (GPa) = 56.63458 130.11665 90.65236
#
# Poissons Ratio (x) = 0.49173 0.19482
# Poissons Ratio (y) = 0.21403 0.10805
# Poissons Ratio (z) = 0.12172 0.15509
#
# Static dielectric constant tensor:
#      x y z
#    x 2.163230 0.028690 0.023670 
#    y 0.028690 1.979410 -0.017400 
#    z 0.023670 -0.017400 2.193080 
# 
# From -- ./inp_files/97521.got.cif
#   From: 2010.05.17/outbox.cif.g08.bks.cpg/sg2_49_cif.got.tgz:97521.got - 2010.06.03 11:33:40.
