data_PCOD9066848
_publ_section_title
;
Structure prediction by ZEFSAII (Michael W. Deem and Ramdas Pophale) SiO2 
 PCOD9066848
Probable space group: P -1
;
_chemical_formula_sum "Si O2"
_cell_formula_units_Z 12
_cell_length_a 9.392882
_cell_length_b 15.191631
_cell_length_c 14.560961
_cell_angle_alpha 161.040927
_cell_angle_beta 49.211784
_cell_angle_gamma 132.341950
_cell_volume 497.808310
_symmetry_space_group_name_H-M "P -1"
_symmetry_group_IT_number 2
_symmetry_cell_setting 'triclinic'
loop_
_space_group_symop_operation_xyz
x,y,z
-x,-y,-z
loop_
_atom_site_type_symbol
_atom_site_label
_atom_site_fract_x
_atom_site_fract_y
_atom_site_fract_z
Si Si1 0.782978 0.348896 0.006858
Si Si2 0.019793 0.799193 0.459965
Si Si3 0.956210 0.796325 0.905165
Si Si4 0.685735 0.813486 0.397008
Si Si5 0.249686 0.766753 0.498935
Si Si6 0.277515 0.909863 0.031207
O O1 0.972794 0.593345 0.189613
O O2 0.664519 0.513037 0.154359
O O3 0.721957 0.295611 0.086331
O O4 0.751893 0.042644 0.675519
O O5 0.148745 0.671596 0.350633
O O6 0.837732 0.868819 0.659113
O O7 0.150251 0.087840 0.651025
O O8 0.149219 0.800796 0.887762
O O9 0.816912 0.950225 0.173087
O O10 0.841821 0.475579 0.628322
O O11 0.000000 0.000000 0.000000
O O12 0.477906 0.824758 0.457744
O O13 0.500000 0.000000 0.000000
#
# Coordination Sequence:
#
# PCOD9066848 Si02
#       6
#     2   2   2   2   2   2
#     4  12  25  47  69 108 145 183 235 289 353 416
#     4  11  25  49  72 105 146 187 234 293 352 418
#     4  11  25  47  72  98 141 187 237 288 345 417
#     4  12  27  42  78 107 144 185 235 287 356 424
#     4  11  25  47  69 106 140 184 235 291 350 416
#     4  11  27  47  73 104 141 188 237 293 352 415
#
# _framework density 24.105664000000001
#
# number of rings (size 3 to 8) (size 9 to 14) (size 15 to 20)
#    0.000    0.667    3.333    3.000    7.000    0.667 
#    0.000    4.167    0.000    0.000    0.000    0.000 
#    0.000    0.000    0.000    0.000    0.000    0.000 
#
# Total GULP energy -67056.462546 kJ/mol
# GULP energy per Si atom -5588.038545 kJ/mol
# Density = 2.405080 g / cm^3
# Si number density = 24.105664 Si / 1000 Ang^3
#
#
#
# Elastic Constant Matrix: (Units=GPa)
#
#
# Indices 1 2 3 4 5 6 
#
# 1 115.6203 39.4818 20.8135 -20.8723 -16.8679 16.7221
# 2 39.4818 65.1401 45.5345 6.2018 -8.8224 5.9106
# 3 20.8135 45.5345 90.9934 12.4700 -9.1085 9.7507
# 4 -20.8723 6.2018 12.4700 34.5946 -5.8429 -11.5652
# 5 -16.8679 -8.8224 -9.1085 -5.8429 35.0191 0.7963
# 6 16.7221 5.9106 9.7507 -11.5652 0.7963 52.1802
#
#
#
# Elastic Compliance Matrix: (Units=1/GPa)
#
#
# Indices 1 2 3 4 5 6 
#
# 1 0.015055 -0.009589 0.000666 0.011237 0.006918 -0.001478
# 2 -0.009589 0.030039 -0.012072 -0.006909 -0.001353 0.000416
# 3 0.000666 -0.012072 0.018017 -0.004823 0.001236 -0.003301
# 4 0.011237 -0.006909 -0.004823 0.042724 0.009377 0.007409
# 5 0.006918 -0.001353 0.001236 0.009377 0.033449 -0.000727
# 6 -0.001478 0.000416 -0.003301 0.007409 -0.000727 0.021861
#
#
# Mechanical properties :
#
#
# Convention : Reuss Voigt Hill
#
# Bulk Modulus (GPa) = 47.34720 53.71260 50.52990
# Shear Modulus (GPa) = 23.78970 35.42038 29.60504
#
# Velocity S-wave (km/s) = 3.14489 3.83741 3.50828
# Velocity P-wave (km/s) = 5.73335 6.47802 6.11703
#
# Compressibility (1/GPa) = 0.02112057
#
# Stress axis : x y z
#
# Youngs Moduli (GPa) = 66.42252 33.29024 55.50406
#
# Poissons Ratio (x) = 0.31923 -0.03696
# Poissons Ratio (y) = 0.63695 0.67002
# Poissons Ratio (z) = -0.04423 0.40187
#
# Static dielectric constant tensor:
#      x y z
#    x 1.944060 -0.052220 0.041650 
#    y -0.052220 2.038030 0.022170 
#    z 0.041650 0.022170 1.963820 
# 
# From -- ./inp_files/29063.got.cif
#   From: 2010.05.17/outbox.cif.g08.bks.cpg/sg2_15_cif.got.tgz:29063.got - 2010.06.03 11:33:40.
