data_PCOD9066100
_publ_section_title
;
Structure prediction by ZEFSAII (Michael W. Deem and Ramdas Pophale) SiO2 
 PCOD9066100
Probable space group: P -1
;
_chemical_formula_sum "Si O2"
_cell_formula_units_Z 15
_cell_length_a 9.426712
_cell_length_b 9.894452
_cell_length_c 8.336491
_cell_angle_alpha 81.100089
_cell_angle_beta 76.745358
_cell_angle_gamma 59.581329
_cell_volume 651.976265
_symmetry_space_group_name_H-M "P -1"
_symmetry_group_IT_number 2
_symmetry_cell_setting 'triclinic'
loop_
_space_group_symop_operation_xyz
x,y,z
-x,-y,-z
loop_
_atom_site_type_symbol
_atom_site_label
_atom_site_fract_x
_atom_site_fract_y
_atom_site_fract_z
Si Si1 0.000000 0.000000 0.500000
Si Si2 0.313815 0.874501 0.206234
Si Si3 0.956172 0.710343 0.611197
Si Si4 0.843613 0.964691 0.125698
Si Si5 0.565218 0.896697 0.343385
Si Si6 0.517434 0.506318 0.182894
Si Si7 0.278210 0.405608 0.446450
Si Si8 0.107716 0.759345 0.867443
O O1 0.944774 0.862902 0.504131
O O2 0.168383 0.905391 0.362569
O O3 0.422557 0.948317 0.237254
O O4 0.437943 0.689167 0.203294
O O5 0.240152 0.941833 0.036587
O O6 0.807057 0.673043 0.626654
O O7 0.124877 0.562101 0.529197
O O8 0.982983 0.740238 0.783947
O O9 0.720165 0.912094 0.237966
O O10 0.868357 0.088938 0.207856
O O11 0.017537 0.813738 0.053150
O O12 0.627453 0.719618 0.415885
O O13 0.500000 0.000000 0.500000
O O14 0.409255 0.441429 0.314589
O O15 0.714548 0.391707 0.177907
O O16 0.500000 0.500000 0.000000
#
# Coordination Sequence:
#
# PCOD9066100 Si02
#       8
#     1   2   2   2   2   2   2   2
#     4  12  24  44  80 108 144 202 254 300 374 438
#     4  12  26  47  77 109 149 200 253 309 374 452
#     4  11  25  45  73 108 149 198 245 308 371 445
#     4  11  26  47  74 109 149 197 257 303 373 458
#     4  12  28  45  75 110 150 195 250 318 376 442
#     4  12  26  47  74 107 151 196 248 311 377 445
#     4  11  27  46  70 110 154 192 250 310 375 444
#     4  11  25  44  76 105 143 197 250 302 370 449
#
# _framework density 23.006972999999999
#
# number of rings (size 3 to 8) (size 9 to 14) (size 15 to 20)
#    0.000    0.533    4.000    2.800    5.600    4.267 
#    0.000    2.000    0.000    0.000    0.000    0.000 
#    0.000    0.000    0.000    0.000    0.000    0.000 
#
# Total GULP energy -83724.704744 kJ/mol
# GULP energy per Si atom -5581.646983 kJ/mol
# Density = 2.295461 g / cm^3
# Si number density = 23.006973 Si / 1000 Ang^3
#
#
#
# Elastic Constant Matrix: (Units=GPa)
#
#
# Indices 1 2 3 4 5 6 
#
# 1 76.7321 13.3602 20.2707 11.9062 12.4472 -0.9451
# 2 13.3602 122.8736 42.4129 28.8450 0.6178 -9.4817
# 3 20.2707 42.4129 72.1872 11.5768 -21.7831 1.4792
# 4 11.9062 28.8450 11.5768 37.2447 5.9326 -3.8968
# 5 12.4472 0.6178 -21.7831 5.9326 48.9139 9.9847
# 6 -0.9451 -9.4817 1.4792 -3.8968 9.9847 41.9410
#
#
#
# Elastic Compliance Matrix: (Units=1/GPa)
#
#
# Indices 1 2 3 4 5 6 
#
# 1 0.016462 0.001713 -0.007605 -0.002706 -0.007807 0.002633
# 2 0.001713 0.012649 -0.008139 -0.006788 -0.004119 0.003535
# 3 -0.007605 -0.008139 0.025909 -0.002459 0.015259 -0.006786
# 4 -0.002706 -0.006788 -0.002459 0.034866 -0.005153 0.002958
# 5 -0.007807 -0.004119 0.015259 -0.005153 0.031886 -0.009715
# 6 0.002633 0.003535 -0.006786 0.002958 -0.009715 0.027528
#
#
# Mechanical properties :
#
#
# Convention : Reuss Voigt Hill
#
# Bulk Modulus (GPa) = 37.09635 47.09784 42.09709
# Shear Modulus (GPa) = 26.83159 38.66986 32.75073
#
# Velocity S-wave (km/s) = 3.41873 4.10419 3.77704
# Velocity P-wave (km/s) = 5.63405 6.55551 6.11217
#
# Compressibility (1/GPa) = 0.02695683
#
# Stress axis : x y z
#
# Youngs Moduli (GPa) = 60.74692 79.06011 38.59733
#
# Poissons Ratio (x) = -0.13541 0.29351
# Poissons Ratio (y) = -0.10404 0.31415
# Poissons Ratio (z) = 0.46195 0.64349
#
# Static dielectric constant tensor:
#      x y z
#    x 1.744520 0.161530 -0.056560 
#    y 0.161530 1.594800 0.225900 
#    z -0.056560 0.225900 1.840400 
# 
# From -- ./inp_files/158218.got.cif
#   From: 2010.05.17/outbox.cif.g08.bks.cpg/sg2_80_cif.got.tgz:158218.got - 2010.06.03 11:33:40.
