data_PCOD9066558
_publ_section_title
;
Structure prediction by ZEFSAII (Michael W. Deem and Ramdas Pophale) SiO2 
 PCOD9066558
Probable space group: P -1
;
_chemical_formula_sum "Si O2"
_cell_formula_units_Z 16
_cell_length_a 18.412146
_cell_length_b 5.038926
_cell_length_c 11.875760
_cell_angle_alpha 107.287467
_cell_angle_beta 50.550593
_cell_angle_gamma 128.213593
_cell_volume 660.078147
_symmetry_space_group_name_H-M "P -1"
_symmetry_group_IT_number 2
_symmetry_cell_setting 'triclinic'
loop_
_space_group_symop_operation_xyz
x,y,z
-x,-y,-z
loop_
_atom_site_type_symbol
_atom_site_label
_atom_site_fract_x
_atom_site_fract_y
_atom_site_fract_z
Si Si1 0.935061 0.727264 0.858141
Si Si2 0.418337 0.170168 0.796329
Si Si3 0.162100 0.851877 0.942769
Si Si4 0.594060 0.510165 0.487542
Si Si5 0.720692 0.246616 0.573132
Si Si6 0.924118 0.642271 0.595525
Si Si7 0.180690 0.384111 0.710096
Si Si8 0.490863 0.913013 0.869006
O O1 0.109413 0.621498 0.078307
O O2 0.073832 0.989686 0.766135
O O3 0.902986 0.681710 0.751908
O O4 0.881000 0.907977 0.993467
O O5 0.510126 0.207923 0.620085
O O6 0.472464 0.552960 0.833499
O O7 0.299891 0.064808 0.843889
O O8 0.398370 0.923147 0.887055
O O9 0.134801 0.591220 0.835981
O O10 0.500000 0.500000 0.500000
O O11 0.699559 0.508905 0.334593
O O12 0.668069 0.873631 0.525877
O O13 0.809789 0.377573 0.603766
O O14 0.781786 0.502281 0.441134
O O15 0.610362 0.208823 0.729603
O O16 0.000000 0.500000 0.500000
O O17 0.000000 0.000000 0.500000
O O18 0.500000 0.000000 0.000000
#
# Coordination Sequence:
#
# PCOD9066558 Si02
#       8
#     2   2   2   2   2   2   2   2
#     4  12  28  51  73 115 152 202 256 305 382 452
#     4  11  25  47  69 108 145 190 258 297 386 444
#     4  12  29  46  77 106 157 202 250 312 376 450
#     4  11  26  46  78 111 150 197 258 325 378 454
#     4  11  26  44  77 111 148 195 250 315 385 444
#     4  12  26  49  79 108 150 193 251 314 372 454
#     4  12  26  48  78 106 155 199 262 313 382 455
#     4  11  25  46  71 106 149 193 242 312 380 455
#
# _framework density 24.239554999999999
#
# number of rings (size 3 to 8) (size 9 to 14) (size 15 to 20)
#    0.000    0.500    2.500    4.125   12.250    1.000 
#    0.000    0.000    0.000    0.000    0.000    0.000 
#    0.000    0.000    0.000    0.000    0.000    0.000 
#
# Total GULP energy -89664.210686 kJ/mol
# GULP energy per Si atom -5604.013168 kJ/mol
# Density = 2.418438 g / cm^3
# Si number density = 24.239555 Si / 1000 Ang^3
#
#
#
# Elastic Constant Matrix: (Units=GPa)
#
#
# Indices 1 2 3 4 5 6 
#
# 1 121.8758 23.9639 18.9772 8.0179 4.1771 9.5902
# 2 23.9639 83.5970 20.1929 1.2755 -2.0649 11.0729
# 3 18.9772 20.1929 104.0991 -3.7499 15.9620 3.0660
# 4 8.0179 1.2755 -3.7499 37.6481 2.1626 0.2621
# 5 4.1771 -2.0649 15.9620 2.1626 44.3619 -2.8428
# 6 9.5902 11.0729 3.0660 0.2621 -2.8428 55.6153
#
#
#
# Elastic Compliance Matrix: (Units=1/GPa)
#
#
# Indices 1 2 3 4 5 6 
#
# 1 0.009042 -0.002143 -0.001194 -0.001936 -0.000496 -0.001083
# 2 -0.002143 0.013482 -0.002416 -0.000317 0.001580 -0.002099
# 3 -0.001194 -0.002416 0.010976 0.001662 -0.004039 -0.000132
# 4 -0.001936 -0.000317 0.001662 0.027251 -0.001753 0.000087
# 5 -0.000496 0.001580 -0.004039 -0.001753 0.024280 0.001243
# 6 -0.001083 -0.002099 -0.000132 0.000087 0.001243 0.018656
#
#
# Mechanical properties :
#
#
# Convention : Reuss Voigt Hill
#
# Bulk Modulus (GPa) = 45.46989 48.42666 46.94827
# Shear Modulus (GPa) = 40.80817 43.95425 42.38121
#
# Velocity S-wave (km/s) = 4.10754 4.26294 4.18596
# Velocity P-wave (km/s) = 6.42613 6.65221 6.54015
#
# Compressibility (1/GPa) = 0.02199258
#
# Stress axis : x y z
#
# Youngs Moduli (GPa) = 110.59540 74.17302 91.10981
#
# Poissons Ratio (x) = 0.15893 0.10882
# Poissons Ratio (y) = 0.23698 0.22016
# Poissons Ratio (z) = 0.13210 0.17923
#
# Static dielectric constant tensor:
#      x y z
#    x 2.175400 0.134230 0.065370 
#    y 0.134230 2.015970 0.065060 
#    z 0.065370 0.065060 1.967590 
# 
# From -- ./inp_files/459266.got.cif
#   From: 2010.05.17/outbox.cif.g08.bks.cpg/sg2_230_cif.got.tgz:459266.got - 2010.06.03 11:33:40.
