data_PCOD9066468
_publ_section_title
;
Structure prediction by ZEFSAII (Michael W. Deem and Ramdas Pophale) SiO2 
 PCOD9066468
Probable space group: P -1
;
_chemical_formula_sum "Si O2"
_cell_formula_units_Z 14
_cell_length_a 16.674813
_cell_length_b 16.681908
_cell_length_c 5.033833
_cell_angle_alpha 121.604854
_cell_angle_beta 110.030239
_cell_angle_gamma 26.292002
_cell_volume 497.246157
_symmetry_space_group_name_H-M "P -1"
_symmetry_group_IT_number 2
_symmetry_cell_setting 'triclinic'
loop_
_space_group_symop_operation_xyz
x,y,z
-x,-y,-z
loop_
_atom_site_type_symbol
_atom_site_label
_atom_site_fract_x
_atom_site_fract_y
_atom_site_fract_z
Si Si1 0.194133 0.272670 0.604559
Si Si2 0.519819 0.593122 0.734498
Si Si3 0.840504 0.312641 0.853422
Si Si4 0.384418 0.804768 0.397407
Si Si5 0.611000 0.003460 0.170142
Si Si6 0.837480 0.520189 0.431447
Si Si7 0.853836 0.112680 0.813060
O O1 0.322889 0.135426 0.773808
O O2 0.159570 0.412220 0.702127
O O3 0.991035 0.417753 0.625257
O O4 0.310648 0.105672 0.210864
O O5 0.500000 0.500000 0.500000
O O6 0.422452 0.738860 0.623363
O O7 0.752915 0.383618 0.577137
O O8 0.311666 0.792930 0.090699
O O9 0.573590 0.616323 0.095737
O O10 0.896296 0.356269 0.134819
O O11 0.762784 0.292035 0.880731
O O12 0.057393 0.049106 0.576907
O O13 0.291090 0.997078 0.615993
O O14 0.385679 0.252373 0.334702
O O15 0.000000 0.000000 0.000000
#
# Coordination Sequence:
#
# PCOD9066468 Si02
#       7
#     2   2   2   2   2   2   2
#     4  11  28  51  77 114 154 196 256 323 381 458
#     4  12  24  44  67  99 141 187 239 289 353 439
#     4  11  25  46  68 103 143 192 245 299 375 446
#     4  12  26  44  71 102 141 190 239 295 368 443
#     4  12  26  50  78 114 154 197 256 316 382 456
#     4  11  26  50  79 111 150 205 252 316 391 450
#     4  11  26  43  69 104 148 191 240 313 364 444
#
# _framework density 28.155069000000001
#
# number of rings (size 3 to 8) (size 9 to 14) (size 15 to 20)
#    0.000    0.571    2.857    3.857    6.000    3.429 
#    2.571    0.000    0.000    0.000    0.000    0.000 
#    0.000    0.000    0.000    0.000    0.000    0.000 
#
# Total GULP energy -78191.275233 kJ/mol
# GULP energy per Si atom -5585.091088 kJ/mol
# Density = 2.809099 g / cm^3
# Si number density = 28.155069 Si / 1000 Ang^3
#
#
#
# Elastic Constant Matrix: (Units=GPa)
#
#
# Indices 1 2 3 4 5 6 
#
# 1 96.2555 -3.1375 52.7181 11.2446 29.4986 6.3220
# 2 -3.1375 95.1283 23.9150 11.4567 -2.9765 0.2668
# 3 52.7181 23.9150 188.0840 20.0259 5.4086 25.7736
# 4 11.2446 11.4567 20.0259 31.6813 11.2642 6.5484
# 5 29.4986 -2.9765 5.4086 11.2642 49.0793 12.9555
# 6 6.3220 0.2668 25.7736 6.5484 12.9555 49.3097
#
#
#
# Elastic Compliance Matrix: (Units=1/GPa)
#
#
# Indices 1 2 3 4 5 6 
#
# 1 0.015802 0.001439 -0.004709 -0.000359 -0.009600 0.002997
# 2 0.001439 0.011469 -0.001573 -0.004106 0.000699 0.000937
# 3 -0.004709 -0.001573 0.007591 -0.003041 0.003627 -0.003905
# 4 -0.000359 -0.004106 -0.003041 0.038258 -0.008140 -0.001285
# 5 -0.009600 0.000699 0.003627 -0.008140 0.029600 -0.007365
# 6 0.002997 0.000937 -0.003905 -0.001285 -0.007365 0.024037
#
#
# Mechanical properties :
#
#
# Convention : Reuss Voigt Hill
#
# Bulk Modulus (GPa) = 39.71845 58.49544 49.10694
# Shear Modulus (GPa) = 34.52216 46.41219 40.46718
#
# Velocity S-wave (km/s) = 3.50543 4.06451 3.79528
# Velocity P-wave (km/s) = 5.52465 6.54586 6.05682
#
# Compressibility (1/GPa) = 0.02517722
#
# Stress axis : x y z
#
# Youngs Moduli (GPa) = 63.28329 87.19309 131.73352
#
# Poissons Ratio (x) = -0.12550 0.62028
# Poissons Ratio (y) = -0.09109 0.20722
# Poissons Ratio (z) = 0.29798 0.13716
#
# Static dielectric constant tensor:
#      x y z
#    x 2.953020 -0.305450 -0.042820 
#    y -0.305450 2.340980 0.119720 
#    z -0.042820 0.119720 2.374760 
# 
# From -- ./inp_files/37678.got.cif
#   From: 2010.05.17/outbox.cif.g08.bks.cpg/sg2_19_cif.got.tgz:37678.got - 2010.06.03 11:33:40.
