data_PCOD9066909
_publ_section_title
;
Structure prediction by ZEFSAII (Michael W. Deem and Ramdas Pophale) SiO2 
 PCOD9066909
Probable space group: P -1
;
_chemical_formula_sum "Si O2"
_cell_formula_units_Z 14
_cell_length_a 9.986665
_cell_length_b 9.510856
_cell_length_c 12.559465
_cell_angle_alpha 48.943739
_cell_angle_beta 122.691442
_cell_angle_gamma 136.376819
_cell_volume 615.790783
_symmetry_space_group_name_H-M "P -1"
_symmetry_group_IT_number 2
_symmetry_cell_setting 'triclinic'
loop_
_space_group_symop_operation_xyz
x,y,z
-x,-y,-z
loop_
_atom_site_type_symbol
_atom_site_label
_atom_site_fract_x
_atom_site_fract_y
_atom_site_fract_z
Si Si1 0.823674 0.505360 0.960953
Si Si2 0.085558 0.875519 0.048013
Si Si3 0.194136 0.230758 0.516419
Si Si4 0.561123 0.215948 0.350487
Si Si5 0.521484 0.734387 0.924807
Si Si6 0.995713 0.509393 0.624851
Si Si7 0.511581 0.475738 0.689123
O O1 0.669804 0.458637 0.827875
O O2 0.679803 0.334600 0.076013
O O3 0.000000 0.500000 0.000000
O O4 0.947687 0.750351 0.949654
O O5 0.070525 0.698950 0.217226
O O6 0.307514 0.084334 0.013445
O O7 0.000000 0.000000 0.000000
O O8 0.322545 0.251290 0.664018
O O9 0.355185 0.343225 0.436365
O O10 0.124065 0.389728 0.442178
O O11 0.000000 0.000000 0.500000
O O12 0.424978 0.140407 0.227306
O O13 0.773536 0.321142 0.342769
O O14 0.556006 0.404704 0.320334
O O15 0.500000 0.000000 0.500000
O O16 0.500000 0.500000 0.000000
O O17 0.000000 0.500000 0.500000
#
# Coordination Sequence:
#
# PCOD9066909 Si02
#       7
#     2   2   2   2   2   2   2
#     4  12  27  50  73 109 152 200 261 316 378 459
#     4  12  25  46  79 108 152 199 257 319 377 454
#     4  11  26  48  72 107 155 196 246 315 388 458
#     4  12  23  43  75 113 147 190 249 311 377 451
#     4  12  24  47  76 108 147 200 253 311 381 456
#     4  12  24  45  75 113 150 193 257 315 376 456
#     4  11  25  47  72 105 150 194 250 310 383 451
#
# _framework density 22.734995999999999
#
# number of rings (size 3 to 8) (size 9 to 14) (size 15 to 20)
#    0.000    0.286    5.714    2.571    0.000    2.857 
#    2.571    0.000    0.000    0.000    0.000    0.000 
#    0.000    0.000    0.000    0.000    0.000    0.000 
#
# Total GULP energy -78096.770026 kJ/mol
# GULP energy per Si atom -5578.340716 kJ/mol
# Density = 2.268325 g / cm^3
# Si number density = 22.734996 Si / 1000 Ang^3
#
#
#
# Elastic Constant Matrix: (Units=GPa)
#
#
# Indices 1 2 3 4 5 6 
#
# 1 108.3742 21.6811 16.9264 6.0296 14.5744 16.6369
# 2 21.6811 128.3451 40.2070 35.1393 11.3549 31.1920
# 3 16.9264 40.2070 130.7714 25.1234 10.9344 0.4733
# 4 6.0296 35.1393 25.1234 44.6127 2.0876 1.3451
# 5 14.5744 11.3549 10.9344 2.0876 33.1902 1.8730
# 6 16.6369 31.1920 0.4733 1.3451 1.8730 40.7810
#
#
#
# Elastic Compliance Matrix: (Units=1/GPa)
#
#
# Indices 1 2 3 4 5 6 
#
# 1 0.010579 0.000031 -0.000901 -0.000631 -0.004087 -0.004121
# 2 0.000031 0.013631 -0.002178 -0.009081 -0.002825 -0.009984
# 3 -0.000901 -0.002178 0.009217 -0.003332 -0.001806 0.002119
# 4 -0.000631 -0.009081 -0.003332 0.031244 0.002172 0.006112
# 5 -0.004087 -0.002825 -0.001806 0.002172 0.033222 0.002251
# 6 -0.004121 -0.009984 0.002119 0.006112 0.002251 0.033509
#
#
# Mechanical properties :
#
#
# Convention : Reuss Voigt Hill
#
# Bulk Modulus (GPa) = 36.58833 58.34665 47.46749
# Shear Modulus (GPa) = 34.10447 42.96188 38.53317
#
# Velocity S-wave (km/s) = 3.87730 4.35176 4.12136
# Velocity P-wave (km/s) = 6.01439 7.13932 6.60087
#
# Compressibility (1/GPa) = 0.02733112
#
# Stress axis : x y z
#
# Youngs Moduli (GPa) = 94.52589 73.36054 108.49826
#
# Poissons Ratio (x) = -0.00227 0.09774
# Poissons Ratio (y) = -0.00293 0.23632
# Poissons Ratio (z) = 0.08516 0.15979
#
# Static dielectric constant tensor:
#      x y z
#    x 1.782770 0.033670 -0.034820 
#    y 0.033670 1.876420 0.022150 
#    z -0.034820 0.022150 1.914280 
# 
# From -- ./inp_files/381499.got.cif
#   From: 2010.05.17/outbox.cif.g08.bks.cpg/sg2_191_cif.got.tgz:381499.got - 2010.06.03 11:33:40.
