data_PCOD9066678
_publ_section_title
;
Structure prediction by ZEFSAII (Michael W. Deem and Ramdas Pophale) SiO2 
 PCOD9066678
Probable space group: P -1
;
_chemical_formula_sum "Si O2"
_cell_formula_units_Z 14
_cell_length_a 11.657717
_cell_length_b 11.277147
_cell_length_c 8.640155
_cell_angle_alpha 78.550547
_cell_angle_beta 151.523714
_cell_angle_gamma 104.156833
_cell_volume 524.802321
_symmetry_space_group_name_H-M "P -1"
_symmetry_group_IT_number 2
_symmetry_cell_setting 'triclinic'
loop_
_space_group_symop_operation_xyz
x,y,z
-x,-y,-z
loop_
_atom_site_type_symbol
_atom_site_label
_atom_site_fract_x
_atom_site_fract_y
_atom_site_fract_z
Si Si1 0.198715 0.142217 0.277025
Si Si2 0.786950 0.998409 0.374716
Si Si3 0.306558 0.769779 0.644240
Si Si4 0.329332 0.373032 0.798102
Si Si5 0.827610 0.632095 0.036339
Si Si6 0.900910 0.405762 0.043947
Si Si7 0.338351 0.845685 0.340718
O O1 0.439119 0.090696 0.513760
O O2 0.206902 0.115442 0.475297
O O3 0.233324 0.273821 0.193223
O O4 0.908177 0.100381 0.924703
O O5 0.843486 0.128321 0.496582
O O6 0.000000 0.000000 0.500000
O O7 0.500000 0.000000 0.000000
O O8 0.445183 0.822447 0.641397
O O9 0.121284 0.656243 0.387563
O O10 0.485951 0.723121 0.990390
O O11 0.231049 0.343178 0.862693
O O12 0.117000 0.377909 0.421331
O O13 0.500000 0.500000 0.000000
O O14 0.738738 0.490739 0.925219
O O15 0.765746 0.280180 0.843424
O O16 0.000000 0.500000 0.000000
#
# Coordination Sequence:
#
# PCOD9066678 Si02
#       7
#     2   2   2   2   2   2   2
#     4  11  25  49  77 109 159 203 264 330 389 466
#     4  12  31  53  78 118 154 205 273 334 401 466
#     4  11  26  49  78 108 160 206 263 328 401 467
#     4  12  25  46  74 112 158 210 259 320 390 473
#     4  11  25  46  73 114 156 207 260 317 395 468
#     4  12  24  44  71 116 163 207 258 315 383 481
#     4  11  25  47  78 118 156 205 263 314 403 464
#
# _framework density 26.676711000000001
#
# number of rings (size 3 to 8) (size 9 to 14) (size 15 to 20)
#    0.000    0.571    5.714    1.286    4.000    5.714 
#    0.000    0.000    0.000    0.000    0.000    0.000 
#    0.000    0.000    0.000    0.000    0.000    0.000 
#
# Total GULP energy -78196.751738 kJ/mol
# GULP energy per Si atom -5585.482267 kJ/mol
# Density = 2.661599 g / cm^3
# Si number density = 26.676711 Si / 1000 Ang^3
#
#
#
# Elastic Constant Matrix: (Units=GPa)
#
#
# Indices 1 2 3 4 5 6 
#
# 1 174.3195 58.6822 69.6386 -6.3102 8.9928 9.8748
# 2 58.6822 137.3671 78.1331 4.4349 -9.7435 -4.5391
# 3 69.6386 78.1331 184.0816 -26.1512 -8.0990 13.5316
# 4 -6.3102 4.4349 -26.1512 50.9051 14.9130 -1.6848
# 5 8.9928 -9.7435 -8.0990 14.9130 44.1520 -2.9368
# 6 9.8748 -4.5391 13.5316 -1.6848 -2.9368 45.9575
#
#
#
# Elastic Compliance Matrix: (Units=1/GPa)
#
#
# Indices 1 2 3 4 5 6 
#
# 1 0.007527 -0.002600 -0.001596 0.001134 -0.002885 -0.001547
# 2 -0.002600 0.011601 -0.004680 -0.004825 0.004072 0.003166
# 3 -0.001596 -0.004680 0.008878 0.004956 -0.000927 -0.002611
# 4 0.001134 -0.004825 0.004956 0.025348 -0.009070 -0.001830
# 5 -0.002885 0.004072 -0.000927 -0.009070 0.027208 0.002701
# 6 -0.001547 0.003166 -0.002611 -0.001830 0.002701 0.023278
#
#
# Mechanical properties :
#
#
# Convention : Reuss Voigt Hill
#
# Bulk Modulus (GPa) = 97.51824 100.96400 99.24112
# Shear Modulus (GPa) = 39.99672 47.49053 43.74363
#
# Velocity S-wave (km/s) = 3.87630 4.22385 4.05380
# Velocity P-wave (km/s) = 7.52789 7.85603 7.69371
#
# Compressibility (1/GPa) = 0.01025449
#
# Stress axis : x y z
#
# Youngs Moduli (GPa) = 132.85505 86.19651 112.64343
#
# Poissons Ratio (x) = 0.22411 0.17979
# Poissons Ratio (y) = 0.34543 0.52713
# Poissons Ratio (z) = 0.21205 0.40337
#
# Static dielectric constant tensor:
#      x y z
#    x 2.189530 -0.069050 0.047400 
#    y -0.069050 2.242650 0.048380 
#    z 0.047400 0.048380 2.116270 
# 
# From -- ./inp_files/262431.got.cif
#   From: 2010.05.17/outbox.cif.g08.bks.cpg/sg2_132_cif.got.tgz:262431.got - 2010.06.03 11:33:40.
