data_PCOD9066730
_publ_section_title
;
Structure prediction by ZEFSAII (Michael W. Deem and Ramdas Pophale) SiO2 
 PCOD9066730
Probable space group: P -1
;
_chemical_formula_sum "Si O2"
_cell_formula_units_Z 14
_cell_length_a 5.666665
_cell_length_b 11.725883
_cell_length_c 11.238125
_cell_angle_alpha 59.290573
_cell_angle_beta 123.715592
_cell_angle_gamma 117.370493
_cell_volume 517.557071
_symmetry_space_group_name_H-M "P -1"
_symmetry_group_IT_number 2
_symmetry_cell_setting 'triclinic'
loop_
_space_group_symop_operation_xyz
x,y,z
-x,-y,-z
loop_
_atom_site_type_symbol
_atom_site_label
_atom_site_fract_x
_atom_site_fract_y
_atom_site_fract_z
Si Si1 0.175455 0.183002 0.034156
Si Si2 0.405345 0.786930 0.516606
Si Si3 0.665406 0.086270 0.317653
Si Si4 0.238561 0.026437 0.828987
Si Si5 0.814048 0.697096 0.281013
Si Si6 0.850176 0.540956 0.052905
Si Si7 0.347955 0.453237 0.354394
O O1 0.507964 0.177663 0.140862
O O2 0.024078 0.036673 0.122127
O O3 0.110129 0.231418 0.861945
O O4 0.083389 0.295413 0.027712
O O5 0.312962 0.826826 0.600967
O O6 0.111934 0.690244 0.430104
O O7 0.643103 0.698140 0.606597
O O8 0.502868 0.932477 0.399000
O O9 0.860889 0.042861 0.290356
O O10 0.305019 0.188500 0.741424
O O11 0.500000 0.000000 0.000000
O O12 0.567519 0.559788 0.273355
O O13 0.031921 0.486464 0.236743
O O14 0.500000 0.500000 0.000000
O O15 0.000000 0.500000 0.000000
O O16 0.500000 0.500000 0.500000
#
# Coordination Sequence:
#
# PCOD9066730 Si02
#       7
#     2   2   2   2   2   2   2
#     4  12  25  47  76 111 153 202 274 332 409 474
#     4  11  25  49  73 116 169 214 268 334 424 493
#     4  11  25  46  74 115 162 208 266 339 412 491
#     4  12  23  42  75 114 152 203 269 332 406 481
#     4  12  24  47  79 117 159 215 278 342 406 497
#     4  12  29  52  81 120 163 218 277 347 417 492
#     4  12  27  51  80 120 161 220 278 335 419 510
#
# _framework density 27.050153999999999
#
# number of rings (size 3 to 8) (size 9 to 14) (size 15 to 20)
#    0.000    0.286    2.857    6.000    2.000    2.857 
#    2.571    0.000    0.000    0.000    0.000    0.000 
#    0.000    0.000    0.000    0.000    0.000    0.000 
#
# Total GULP energy -78258.322419 kJ/mol
# GULP energy per Si atom -5589.880173 kJ/mol
# Density = 2.698859 g / cm^3
# Si number density = 27.050154 Si / 1000 Ang^3
#
#
#
# Elastic Constant Matrix: (Units=GPa)
#
#
# Indices 1 2 3 4 5 6 
#
# 1 106.1766 36.8647 53.5571 12.7995 -9.2956 -11.5956
# 2 36.8647 133.2987 40.3675 -20.6919 -6.1203 -19.4251
# 3 53.5571 40.3675 92.4122 -0.9095 16.2524 1.0333
# 4 12.7995 -20.6919 -0.9095 54.9710 -14.7197 -0.5241
# 5 -9.2956 -6.1203 16.2524 -14.7197 59.6264 1.0148
# 6 -11.5956 -19.4251 1.0333 -0.5241 1.0148 36.1216
#
#
#
# Elastic Compliance Matrix: (Units=1/GPa)
#
#
# Indices 1 2 3 4 5 6 
#
# 1 0.015829 -0.001140 -0.009476 -0.003135 0.004082 0.004579
# 2 -0.001140 0.011101 -0.004815 0.005356 0.003499 0.005721
# 3 -0.009476 -0.004815 0.019807 -0.001373 -0.007607 -0.006004
# 4 -0.003135 0.005356 -0.001373 0.022531 0.005962 0.002073
# 5 0.004082 0.003499 -0.007607 0.005962 0.021263 0.002899
# 6 0.004579 0.005721 -0.006004 0.002073 0.002899 0.032351
#
#
# Mechanical properties :
#
#
# Convention : Reuss Voigt Hill
#
# Bulk Modulus (GPa) = 62.98738 65.94067 64.46402
# Shear Modulus (GPa) = 31.43945 43.55035 37.49490
#
# Velocity S-wave (km/s) = 3.41290 4.01682 3.72711
# Velocity P-wave (km/s) = 6.23430 6.77814 6.51190
#
# Compressibility (1/GPa) = 0.01587620
#
# Stress axis : x y z
#
# Youngs Moduli (GPa) = 63.17498 90.08044 50.48615
#
# Poissons Ratio (x) = 0.10269 0.47838
# Poissons Ratio (y) = 0.07202 0.24310
# Poissons Ratio (z) = 0.59862 0.43375
#
# Static dielectric constant tensor:
#      x y z
#    x 2.643330 0.105680 0.369330 
#    y 0.105680 2.434300 0.084170 
#    z 0.369330 0.084170 2.446570 
# 
# From -- ./inp_files/363966.got.cif
#   From: 2010.05.17/outbox.cif.g08.bks.cpg/sg2_182_cif.got.tgz:363966.got - 2010.06.03 11:33:40.
