data_PCOD9066541
_publ_section_title
;
Structure prediction by ZEFSAII (Michael W. Deem and Ramdas Pophale) SiO2 
 PCOD9066541
Probable space group: P -1
;
_chemical_formula_sum "Si O2"
_cell_formula_units_Z 16
_cell_length_a 17.753608
_cell_length_b 14.246752
_cell_length_c 4.900511
_cell_angle_alpha 109.966750
_cell_angle_beta 113.463324
_cell_angle_gamma 31.793706
_cell_volume 599.033295
_symmetry_space_group_name_H-M "P -1"
_symmetry_group_IT_number 2
_symmetry_cell_setting 'triclinic'
loop_
_space_group_symop_operation_xyz
x,y,z
-x,-y,-z
loop_
_atom_site_type_symbol
_atom_site_label
_atom_site_fract_x
_atom_site_fract_y
_atom_site_fract_z
Si Si1 0.950776 0.759449 0.387853
Si Si2 0.745500 0.379130 0.939478
Si Si3 0.750084 0.590737 0.216734
Si Si4 0.719040 0.826920 0.094179
Si Si5 0.963219 0.940598 0.211566
Si Si6 0.557272 0.071321 0.628255
Si Si7 0.428311 0.495038 0.676614
Si Si8 0.290964 0.894292 0.235437
O O1 0.864016 0.746491 0.163656
O O2 0.979464 0.817020 0.264786
O O3 0.099190 0.576945 0.569065
O O4 0.835624 0.928546 0.593358
O O5 0.657189 0.397459 0.619827
O O6 0.915923 0.181774 0.972803
O O7 0.724736 0.513533 0.939429
O O8 0.687995 0.438526 0.221948
O O9 0.757434 0.680649 0.126130
O O10 0.610781 0.741931 0.363747
O O11 0.615445 0.986641 0.327453
O O12 0.622899 0.922937 0.779140
O O13 0.000000 0.000000 0.500000
O O14 0.794726 0.108415 0.041005
O O15 0.643340 0.087234 0.848079
O O16 0.565419 0.287666 0.584977
O O17 0.500000 0.500000 0.000000
#
# Coordination Sequence:
#
# PCOD9066541 Si02
#       8
#     2   2   2   2   2   2   2   2
#     4  11  26  48  70 108 153 195 251 303 377 445
#     4  12  28  48  74 113 146 193 251 306 374 441
#     4  12  25  48  75 110 150 195 248 314 371 449
#     4  11  26  48  76 109 147 200 249 305 378 445
#     4  12  27  47  75 106 151 199 247 309 374 451
#     4  11  25  46  73 108 148 195 245 308 371 443
#     4  12  28  49  78 108 148 194 252 311 376 440
#     4  11  25  46  71 103 149 193 241 310 370 443
#
# _framework density 26.709699000000001
#
# number of rings (size 3 to 8) (size 9 to 14) (size 15 to 20)
#    0.000    0.500    3.750    3.000    7.000    2.500 
#    0.000    2.500    0.000    0.000    0.000    0.000 
#    0.000    0.000    0.000    0.000    0.000    0.000 
#
# Total GULP energy -89740.738486 kJ/mol
# GULP energy per Si atom -5608.796155 kJ/mol
# Density = 2.664891 g / cm^3
# Si number density = 26.709699 Si / 1000 Ang^3
#
#
#
# Elastic Constant Matrix: (Units=GPa)
#
#
# Indices 1 2 3 4 5 6 
#
# 1 147.1644 58.8296 26.8951 7.3992 -3.3898 -7.7983
# 2 58.8296 168.3282 36.5153 -10.8667 -12.5972 -31.1367
# 3 26.8951 36.5153 99.1470 2.9697 -7.6147 -17.2029
# 4 7.3992 -10.8667 2.9697 36.8930 9.2497 4.8498
# 5 -3.3898 -12.5972 -7.6147 9.2497 46.0855 -1.9188
# 6 -7.7983 -31.1367 -17.2029 4.8498 -1.9188 46.6180
#
#
#
# Elastic Compliance Matrix: (Units=1/GPa)
#
#
# Indices 1 2 3 4 5 6 
#
# 1 0.008260 -0.002910 -0.001230 -0.002324 0.000043 -0.000772
# 2 -0.002910 0.008346 -0.001469 0.002191 0.001567 0.004382
# 3 -0.001230 -0.001469 0.011779 -0.002095 0.002019 0.003461
# 4 -0.002324 0.002191 -0.002095 0.030332 -0.006135 -0.003107
# 5 0.000043 0.001567 0.002019 -0.006135 0.023838 0.003418
# 6 -0.000772 0.004382 0.003461 -0.003107 0.003418 0.025989
#
#
# Mechanical properties :
#
#
# Convention : Reuss Voigt Hill
#
# Bulk Modulus (GPa) = 58.25227 73.23551 65.74389
# Shear Modulus (GPa) = 39.84564 45.41260 42.62912
#
# Velocity S-wave (km/s) = 3.86658 4.12786 3.99935
# Velocity P-wave (km/s) = 6.46457 7.08502 6.78189
#
# Compressibility (1/GPa) = 0.01716671
#
# Stress axis : x y z
#
# Youngs Moduli (GPa) = 121.06589 119.82291 84.89593
#
# Poissons Ratio (x) = 0.34863 0.10443
# Poissons Ratio (y) = 0.35225 0.12475
# Poissons Ratio (z) = 0.14892 0.17607
#
# Static dielectric constant tensor:
#      x y z
#    x 2.185560 0.027690 0.082400 
#    y 0.027690 2.024110 0.011640 
#    z 0.082400 0.011640 2.104880 
# 
# From -- ./inp_files/111002.got.cif
#   From: 2010.05.17/outbox.cif.g08.bks.cpg/sg2_56_cif.got.tgz:111002.got - 2010.06.03 11:33:40.
