data_PCOD9066117
_publ_section_title
;
Structure prediction by ZEFSAII (Michael W. Deem and Ramdas Pophale) SiO2 
 PCOD9066117
Probable space group: P -1
;
_chemical_formula_sum "Si O2"
_cell_formula_units_Z 16
_cell_length_a 12.412117
_cell_length_b 14.136993
_cell_length_c 5.689018
_cell_angle_alpha 52.243037
_cell_angle_beta 87.674167
_cell_angle_gamma 69.655304
_cell_volume 719.733061
_symmetry_space_group_name_H-M "P -1"
_symmetry_group_IT_number 2
_symmetry_cell_setting 'triclinic'
loop_
_space_group_symop_operation_xyz
x,y,z
-x,-y,-z
loop_
_atom_site_type_symbol
_atom_site_label
_atom_site_fract_x
_atom_site_fract_y
_atom_site_fract_z
Si Si1 0.489767 0.075968 0.135940
Si Si2 0.940178 0.567795 0.149611
Si Si3 0.676751 0.637464 0.205391
Si Si4 0.101365 0.947607 0.262323
Si Si5 0.728124 0.362734 0.783215
Si Si6 0.019939 0.795567 0.836018
Si Si7 0.468248 0.644061 0.877479
Si Si8 0.648506 0.190353 0.755192
O O1 0.500000 0.000000 0.500000
O O2 0.370802 0.212199 0.933655
O O3 0.598081 0.122321 0.053713
O O4 0.500000 0.000000 0.000000
O O5 0.802992 0.592580 0.135270
O O6 0.000000 0.500000 0.500000
O O7 0.000000 0.500000 0.000000
O O8 0.952871 0.704632 0.935153
O O9 0.696610 0.516983 0.565665
O O10 0.570648 0.637597 0.052767
O O11 0.085176 0.824964 0.564225
O O12 0.228775 0.911587 0.199462
O O13 0.069045 0.064293 0.274731
O O14 0.000000 0.000000 0.000000
O O15 0.672939 0.315945 0.640501
O O16 0.868446 0.281951 0.887031
O O17 0.661376 0.319052 0.057310
O O18 0.452361 0.751266 0.519144
O O19 0.500000 0.500000 0.000000
#
# Coordination Sequence:
#
# PCOD9066117 Si02
#       8
#     2   2   2   2   2   2   2   2
#     4  12  30  52  74 107 158 210 258 309 381 476
#     4  12  31  51  79 111 158 206 256 320 392 470
#     4  12  27  51  77 114 152 208 257 319 395 464
#     4  11  25  44  77 108 150 202 257 321 386 462
#     4  12  23  45  77 114 145 184 262 328 384 446
#     4  11  26  47  74 113 152 203 260 318 391 456
#     4  12  24  41  76 111 147 191 246 327 387 443
#     4  12  25  45  76 110 152 196 260 325 386 454
#
# _framework density 22.230464999999999
#
# number of rings (size 3 to 8) (size 9 to 14) (size 15 to 20)
#    0.000    0.250    6.250    1.875    7.000    3.000 
#    0.000    0.000    0.000    0.000    0.000    0.000 
#    0.000    0.000    0.000    0.000    0.000    0.000 
#
# Total GULP energy -89342.245241 kJ/mol
# GULP energy per Si atom -5583.890328 kJ/mol
# Density = 2.217987 g / cm^3
# Si number density = 22.230465 Si / 1000 Ang^3
#
#
#
# Elastic Constant Matrix: (Units=GPa)
#
#
# Indices 1 2 3 4 5 6 
#
# 1 112.4161 27.1004 30.5166 -6.0587 -25.0863 -17.4434
# 2 27.1004 102.3637 28.8336 -2.4256 -15.6895 -8.3063
# 3 30.5166 28.8336 121.9416 -8.3129 -21.8458 -5.4442
# 4 -6.0587 -2.4256 -8.3129 28.4998 1.6751 -3.0337
# 5 -25.0863 -15.6895 -21.8458 1.6751 39.6972 -2.3566
# 6 -17.4434 -8.3063 -5.4442 -3.0337 -2.3566 43.9372
#
#
#
# Elastic Compliance Matrix: (Units=1/GPa)
#
#
# Indices 1 2 3 4 5 6 
#
# 1 0.011850 -0.001383 -0.001104 0.002208 0.006527 0.004809
# 2 -0.001383 0.011158 -0.001738 0.000152 0.002662 0.001498
# 3 -0.001104 -0.001738 0.009792 0.002328 0.003954 0.000819
# 4 0.002208 0.000152 0.002328 0.036570 0.001418 0.003795
# 5 0.006527 0.002662 0.003954 0.001418 0.032806 0.005442
# 6 0.004809 0.001498 0.000819 0.003795 0.005442 0.025607
#
#
# Mechanical properties :
#
#
# Convention : Reuss Voigt Hill
#
# Bulk Modulus (GPa) = 41.06969 56.62474 48.84721
# Shear Modulus (GPa) = 34.63774 39.11157 36.87466
#
# Velocity S-wave (km/s) = 3.95159 4.19903 4.07719
# Velocity P-wave (km/s) = 6.27173 7.00258 6.64721
#
# Compressibility (1/GPa) = 0.02434886
#
# Stress axis : x y z
#
# Youngs Moduli (GPa) = 84.38555 89.62131 102.12841
#
# Poissons Ratio (x) = 0.12399 0.11275
# Poissons Ratio (y) = 0.11674 0.17751
# Poissons Ratio (z) = 0.09317 0.15577
#
# Static dielectric constant tensor:
#      x y z
#    x 1.695650 -0.113020 -0.064740 
#    y -0.113020 1.746810 -0.046510 
#    z -0.064740 -0.046510 1.816150 
# 
# From -- ./inp_files/76976.got.cif
#   From: 2010.05.17/outbox.cif.g08.bks.cpg/sg2_39_cif.got.tgz:76976.got - 2010.06.03 11:33:40.
