data_PCOD9066987
_publ_section_title
;
Structure prediction by ZEFSAII (Michael W. Deem and Ramdas Pophale) SiO2 
 PCOD9066987
Probable space group: P -1
;
_chemical_formula_sum "Si O2"
_cell_formula_units_Z 12
_cell_length_a 12.264848
_cell_length_b 7.357259
_cell_length_c 6.374921
_cell_angle_alpha 60.906274
_cell_angle_beta 74.522395
_cell_angle_gamma 67.948948
_cell_volume 463.362613
_symmetry_space_group_name_H-M "P -1"
_symmetry_group_IT_number 2
_symmetry_cell_setting 'triclinic'
loop_
_space_group_symop_operation_xyz
x,y,z
-x,-y,-z
loop_
_atom_site_type_symbol
_atom_site_label
_atom_site_fract_x
_atom_site_fract_y
_atom_site_fract_z
Si Si1 0.347527 0.653127 0.141539
Si Si2 0.854418 0.292070 0.470211
Si Si3 0.501178 0.238389 0.652165
Si Si4 0.659076 0.963008 0.385618
Si Si5 0.118334 0.186981 0.433091
Si Si6 0.293671 0.359572 0.976908
O O1 0.218920 0.713226 0.279532
O O2 0.440489 0.606962 0.317059
O O3 0.346040 0.477371 0.065473
O O4 0.362720 0.853370 0.883541
O O5 0.770479 0.467327 0.262287
O O6 0.982012 0.323434 0.433425
O O7 0.878435 0.060332 0.474346
O O8 0.415308 0.204375 0.524638
O O9 0.409349 0.201417 0.898401
O O10 0.619123 0.082453 0.564291
O O11 0.797197 0.830160 0.399225
O O12 0.191580 0.268903 0.171516
#
# Coordination Sequence:
#
# PCOD9066987 Si02
#       6
#     2   2   2   2   2   2
#     4  12  24  46  71 110 147 185 237 295 360 429
#     4  11  26  51  73 104 147 188 248 292 352 432
#     4  11  26  44  75 107 148 189 238 296 361 428
#     4  11  25  47  74 109 143 192 242 292 362 426
#     4  11  25  51  74 103 145 193 240 298 355 418
#     4  12  27  46  74 111 145 188 238 297 360 429
#
# _framework density 25.897642999999999
#
# number of rings (size 3 to 8) (size 9 to 14) (size 15 to 20)
#    0.000    0.667    3.333    2.500    7.000    4.000 
#    3.000    0.000    0.000    0.000    0.000    0.000 
#    0.000    0.000    0.000    0.000    0.000    0.000 
#
# Total GULP energy -67052.871576 kJ/mol
# GULP energy per Si atom -5587.739298 kJ/mol
# Density = 2.583870 g / cm^3
# Si number density = 25.897643 Si / 1000 Ang^3
#
#
#
# Elastic Constant Matrix: (Units=GPa)
#
#
# Indices 1 2 3 4 5 6 
#
# 1 216.1985 68.6563 72.8844 8.0848 -12.4879 -4.3837
# 2 68.6563 87.0995 32.5390 8.9507 15.5477 3.6043
# 3 72.8844 32.5390 146.6575 -13.1823 -5.1009 -28.0355
# 4 8.0848 8.9507 -13.1823 43.4941 5.6528 -0.2061
# 5 -12.4879 15.5477 -5.1009 5.6528 50.3680 1.3909
# 6 -4.3837 3.6043 -28.0355 -0.2061 1.3909 45.9178
#
#
#
# Elastic Compliance Matrix: (Units=1/GPa)
#
#
# Indices 1 2 3 4 5 6 
#
# 1 0.007448 -0.005300 -0.002663 -0.001546 0.003403 -0.000609
# 2 -0.005300 0.018219 -0.002510 -0.002656 -0.006803 -0.003274
# 3 -0.002663 -0.002510 0.010273 0.004086 0.000525 0.006217
# 4 -0.001546 -0.002656 0.004086 0.025346 -0.002070 0.002732
# 5 0.003403 -0.006803 0.000525 -0.002070 0.023070 0.000471
# 6 -0.000609 -0.003274 0.006217 0.002732 0.000471 0.025771
#
#
# Mechanical properties :
#
#
# Convention : Reuss Voigt Hill
#
# Bulk Modulus (GPa) = 66.68518 88.67943 77.68230
# Shear Modulus (GPa) = 36.74593 46.34770 41.54681
#
# Velocity S-wave (km/s) = 3.77090 4.23501 4.00968
# Velocity P-wave (km/s) = 6.69067 7.63089 7.17619
#
# Compressibility (1/GPa) = 0.01499584
#
# Stress axis : x y z
#
# Youngs Moduli (GPa) = 134.26492 54.88743 97.34509
#
# Poissons Ratio (x) = 0.29088 0.25918
# Poissons Ratio (y) = 0.71155 0.24432
# Poissons Ratio (z) = 0.35748 0.13776
#
# Static dielectric constant tensor:
#      x y z
#    x 2.027310 0.011700 0.025800 
#    y 0.011700 2.256270 -0.136520 
#    z 0.025800 -0.136520 2.080360 
# 
# From -- ./inp_files/87154.got.cif
#   From: 2010.05.17/outbox.cif.g08.bks.cpg/sg2_44_cif.got.tgz:87154.got - 2010.06.03 11:33:40.
