data_PCOD9066405
_publ_section_title
;
Structure prediction by ZEFSAII (Michael W. Deem and Ramdas Pophale) SiO2 
 PCOD9066405
Probable space group: P -1
;
_chemical_formula_sum "Si O2"
_cell_formula_units_Z 14
_cell_length_a 7.378735
_cell_length_b 21.597745
_cell_length_c 9.065200
_cell_angle_alpha 29.890586
_cell_angle_beta 116.715015
_cell_angle_gamma 126.072671
_cell_volume 575.212080
_symmetry_space_group_name_H-M "P -1"
_symmetry_group_IT_number 2
_symmetry_cell_setting 'triclinic'
loop_
_space_group_symop_operation_xyz
x,y,z
-x,-y,-z
loop_
_atom_site_type_symbol
_atom_site_label
_atom_site_fract_x
_atom_site_fract_y
_atom_site_fract_z
Si Si1 0.489805 0.855867 0.853984
Si Si2 0.329609 0.364608 0.089420
Si Si3 0.603031 0.853131 0.246512
Si Si4 0.880149 0.841768 0.833781
Si Si5 0.146497 0.843571 0.194667
Si Si6 0.825180 0.550572 0.763030
Si Si7 0.931413 0.427452 0.782043
O O1 0.676617 0.826294 0.897729
O O2 0.500000 0.000000 0.500000
O O3 0.541755 0.854443 0.049863
O O4 0.249551 0.731162 0.980429
O O5 0.349414 0.270873 0.421390
O O6 0.214368 0.260374 0.126202
O O7 0.424529 0.524586 0.105771
O O8 0.161218 0.431712 0.923817
O O9 0.385983 0.838245 0.295526
O O10 0.805280 0.004141 0.047816
O O11 0.000000 0.000000 0.500000
O O12 0.064082 0.822057 0.040451
O O13 0.954099 0.717044 0.472063
O O14 0.821328 0.502209 0.691066
O O15 0.000000 0.500000 0.000000
O O16 0.000000 0.500000 0.500000
#
# Coordination Sequence:
#
# PCOD9066405 Si02
#       7
#     2   2   2   2   2   2   2
#     4  12  28  47  76 111 155 196 259 312 379 454
#     4  12  26  50  80 110 155 196 260 313 381 450
#     4  11  25  48  76 114 144 200 251 323 373 446
#     4  12  24  47  75 110 146 202 248 314 384 446
#     4  11  25  45  77 104 156 192 258 303 387 447
#     4  12  27  48  76 111 150 204 248 313 382 447
#     4  12  29  51  76 113 156 202 252 310 382 463
#
# _framework density 24.338849
#
# number of rings (size 3 to 8) (size 9 to 14) (size 15 to 20)
#    0.000    0.286    4.286    4.286    6.000    3.429 
#    0.000    0.000    0.000    0.000    0.000    0.000 
#    0.000    0.000    0.000    0.000    0.000    0.000 
#
# Total GULP energy -78555.979995 kJ/mol
# GULP energy per Si atom -5611.141428 kJ/mol
# Density = 2.428345 g / cm^3
# Si number density = 24.338849 Si / 1000 Ang^3
#
#
#
# Elastic Constant Matrix: (Units=GPa)
#
#
# Indices 1 2 3 4 5 6 
#
# 1 144.6443 53.7040 67.4119 -17.7516 -18.5491 3.2647
# 2 53.7040 128.5557 39.9320 -18.3451 -20.2404 8.5689
# 3 67.4119 39.9320 155.8654 -11.8062 -22.9026 21.5662
# 4 -17.7516 -18.3451 -11.8062 50.7214 13.2236 -6.3635
# 5 -18.5491 -20.2404 -22.9026 13.2236 40.5658 -3.9034
# 6 3.2647 8.5689 21.5662 -6.3635 -3.9034 46.5728
#
#
#
# Elastic Compliance Matrix: (Units=1/GPa)
#
#
# Indices 1 2 3 4 5 6 
#
# 1 0.009864 -0.002779 -0.003563 0.001644 0.000745 0.001757
# 2 -0.002779 0.009862 -0.000694 0.001637 0.002642 -0.000853
# 3 -0.003563 -0.000694 0.009028 -0.000629 0.002976 -0.003640
# 4 0.001644 0.001637 -0.000629 0.022587 -0.005913 0.002466
# 5 0.000745 0.002642 0.002976 -0.005913 0.029897 -0.000219
# 6 0.001757 -0.000853 -0.003640 0.002466 -0.000219 0.023509
#
#
# Mechanical properties :
#
#
# Convention : Reuss Voigt Hill
#
# Bulk Modulus (GPa) = 68.11820 83.46236 75.79028
# Shear Modulus (GPa) = 40.41604 45.43983 42.92794
#
# Velocity S-wave (km/s) = 4.07941 4.32553 4.20427
# Velocity P-wave (km/s) = 7.08781 7.70151 7.40102
#
# Compressibility (1/GPa) = 0.01468037
#
# Stress axis : x y z
#
# Youngs Moduli (GPa) = 101.38367 101.40198 110.76679
#
# Poissons Ratio (x) = 0.28179 0.39467
# Poissons Ratio (y) = 0.28174 0.07692
# Poissons Ratio (z) = 0.36124 0.07041
#
# Static dielectric constant tensor:
#      x y z
#    x 1.937460 -0.015330 0.003440 
#    y -0.015330 1.974200 0.031190 
#    z 0.003440 0.031190 1.923390 
# 
# From -- ./inp_files/222898.got.cif
#   From: 2010.05.17/outbox.cif.g08.bks.cpg/sg2_112_cif.got.tgz:222898.got - 2010.06.03 11:33:40.
