data_PCOD9066698
_publ_section_title
;
Structure prediction by ZEFSAII (Michael W. Deem and Ramdas Pophale) SiO2 
 PCOD9066698
Probable space group: P -1
;
_chemical_formula_sum "Si O2"
_cell_formula_units_Z 12
_cell_length_a 11.234627
_cell_length_b 14.204624
_cell_length_c 5.085084
_cell_angle_alpha 83.045658
_cell_angle_beta 98.875715
_cell_angle_gamma 39.868310
_cell_volume 475.796262
_symmetry_space_group_name_H-M "P -1"
_symmetry_group_IT_number 2
_symmetry_cell_setting 'triclinic'
loop_
_space_group_symop_operation_xyz
x,y,z
-x,-y,-z
loop_
_atom_site_type_symbol
_atom_site_label
_atom_site_fract_x
_atom_site_fract_y
_atom_site_fract_z
Si Si1 0.093421 0.830384 0.348060
Si Si2 0.270893 0.615458 0.968290
Si Si3 0.300555 0.873276 0.199217
Si Si4 0.727959 0.574067 0.247813
Si Si5 0.073830 0.373792 0.861944
Si Si6 0.616375 0.965329 0.795341
O O1 0.125374 0.756416 0.655392
O O2 0.202101 0.863872 0.374542
O O3 0.088673 0.550248 0.440486
O O4 0.867132 0.997436 0.123339
O O5 0.250061 0.514881 0.952363
O O6 0.500000 0.500000 0.000000
O O7 0.204881 0.698201 0.200544
O O8 0.506180 0.694232 0.238624
O O9 0.741044 0.678620 0.166145
O O10 0.362361 0.937701 0.286600
O O11 0.165161 0.221112 0.058154
O O12 0.000000 0.500000 0.000000
O O13 0.500000 0.000000 0.500000
O O14 0.500000 0.000000 0.000000
#
# Coordination Sequence:
#
# PCOD9066698 Si02
#       6
#     2   2   2   2   2   2
#     4  11  28  49  74 107 146 195 243 297 359 431
#     4  12  26  48  75 107 145 192 244 297 361 425
#     4  11  25  49  74 105 148 192 242 298 363 430
#     4  11  25  46  74 105 147 189 242 305 358 433
#     4  11  26  46  73 108 143 192 246 296 368 429
#     4  12  27  47  74 106 145 190 237 298 366 428
#
# _framework density 25.220877000000002
#
# number of rings (size 3 to 8) (size 9 to 14) (size 15 to 20)
#    0.000    0.667    3.333    2.500    7.000    6.667 
#    3.000    0.000    0.000    0.000    0.000    0.000 
#    0.000    0.000    0.000    0.000    0.000    0.000 
#
# Total GULP energy -67205.828218 kJ/mol
# GULP energy per Si atom -5600.485685 kJ/mol
# Density = 2.516347 g / cm^3
# Si number density = 25.220877 Si / 1000 Ang^3
#
#
#
# Elastic Constant Matrix: (Units=GPa)
#
#
# Indices 1 2 3 4 5 6 
#
# 1 121.2238 37.5346 5.8484 15.0909 20.3315 21.2522
# 2 37.5346 123.4179 25.1613 8.1420 15.0129 34.2829
# 3 5.8484 25.1613 58.0600 19.0253 -8.8784 12.7784
# 4 15.0909 8.1420 19.0253 39.0906 5.6334 2.9875
# 5 20.3315 15.0129 -8.8784 5.6334 21.2654 -10.8120
# 6 21.2522 34.2829 12.7784 2.9875 -10.8120 56.2252
#
#
#
# Elastic Compliance Matrix: (Units=1/GPa)
#
#
# Indices 1 2 3 4 5 6 
#
# 1 0.012551 0.001252 -0.002506 -0.000651 -0.018012 -0.008367
# 2 0.001252 0.015942 -0.009720 0.005460 -0.024565 -0.012999
# 3 -0.002506 -0.009720 0.030145 -0.016440 0.029543 0.006577
# 4 -0.000651 0.005460 -0.016440 0.036383 -0.022594 -0.005625
# 5 -0.018012 -0.024565 0.029543 -0.022594 0.119905 0.039330
# 6 -0.008367 -0.012999 0.006577 -0.005625 0.039330 0.035241
#
#
# Mechanical properties :
#
#
# Convention : Reuss Voigt Hill
#
# Bulk Modulus (GPa) = 27.25489 48.86560 38.06025
# Shear Modulus (GPa) = 17.58420 38.92673 28.25547
#
# Velocity S-wave (km/s) = 2.64333 3.93292 3.35075
# Velocity P-wave (km/s) = 4.48846 6.32779 5.48576
#
# Compressibility (1/GPa) = 0.03669066
#
# Stress axis : x y z
#
# Youngs Moduli (GPa) = 79.67273 62.72697 33.17260
#
# Poissons Ratio (x) = -0.07853 0.08314
# Poissons Ratio (y) = -0.09975 0.32243
# Poissons Ratio (z) = 0.19969 0.60969
#
# Static dielectric constant tensor:
#      x y z
#    x 2.075280 -0.103860 -0.059030 
#    y -0.103860 2.017160 0.066170 
#    z -0.059030 0.066170 1.896960 
# 
# From -- ./inp_files/62001.got.cif
#   From: 2010.05.17/outbox.cif.g08.bks.cpg/sg2_32_cif.got.tgz:62001.got - 2010.06.03 11:33:40.
