data_PCOD9066445
_publ_section_title
;
Structure prediction by ZEFSAII (Michael W. Deem and Ramdas Pophale) SiO2 
 PCOD9066445
Probable space group: P -1
;
_chemical_formula_sum "Si O2"
_cell_formula_units_Z 15
_cell_length_a 9.084671
_cell_length_b 17.868480
_cell_length_c 5.381973
_cell_angle_alpha 128.672845
_cell_angle_beta 71.930819
_cell_angle_gamma 123.968526
_cell_volume 564.656282
_symmetry_space_group_name_H-M "P -1"
_symmetry_group_IT_number 2
_symmetry_cell_setting 'triclinic'
loop_
_space_group_symop_operation_xyz
x,y,z
-x,-y,-z
loop_
_atom_site_type_symbol
_atom_site_label
_atom_site_fract_x
_atom_site_fract_y
_atom_site_fract_z
Si Si1 0.891834 0.990367 0.787238
Si Si2 0.726907 0.283507 0.382715
Si Si3 0.592801 0.771874 0.272331
Si Si4 0.804639 0.485107 0.524672
Si Si5 0.500000 0.500000 0.500000
Si Si6 0.278660 0.362684 0.789997
Si Si7 0.919154 0.209092 0.403567
Si Si8 0.572107 0.127379 0.758723
O O1 0.717589 0.871757 0.599091
O O2 0.000000 0.000000 0.500000
O O3 0.872623 0.098786 0.049403
O O4 0.000000 0.000000 0.000000
O O5 0.610484 0.296828 0.679934
O O6 0.712247 0.353073 0.314401
O O7 0.913241 0.299411 0.410374
O O8 0.619831 0.159660 0.085442
O O9 0.659897 0.682008 0.087501
O O10 0.572270 0.837470 0.185714
O O11 0.696940 0.507484 0.415389
O O12 0.000000 0.500000 0.500000
O O13 0.786692 0.555782 0.904948
O O14 0.436976 0.421570 0.630209
O O15 0.108483 0.259836 0.542194
O O16 0.760029 0.182818 0.625346
O O17 0.500000 0.000000 0.500000
#
# Coordination Sequence:
#
# PCOD9066445 Si02
#       8
#     2   2   2   2   1   2   2   2
#     4  12  28  47  76 116 159 205 266 333 412 499
#     4  11  25  46  72 110 147 202 265 322 412 477
#     4  11  26  45  75 111 154 202 265 327 407 487
#     4  12  28  49  77 115 155 206 272 340 408 493
#     4  12  28  48  82 106 160 208 274 336 408 488
#     4  12  27  51  76 115 157 208 272 332 423 481
#     4  11  26  48  74 112 153 208 260 335 406 499
#     4  11  25  45  79 109 158 206 265 329 409 502
#
# _framework density 26.564833
#
# number of rings (size 3 to 8) (size 9 to 14) (size 15 to 20)
#    0.000    0.533    2.667    3.600    7.467    7.467 
#    0.000    0.000    0.000    0.000    0.000    0.000 
#    0.000    0.000    0.000    0.000    0.000    0.000 
#
# Total GULP energy -83560.537759 kJ/mol
# GULP energy per Si atom -5570.702517 kJ/mol
# Density = 2.650437 g / cm^3
# Si number density = 26.564833 Si / 1000 Ang^3
#
#
#
# Elastic Constant Matrix: (Units=GPa)
#
#
# Indices 1 2 3 4 5 6 
#
# 1 214.8730 56.1555 33.7032 1.1913 -20.7313 -30.3811
# 2 56.1555 65.0168 25.4133 3.6704 -13.8637 -13.1704
# 3 33.7032 25.4133 107.9949 -2.3875 -27.6958 2.9585
# 4 1.1913 3.6704 -2.3875 42.4065 -6.6585 -1.1998
# 5 -20.7313 -13.8637 -27.6958 -6.6585 43.2802 3.0861
# 6 -30.3811 -13.1704 2.9585 -1.1998 3.0861 52.6736
#
#
#
# Elastic Compliance Matrix: (Units=1/GPa)
#
#
# Indices 1 2 3 4 5 6 
#
# 1 0.006413 -0.004540 -0.000730 0.000406 0.001031 0.002554
# 2 -0.004540 0.021701 -0.003213 -0.001492 0.002290 0.002820
# 3 -0.000730 -0.003213 0.012102 0.001989 0.006832 -0.002259
# 4 0.000406 -0.001492 0.001989 0.024560 0.004765 0.000029
# 5 0.001031 0.002290 0.006832 0.004765 0.029498 -0.000836
# 6 0.002554 0.002820 -0.002259 0.000029 -0.000836 0.021339
#
#
# Mechanical properties :
#
#
# Convention : Reuss Voigt Hill
#
# Bulk Modulus (GPa) = 43.00793 68.71429 55.86111
# Shear Modulus (GPa) = 35.63090 45.84624 40.73857
#
# Velocity S-wave (km/s) = 3.66632 4.15881 3.92031
# Velocity P-wave (km/s) = 5.84359 6.99884 6.44714
#
# Compressibility (1/GPa) = 0.02325152
#
# Stress axis : x y z
#
# Youngs Moduli (GPa) = 155.93240 46.08047 82.63434
#
# Poissons Ratio (x) = 0.20918 0.06030
# Poissons Ratio (y) = 0.70786 0.26549
# Poissons Ratio (z) = 0.11378 0.14805
#
# Static dielectric constant tensor:
#      x y z
#    x 2.057420 0.057670 -0.079820 
#    y 0.057670 2.218210 0.002900 
#    z -0.079820 0.002900 1.616280 
# 
# From -- ./inp_files/49256.got.cif
#   From: 2010.05.17/outbox.cif.g08.bks.cpg/sg2_25_cif.got.tgz:49256.got - 2010.06.03 11:33:40.
