data_PCOD9066058
_publ_section_title
;
Structure prediction by ZEFSAII (Michael W. Deem and Ramdas Pophale) SiO2 
 PCOD9066058
Probable space group: P -1
;
_chemical_formula_sum "Si O2"
_cell_formula_units_Z 16
_cell_length_a 11.964520
_cell_length_b 6.816105
_cell_length_c 10.902937
_cell_angle_alpha 107.330132
_cell_angle_beta 122.203860
_cell_angle_gamma 68.686640
_cell_volume 694.756999
_symmetry_space_group_name_H-M "P -1"
_symmetry_group_IT_number 2
_symmetry_cell_setting 'triclinic'
loop_
_space_group_symop_operation_xyz
x,y,z
-x,-y,-z
loop_
_atom_site_type_symbol
_atom_site_label
_atom_site_fract_x
_atom_site_fract_y
_atom_site_fract_z
Si Si1 0.907956 0.194960 0.904996
Si Si2 0.682662 0.103857 0.865480
Si Si3 0.588585 0.954878 0.416941
Si Si4 0.276315 0.108376 0.893657
Si Si5 0.861816 0.564581 0.516054
Si Si6 0.016890 0.441586 0.817882
Si Si7 0.667255 0.262696 0.342038
Si Si8 0.434855 0.447068 0.075316
O O1 0.774512 0.097660 0.797769
O O2 0.947382 0.271497 0.810698
O O3 0.929229 0.403704 0.030432
O O4 0.000000 0.000000 0.000000
O O5 0.529773 0.087042 0.751560
O O6 0.686068 0.343755 0.945127
O O7 0.745049 0.958809 0.990714
O O8 0.729412 0.766246 0.455762
O O9 0.500000 0.000000 0.500000
O O10 0.630527 0.159659 0.425537
O O11 0.148759 0.288126 0.803638
O O12 0.305226 0.913023 0.782662
O O13 0.394873 0.228645 0.995765
O O14 0.793029 0.366633 0.439177
O O15 0.000000 0.500000 0.500000
O O16 0.917614 0.582018 0.688237
O O17 0.532302 0.432402 0.246309
O O18 0.500000 0.500000 0.000000
#
# Coordination Sequence:
#
# PCOD9066058 Si02
#       8
#     2   2   2   2   2   2   2   2
#     4  11  25  44  73 105 143 189 241 308 370 434
#     4  12  24  44  75 108 144 186 247 314 368 427
#     4  12  30  50  76 109 149 203 250 301 371 445
#     4  12  24  43  76 110 140 183 247 313 372 431
#     4  12  31  51  74 106 155 202 249 299 368 455
#     4  11  27  45  69 107 145 193 249 295 367 449
#     4  12  27  47  73 108 148 191 246 305 371 442
#     4  12  23  41  72 107 141 174 233 312 376 418
#
# _framework density 23.029633
#
# number of rings (size 3 to 8) (size 9 to 14) (size 15 to 20)
#    0.000    0.250    6.250    1.875    7.000    3.500 
#    0.000    0.000    0.000    0.000    0.000    0.000 
#    0.000    0.000    0.000    0.000    0.000    0.000 
#
# Total GULP energy -89183.585012 kJ/mol
# GULP energy per Si atom -5573.974063 kJ/mol
# Density = 2.297722 g / cm^3
# Si number density = 23.029633 Si / 1000 Ang^3
#
#
#
# Elastic Constant Matrix: (Units=GPa)
#
#
# Indices 1 2 3 4 5 6 
#
# 1 136.4785 48.3272 34.8905 -10.5477 15.2569 44.5731
# 2 48.3272 104.0855 5.3967 -10.1741 5.8530 18.8780
# 3 34.8905 5.3967 58.3092 -11.2654 11.8759 16.6696
# 4 -10.5477 -10.1741 -11.2654 42.5275 1.4970 5.3785
# 5 15.2569 5.8530 11.8759 1.4970 37.6215 -1.7291
# 6 44.5731 18.8780 16.6696 5.3785 -1.7291 34.3271
#
#
#
# Elastic Compliance Matrix: (Units=1/GPa)
#
#
# Indices 1 2 3 4 5 6 
#
# 1 0.016751 -0.002936 -0.001154 0.006040 -0.007172 -0.020883
# 2 -0.002936 0.012240 0.003288 0.003806 -0.002143 -0.005219
# 3 -0.001154 0.003288 0.025360 0.009379 -0.009091 -0.014553
# 4 0.006040 0.003806 0.009379 0.031197 -0.008153 -0.019789
# 5 -0.007172 -0.002143 -0.009091 -0.008153 0.033839 0.017888
# 6 -0.020883 -0.005219 -0.014553 -0.019789 0.017888 0.070187
#
#
# Mechanical properties :
#
#
# Convention : Reuss Voigt Hill
#
# Bulk Modulus (GPa) = 18.95853 52.90024 35.92938
# Shear Modulus (GPa) = 23.95112 36.91247 30.43180
#
# Velocity S-wave (km/s) = 3.22842 4.00787 3.63908
# Velocity P-wave (km/s) = 4.70607 6.66617 5.76996
#
# Compressibility (1/GPa) = 0.05274671
#
# Stress axis : x y z
#
# Youngs Moduli (GPa) = 59.69902 81.70240 39.43241
#
# Poissons Ratio (x) = 0.23990 0.04549
# Poissons Ratio (y) = 0.17530 -0.12966
# Poissons Ratio (z) = 0.06886 -0.26865
#
# Static dielectric constant tensor:
#      x y z
#    x 2.095600 -0.312190 -0.027980 
#    y -0.312190 2.081360 0.062370 
#    z -0.027980 0.062370 1.883350 
# 
# From -- ./inp_files/410900.got.cif
#   From: 2010.05.17/outbox.cif.g08.bks.cpg/sg2_206_cif.got.tgz:410900.got - 2010.06.03 11:33:40.
