data_PCOD9066439
_publ_section_title
;
Structure prediction by ZEFSAII (Michael W. Deem and Ramdas Pophale) SiO2 
 PCOD9066439
Probable space group: P -1
;
_chemical_formula_sum "Si O2"
_cell_formula_units_Z 13
_cell_length_a 7.932927
_cell_length_b 9.164498
_cell_length_c 10.768446
_cell_angle_alpha 63.171916
_cell_angle_beta 89.308823
_cell_angle_gamma 49.609499
_cell_volume 484.709013
_symmetry_space_group_name_H-M "P -1"
_symmetry_group_IT_number 2
_symmetry_cell_setting 'triclinic'
loop_
_space_group_symop_operation_xyz
x,y,z
-x,-y,-z
loop_
_atom_site_type_symbol
_atom_site_label
_atom_site_fract_x
_atom_site_fract_y
_atom_site_fract_z
Si Si1 0.500000 0.500000 0.500000
Si Si2 0.064428 0.605224 0.373290
Si Si3 0.920897 0.557507 0.805860
Si Si4 0.730919 0.125436 0.168792
Si Si5 0.547867 0.668546 0.157900
Si Si6 0.706710 0.206502 0.417277
Si Si7 0.129875 0.132054 0.138098
O O1 0.224885 0.625366 0.432864
O O2 0.607466 0.241706 0.541802
O O3 0.000000 0.500000 0.500000
O O4 0.192429 0.438476 0.317139
O O5 0.835109 0.874377 0.229609
O O6 0.187132 0.439462 0.809164
O O7 0.794819 0.799710 0.776951
O O8 0.968539 0.374971 0.967116
O O9 0.647613 0.176591 0.293390
O O10 0.940353 0.117586 0.167799
O O11 0.542961 0.300462 0.993373
O O12 0.573703 0.482266 0.308923
O O13 0.350301 0.914888 0.135289
O O14 0.000000 0.000000 0.500000
#
# Coordination Sequence:
#
# PCOD9066439 Si02
#       7
#     1   2   2   2   2   2   2
#     4  12  28  54  84 104 164 228 256 324 424 466
#     4  12  28  53  80 119 164 212 277 334 395 501
#     4  11  26  47  75 122 162 199 274 338 399 480
#     4  12  26  49  82 118 160 212 272 336 398 486
#     4  12  25  48  79 115 161 209 266 336 410 464
#     4  12  27  48  78 117 158 213 277 326 398 497
#     4  11  25  45  78 119 162 204 265 339 400 484
#
# _framework density 26.820217
#
# number of rings (size 3 to 8) (size 9 to 14) (size 15 to 20)
#    0.000    0.308    4.615    3.231    2.154    1.231 
#    0.000    0.769    0.000    0.000    0.000    0.000 
#    0.000    0.000    0.000    0.000    0.000    0.000 
#
# Total GULP energy -72676.994905 kJ/mol
# GULP energy per Si atom -5590.538070 kJ/mol
# Density = 2.675917 g / cm^3
# Si number density = 26.820217 Si / 1000 Ang^3
#
#
#
# Elastic Constant Matrix: (Units=GPa)
#
#
# Indices 1 2 3 4 5 6 
#
# 1 109.3667 23.0863 26.7822 -2.3987 -12.3244 16.0065
# 2 23.0863 227.3870 45.3941 13.0253 1.5444 11.7037
# 3 26.7822 45.3941 103.9520 -0.1515 5.9154 31.9201
# 4 -2.3987 13.0253 -0.1515 61.3144 23.4480 6.3189
# 5 -12.3244 1.5444 5.9154 23.4480 53.6579 4.6869
# 6 16.0065 11.7037 31.9201 6.3189 4.6869 57.3304
#
#
#
# Elastic Compliance Matrix: (Units=1/GPa)
#
#
# Indices 1 2 3 4 5 6 
#
# 1 0.010351 -0.000546 -0.002032 -0.000428 0.002965 -0.001842
# 2 -0.000546 0.004939 -0.002190 -0.001319 0.000509 0.000468
# 3 -0.002032 -0.002190 0.013175 0.001886 -0.002125 -0.006355
# 4 -0.000428 -0.001319 0.001886 0.020207 -0.008910 -0.002160
# 5 0.002965 0.000509 -0.002125 -0.008910 0.023491 -0.000687
# 6 -0.001842 0.000468 -0.006355 -0.002160 -0.000687 0.021694
#
#
# Mechanical properties :
#
#
# Convention : Reuss Voigt Hill
#
# Bulk Modulus (GPa) = 52.83311 70.13675 61.48493
# Shear Modulus (GPa) = 45.57764 57.49009 51.53387
#
# Velocity S-wave (km/s) = 4.12682 4.63486 4.38820
# Velocity P-wave (km/s) = 6.51531 7.40608 6.97493
#
# Compressibility (1/GPa) = 0.01892752
#
# Stress axis : x y z
#
# Youngs Moduli (GPa) = 96.61092 202.48976 75.90150
#
# Poissons Ratio (x) = 0.11057 0.15423
# Poissons Ratio (y) = 0.05275 0.16625
# Poissons Ratio (z) = 0.19631 0.44353
#
# Static dielectric constant tensor:
#      x y z
#    x 1.906470 0.180350 0.203820 
#    y 0.180350 1.896240 -0.309110 
#    z 0.203820 -0.309110 1.745580 
# 
# From -- ./inp_files/378331.got.cif
#   From: 2010.05.17/outbox.cif.g08.bks.cpg/sg2_190_cif.got.tgz:378331.got - 2010.06.03 11:33:40.
