data_PCOD9066210
_publ_section_title
;
Structure prediction by ZEFSAII (Michael W. Deem and Ramdas Pophale) SiO2 
 PCOD9066210
Probable space group: P -1
;
_chemical_formula_sum "Si O2"
_cell_formula_units_Z 16
_cell_length_a 8.442105
_cell_length_b 14.268755
_cell_length_c 23.442182
_cell_angle_alpha 150.520377
_cell_angle_beta 149.440340
_cell_angle_gamma 49.217577
_cell_volume 651.963841
_symmetry_space_group_name_H-M "P -1"
_symmetry_group_IT_number 2
_symmetry_cell_setting 'triclinic'
loop_
_space_group_symop_operation_xyz
x,y,z
-x,-y,-z
loop_
_atom_site_type_symbol
_atom_site_label
_atom_site_fract_x
_atom_site_fract_y
_atom_site_fract_z
Si Si1 0.232071 0.093912 0.280139
Si Si2 0.978922 0.172720 0.544302
Si Si3 0.393411 0.573164 0.756792
Si Si4 0.626737 0.457979 0.455923
Si Si5 0.686610 0.842425 0.477323
Si Si6 0.169365 0.143612 0.865393
Si Si7 0.386233 0.589630 0.955738
Si Si8 0.156340 0.199762 0.084113
O O1 0.592083 0.114607 0.381166
O O2 0.289476 0.326606 0.439223
O O3 0.104392 0.923022 0.200906
O O4 0.988073 0.016685 0.108946
O O5 0.173258 0.161331 0.542989
O O6 0.139288 0.393688 0.740281
O O7 0.000000 0.000000 0.500000
O O8 0.549171 0.396560 0.713341
O O9 0.528613 0.680712 0.796412
O O10 0.994451 0.454664 0.574215
O O11 0.511891 0.737870 0.932154
O O12 0.500000 0.500000 0.500000
O O13 0.342766 0.257354 0.233073
O O14 0.500000 0.000000 0.500000
O O15 0.988653 0.928741 0.662441
O O16 0.299408 0.289958 0.926127
O O17 0.153385 0.719911 0.967487
O O18 0.500000 0.500000 0.000000
#
# Coordination Sequence:
#
# PCOD9066210 Si02
#       8
#     2   2   2   2   2   2   2   2
#     4  11  25  47  74 105 147 189 247 302 370 435
#     4  12  24  45  67 104 145 190 243 301 362 441
#     4  11  26  46  71 110 147 192 245 304 366 434
#     4  12  25  46  78 105 148 194 244 311 367 434
#     4  12  26  43  72 104 148 193 239 298 372 436
#     4  11  25  46  72 107 146 187 247 298 367 437
#     4  12  25  45  73 106 151 196 246 303 369 437
#     4  11  25  45  71 106 149 188 246 301 368 434
#
# _framework density 24.541238
#
# number of rings (size 3 to 8) (size 9 to 14) (size 15 to 20)
#    0.000    0.500    2.500    5.625    3.500    5.000 
#    0.000    0.000    0.000    0.000    0.000    0.000 
#    0.000    0.000    0.000    0.000    0.000    0.000 
#
# Total GULP energy -89222.879282 kJ/mol
# GULP energy per Si atom -5576.429955 kJ/mol
# Density = 2.448538 g / cm^3
# Si number density = 24.541238 Si / 1000 Ang^3
#
#
#
# Elastic Constant Matrix: (Units=GPa)
#
#
# Indices 1 2 3 4 5 6 
#
# 1 61.8161 -4.3709 26.6727 0.1852 -4.8187 37.2568
# 2 -4.3709 40.6478 -6.6792 -3.1956 7.7469 -8.1867
# 3 26.6727 -6.6792 139.5492 -7.6038 -22.3811 -4.9544
# 4 0.1852 -3.1956 -7.6038 25.1387 8.6049 -1.6977
# 5 -4.8187 7.7469 -22.3811 8.6049 54.1983 4.2756
# 6 37.2568 -8.1867 -4.9544 -1.6977 4.2756 40.8032
#
#
#
# Elastic Compliance Matrix: (Units=1/GPa)
#
#
# Indices 1 2 3 4 5 6 
#
# 1 0.053409 -0.009194 -0.012015 -0.011220 0.007086 -0.053280
# 2 -0.009194 0.029058 0.003144 0.007870 -0.006151 0.015579
# 3 -0.012015 0.003144 0.010479 0.004143 0.001132 0.012928
# 4 -0.011220 0.007870 0.004143 0.046203 -0.008945 0.015187
# 5 0.007086 -0.006151 0.001132 -0.008945 0.022661 -0.010313
# 6 -0.053280 0.015579 0.012928 0.015187 -0.010313 0.079565
#
#
# Mechanical properties :
#
#
# Convention : Reuss Voigt Hill
#
# Bulk Modulus (GPa) = 17.60103 30.36203 23.98153
# Shear Modulus (GPa) = 16.86646 39.12073 27.99359
#
# Velocity S-wave (km/s) = 2.62443 3.99693 3.38105
# Velocity P-wave (km/s) = 4.04612 5.80511 5.00352
#
# Compressibility (1/GPa) = 0.05681487
#
# Stress axis : x y z
#
# Youngs Moduli (GPa) = 18.72336 34.41366 95.42754
#
# Poissons Ratio (x) = 0.31642 1.14656
# Poissons Ratio (y) = 0.17215 -0.29998
# Poissons Ratio (z) = 0.22496 -0.10818
#
# Static dielectric constant tensor:
#      x y z
#    x 1.937780 -0.089120 0.010540 
#    y -0.089120 2.421170 -0.018960 
#    z 0.010540 -0.018960 1.940960 
# 
# From -- ./inp_files/542650.got.cif
#   From: 2010.05.17/outbox.cif.g08.bks.cpg/sg2_272_cif.got.tgz:542650.got - 2010.06.03 11:33:40.
