data_PCOD9066335
_publ_section_title
;
Structure prediction by ZEFSAII (Michael W. Deem and Ramdas Pophale) SiO2 
 PCOD9066335
Probable space group: P -1
;
_chemical_formula_sum "Si O2"
_cell_formula_units_Z 16
_cell_length_a 6.447634
_cell_length_b 10.131137
_cell_length_c 22.254619
_cell_angle_alpha 31.328851
_cell_angle_beta 55.212004
_cell_angle_gamma 61.051750
_cell_volume 620.742934
_symmetry_space_group_name_H-M "P -1"
_symmetry_group_IT_number 2
_symmetry_cell_setting 'triclinic'
loop_
_space_group_symop_operation_xyz
x,y,z
-x,-y,-z
loop_
_atom_site_type_symbol
_atom_site_label
_atom_site_fract_x
_atom_site_fract_y
_atom_site_fract_z
Si Si1 0.867948 0.462061 0.888787
Si Si2 0.012815 0.888394 0.883608
Si Si3 0.510543 0.210108 0.226886
Si Si4 0.272368 0.335293 0.454113
Si Si5 0.307445 0.340814 0.726799
Si Si6 0.442597 0.973473 0.949351
Si Si7 0.636600 0.236294 0.319637
Si Si8 0.724404 0.332767 0.499565
O O1 0.625805 0.643715 0.861192
O O2 0.095670 0.635228 0.759352
O O3 0.957391 0.328679 0.986477
O O4 0.762675 0.243319 0.946936
O O5 0.199742 0.830426 0.821345
O O6 0.724088 0.915579 0.901069
O O7 0.142710 0.135985 0.796932
O O8 0.517674 0.352992 0.233708
O O9 0.355163 0.954575 0.363521
O O10 0.396081 0.592244 0.360157
O O11 0.436831 0.280854 0.387875
O O12 0.985604 0.386791 0.467986
O O13 0.307112 0.062156 0.586429
O O14 0.220999 0.602420 0.605761
O O15 0.333052 0.215768 0.837458
O O16 0.500000 0.000000 0.000000
O O17 0.500000 0.500000 0.500000
#
# Coordination Sequence:
#
# PCOD9066335 Si02
#       8
#     2   2   2   2   2   2   2   2
#     4  11  26  47  73 104 144 195 245 306 364 439
#     4  11  26  48  71 108 144 196 248 304 360 438
#     4  12  25  46  72 108 149 192 247 301 371 442
#     4  11  26  46  71 111 149 191 244 299 370 443
#     4  11  25  45  74 107 147 190 245 302 362 440
#     4  11  28  49  75 106 147 198 247 308 365 435
#     4  11  26  46  73 109 149 196 238 304 369 440
#     4  12  25  47  74 112 151 196 244 306 369 438
#
# _framework density 25.775562999999998
#
# number of rings (size 3 to 8) (size 9 to 14) (size 15 to 20)
#    0.000    0.750    3.750    1.875    5.250    8.000 
#    0.000    0.000    0.000    0.000    0.000    0.000 
#    0.000    0.000    0.000    0.000    0.000    0.000 
#
# Total GULP energy -89415.089600 kJ/mol
# GULP energy per Si atom -5588.443100 kJ/mol
# Density = 2.571690 g / cm^3
# Si number density = 25.775563 Si / 1000 Ang^3
#
#
#
# Elastic Constant Matrix: (Units=GPa)
#
#
# Indices 1 2 3 4 5 6 
#
# 1 125.1528 9.0102 46.3316 -1.9033 -22.1891 -11.4396
# 2 9.0102 29.7990 25.5259 9.2169 0.7004 -8.1584
# 3 46.3316 25.5259 143.0322 -15.0975 -2.7172 2.1900
# 4 -1.9033 9.2169 -15.0975 41.2143 3.5590 -2.8995
# 5 -22.1891 0.7004 -2.7172 3.5590 69.3171 5.1730
# 6 -11.4396 -8.1584 2.1900 -2.8995 5.1730 47.1947
#
#
#
# Elastic Compliance Matrix: (Units=1/GPa)
#
#
# Indices 1 2 3 4 5 6 
#
# 1 0.009924 0.000878 -0.003467 -0.001096 0.002914 0.002331
# 2 0.000878 0.049175 -0.010702 -0.014241 -0.000531 0.008394
# 3 -0.003467 -0.010702 0.010688 0.006015 -0.000687 -0.002742
# 4 -0.001096 -0.014241 0.006015 0.029651 -0.001417 -0.001030
# 5 0.002914 -0.000531 -0.000687 -0.001417 0.015495 -0.001139
# 6 0.002331 0.008394 -0.002742 -0.001030 -0.001139 0.023394
#
#
# Mechanical properties :
#
#
# Convention : Reuss Voigt Hill
#
# Bulk Modulus (GPa) = 23.14550 51.07993 37.11271
# Shear Modulus (GPa) = 27.88441 46.01963 36.95202
#
# Velocity S-wave (km/s) = 3.29266 4.22998 3.79041
# Velocity P-wave (km/s) = 4.84300 6.61190 5.79534
#
# Compressibility (1/GPa) = 0.04320495
#
# Stress axis : x y z
#
# Youngs Moduli (GPa) = 100.76899 20.33535 93.55989
#
# Poissons Ratio (x) = -0.01786 0.32440
# Poissons Ratio (y) = -0.08850 1.00130
# Poissons Ratio (z) = 0.34939 0.21763
#
# Static dielectric constant tensor:
#      x y z
#    x 2.049550 0.070610 0.065290 
#    y 0.070610 2.136390 0.000200 
#    z 0.065290 0.000200 2.045560 
# 
# From -- ./inp_files/604378.got.cif
#   From: 2010.05.17/outbox.cif.g08.bks.cpg/sg2_303_cif.got.tgz:604378.got - 2010.06.03 11:33:40.
