data_PCOD9066235
_publ_section_title
;
Structure prediction by ZEFSAII (Michael W. Deem and Ramdas Pophale) SiO2 
 PCOD9066235
Probable space group: P -1
;
_chemical_formula_sum "Si O2"
_cell_formula_units_Z 16
_cell_length_a 10.174822
_cell_length_b 8.069532
_cell_length_c 19.110277
_cell_angle_alpha 137.200588
_cell_angle_beta 135.087087
_cell_angle_gamma 46.554009
_cell_volume 704.985382
_symmetry_space_group_name_H-M "P -1"
_symmetry_group_IT_number 2
_symmetry_cell_setting 'triclinic'
loop_
_space_group_symop_operation_xyz
x,y,z
-x,-y,-z
loop_
_atom_site_type_symbol
_atom_site_label
_atom_site_fract_x
_atom_site_fract_y
_atom_site_fract_z
Si Si1 0.570351 0.455138 0.933854
Si Si2 0.592985 0.975791 0.103142
Si Si3 0.519566 0.173918 0.625298
Si Si4 0.237440 0.082550 0.228912
Si Si5 0.919352 0.705074 0.470958
Si Si6 0.946709 0.852879 0.276463
Si Si7 0.148282 0.486295 0.752378
Si Si8 0.338258 0.384436 0.242270
O O1 0.363356 0.512696 0.830723
O O2 0.711284 0.174700 0.877789
O O3 0.500000 0.500000 0.000000
O O4 0.678717 0.661668 0.036260
O O5 0.789712 0.032068 0.216895
O O6 0.419092 0.142669 0.143015
O O7 0.500000 0.000000 0.000000
O O8 0.314340 0.229776 0.604630
O O9 0.539193 0.433130 0.679516
O O10 0.500000 0.000000 0.500000
O O11 0.687916 0.019422 0.696483
O O12 0.349144 0.255530 0.283850
O O13 0.004948 0.247500 0.192096
O O14 0.981241 0.575889 0.378679
O O15 0.000000 0.500000 0.500000
O O16 0.962410 0.962313 0.588841
O O17 0.826108 0.744278 0.253456
O O18 0.117035 0.606554 0.229641
#
# Coordination Sequence:
#
# PCOD9066235 Si02
#       8
#     2   2   2   2   2   2   2   2
#     4  12  23  45  72 100 141 183 239 292 346 421
#     4  12  27  44  72 102 140 189 235 299 353 418
#     4  12  24  45  71 104 146 185 235 295 353 428
#     4  11  25  45  73 104 141 190 234 298 356 421
#     4  12  25  44  71 103 142 184 228 298 359 421
#     4  11  25  47  69 102 141 181 236 289 352 430
#     4  11  25  45  72 104 138 186 236 287 359 425
#     4  11  25  46  71 104 142 185 238 289 357 424
#
# _framework density 22.695506999999999
#
# number of rings (size 3 to 8) (size 9 to 14) (size 15 to 20)
#    0.000    0.500    5.000    2.625    1.750    2.500 
#    2.250    0.000    0.000    0.000    0.000    0.000 
#    0.000    0.000    0.000    0.000    0.000    0.000 
#
# Total GULP energy -89164.336567 kJ/mol
# GULP energy per Si atom -5572.771035 kJ/mol
# Density = 2.264385 g / cm^3
# Si number density = 22.695507 Si / 1000 Ang^3
#
#
#
# Elastic Constant Matrix: (Units=GPa)
#
#
# Indices 1 2 3 4 5 6 
#
# 1 25.6278 6.9869 27.3240 15.8560 -4.5620 -7.9471
# 2 6.9869 85.7291 37.4038 20.1861 -12.1377 -11.0260
# 3 27.3240 37.4038 129.3545 3.6384 -17.4382 -0.8786
# 4 15.8560 20.1861 3.6384 34.2557 2.8401 -4.3649
# 5 -4.5620 -12.1377 -17.4382 2.8401 44.6730 3.8886
# 6 -7.9471 -11.0260 -0.8786 -4.3649 3.8886 47.0112
#
#
#
# Elastic Compliance Matrix: (Units=1/GPa)
#
#
# Indices 1 2 3 4 5 6 
#
# 1 0.095465 0.016842 -0.022506 -0.050515 0.007501 0.014357
# 2 0.016842 0.019344 -0.007994 -0.018063 0.004553 0.005181
# 3 -0.022506 -0.007994 0.014501 0.012983 0.000736 -0.004264
# 4 -0.050515 -0.018063 0.012983 0.061757 -0.008393 -0.006105
# 5 0.007501 0.004553 0.000736 -0.008393 0.025254 -0.000519
# 6 0.014357 0.005181 -0.004264 -0.006105 -0.000519 0.024310
#
#
# Mechanical properties :
#
#
# Convention : Reuss Voigt Hill
#
# Bulk Modulus (GPa) = 9.80444 42.68231 26.24337
# Shear Modulus (GPa) = 16.55929 36.45445 26.50687
#
# Velocity S-wave (km/s) = 2.70409 4.01214 3.42121
# Velocity P-wave (km/s) = 3.75218 6.34904 5.21485
#
# Compressibility (1/GPa) = 0.10199466
#
# Stress axis : x y z
#
# Youngs Moduli (GPa) = 10.47502 51.69595 68.95943
#
# Poissons Ratio (x) = -0.87066 1.55199
# Poissons Ratio (y) = -0.17642 0.55126
# Poissons Ratio (z) = 0.23575 0.41326
#
# Static dielectric constant tensor:
#      x y z
#    x 1.814900 0.245190 0.083470 
#    y 0.245190 1.472190 -0.274410 
#    z 0.083470 -0.274410 1.729480 
# 
# From -- ./inp_files/593842.got.cif
#   From: 2010.05.17/outbox.cif.g08.bks.cpg/sg2_297_cif.got.tgz:593842.got - 2010.06.03 11:33:40.
