data_PCOD9066515
_publ_section_title
;
Structure prediction by ZEFSAII (Michael W. Deem and Ramdas Pophale) SiO2 
 PCOD9066515
Probable space group: P -1
;
_chemical_formula_sum "Si O2"
_cell_formula_units_Z 14
_cell_length_a 5.743783
_cell_length_b 16.418417
_cell_length_c 9.195652
_cell_angle_alpha 40.688003
_cell_angle_beta 81.479504
_cell_angle_gamma 76.677851
_cell_volume 549.656243
_symmetry_space_group_name_H-M "P -1"
_symmetry_group_IT_number 2
_symmetry_cell_setting 'triclinic'
loop_
_space_group_symop_operation_xyz
x,y,z
-x,-y,-z
loop_
_atom_site_type_symbol
_atom_site_label
_atom_site_fract_x
_atom_site_fract_y
_atom_site_fract_z
Si Si1 0.740513 0.481876 0.599825
Si Si2 0.739796 0.201600 0.601197
Si Si3 0.578283 0.636978 0.828305
Si Si4 0.588554 0.245974 0.008524
Si Si5 0.356064 0.148791 0.915529
Si Si6 0.102876 0.330678 0.461423
Si Si7 0.008520 0.989350 0.689036
O O1 0.500000 0.500000 0.500000
O O2 0.735242 0.575060 0.610986
O O3 0.000000 0.500000 0.500000
O O4 0.778003 0.335693 0.841123
O O5 0.565250 0.256024 0.412587
O O6 0.612899 0.122350 0.838995
O O7 0.822394 0.324607 0.500069
O O8 0.969285 0.119445 0.608463
O O9 0.534078 0.697033 0.910204
O O10 0.848392 0.639933 0.750375
O O11 0.500000 0.500000 0.000000
O O12 0.737580 0.103103 0.184765
O O13 0.401623 0.254666 0.883412
O O14 0.189588 0.205700 0.721238
O O15 0.216128 0.064743 0.145276
O O16 0.000000 0.000000 0.500000
#
# Coordination Sequence:
#
# PCOD9066515 Si02
#       7
#     2   2   2   2   2   2   2
#     4  12  25  46  79 116 157 202 263 329 394 477
#     4  11  26  50  73 106 149 197 254 315 387 468
#     4  11  25  46  70 107 150 194 249 316 400 459
#     4  12  26  45  75 111 147 198 255 321 391 464
#     4  11  25  46  77 105 144 193 255 312 388 460
#     4  11  25  46  74 107 147 197 252 314 389 465
#     4  12  27  48  72 111 148 196 255 317 391 468
#
# _framework density 25.470462000000001
#
# number of rings (size 3 to 8) (size 9 to 14) (size 15 to 20)
#    0.000    0.571    4.286    3.000    4.000    5.714 
#    0.000    0.000    0.000    0.000    0.000    0.000 
#    0.000    0.000    0.000    0.000    0.000    0.000 
#
# Total GULP energy -77982.885402 kJ/mol
# GULP energy per Si atom -5570.206100 kJ/mol
# Density = 2.541249 g / cm^3
# Si number density = 25.470462 Si / 1000 Ang^3
#
#
#
# Elastic Constant Matrix: (Units=GPa)
#
#
# Indices 1 2 3 4 5 6 
#
# 1 85.3173 30.1080 23.7251 19.6324 -23.4528 5.7979
# 2 30.1080 140.8497 42.7438 39.1861 -8.9628 -11.7553
# 3 23.7251 42.7438 117.3233 31.5830 -30.7379 -3.7972
# 4 19.6324 39.1861 31.5830 48.7021 -4.1151 -3.4283
# 5 -23.4528 -8.9628 -30.7379 -4.1151 48.1359 -1.0342
# 6 5.7979 -11.7553 -3.7972 -3.4283 -1.0342 43.3985
#
#
#
# Elastic Compliance Matrix: (Units=1/GPa)
#
#
# Indices 1 2 3 4 5 6 
#
# 1 0.015451 -0.001979 0.000612 -0.004627 0.007096 -0.002743
# 2 -0.001979 0.009829 -0.001691 -0.005909 -0.000670 0.002296
# 3 0.000612 -0.001691 0.012761 -0.006503 0.007581 0.000244
# 4 -0.004627 -0.005909 -0.006503 0.031016 -0.004839 0.000783
# 5 0.007096 -0.000670 0.007581 -0.004839 0.028531 -0.000168
# 6 -0.002743 0.002296 0.000244 0.000783 -0.000168 0.024110
#
#
# Mechanical properties :
#
#
# Convention : Reuss Voigt Hill
#
# Bulk Modulus (GPa) = 31.32349 59.62712 45.47530
# Shear Modulus (GPa) = 36.11305 44.50820 40.31063
#
# Velocity S-wave (km/s) = 3.76951 4.18478 3.98256
# Velocity P-wave (km/s) = 5.59198 6.84185 6.24825
#
# Compressibility (1/GPa) = 0.03192493
#
# Stress axis : x y z
#
# Youngs Moduli (GPa) = 64.72218 101.74034 78.36617
#
# Poissons Ratio (x) = 0.20131 -0.04798
# Poissons Ratio (y) = 0.12806 0.13254
# Poissons Ratio (z) = -0.03963 0.17207
#
# Static dielectric constant tensor:
#      x y z
#    x 1.935800 1.352630 0.279330 
#    y 1.352630 -13.484070 -3.402790 
#    z 0.279330 -3.402790 1.366120 
# 
# From -- ./inp_files/138378.got.cif
#   From: 2010.05.17/outbox.cif.g08.bks.cpg/sg2_70_cif.got.tgz:138378.got - 2010.06.03 11:33:40.
