data_PCOD9066165
_publ_section_title
;
Structure prediction by ZEFSAII (Michael W. Deem and Ramdas Pophale) SiO2 
 PCOD9066165
Probable space group: P -1
;
_chemical_formula_sum "Si O2"
_cell_formula_units_Z 14
_cell_length_a 6.427714
_cell_length_b 13.483755
_cell_length_c 9.392727
_cell_angle_alpha 89.016723
_cell_angle_beta 86.625025
_cell_angle_gamma 48.391075
_cell_volume 607.354052
_symmetry_space_group_name_H-M "P -1"
_symmetry_group_IT_number 2
_symmetry_cell_setting 'triclinic'
loop_
_space_group_symop_operation_xyz
x,y,z
-x,-y,-z
loop_
_atom_site_type_symbol
_atom_site_label
_atom_site_fract_x
_atom_site_fract_y
_atom_site_fract_z
Si Si1 0.348311 0.206537 0.550411
Si Si2 0.353577 0.196700 0.059868
Si Si3 0.690229 0.195508 0.280811
Si Si4 0.222907 0.527617 0.021473
Si Si5 0.866177 0.554130 0.246908
Si Si6 0.217078 0.623345 0.586432
Si Si7 0.672862 0.006884 0.785031
O O1 0.538756 0.183402 0.413649
O O2 0.296167 0.319762 0.649360
O O3 0.502544 0.078152 0.645584
O O4 0.043522 0.268418 0.508009
O O5 0.516108 0.226668 0.145323
O O6 0.336147 0.103798 0.160289
O O7 0.525802 0.115035 0.913978
O O8 0.041322 0.324452 0.024269
O O9 0.715232 0.302613 0.322931
O O10 0.008779 0.061036 0.247714
O O11 0.150328 0.516259 0.184484
O O12 0.500000 0.500000 0.000000
O O13 0.257896 0.430114 0.904543
O O14 0.889317 0.441254 0.324965
O O15 0.500000 0.500000 0.500000
#
# Coordination Sequence:
#
# PCOD9066165 Si02
#       7
#     2   2   2   2   2   2   2
#     4  12  26  48  74 110 152 189 257 305 363 456
#     4  11  26  51  76 108 151 192 252 313 364 453
#     4  12  26  48  76 106 150 201 249 302 378 435
#     4  11  26  46  77 109 150 192 243 313 383 436
#     4  11  25  45  69 111 152 189 246 305 370 452
#     4  12  28  45  76 109 151 201 239 308 380 440
#     4  11  26  50  76 107 144 202 251 309 370 433
#
# _framework density 23.050806000000001
#
# number of rings (size 3 to 8) (size 9 to 14) (size 15 to 20)
#    0.000    0.571    2.857    3.857    4.000    8.000 
#    5.143    0.000    0.000    0.000    0.000    0.000 
#    0.000    0.000    0.000    0.000    0.000    0.000 
#
# Total GULP energy -78433.209766 kJ/mol
# GULP energy per Si atom -5602.372126 kJ/mol
# Density = 2.299834 g / cm^3
# Si number density = 23.050806 Si / 1000 Ang^3
#
#
#
# Elastic Constant Matrix: (Units=GPa)
#
#
# Indices 1 2 3 4 5 6 
#
# 1 140.3486 92.5940 67.1542 -0.1718 -8.2653 -28.5373
# 2 92.5940 140.8342 70.9966 -11.3495 11.1541 -29.8386
# 3 67.1542 70.9966 131.1039 -1.9912 -10.0144 -20.7862
# 4 -0.1718 -11.3495 -1.9912 54.3891 1.3738 -3.0021
# 5 -8.2653 11.1541 -10.0144 1.3738 40.6658 6.4334
# 6 -28.5373 -29.8386 -20.7862 -3.0021 6.4334 50.1878
#
#
#
# Elastic Compliance Matrix: (Units=1/GPa)
#
#
# Indices 1 2 3 4 5 6 
#
# 1 0.014376 -0.008547 -0.002178 -0.001850 0.004556 0.001496
# 2 -0.008547 0.017052 -0.004707 0.003828 -0.008437 0.004639
# 3 -0.002178 -0.004707 0.011605 -0.000643 0.003687 0.000258
# 4 -0.001850 0.003828 -0.000643 0.019357 -0.002626 0.002452
# 5 0.004556 -0.008437 0.003687 -0.002626 0.029595 -0.004849
# 6 0.001496 0.004639 0.000258 0.002452 -0.004849 0.024409
#
#
# Mechanical properties :
#
#
# Convention : Reuss Voigt Hill
#
# Bulk Modulus (GPa) = 82.17505 97.08624 89.63064
# Shear Modulus (GPa) = 33.04328 41.15136 37.09732
#
# Velocity S-wave (km/s) = 3.79026 4.22980 4.01605
# Velocity P-wave (km/s) = 7.40822 8.12802 7.77645
#
# Compressibility (1/GPa) = 0.01216914
#
# Stress axis : x y z
#
# Youngs Moduli (GPa) = 69.55876 58.64274 86.16709
#
# Poissons Ratio (x) = 0.50120 0.18771
# Poissons Ratio (y) = 0.59449 0.40562
# Poissons Ratio (z) = 0.15153 0.27605
#
# Static dielectric constant tensor:
#      x y z
#    x 1.880260 0.030920 -0.020430 
#    y 0.030920 1.892400 -0.023260 
#    z -0.020430 -0.023260 1.869050 
# 
# From -- ./inp_files/124166.got.cif
#   From: 2010.05.17/outbox.cif.g08.bks.cpg/sg2_63_cif.got.tgz:124166.got - 2010.06.03 11:33:40.
