data_PCOD9066795
_publ_section_title
;
Structure prediction by ZEFSAII (Michael W. Deem and Ramdas Pophale) SiO2 
 PCOD9066795
Probable space group: P -1
;
_chemical_formula_sum "Si O2"
_cell_formula_units_Z 10
_cell_length_a 8.855924
_cell_length_b 16.828709
_cell_length_c 6.099226
_cell_angle_alpha 73.939185
_cell_angle_beta 116.522354
_cell_angle_gamma 150.784943
_cell_volume 383.437043
_symmetry_space_group_name_H-M "P -1"
_symmetry_group_IT_number 2
_symmetry_cell_setting 'triclinic'
loop_
_space_group_symop_operation_xyz
x,y,z
-x,-y,-z
loop_
_atom_site_type_symbol
_atom_site_label
_atom_site_fract_x
_atom_site_fract_y
_atom_site_fract_z
Si Si1 0.341448 0.598106 0.718899
Si Si2 0.647476 0.857003 0.069448
Si Si3 0.223650 0.312787 0.401238
Si Si4 0.783028 0.020444 0.642112
Si Si5 0.145664 0.733922 0.141090
O O1 0.516375 0.731199 0.910530
O O2 0.578877 0.675527 0.609017
O O3 0.000000 0.500000 0.500000
O O4 0.200182 0.452938 0.842910
O O5 0.716280 0.970542 0.890059
O O6 0.349698 0.750290 0.126622
O O7 0.003384 0.970643 0.298081
O O8 0.500000 0.500000 0.500000
O O9 0.029035 0.197217 0.578427
O O10 0.955968 0.238072 0.114075
O O11 0.420292 0.875050 0.396795
#
# Coordination Sequence:
#
# PCOD9066795 Si02
#       5
#     2   2   2   2   2
#     4  12  24  47  75 102 142 187 238 285 351 422
#     4  11  25  46  77 106 138 187 237 293 347 416
#     4  12  28  48  70 105 147 190 230 293 358 419
#     4  11  26  46  74 105 144 183 241 287 351 419
#     4  12  25  47  73 108 144 182 236 291 355 417
#
# _framework density 26.079899999999999
#
# number of rings (size 3 to 8) (size 9 to 14) (size 15 to 20)
#    0.000    0.400    2.000    6.000    5.600    0.800 
#    0.000    0.000    0.000    0.000    0.000    0.000 
#    0.000    0.000    0.000    0.000    0.000    0.000 
#
# Total GULP energy -56106.816161 kJ/mol
# GULP energy per Si atom -5610.681616 kJ/mol
# Density = 2.602054 g / cm^3
# Si number density = 26.079900 Si / 1000 Ang^3
#
#
#
# Elastic Constant Matrix: (Units=GPa)
#
#
# Indices 1 2 3 4 5 6 
#
# 1 138.5467 22.3147 20.3524 19.0021 -0.7400 18.2435
# 2 22.3147 169.1794 35.6319 -23.2200 -8.2061 -12.3209
# 3 20.3524 35.6319 111.5162 1.3680 44.6272 -2.9892
# 4 19.0021 -23.2200 1.3680 50.5154 0.0861 5.2498
# 5 -0.7400 -8.2061 44.6272 0.0861 50.3649 2.8843
# 6 18.2435 -12.3209 -2.9892 5.2498 2.8843 40.6903
#
#
#
# Elastic Compliance Matrix: (Units=1/GPa)
#
#
# Indices 1 2 3 4 5 6 
#
# 1 0.008778 -0.001435 -0.001968 -0.003475 0.001886 -0.004200
# 2 -0.001435 0.007929 -0.004238 0.004098 0.004913 0.001856
# 3 -0.001968 -0.004238 0.017202 -0.001880 -0.016087 0.002246
# 4 -0.003475 0.004098 -0.001880 0.023083 0.002270 -0.000479
# 5 0.001886 0.004913 -0.016087 0.002270 0.035124 -0.003322
# 6 -0.004200 0.001856 0.002246 -0.000479 -0.003322 0.027483
#
#
# Mechanical properties :
#
#
# Convention : Reuss Voigt Hill
#
# Bulk Modulus (GPa) = 53.68763 63.98225 58.83494
# Shear Modulus (GPa) = 35.43891 51.04368 43.24130
#
# Velocity S-wave (km/s) = 3.69027 4.42883 4.07631
# Velocity P-wave (km/s) = 6.22800 7.12314 6.69056
#
# Compressibility (1/GPa) = 0.01862627
#
# Stress axis : x y z
#
# Youngs Moduli (GPa) = 113.92640 126.12670 58.13416
#
# Poissons Ratio (x) = 0.18093 0.11442
# Poissons Ratio (y) = 0.16343 0.24638
# Poissons Ratio (z) = 0.22422 0.53453
#
# Static dielectric constant tensor:
#      x y z
#    x 2.012410 -0.041540 0.013770 
#    y -0.041540 2.049740 -0.020290 
#    z 0.013770 -0.020290 2.032260 
# 
# From -- ./inp_files/15235.got.cif
#   From: 2010.05.17/outbox.cif.g08.bks.cpg/sg2_8_cif.got.tgz:15235.got - 2010.06.03 11:33:40.
