data_PCOD9066388
_publ_section_title
;
Structure prediction by ZEFSAII (Michael W. Deem and Ramdas Pophale) SiO2 
 PCOD9066388
Probable space group: P -1
;
_chemical_formula_sum "Si O2"
_cell_formula_units_Z 15
_cell_length_a 8.794346
_cell_length_b 9.159369
_cell_length_c 12.308441
_cell_angle_alpha 66.546434
_cell_angle_beta 123.092891
_cell_angle_gamma 128.687739
_cell_volume 645.913857
_symmetry_space_group_name_H-M "P -1"
_symmetry_group_IT_number 2
_symmetry_cell_setting 'triclinic'
loop_
_space_group_symop_operation_xyz
x,y,z
-x,-y,-z
loop_
_atom_site_type_symbol
_atom_site_label
_atom_site_fract_x
_atom_site_fract_y
_atom_site_fract_z
Si Si1 0.396261 0.966025 0.352351
Si Si2 0.878685 0.995329 0.064830
Si Si3 0.303371 0.284000 0.249902
Si Si4 0.500000 0.000000 0.000000
Si Si5 0.296942 0.062159 0.690230
Si Si6 0.361871 0.436455 0.854624
Si Si7 0.973620 0.449276 0.632868
Si Si8 0.817511 0.713310 0.561005
O O1 0.548999 0.951833 0.331356
O O2 0.173184 0.770480 0.334476
O O3 0.500000 0.000000 0.500000
O O4 0.368219 0.140360 0.273947
O O5 0.056339 0.176417 0.148541
O O6 0.789975 0.787481 0.138481
O O7 0.671455 0.011145 0.971323
O O8 0.000000 0.000000 0.000000
O O9 0.459204 0.479070 0.194090
O O10 0.315655 0.305859 0.377551
O O11 0.376236 0.049372 0.843571
O O12 0.276753 0.237329 0.593967
O O13 0.057297 0.886978 0.627312
O O14 0.205115 0.515318 0.754646
O O15 0.500000 0.500000 0.000000
O O16 0.850379 0.542416 0.606729
O O17 0.000000 0.500000 0.500000
#
# Coordination Sequence:
#
# PCOD9066388 Si02
#       8
#     2   2   2   1   2   2   2   2
#     4  12  24  48  79 109 153 211 259 326 405 476
#     4  12  26  51  79 115 161 215 262 328 403 477
#     4  12  24  50  77 112 160 203 261 330 398 478
#     4  12  28  44  78 118 152 206 266 326 392 482
#     4  11  25  45  76 106 155 200 259 323 399 469
#     4  12  28  47  79 114 157 205 269 323 391 479
#     4  12  29  48  75 114 151 203 270 322 396 491
#     4  11  26  48  73 110 152 201 257 329 395 469
#
# _framework density 23.222913999999999
#
# number of rings (size 3 to 8) (size 9 to 14) (size 15 to 20)
#    0.000    0.267    5.333    3.200    5.600    1.600 
#    0.000    1.333    0.000    0.000    0.000    0.000 
#    0.000    0.000    0.000    0.000    0.000    0.000 
#
# Total GULP energy -83703.228788 kJ/mol
# GULP energy per Si atom -5580.215253 kJ/mol
# Density = 2.317006 g / cm^3
# Si number density = 23.222914 Si / 1000 Ang^3
#
#
#
# Elastic Constant Matrix: (Units=GPa)
#
#
# Indices 1 2 3 4 5 6 
#
# 1 148.7452 45.3879 54.8557 -4.2392 10.9252 12.7262
# 2 45.3879 109.7572 41.1414 -16.9299 -4.7577 19.4358
# 3 54.8557 41.1414 180.5022 12.7680 11.6468 9.9243
# 4 -4.2392 -16.9299 12.7680 23.7348 0.0439 -10.8828
# 5 10.9252 -4.7577 11.6468 0.0439 51.6338 -13.0800
# 6 12.7262 19.4358 9.9243 -10.8828 -13.0800 37.6605
#
#
#
# Elastic Compliance Matrix: (Units=1/GPa)
#
#
# Indices 1 2 3 4 5 6 
#
# 1 0.008475 -0.002680 -0.001701 -0.000337 -0.002130 -0.001869
# 2 -0.002680 0.013195 -0.002926 0.009768 0.002028 -0.001606
# 3 -0.001701 -0.002926 0.007599 -0.007857 -0.002381 -0.003015
# 4 -0.000337 0.009768 -0.007857 0.061174 0.007068 0.017276
# 5 -0.002130 0.002028 -0.002381 0.007068 0.023168 0.010389
# 6 -0.001869 -0.001606 -0.003015 0.017276 0.010389 0.037409
#
#
# Mechanical properties :
#
#
# Convention : Reuss Voigt Hill
#
# Bulk Modulus (GPa) = 68.23898 80.19718 74.21808
# Shear Modulus (GPa) = 29.32223 42.44712 35.88468
#
# Velocity S-wave (km/s) = 3.55722 4.27993 3.93520
# Velocity P-wave (km/s) = 6.80587 7.68325 7.25783
#
# Compressibility (1/GPa) = 0.01465438
#
# Stress axis : x y z
#
# Youngs Moduli (GPa) = 117.99818 75.78447 131.59402
#
# Poissons Ratio (x) = 0.20313 0.22379
# Poissons Ratio (y) = 0.31627 0.38511
# Poissons Ratio (z) = 0.20067 0.22178
#
# Static dielectric constant tensor:
#      x y z
#    x 1.869830 0.004450 -0.004900 
#    y 0.004450 1.867780 0.001120 
#    z -0.004900 0.001120 1.867820 
# 
# From -- ./inp_files/381516.got.cif
#   From: 2010.05.17/outbox.cif.g08.bks.cpg/sg2_191_cif.got.tgz:381516.got - 2010.06.03 11:33:40.
