data_PCOD9066567
_publ_section_title
;
Structure prediction by ZEFSAII (Michael W. Deem and Ramdas Pophale) SiO2 
 PCOD9066567
Probable space group: P -1
;
_chemical_formula_sum "Si O2"
_cell_formula_units_Z 14
_cell_length_a 5.111830
_cell_length_b 15.871841
_cell_length_c 16.355752
_cell_angle_alpha 25.158373
_cell_angle_beta 91.795631
_cell_angle_gamma 97.738315
_cell_volume 545.938795
_symmetry_space_group_name_H-M "P -1"
_symmetry_group_IT_number 2
_symmetry_cell_setting 'triclinic'
loop_
_space_group_symop_operation_xyz
x,y,z
-x,-y,-z
loop_
_atom_site_type_symbol
_atom_site_label
_atom_site_fract_x
_atom_site_fract_y
_atom_site_fract_z
Si Si1 0.979649 0.848475 0.845660
Si Si2 0.893012 0.420944 0.310087
Si Si3 0.411454 0.078660 0.537885
Si Si4 0.404479 0.417878 0.424666
Si Si5 0.372081 0.263323 0.220211
Si Si6 0.030718 0.066007 0.810923
Si Si7 0.256214 0.801442 0.166365
O O1 0.825675 0.815391 0.787580
O O2 0.876430 0.969797 0.811562
O O3 0.967810 0.624426 0.076918
O O4 0.268871 0.990812 0.697743
O O5 0.703331 0.229977 0.427283
O O6 0.692459 0.449176 0.357142
O O7 0.171701 0.393424 0.373980
O O8 0.271692 0.207532 0.360601
O O9 0.409630 0.868564 0.675145
O O10 0.364704 0.610681 0.306990
O O11 0.315352 0.215479 0.656330
O O12 0.500000 0.500000 0.000000
O O13 0.895366 0.207614 0.741138
O O14 0.069049 0.873478 0.032913
O O15 0.500000 0.000000 0.000000
#
# Coordination Sequence:
#
# PCOD9066567 Si02
#       7
#     2   2   2   2   2   2   2
#     4  12  24  47  77 104 155 196 255 314 383 453
#     4  12  27  48  80 116 152 208 258 315 381 460
#     4  11  26  47  73 111 148 204 250 320 379 461
#     4  12  27  49  77 112 156 201 262 311 384 453
#     4  11  25  47  73 109 152 198 254 316 386 454
#     4  11  25  46  71 110 144 208 245 322 377 454
#     4  11  26  45  73 108 155 196 260 314 381 454
#
# _framework density 25.643902000000001
#
# number of rings (size 3 to 8) (size 9 to 14) (size 15 to 20)
#    0.000    0.571    4.286    2.571    6.000    2.286 
#    0.000    0.000    0.000    0.000    0.000    0.000 
#    0.000    0.000    0.000    0.000    0.000    0.000 
#
# Total GULP energy -78406.029461 kJ/mol
# GULP energy per Si atom -5600.430676 kJ/mol
# Density = 2.558554 g / cm^3
# Si number density = 25.643902 Si / 1000 Ang^3
#
#
#
# Elastic Constant Matrix: (Units=GPa)
#
#
# Indices 1 2 3 4 5 6 
#
# 1 55.3868 15.1272 31.2773 15.3268 -6.7628 -0.0135
# 2 15.1272 140.5809 46.7583 -10.6905 -6.7635 -1.9123
# 3 31.2773 46.7583 189.4746 -5.8055 -13.1891 -9.4584
# 4 15.3268 -10.6905 -5.8055 52.8236 -5.3519 1.6962
# 5 -6.7628 -6.7635 -13.1891 -5.3519 32.4207 -0.4269
# 6 -0.0135 -1.9123 -9.4584 1.6962 -0.4269 49.3066
#
#
#
# Elastic Compliance Matrix: (Units=1/GPa)
#
#
# Indices 1 2 3 4 5 6 
#
# 1 0.022653 -0.001761 -0.003421 -0.007109 0.001787 -0.000458
# 2 -0.001761 0.008027 -0.001559 0.002068 0.001014 -0.000051
# 3 -0.003421 -0.001559 0.006461 0.001539 0.001858 0.001141
# 4 -0.007109 0.002068 0.001539 0.021916 0.003188 -0.000353
# 5 0.001787 0.001014 0.001858 0.003188 0.032718 0.000570
# 6 -0.000458 -0.000051 0.001141 -0.000353 0.000570 0.020515
#
#
# Mechanical properties :
#
#
# Convention : Reuss Voigt Hill
#
# Bulk Modulus (GPa) = 42.26695 63.52977 52.89836
# Shear Modulus (GPa) = 37.40911 46.39548 41.90229
#
# Velocity S-wave (km/s) = 3.82356 4.25811 4.04667
# Velocity P-wave (km/s) = 6.00090 7.00021 6.51973
#
# Compressibility (1/GPa) = 0.02365915
#
# Stress axis : x y z
#
# Youngs Moduli (GPa) = 44.14407 124.58559 154.78256
#
# Poissons Ratio (x) = 0.21934 0.52956
# Poissons Ratio (y) = 0.07772 0.24127
# Poissons Ratio (z) = 0.15103 0.19420
#
# Static dielectric constant tensor:
#      x y z
#    x 2.080230 -0.033720 0.020210 
#    y -0.033720 2.139940 0.048310 
#    z 0.020210 0.048310 1.967950 
# 
# From -- ./inp_files/98068.got.cif
#   From: 2010.05.17/outbox.cif.g08.bks.cpg/sg2_50_cif.got.tgz:98068.got - 2010.06.03 11:33:40.
