data_PCOD9066733
_publ_section_title
;
Structure prediction by ZEFSAII (Michael W. Deem and Ramdas Pophale) SiO2 
 PCOD9066733
Probable space group: P -1
;
_chemical_formula_sum "Si O2"
_cell_formula_units_Z 12
_cell_length_a 12.798125
_cell_length_b 12.748060
_cell_length_c 7.901827
_cell_angle_alpha 130.703522
_cell_angle_beta 38.692609
_cell_angle_gamma 144.425242
_cell_volume 468.329447
_symmetry_space_group_name_H-M "P -1"
_symmetry_group_IT_number 2
_symmetry_cell_setting 'triclinic'
loop_
_space_group_symop_operation_xyz
x,y,z
-x,-y,-z
loop_
_atom_site_type_symbol
_atom_site_label
_atom_site_fract_x
_atom_site_fract_y
_atom_site_fract_z
Si Si1 0.603600 0.130776 0.167475
Si Si2 0.328266 0.525496 0.690416
Si Si3 0.020263 0.856026 0.400048
Si Si4 0.077817 0.208870 0.163982
Si Si5 0.653311 0.918264 0.246706
Si Si6 0.239490 0.567895 0.223399
O O1 0.621144 0.302965 0.285137
O O2 0.482806 0.066198 0.429491
O O3 0.815398 0.147450 0.922956
O O4 0.500000 0.000000 0.000000
O O5 0.500000 0.500000 0.500000
O O6 0.184849 0.353054 0.571466
O O7 0.235025 0.531531 0.992396
O O8 0.054635 0.879919 0.584288
O O9 0.000000 0.000000 0.500000
O O10 0.230146 0.422386 0.187655
O O11 0.244573 0.170618 0.902218
O O12 0.894318 0.120795 0.154650
O O13 0.467279 0.768403 0.189967
O O14 0.000000 0.500000 0.500000
#
# Coordination Sequence:
#
# PCOD9066733 Si02
#       6
#     2   2   2   2   2   2
#     4  12  24  47  72 105 146 188 242 301 364 429
#     4  12  26  45  73 109 145 188 245 299 365 440
#     4  12  26  47  74 105 143 192 249 301 364 437
#     4  11  25  48  72 104 145 192 243 297 375 432
#     4  11  25  46  74  99 146 193 237 298 369 431
#     4  12  26  46  72 108 147 189 240 301 370 440
#
# _framework density 25.622989
#
# number of rings (size 3 to 8) (size 9 to 14) (size 15 to 20)
#    0.000    0.333    1.667    7.000    4.667    0.667 
#    0.000    0.000    0.000    0.000    0.000    0.000 
#    0.000    0.000    0.000    0.000    0.000    0.000 
#
# Total GULP energy -66960.369810 kJ/mol
# GULP energy per Si atom -5580.030817 kJ/mol
# Density = 2.556467 g / cm^3
# Si number density = 25.622989 Si / 1000 Ang^3
#
#
#
# Elastic Constant Matrix: (Units=GPa)
#
#
# Indices 1 2 3 4 5 6 
#
# 1 103.6564 57.4940 19.9050 10.0259 17.4179 -3.2766
# 2 57.4940 158.1653 13.8959 38.7332 -7.4731 -9.7995
# 3 19.9050 13.8959 114.4027 11.3640 -12.7154 -15.6813
# 4 10.0259 38.7332 11.3640 38.8146 -2.2778 -4.7148
# 5 17.4179 -7.4731 -12.7154 -2.2778 52.2912 5.6018
# 6 -3.2766 -9.7995 -15.6813 -4.7148 5.6018 57.7509
#
#
#
# Elastic Compliance Matrix: (Units=1/GPa)
#
#
# Indices 1 2 3 4 5 6 
#
# 1 0.014179 -0.005846 -0.002708 0.002592 -0.006091 -0.000120
# 2 -0.005846 0.010840 0.001092 -0.009347 0.003278 0.000723
# 3 -0.002708 0.001092 0.010016 -0.002871 0.003132 0.002213
# 4 0.002592 -0.009347 -0.002871 0.035274 -0.001447 0.000802
# 5 -0.006091 0.003278 0.003132 -0.001447 0.022452 -0.001235
# 6 -0.000120 0.000723 0.002213 0.000802 -0.001235 0.018218
#
#
# Mechanical properties :
#
#
# Convention : Reuss Voigt Hill
#
# Bulk Modulus (GPa) = 49.72195 62.09047 55.90621
# Shear Modulus (GPa) = 37.70541 48.76664 43.23602
#
# Velocity S-wave (km/s) = 3.84024 4.36734 4.11224
# Velocity P-wave (km/s) = 6.25384 7.05099 6.66435
#
# Compressibility (1/GPa) = 0.02011184
#
# Stress axis : x y z
#
# Youngs Moduli (GPa) = 70.52715 92.24752 99.83933
#
# Poissons Ratio (x) = 0.53931 0.27035
# Poissons Ratio (y) = 0.41232 -0.10906
# Poissons Ratio (z) = 0.19098 -0.10077
#
# Static dielectric constant tensor:
#      x y z
#    x 2.660060 0.395480 0.329230 
#    y 0.395480 2.326270 0.247290 
#    z 0.329230 0.247290 2.182730 
# 
# From -- ./inp_files/316008.got.cif
#   From: 2010.05.17/outbox.cif.g08.bks.cpg/sg2_159_cif.got.tgz:316008.got - 2010.06.03 11:33:40.
