data_PCOD9066222
_publ_section_title
;
Structure prediction by ZEFSAII (Michael W. Deem and Ramdas Pophale) SiO2 
 PCOD9066222
Probable space group: P -1
;
_chemical_formula_sum "Si O2"
_cell_formula_units_Z 14
_cell_length_a 11.694014
_cell_length_b 6.663740
_cell_length_c 12.004944
_cell_angle_alpha 66.150280
_cell_angle_beta 130.925323
_cell_angle_gamma 100.841582
_cell_volume 642.467861
_symmetry_space_group_name_H-M "P -1"
_symmetry_group_IT_number 2
_symmetry_cell_setting 'triclinic'
loop_
_space_group_symop_operation_xyz
x,y,z
-x,-y,-z
loop_
_atom_site_type_symbol
_atom_site_label
_atom_site_fract_x
_atom_site_fract_y
_atom_site_fract_z
Si Si1 0.903715 0.078579 0.201731
Si Si2 0.116514 0.620591 0.471604
Si Si3 0.361451 0.156318 0.330244
Si Si4 0.462382 0.609337 0.780515
Si Si5 0.867056 0.575413 0.721763
Si Si6 0.407175 0.835227 0.911654
Si Si7 0.166300 0.895276 0.096028
O O1 0.773436 0.094846 0.208453
O O2 0.979213 0.307524 0.192593
O O3 0.817269 0.055200 0.034733
O O4 0.033647 0.871662 0.347331
O O5 0.285957 0.598611 0.637124
O O6 0.136727 0.503812 0.390103
O O7 0.000000 0.500000 0.500000
O O8 0.433902 0.348089 0.267527
O O9 0.259600 0.242851 0.350156
O O10 0.500000 0.000000 0.500000
O O11 0.274832 0.014992 0.219043
O O12 0.455677 0.808064 0.820674
O O13 0.543753 0.397150 0.943694
O O14 0.840657 0.361684 0.825660
O O15 0.500000 0.000000 0.000000
O O16 0.000000 0.000000 0.000000
#
# Coordination Sequence:
#
# PCOD9066222 Si02
#       7
#     2   2   2   2   2   2   2
#     4  12  25  43  72 104 134 180 232 285 342 412
#     4  12  27  46  69 101 141 180 233 284 345 413
#     4  12  27  45  69 103 143 180 228 284 349 416
#     4  11  26  46  67 101 139 179 227 287 342 410
#     4  12  25  44  71 100 137 181 227 284 347 407
#     4  11  25  45  71  97 133 181 231 280 346 405
#     4  12  24  43  70 102 137 175 231 283 339 411
#
# _framework density 21.790975
#
# number of rings (size 3 to 8) (size 9 to 14) (size 15 to 20)
#    0.000    0.286    2.857    5.571    2.000   11.429 
#    0.000    0.000    0.000    0.000    0.000    0.000 
#    0.000    0.000    0.000    0.000    0.000    0.000 
#
# Total GULP energy -78307.867191 kJ/mol
# GULP energy per Si atom -5593.419085 kJ/mol
# Density = 2.174138 g / cm^3
# Si number density = 21.790975 Si / 1000 Ang^3
#
#
#
# Elastic Constant Matrix: (Units=GPa)
#
#
# Indices 1 2 3 4 5 6 
#
# 1 114.1978 19.2467 3.3819 5.9737 6.0304 -6.2201
# 2 19.2467 71.0165 8.5186 2.6556 14.1175 -7.0947
# 3 3.3819 8.5186 66.4369 10.6597 13.2172 -2.6104
# 4 5.9737 2.6556 10.6597 31.7430 6.1808 -3.5954
# 5 6.0304 14.1175 13.2172 6.1808 43.1338 3.5237
# 6 -6.2201 -7.0947 -2.6104 -3.5954 3.5237 41.1891
#
#
#
# Elastic Compliance Matrix: (Units=1/GPa)
#
#
# Indices 1 2 3 4 5 6 
#
# 1 0.009289 -0.002298 0.000181 -0.001418 -0.000475 0.000935
# 2 -0.002298 0.016066 -0.000953 0.000700 -0.004978 0.002847
# 3 0.000181 -0.000953 0.016796 -0.004664 -0.004264 0.000885
# 4 -0.001418 0.000700 -0.004664 0.034342 -0.003762 0.002930
# 5 -0.000475 -0.004978 -0.004264 -0.003762 0.027039 -0.003841
# 6 0.000935 0.002847 0.000885 0.002930 -0.003841 0.025550
#
#
# Mechanical properties :
#
#
# Convention : Reuss Voigt Hill
#
# Bulk Modulus (GPa) = 27.77025 34.88287 31.32656
# Shear Modulus (GPa) = 33.96101 37.91343 35.93722
#
# Velocity S-wave (km/s) = 3.95205 4.17570 4.06541
# Velocity P-wave (km/s) = 5.79625 6.26828 6.03688
#
# Compressibility (1/GPa) = 0.03600976
#
# Stress axis : x y z
#
# Youngs Moduli (GPa) = 107.65508 62.24234 59.53683
#
# Poissons Ratio (x) = 0.14305 -0.01075
# Poissons Ratio (y) = 0.24742 0.05675
# Poissons Ratio (z) = -0.01944 0.05933
#
# Static dielectric constant tensor:
#      x y z
#    x 1.739460 -0.011040 0.022870 
#    y -0.011040 1.772400 0.015790 
#    z 0.022870 0.015790 1.703910 
# 
# From -- ./inp_files/69288.got.cif
#   From: 2010.05.17/outbox.cif.g08.bks.cpg/sg2_35_cif.got.tgz:69288.got - 2010.06.03 11:33:40.
