data_PCOD9066962
_publ_section_title
;
Structure prediction by ZEFSAII (Michael W. Deem and Ramdas Pophale) SiO2 
 PCOD9066962
Probable space group: P -1
;
_chemical_formula_sum "Si O2"
_cell_formula_units_Z 16
_cell_length_a 15.212946
_cell_length_b 16.163772
_cell_length_c 14.881228
_cell_angle_alpha 133.590669
_cell_angle_beta 29.341596
_cell_angle_gamma 153.705045
_cell_volume 719.440466
_symmetry_space_group_name_H-M "P -1"
_symmetry_group_IT_number 2
_symmetry_cell_setting 'triclinic'
loop_
_space_group_symop_operation_xyz
x,y,z
-x,-y,-z
loop_
_atom_site_type_symbol
_atom_site_label
_atom_site_fract_x
_atom_site_fract_y
_atom_site_fract_z
Si Si1 0.720038 0.884651 0.935118
Si Si2 0.282310 0.157739 0.294937
Si Si3 0.421615 0.035908 0.509685
Si Si4 0.650665 0.607907 0.852144
Si Si5 0.576237 0.703277 0.317101
Si Si6 0.835104 0.292626 0.968160
Si Si7 0.536324 0.011619 0.763939
Si Si8 0.796819 0.635050 0.465423
O O1 0.841576 0.920458 0.754007
O O2 0.548216 0.680069 0.968897
O O3 0.475243 0.858357 0.130699
O O4 0.035495 0.087712 0.862186
O O5 0.407742 0.354860 0.346041
O O6 0.518870 0.175511 0.111605
O O7 0.000000 0.000000 0.500000
O O8 0.551286 0.073293 0.322474
O O9 0.036543 0.819620 0.676155
O O10 0.500000 0.000000 0.500000
O O11 0.513972 0.217623 0.576166
O O12 0.539284 0.454082 0.766324
O O13 0.500000 0.500000 0.000000
O O14 0.410854 0.576448 0.463074
O O15 0.049276 0.327532 0.737284
O O16 0.000000 0.500000 0.000000
O O17 0.715827 0.167735 0.071422
O O18 0.894943 0.171988 0.600506
#
# Coordination Sequence:
#
# PCOD9066962 Si02
#       8
#     2   2   2   2   2   2   2   2
#     4  11  26  45  73 105 141 186 233 295 357 424
#     4  12  24  44  71  99 145 189 236 289 352 422
#     4  11  27  47  72 104 139 186 234 295 361 422
#     4  11  26  47  72 103 137 184 239 295 359 421
#     4  11  25  47  74 101 144 184 234 293 358 425
#     4  12  28  43  68 109 144 190 245 288 352 432
#     4  12  24  48  68 103 147 183 237 299 352 423
#     4  12  23  46  71 102 145 189 236 290 356 418
#
# _framework density 22.239504
#
# number of rings (size 3 to 8) (size 9 to 14) (size 15 to 20)
#    0.000    0.500    5.000    2.625    7.000    3.000 
#    0.000    0.000    0.000    0.000    0.000    0.000 
#    0.000    0.000    0.000    0.000    0.000    0.000 
#
# Total GULP energy -89481.608149 kJ/mol
# GULP energy per Si atom -5592.600509 kJ/mol
# Density = 2.218889 g / cm^3
# Si number density = 22.239504 Si / 1000 Ang^3
#
#
#
# Elastic Constant Matrix: (Units=GPa)
#
#
# Indices 1 2 3 4 5 6 
#
# 1 109.3869 51.0294 28.2763 14.2403 20.6096 -27.9173
# 2 51.0294 140.6925 26.3264 16.7060 14.2797 -22.4592
# 3 28.2763 26.3264 67.1933 21.3552 17.0843 -10.5935
# 4 14.2403 16.7060 21.3552 31.4231 -12.4755 -2.4163
# 5 20.6096 14.2797 17.0843 -12.4755 32.8963 -1.7455
# 6 -27.9173 -22.4592 -10.5935 -2.4163 -1.7455 43.0797
#
#
#
# Elastic Compliance Matrix: (Units=1/GPa)
#
#
# Indices 1 2 3 4 5 6 
#
# 1 0.016551 -0.001662 0.004914 -0.016337 -0.017895 0.009426
# 2 -0.001662 0.009619 0.001866 -0.008123 -0.006990 0.003658
# 3 0.004914 0.001866 0.037369 -0.043502 -0.039299 0.009315
# 4 -0.016337 -0.008123 -0.043502 0.101115 0.073805 -0.016857
# 5 -0.017895 -0.006990 -0.039299 0.073805 0.092140 -0.017032
# 6 0.009426 0.003658 0.009315 -0.016857 -0.017032 0.031883
#
#
# Mechanical properties :
#
#
# Convention : Reuss Voigt Hill
#
# Bulk Modulus (GPa) = 13.55437 58.72631 36.14034
# Shear Modulus (GPa) = 16.49987 35.58919 26.04453
#
# Velocity S-wave (km/s) = 2.72677 4.00468 3.42584
# Velocity P-wave (km/s) = 4.00271 6.91714 5.65104
#
# Compressibility (1/GPa) = 0.07377696
#
# Stress axis : x y z
#
# Youngs Moduli (GPa) = 60.41977 103.95919 26.75981
#
# Poissons Ratio (x) = 0.17275 -0.13151
# Poissons Ratio (y) = 0.10040 -0.04994
# Poissons Ratio (z) = -0.29692 -0.19400
#
# Static dielectric constant tensor:
#      x y z
#    x 1.860620 0.013380 -0.032360 
#    y 0.013380 1.828600 0.004140 
#    z -0.032360 0.004140 1.835220 
# 
# From -- ./inp_files/534364.got.cif
#   From: 2010.05.17/outbox.cif.g08.bks.cpg/sg2_268_cif.got.tgz:534364.got - 2010.06.03 11:33:40.
