data_PCOD9066081
_publ_section_title
;
Structure prediction by ZEFSAII (Michael W. Deem and Ramdas Pophale) SiO2 
 PCOD9066081
Probable space group: P -1
;
_chemical_formula_sum "Si O2"
_cell_formula_units_Z 16
_cell_length_a 11.222008
_cell_length_b 11.155254
_cell_length_c 6.238674
_cell_angle_alpha 99.247266
_cell_angle_beta 88.566149
_cell_angle_gamma 118.129802
_cell_volume 678.629053
_symmetry_space_group_name_H-M "P -1"
_symmetry_group_IT_number 2
_symmetry_cell_setting 'triclinic'
loop_
_space_group_symop_operation_xyz
x,y,z
-x,-y,-z
loop_
_atom_site_type_symbol
_atom_site_label
_atom_site_fract_x
_atom_site_fract_y
_atom_site_fract_z
Si Si1 0.246285 0.670722 0.031949
Si Si2 0.000838 0.699965 0.156868
Si Si3 0.881354 0.983012 0.661354
Si Si4 0.191569 0.251975 0.074488
Si Si5 0.368242 0.538913 0.257531
Si Si6 0.347420 0.204363 0.682759
Si Si7 0.854331 0.472098 0.413972
Si Si8 0.489244 0.941597 0.232179
O O1 0.323425 0.581144 0.047844
O O2 0.341231 0.812796 0.183509
O O3 0.098915 0.632044 0.117093
O O4 0.215644 0.659964 0.778253
O O5 0.893118 0.611354 0.316940
O O6 0.917295 0.693823 0.945553
O O7 0.086658 0.862234 0.244155
O O8 0.876821 0.888691 0.832882
O O9 0.734388 0.890953 0.537868
O O10 0.000000 0.000000 0.500000
O O11 0.324452 0.377808 0.208171
O O12 0.240841 0.225127 0.837709
O O13 0.522374 0.648340 0.329399
O O14 0.262674 0.552520 0.423357
O O15 0.404007 0.117125 0.786728
O O16 0.000000 0.500000 0.500000
O O17 0.500000 0.000000 0.500000
O O18 0.500000 0.000000 0.000000
#
# Coordination Sequence:
#
# PCOD9066081 Si02
#       8
#     2   2   2   2   2   2   2   2
#     4  11  25  44  74 107 150 194 255 327 388 461
#     4  12  24  46  71 106 150 186 253 311 388 459
#     4  12  27  47  71 105 146 200 252 309 384 468
#     4  12  26  47  73 104 150 203 246 316 382 469
#     4  11  25  47  73 107 147 191 259 314 394 453
#     4  11  28  47  73 108 150 196 260 309 391 468
#     4  12  24  44  76 111 149 199 254 326 391 460
#     4  11  28  49  79 112 156 207 260 324 399 469
#
# _framework density 23.576944999999998
#
# number of rings (size 3 to 8) (size 9 to 14) (size 15 to 20)
#    0.000    0.500    3.750    3.375    7.000    2.500 
#    0.000    0.000    0.000    0.000    0.000    0.000 
#    0.000    0.000    0.000    0.000    0.000    0.000 
#
# Total GULP energy -89261.431128 kJ/mol
# GULP energy per Si atom -5578.839445 kJ/mol
# Density = 2.352328 g / cm^3
# Si number density = 23.576945 Si / 1000 Ang^3
#
#
#
# Elastic Constant Matrix: (Units=GPa)
#
#
# Indices 1 2 3 4 5 6 
#
# 1 75.7355 17.5431 15.5106 -3.6956 20.8888 12.5435
# 2 17.5431 133.9177 41.9425 15.2975 24.7030 22.2740
# 3 15.5106 41.9425 100.5959 16.1274 18.1978 20.1577
# 4 -3.6956 15.2975 16.1274 50.1112 7.2789 10.3695
# 5 20.8888 24.7030 18.1978 7.2789 38.7690 7.2306
# 6 12.5435 22.2740 20.1577 10.3695 7.2306 36.9067
#
#
#
# Elastic Compliance Matrix: (Units=1/GPa)
#
#
# Indices 1 2 3 4 5 6 
#
# 1 0.016621 -0.000061 -0.000672 0.003640 -0.008424 -0.004618
# 2 -0.000061 0.009681 -0.002446 -0.000856 -0.004188 -0.003425
# 3 -0.000672 -0.002446 0.012751 -0.002139 -0.002900 -0.004091
# 4 0.003640 -0.000856 -0.002139 0.022795 -0.003717 -0.005229
# 5 -0.008424 -0.004188 -0.002900 -0.003717 0.034838 0.001194
# 6 -0.004618 -0.003425 -0.004091 -0.005229 0.001194 0.034202
#
#
# Mechanical properties :
#
#
# Convention : Reuss Voigt Hill
#
# Bulk Modulus (GPa) = 30.58389 51.13797 40.86093
# Shear Modulus (GPa) = 33.75071 40.84093 37.29582
#
# Velocity S-wave (km/s) = 3.78764 4.16653 3.98160
# Velocity P-wave (km/s) = 5.66819 6.69952 6.20532
#
# Compressibility (1/GPa) = 0.03269695
#
# Stress axis : x y z
#
# Youngs Moduli (GPa) = 60.16402 103.29116 78.42220
#
# Poissons Ratio (x) = 0.00628 0.05268
# Poissons Ratio (y) = 0.00366 0.19182
# Poissons Ratio (z) = 0.04042 0.25264
#
# Static dielectric constant tensor:
#      x y z
#    x 1.868280 -0.048820 -0.010620 
#    y -0.048820 1.901580 -0.067280 
#    z -0.010620 -0.067280 1.908870 
# 
# From -- ./inp_files/69773.got.cif
#   From: 2010.05.17/outbox.cif.g08.bks.cpg/sg2_35_cif.got.tgz:69773.got - 2010.06.03 11:33:40.
