data_PCOD9066429
_publ_section_title
;
Structure prediction by ZEFSAII (Michael W. Deem and Ramdas Pophale) SiO2 
 PCOD9066429
Probable space group: P -1
;
_chemical_formula_sum "Si O2"
_cell_formula_units_Z 14
_cell_length_a 5.167738
_cell_length_b 9.117363
_cell_length_c 19.061112
_cell_angle_alpha 135.065331
_cell_angle_beta 115.046259
_cell_angle_gamma 81.200222
_cell_volume 559.361985
_symmetry_space_group_name_H-M "P -1"
_symmetry_group_IT_number 2
_symmetry_cell_setting 'triclinic'
loop_
_space_group_symop_operation_xyz
x,y,z
-x,-y,-z
loop_
_atom_site_type_symbol
_atom_site_label
_atom_site_fract_x
_atom_site_fract_y
_atom_site_fract_z
Si Si1 0.803345 0.679519 0.922062
Si Si2 0.715303 0.919954 0.341064
Si Si3 0.391143 0.271776 0.445900
Si Si4 0.216140 0.123783 0.165173
Si Si5 0.273663 0.266714 0.575209
Si Si6 0.125221 0.724372 0.695582
Si Si7 0.312626 0.458319 0.893040
O O1 0.995740 0.503204 0.887699
O O2 0.767474 0.735981 0.856083
O O3 0.502756 0.617695 0.910530
O O4 0.012120 0.892388 0.050008
O O5 0.616128 0.769474 0.347478
O O6 0.727396 0.770839 0.225784
O O7 0.497480 0.076069 0.359051
O O8 0.024482 0.063840 0.452484
O O9 0.500000 0.500000 0.500000
O O10 0.500306 0.283912 0.542792
O O11 0.044666 0.244906 0.384418
O O12 0.553174 0.124617 0.217117
O O13 0.070760 0.222533 0.245664
O O14 0.162650 0.483962 0.628678
O O15 0.500000 0.500000 0.000000
#
# Coordination Sequence:
#
# PCOD9066429 Si02
#       7
#     2   2   2   2   2   2   2
#     4  11  25  50  73 107 148 194 262 308 370 445
#     4  11  27  47  75 105 152 204 247 304 380 453
#     4  12  26  46  72 111 153 195 247 313 378 449
#     4  11  25  45  78 109 146 199 245 318 377 440
#     4  11  25  47  72 110 151 201 249 301 374 469
#     4  12  25  43  77 111 155 192 251 311 383 449
#     4  12  28  49  76 108 150 200 255 309 371 447
#
# _framework density 25.028513
#
# number of rings (size 3 to 8) (size 9 to 14) (size 15 to 20)
#    0.000    0.571    1.429    5.571    6.000    3.429 
#    0.000    0.000    0.000    0.000    0.000    0.000 
#    0.000    0.000    0.000    0.000    0.000    0.000 
#
# Total GULP energy -78507.366069 kJ/mol
# GULP energy per Si atom -5607.669005 kJ/mol
# Density = 2.497155 g / cm^3
# Si number density = 25.028513 Si / 1000 Ang^3
#
#
#
# Elastic Constant Matrix: (Units=GPa)
#
#
# Indices 1 2 3 4 5 6 
#
# 1 59.3036 -11.6590 10.2577 -6.1812 -1.1306 9.1482
# 2 -11.6590 91.1041 34.5793 -2.7967 -18.3033 -1.1135
# 3 10.2577 34.5793 125.3248 -10.0346 -17.0666 -2.5271
# 4 -6.1812 -2.7967 -10.0346 36.9459 1.2745 -2.3643
# 5 -1.1306 -18.3033 -17.0666 1.2745 51.6789 0.5046
# 6 9.1482 -1.1135 -2.5271 -2.3643 0.5046 47.0545
#
#
#
# Elastic Compliance Matrix: (Units=1/GPa)
#
#
# Indices 1 2 3 4 5 6 
#
# 1 0.018761 0.003460 -0.002241 0.002534 0.000868 -0.003568
# 2 0.003460 0.013489 -0.003473 0.000494 0.003699 -0.000555
# 3 -0.002241 -0.003473 0.009544 0.001952 0.001815 0.000945
# 4 0.002534 0.000494 0.001952 0.028118 0.000171 0.001035
# 5 0.000868 0.003699 0.001815 0.000171 0.021277 -0.000203
# 6 -0.003568 -0.000555 0.000945 0.001035 -0.000203 0.022037
#
#
# Mechanical properties :
#
#
# Convention : Reuss Voigt Hill
#
# Bulk Modulus (GPa) = 26.81962 38.00984 32.41473
# Shear Modulus (GPa) = 38.41337 43.30616 40.85976
#
# Velocity S-wave (km/s) = 3.92188 4.16417 4.04484
# Velocity P-wave (km/s) = 5.58991 6.19193 5.89860
#
# Compressibility (1/GPa) = 0.03728613
#
# Stress axis : x y z
#
# Youngs Moduli (GPa) = 53.30104 74.13394 104.78330
#
# Poissons Ratio (x) = -0.25652 0.23484
# Poissons Ratio (y) = -0.18443 0.36391
# Poissons Ratio (z) = 0.11946 0.25747
#
# Static dielectric constant tensor:
#      x y z
#    x 2.009840 0.082100 0.027870 
#    y 0.082100 1.987660 0.008380 
#    z 0.027870 0.008380 1.983130 
# 
# From -- ./inp_files/548468.got.cif
#   From: 2010.05.17/outbox.cif.g08.bks.cpg/sg2_275_cif.got.tgz:548468.got - 2010.06.03 11:33:40.
