data_PCOD9066107
_publ_section_title
;
Structure prediction by ZEFSAII (Michael W. Deem and Ramdas Pophale) SiO2 
 PCOD9066107
Probable space group: P -1
;
_chemical_formula_sum "Si O2"
_cell_formula_units_Z 16
_cell_length_a 8.486266
_cell_length_b 25.399645
_cell_length_c 9.700145
_cell_angle_alpha 136.225586
_cell_angle_beta 100.936754
_cell_angle_gamma 43.397066
_cell_volume 705.152320
_symmetry_space_group_name_H-M "P -1"
_symmetry_group_IT_number 2
_symmetry_cell_setting 'triclinic'
loop_
_space_group_symop_operation_xyz
x,y,z
-x,-y,-z
loop_
_atom_site_type_symbol
_atom_site_label
_atom_site_fract_x
_atom_site_fract_y
_atom_site_fract_z
Si Si1 0.870824 0.826530 0.204068
Si Si2 0.884735 0.835244 0.775219
Si Si3 0.581720 0.316643 0.269674
Si Si4 0.092477 0.622773 0.620919
Si Si5 0.238705 0.832923 0.232733
Si Si6 0.878986 0.325720 0.748623
Si Si7 0.279368 0.312016 0.734092
Si Si8 0.231281 0.386963 0.591886
O O1 0.057663 0.826983 0.198451
O O2 0.041197 0.726589 0.180882
O O3 0.500000 0.000000 0.500000
O O4 0.908506 0.747300 0.942482
O O5 0.045968 0.829883 0.895129
O O6 0.037864 0.696308 0.612401
O O7 0.038891 0.775117 0.535410
O O8 0.500000 0.000000 0.000000
O O9 0.429031 0.453864 0.427712
O O10 0.393397 0.377096 0.493273
O O11 0.551077 0.261625 0.050143
O O12 0.941460 0.604611 0.515109
O O13 0.439343 0.770272 0.281199
O O14 0.000000 0.000000 0.500000
O O15 0.132818 0.287691 0.677334
O O16 0.500000 0.500000 0.000000
O O17 0.412883 0.265102 0.511086
O O18 0.989078 0.476677 0.077889
#
# Coordination Sequence:
#
# PCOD9066107 Si02
#       8
#     2   2   2   2   2   2   2   2
#     4  12  28  48  76 107 149 196 250 304 379 445
#     4  12  27  48  72 105 151 193 247 313 375 439
#     4  12  27  47  77 111 145 199 256 303 374 446
#     4  12  24  49  77 107 143 194 252 309 360 442
#     4  12  29  47  74 107 156 198 242 310 380 449
#     4  12  27  46  78 108 145 196 249 309 371 445
#     4  11  25  47  71 110 153 184 247 305 384 437
#     4  11  25  44  76 109 146 190 240 314 368 441
#
# _framework density 22.690134
#
# number of rings (size 3 to 8) (size 9 to 14) (size 15 to 20)
#    0.000    0.250    3.750    4.500   12.250    0.000 
#    0.000    1.250    0.000    0.000    0.000    0.000 
#    0.000    0.000    0.000    0.000    0.000    0.000 
#
# Total GULP energy -89219.748197 kJ/mol
# GULP energy per Si atom -5576.234262 kJ/mol
# Density = 2.263849 g / cm^3
# Si number density = 22.690134 Si / 1000 Ang^3
#
#
#
# Elastic Constant Matrix: (Units=GPa)
#
#
# Indices 1 2 3 4 5 6 
#
# 1 61.6828 36.1477 -3.8166 -9.1174 4.5906 6.1838
# 2 36.1477 124.5200 28.2236 -35.2674 -13.6142 -1.2072
# 3 -3.8166 28.2236 73.5096 -14.8613 -1.9976 18.4732
# 4 -9.1174 -35.2674 -14.8613 40.5246 -9.5261 -1.8170
# 5 4.5906 -13.6142 -1.9976 -9.5261 33.3416 -5.5866
# 6 6.1838 -1.2072 18.4732 -1.8170 -5.5866 35.4064
#
#
#
# Elastic Compliance Matrix: (Units=1/GPa)
#
#
# Indices 1 2 3 4 5 6 
#
# 1 0.024295 -0.011182 0.006863 -0.004677 -0.010530 -0.010107
# 2 -0.011182 0.018807 -0.006608 0.015301 0.014728 0.009151
# 3 0.006863 -0.006608 0.019792 0.001541 -0.004080 -0.012315
# 4 -0.004677 0.015301 0.001541 0.042497 0.020113 0.005889
# 5 -0.010530 0.014728 -0.004080 0.020113 0.045072 0.012614
# 6 -0.010107 0.009151 -0.012315 0.005889 0.012614 0.039039
#
#
# Mechanical properties :
#
#
# Convention : Reuss Voigt Hill
#
# Bulk Modulus (GPa) = 24.36593 42.31354 33.33974
# Shear Modulus (GPa) = 22.21865 35.13170 28.67518
#
# Velocity S-wave (km/s) = 3.13265 3.93914 3.55882
# Velocity P-wave (km/s) = 4.88329 6.27519 5.62248
#
# Compressibility (1/GPa) = 0.04104092
#
# Stress axis : x y z
#
# Youngs Moduli (GPa) = 41.16045 53.17088 50.52462
#
# Poissons Ratio (x) = 0.59457 -0.34674
# Poissons Ratio (y) = 0.46027 0.33384
# Poissons Ratio (z) = -0.28248 0.35133
#
# Static dielectric constant tensor:
#      x y z
#    x 1.201910 0.041170 -0.340250 
#    y 0.041170 1.690890 0.008520 
#    z -0.340250 0.008520 1.663130 
# 
# From -- ./inp_files/226507.got.cif
#   From: 2010.05.17/outbox.cif.g08.bks.cpg/sg2_114_cif.got.tgz:226507.got - 2010.06.03 11:33:40.
