data_PCOD9066654
_publ_section_title
;
Structure prediction by ZEFSAII (Michael W. Deem and Ramdas Pophale) SiO2 
 PCOD9066654
Probable space group: P -1
;
_chemical_formula_sum "Si O2"
_cell_formula_units_Z 12
_cell_length_a 10.822013
_cell_length_b 9.837196
_cell_length_c 11.567241
_cell_angle_alpha 141.992970
_cell_angle_beta 40.568569
_cell_angle_gamma 119.072572
_cell_volume 473.239032
_symmetry_space_group_name_H-M "P -1"
_symmetry_group_IT_number 2
_symmetry_cell_setting 'triclinic'
loop_
_space_group_symop_operation_xyz
x,y,z
-x,-y,-z
loop_
_atom_site_type_symbol
_atom_site_label
_atom_site_fract_x
_atom_site_fract_y
_atom_site_fract_z
Si Si1 0.963833 0.080517 0.274116
Si Si2 0.306163 0.450185 0.159345
Si Si3 0.539074 0.195278 0.019315
Si Si4 0.357993 0.445761 0.663140
Si Si5 0.133905 0.116582 0.563049
Si Si6 0.703233 0.032987 0.213202
O O1 0.887727 0.331804 0.556509
O O2 0.922166 0.910017 0.283857
O O3 0.825930 0.100320 0.273968
O O4 0.182723 0.981252 0.000558
O O5 0.500000 0.500000 0.000000
O O6 0.352615 0.369880 0.206596
O O7 0.285741 0.232675 0.956173
O O8 0.654997 0.056856 0.736526
O O9 0.667744 0.342088 0.089075
O O10 0.500000 0.000000 0.000000
O O11 0.500000 0.500000 0.500000
O O12 0.174486 0.366256 0.687925
O O13 0.493896 0.222355 0.484001
O O14 0.000000 0.000000 0.500000
#
# Coordination Sequence:
#
# PCOD9066654 Si02
#       6
#     2   2   2   2   2   2
#     4  11  26  46  70 110 144 183 244 301 362 427
#     4  12  23  44  74 105 141 186 244 299 360 429
#     4  12  25  47  75 106 144 194 244 296 367 437
#     4  12  25  47  76 103 142 198 241 294 367 436
#     4  12  29  47  71 108 149 190 244 306 360 435
#     4  11  25  46  73 105 143 187 239 302 362 432
#
# _framework density 25.357165999999999
#
# number of rings (size 3 to 8) (size 9 to 14) (size 15 to 20)
#    0.000    0.333    6.667    0.500    7.000    2.000 
#    6.000    0.000    0.000    0.000    0.000    0.000 
#    0.000    0.000    0.000    0.000    0.000    0.000 
#
# Total GULP energy -67107.331475 kJ/mol
# GULP energy per Si atom -5592.277623 kJ/mol
# Density = 2.529945 g / cm^3
# Si number density = 25.357166 Si / 1000 Ang^3
#
#
#
# Elastic Constant Matrix: (Units=GPa)
#
#
# Indices 1 2 3 4 5 6 
#
# 1 73.5431 24.8783 13.0918 15.4538 11.5477 16.0844
# 2 24.8783 141.4827 34.3250 -0.9208 15.5076 18.7472
# 3 13.0918 34.3250 123.4739 18.3746 18.6404 9.4165
# 4 15.4538 -0.9208 18.3746 50.2053 3.5476 13.2350
# 5 11.5477 15.5076 18.6404 3.5476 40.4009 12.9726
# 6 16.0844 18.7472 9.4165 13.2350 12.9726 43.1442
#
#
#
# Elastic Compliance Matrix: (Units=1/GPa)
#
#
# Indices 1 2 3 4 5 6 
#
# 1 0.016263 -0.002229 0.000118 -0.004092 -0.002487 -0.003117
# 2 -0.002229 0.008471 -0.002123 0.002437 -0.000933 -0.002854
# 3 0.000118 -0.002123 0.009698 -0.003623 -0.003691 0.000983
# 4 -0.004092 0.002437 -0.003623 0.024190 0.001949 -0.006749
# 5 -0.002487 -0.000933 -0.003691 0.001949 0.029728 -0.007399
# 6 -0.003117 -0.002854 0.000983 -0.006749 -0.007399 0.029660
#
#
# Mechanical properties :
#
#
# Convention : Reuss Voigt Hill
#
# Bulk Modulus (GPa) = 38.51659 53.67666 46.09662
# Shear Modulus (GPa) = 37.00048 44.49705 40.74877
#
# Velocity S-wave (km/s) = 3.82406 4.19359 4.01308
# Velocity P-wave (km/s) = 5.89241 6.68300 6.30012
#
# Compressibility (1/GPa) = 0.02596284
#
# Stress axis : x y z
#
# Youngs Moduli (GPa) = 61.49036 118.04716 103.11553
#
# Poissons Ratio (x) = 0.26315 -0.01212
# Poissons Ratio (y) = 0.13708 0.21889
# Poissons Ratio (z) = -0.00723 0.25058
#
# Static dielectric constant tensor:
#      x y z
#    x 2.016930 0.063850 -0.027580 
#    y 0.063850 2.111590 0.032130 
#    z -0.027580 0.032130 2.006190 
# 
# From -- ./inp_files/274910.got.cif
#   From: 2010.05.17/outbox.cif.g08.bks.cpg/sg2_138_cif.got.tgz:274910.got - 2010.06.03 11:33:40.
