data_PCOD9066419
_publ_section_title
;
Structure prediction by ZEFSAII (Michael W. Deem and Ramdas Pophale) SiO2 
 PCOD9066419
Probable space group: P -1
;
_chemical_formula_sum "Si O2"
_cell_formula_units_Z 11
_cell_length_a 9.038560
_cell_length_b 9.119606
_cell_length_c 17.434490
_cell_angle_alpha 140.673885
_cell_angle_beta 36.466864
_cell_angle_gamma 146.390992
_cell_volume 448.647249
_symmetry_space_group_name_H-M "P -1"
_symmetry_group_IT_number 2
_symmetry_cell_setting 'triclinic'
loop_
_space_group_symop_operation_xyz
x,y,z
-x,-y,-z
loop_
_atom_site_type_symbol
_atom_site_label
_atom_site_fract_x
_atom_site_fract_y
_atom_site_fract_z
Si Si1 0.500000 0.500000 0.500000
Si Si2 0.150708 0.226793 0.765321
Si Si3 0.592891 0.176067 0.955862
Si Si4 0.816347 0.619781 0.587242
Si Si5 0.258897 0.818716 0.809709
Si Si6 0.271902 0.276919 0.907147
O O1 0.719160 0.573929 0.519195
O O2 0.301945 0.591058 0.664312
O O3 0.496919 0.447463 0.693894
O O4 0.110027 0.160307 0.845809
O O5 0.954417 0.349108 0.876284
O O6 0.017477 0.947414 0.658073
O O7 0.474423 0.964171 0.850529
O O8 0.501206 0.394025 0.070647
O O9 0.500000 0.000000 0.000000
O O10 0.000000 0.500000 0.500000
O O11 0.374702 0.076980 0.807151
O O12 0.934753 0.731343 0.940951
#
# Coordination Sequence:
#
# PCOD9066419 Si02
#       6
#     1   2   2   2   2   2
#     4  12  26  52  78 114 164 218 264 326 416 490
#     4  12  25  48  79 111 152 207 273 333 404 473
#     4  12  23  44  77 113 155 201 266 339 404 476
#     4  12  28  51  77 113 162 214 271 331 405 495
#     4  11  25  47  72 113 159 205 265 330 403 484
#     4  11  25  45  77 114 152 204 270 337 401 473
#
# _framework density 24.518148
#
# number of rings (size 3 to 8) (size 9 to 14) (size 15 to 20)
#    0.000    0.364    3.636    4.909    0.000    0.727 
#    9.818    0.000    0.000    0.000    0.000    0.000 
#    0.000    0.000    0.000    0.000    0.000    0.000 
#
# Total GULP energy -61270.360884 kJ/mol
# GULP energy per Si atom -5570.032808 kJ/mol
# Density = 2.446234 g / cm^3
# Si number density = 24.518148 Si / 1000 Ang^3
#
#
#
# Elastic Constant Matrix: (Units=GPa)
#
#
# Indices 1 2 3 4 5 6 
#
# 1 153.2828 17.6151 42.5751 1.5928 27.4776 -13.2455
# 2 17.6151 93.0335 10.9842 -3.6920 -0.5296 -5.0156
# 3 42.5751 10.9842 87.5831 4.6271 39.9962 3.5747
# 4 1.5928 -3.6920 4.6271 21.5988 8.7228 -6.2289
# 5 27.4776 -0.5296 39.9962 8.7228 56.4345 1.5289
# 6 -13.2455 -5.0156 3.5747 -6.2289 1.5289 41.2383
#
#
#
# Elastic Compliance Matrix: (Units=1/GPa)
#
#
# Indices 1 2 3 4 5 6 
#
# 1 0.008116 -0.000955 -0.003068 0.001642 -0.002123 0.003083
# 2 -0.000955 0.011321 -0.001803 0.002237 0.001463 0.001510
# 3 -0.003068 -0.001803 0.018523 -0.000065 -0.011575 -0.002391
# 4 0.001642 0.002237 -0.000065 0.052907 -0.009158 0.009136
# 5 -0.002123 0.001463 -0.011575 -0.009158 0.028439 -0.001938
# 6 0.003083 0.001510 -0.002391 0.009136 -0.001938 0.027082
#
#
# Mechanical properties :
#
#
# Convention : Reuss Voigt Hill
#
# Bulk Modulus (GPa) = 38.01419 52.91643 45.46531
# Shear Modulus (GPa) = 29.97415 41.36932 35.67173
#
# Velocity S-wave (km/s) = 3.50026 4.11212 3.81847
# Velocity P-wave (km/s) = 5.64570 6.64647 6.16642
#
# Compressibility (1/GPa) = 0.02630597
#
# Stress axis : x y z
#
# Youngs Moduli (GPa) = 123.21472 88.33087 53.98794
#
# Poissons Ratio (x) = 0.08436 0.16566
# Poissons Ratio (y) = 0.11768 0.09736
# Poissons Ratio (z) = 0.37808 0.15929
#
# Static dielectric constant tensor:
#      x y z
#    x 1.963400 0.008040 -0.027250 
#    y 0.008040 2.024550 -0.039110 
#    z -0.027250 -0.039110 1.943530 
# 
# From -- ./inp_files/21503.got.cif
#   From: 2010.05.17/outbox.cif.g08.bks.cpg/sg2_11_cif.got.tgz:21503.got - 2010.06.03 11:33:40.
