data_PCOD9066878
_publ_section_title
;
Structure prediction by ZEFSAII (Michael W. Deem and Ramdas Pophale) SiO2 
 PCOD9066878
Probable space group: P -1
;
_chemical_formula_sum "Si O2"
_cell_formula_units_Z 14
_cell_length_a 9.253401
_cell_length_b 10.243779
_cell_length_c 11.914738
_cell_angle_alpha 57.689465
_cell_angle_beta 125.255607
_cell_angle_gamma 133.706640
_cell_volume 648.835296
_symmetry_space_group_name_H-M "P -1"
_symmetry_group_IT_number 2
_symmetry_cell_setting 'triclinic'
loop_
_space_group_symop_operation_xyz
x,y,z
-x,-y,-z
loop_
_atom_site_type_symbol
_atom_site_label
_atom_site_fract_x
_atom_site_fract_y
_atom_site_fract_z
Si Si1 0.450606 0.451307 0.370907
Si Si2 0.122256 0.557008 0.146140
Si Si3 0.716663 0.232618 0.247347
Si Si4 0.724302 0.021100 0.920732
Si Si5 0.838515 0.981181 0.530522
Si Si6 0.992165 0.101253 0.791755
Si Si7 0.810847 0.502943 0.351956
O O1 0.500000 0.500000 0.500000
O O2 0.320861 0.537299 0.233419
O O3 0.305831 0.230558 0.400824
O O4 0.661914 0.513158 0.370657
O O5 0.208849 0.768806 0.122456
O O6 0.946755 0.396679 0.226159
O O7 0.000000 0.500000 0.000000
O O8 0.680732 0.327982 0.292661
O O9 0.527159 0.136387 0.115959
O O10 0.720513 0.064466 0.379437
O O11 0.796445 0.005653 0.834291
O O12 0.859097 0.973629 0.083416
O O13 0.000000 0.000000 0.500000
O O14 0.938617 0.085372 0.644111
O O15 0.104325 0.317451 0.769524
O O16 0.000000 0.500000 0.500000
#
# Coordination Sequence:
#
# PCOD9066878 Si02
#       7
#     2   2   2   2   2   2   2
#     4  12  26  44  72 105 142 188 239 298 363 424
#     4  12  27  50  71 106 153 187 236 303 364 433
#     4  12  26  46  76 105 141 193 241 297 361 428
#     4  11  27  47  73 106 146 192 243 292 366 434
#     4  12  24  44  70 103 142 184 242 296 360 423
#     4  11  25  47  71 105 147 188 242 301 353 436
#     4  12  25  46  75 104 144 189 244 298 358 429
#
# _framework density 21.577124000000001
#
# number of rings (size 3 to 8) (size 9 to 14) (size 15 to 20)
#    0.000    0.286    4.286    4.286    4.000    3.429 
#    0.000    0.000    0.000    0.000    0.000    0.000 
#    0.000    0.000    0.000    0.000    0.000    0.000 
#
# Total GULP energy -78296.479589 kJ/mol
# GULP energy per Si atom -5592.605685 kJ/mol
# Density = 2.152801 g / cm^3
# Si number density = 21.577124 Si / 1000 Ang^3
#
#
#
# Elastic Constant Matrix: (Units=GPa)
#
#
# Indices 1 2 3 4 5 6 
#
# 1 104.8788 15.6056 33.6786 4.4624 20.7735 -1.0210
# 2 15.6056 110.3230 12.1904 -4.9945 34.5458 -7.1655
# 3 33.6786 12.1904 86.3480 -2.4377 25.7232 -9.3969
# 4 4.4624 -4.9945 -2.4377 44.2464 -11.7458 -1.0807
# 5 20.7735 34.5458 25.7232 -11.7458 37.9044 -1.8607
# 6 -1.0210 -7.1655 -9.3969 -1.0807 -1.8607 33.3313
#
#
#
# Elastic Compliance Matrix: (Units=1/GPa)
#
#
# Indices 1 2 3 4 5 6 
#
# 1 0.011690 0.000179 -0.003176 -0.002766 -0.005315 -0.000885
# 2 0.000179 0.013417 0.002640 -0.002183 -0.014660 0.002745
# 3 -0.003176 0.002640 0.016496 -0.001587 -0.012137 0.004392
# 4 -0.002766 -0.002183 -0.001587 0.025915 0.012640 0.000544
# 5 -0.005315 -0.014660 -0.012137 0.012640 0.054648 -0.003275
# 6 -0.000885 0.002745 0.004392 0.000544 -0.003275 0.031638
#
#
# Mechanical properties :
#
#
# Convention : Reuss Voigt Hill
#
# Bulk Modulus (GPa) = 24.45596 47.16655 35.81126
# Shear Modulus (GPa) = 29.73602 39.10143 34.41873
#
# Velocity S-wave (km/s) = 3.71634 4.26158 3.99826
# Velocity P-wave (km/s) = 5.45653 6.79130 6.16017
#
# Compressibility (1/GPa) = 0.04088982
#
# Stress axis : x y z
#
# Youngs Moduli (GPa) = 85.54434 74.53125 60.62228
#
# Poissons Ratio (x) = -0.01334 0.19252
# Poissons Ratio (y) = -0.01531 -0.16006
# Poissons Ratio (z) = 0.27166 -0.19678
#
# Static dielectric constant tensor:
#      x y z
#    x 2.009990 -0.022820 -0.208450 
#    y -0.022820 1.318150 0.055750 
#    z -0.208450 0.055750 1.944590 
# 
# From -- ./inp_files/157696.got.cif
#   From: 2010.05.17/outbox.cif.g08.bks.cpg/sg2_79_cif.got.tgz:157696.got - 2010.06.03 11:33:40.
