data_PCOD9066670
_publ_section_title
;
Structure prediction by ZEFSAII (Michael W. Deem and Ramdas Pophale) SiO2 
 PCOD9066670
Probable space group: P -1
;
_chemical_formula_sum "Si O2"
_cell_formula_units_Z 14
_cell_length_a 11.745277
_cell_length_b 20.117251
_cell_length_c 14.013777
_cell_angle_alpha 18.541608
_cell_angle_beta 148.334965
_cell_angle_gamma 147.173673
_cell_volume 541.591240
_symmetry_space_group_name_H-M "P -1"
_symmetry_group_IT_number 2
_symmetry_cell_setting 'triclinic'
loop_
_space_group_symop_operation_xyz
x,y,z
-x,-y,-z
loop_
_atom_site_type_symbol
_atom_site_label
_atom_site_fract_x
_atom_site_fract_y
_atom_site_fract_z
Si Si1 0.046941 0.044038 0.585014
Si Si2 0.684047 0.078082 0.732017
Si Si3 0.268962 0.134370 0.248090
Si Si4 0.000057 0.217169 0.604966
Si Si5 0.258247 0.563446 0.569207
Si Si6 0.216426 0.613578 0.104983
Si Si7 0.507764 0.693425 0.379881
O O1 0.299548 0.119870 0.695126
O O2 0.000000 0.000000 0.500000
O O3 0.915427 0.858903 0.810831
O O4 0.921460 0.239835 0.248109
O O5 0.468347 0.047361 0.555931
O O6 0.649102 0.216754 0.609120
O O7 0.882000 0.218680 0.619603
O O8 0.771235 0.865114 0.107355
O O9 0.355050 0.366353 0.949095
O O10 0.150651 0.971975 0.305194
O O11 0.046044 0.435957 0.284018
O O12 0.332305 0.600968 0.462152
O O13 0.000000 0.500000 0.500000
O O14 0.374855 0.742067 0.125152
O O15 0.361072 0.488689 0.312975
#
# Coordination Sequence:
#
# PCOD9066670 Si02
#       7
#     2   2   2   2   2   2   2
#     4  12  29  48  75 113 150 192 245 301 368 446
#     4  11  26  44  73 107 149 192 243 301 376 430
#     4  12  27  45  73 109 147 189 250 300 365 436
#     4  11  25  46  73 109 145 193 246 303 362 443
#     4  12  26  50  75 107 149 193 248 308 367 430
#     4  11  27  48  78 105 151 194 248 296 369 443
#     4  11  27  50  77 103 147 199 242 303 372 428
#
# _framework density 25.849754999999998
#
# number of rings (size 3 to 8) (size 9 to 14) (size 15 to 20)
#    0.000    0.571    2.857    3.000   12.000    0.571 
#    0.000    0.000    0.000    0.000    0.000    0.000 
#    0.000    0.000    0.000    0.000    0.000    0.000 
#
# Total GULP energy -78603.991873 kJ/mol
# GULP energy per Si atom -5614.570848 kJ/mol
# Density = 2.579092 g / cm^3
# Si number density = 25.849755 Si / 1000 Ang^3
#
#
#
# Elastic Constant Matrix: (Units=GPa)
#
#
# Indices 1 2 3 4 5 6 
#
# 1 139.4206 33.0155 -4.9292 -12.9499 -13.4267 -6.3024
# 2 33.0155 124.7109 24.4482 23.4723 1.3998 -4.8631
# 3 -4.9292 24.4482 84.1775 12.8771 -4.3120 7.4746
# 4 -12.9499 23.4723 12.8771 46.3181 4.5581 -7.4150
# 5 -13.4267 1.3998 -4.3120 4.5581 30.7226 -10.6518
# 6 -6.3024 -4.8631 7.4746 -7.4150 -10.6518 47.0029
#
#
#
# Elastic Compliance Matrix: (Units=1/GPa)
#
#
# Indices 1 2 3 4 5 6 
#
# 1 0.008832 -0.003181 0.000883 0.003774 0.004366 0.002300
# 2 -0.003181 0.010354 -0.002439 -0.005337 -0.001461 -0.000140
# 3 0.000883 -0.002439 0.013369 -0.002791 0.002009 -0.002245
# 4 0.003774 -0.005337 -0.002791 0.026929 -0.000959 0.004429
# 5 0.004366 -0.001461 0.002009 -0.000959 0.037915 0.008556
# 6 0.002300 -0.000140 -0.002245 0.004429 0.008556 0.024564
#
#
# Mechanical properties :
#
#
# Convention : Reuss Voigt Hill
#
# Bulk Modulus (GPa) = 43.32617 50.37534 46.85075
# Shear Modulus (GPa) = 35.93742 44.52701 40.23222
#
# Velocity S-wave (km/s) = 3.73264 4.15484 3.94939
# Velocity P-wave (km/s) = 5.94760 6.52281 6.24183
#
# Compressibility (1/GPa) = 0.02308074
#
# Stress axis : x y z
#
# Youngs Moduli (GPa) = 113.22438 96.57794 74.79949
#
# Poissons Ratio (x) = 0.30721 -0.06606
# Poissons Ratio (y) = 0.36017 0.18247
# Poissons Ratio (z) = -0.09999 0.23560
#
# Static dielectric constant tensor:
#      x y z
#    x 2.027520 0.013360 0.026970 
#    y 0.013360 2.029500 -0.022470 
#    z 0.026970 -0.022470 1.992370 
# 
# From -- ./inp_files/383349.got.cif
#   From: 2010.05.17/outbox.cif.g08.bks.cpg/sg2_192_cif.got.tgz:383349.got - 2010.06.03 11:33:40.
