data_PCOD9066476
_publ_section_title
;
Structure prediction by ZEFSAII (Michael W. Deem and Ramdas Pophale) SiO2 
 PCOD9066476
Probable space group: P -1
;
_chemical_formula_sum "Si O2"
_cell_formula_units_Z 14
_cell_length_a 11.686825
_cell_length_b 13.323268
_cell_length_c 6.384454
_cell_angle_alpha 84.007614
_cell_angle_beta 59.150209
_cell_angle_gamma 46.800149
_cell_volume 571.793330
_symmetry_space_group_name_H-M "P -1"
_symmetry_group_IT_number 2
_symmetry_cell_setting 'triclinic'
loop_
_space_group_symop_operation_xyz
x,y,z
-x,-y,-z
loop_
_atom_site_type_symbol
_atom_site_label
_atom_site_fract_x
_atom_site_fract_y
_atom_site_fract_z
Si Si1 0.770301 0.801926 0.125251
Si Si2 0.178931 0.810253 0.370971
Si Si3 0.813498 0.994886 0.909670
Si Si4 0.078844 0.533894 0.591687
Si Si5 0.041618 0.723202 0.251444
Si Si6 0.517008 0.768049 0.511876
Si Si7 0.546411 0.554593 0.269177
O O1 0.580138 0.840510 0.341897
O O2 0.858201 0.794294 0.264258
O O3 0.744324 0.916855 0.982709
O O4 0.930387 0.636926 0.902614
O O5 0.056910 0.829851 0.287719
O O6 0.384938 0.636693 0.221792
O O7 0.053315 0.859833 0.691020
O O8 0.221631 0.902826 0.261058
O O9 0.686429 0.109192 0.196381
O O10 0.068514 0.645123 0.455396
O O11 0.295833 0.374407 0.490261
O O12 0.000000 0.500000 0.500000
O O13 0.230565 0.585702 0.971325
O O14 0.509154 0.686556 0.364327
O O15 0.500000 0.500000 0.500000
#
# Coordination Sequence:
#
# PCOD9066476 Si02
#       7
#     2   2   2   2   2   2   2
#     4  12  25  47  71 109 142 187 237 292 362 421
#     4  11  25  46  69 103 142 198 238 287 351 420
#     4  11  26  47  69 101 151 189 239 286 354 429
#     4  12  23  45  72 106 140 181 234 292 355 419
#     4  12  23  44  75 104 142 183 241 297 353 414
#     4  12  25  45  71 109 143 185 235 298 358 422
#     4  12  24  43  73 107 144 184 246 296 350 416
#
# _framework density 24.484369000000001
#
# number of rings (size 3 to 8) (size 9 to 14) (size 15 to 20)
#    0.000    0.286    4.286    5.571    0.000    3.429 
#    0.000    3.571    0.000    0.000    0.000    0.000 
#    0.000    0.000    0.000    0.000    0.000    0.000 
#
# Total GULP energy -78280.035973 kJ/mol
# GULP energy per Si atom -5591.431141 kJ/mol
# Density = 2.442864 g / cm^3
# Si number density = 24.484369 Si / 1000 Ang^3
#
#
#
# Elastic Constant Matrix: (Units=GPa)
#
#
# Indices 1 2 3 4 5 6 
#
# 1 113.1224 36.4133 31.1725 -6.1157 3.7353 20.1653
# 2 36.4133 100.9768 35.8114 -2.5123 -3.1151 28.4117
# 3 31.1725 35.8114 144.6166 16.9920 -21.3353 25.7263
# 4 -6.1157 -2.5123 16.9920 45.8724 14.8880 -3.6969
# 5 3.7353 -3.1151 -21.3353 14.8880 36.5564 -2.6909
# 6 20.1653 28.4117 25.7263 -3.6969 -2.6909 31.3239
#
#
#
# Elastic Compliance Matrix: (Units=1/GPa)
#
#
# Indices 1 2 3 4 5 6 
#
# 1 0.011102 -0.002374 -0.002268 0.003316 -0.004239 -0.003104
# 2 -0.002374 0.014059 -0.001150 0.000054 -0.000009 -0.010274
# 3 -0.002268 -0.001150 0.011294 -0.008209 0.009559 -0.006921
# 4 0.003316 0.000054 -0.008209 0.031496 -0.017454 0.006776
# 5 -0.004239 -0.000009 0.009559 -0.017454 0.040201 -0.003721
# 6 -0.003104 -0.010274 -0.006921 0.006776 -0.003721 0.049405
#
#
# Mechanical properties :
#
#
# Convention : Reuss Voigt Hill
#
# Bulk Modulus (GPa) = 40.20675 62.83446 51.52061
# Shear Modulus (GPa) = 28.17990 39.77178 33.97584
#
# Velocity S-wave (km/s) = 3.39622 4.03473 3.72916
# Velocity P-wave (km/s) = 5.64235 6.88652 6.29525
#
# Compressibility (1/GPa) = 0.02487144
#
# Stress axis : x y z
#
# Youngs Moduli (GPa) = 90.07663 71.12961 88.53895
#
# Poissons Ratio (x) = 0.16886 0.20081
# Poissons Ratio (y) = 0.21384 0.10180
# Poissons Ratio (z) = 0.20429 0.08178
#
# Static dielectric constant tensor:
#      x y z
#    x 1.971110 0.010920 -0.013060 
#    y 0.010920 1.918010 -0.075520 
#    z -0.013060 -0.075520 1.849460 
# 
# From -- ./inp_files/72123.got.cif
#   From: 2010.05.17/outbox.cif.g08.bks.cpg/sg2_37_cif.got.tgz:72123.got - 2010.06.03 11:33:40.
