data_PCOD9066259
_publ_section_title
;
Structure prediction by ZEFSAII (Michael W. Deem and Ramdas Pophale) SiO2 
 PCOD9066259
Probable space group: P -1
;
_chemical_formula_sum "Si O2"
_cell_formula_units_Z 16
_cell_length_a 10.318727
_cell_length_b 20.875349
_cell_length_c 5.064321
_cell_angle_alpha 92.237325
_cell_angle_beta 111.294580
_cell_angle_gamma 39.501135
_cell_volume 590.576283
_symmetry_space_group_name_H-M "P -1"
_symmetry_group_IT_number 2
_symmetry_cell_setting 'triclinic'
loop_
_space_group_symop_operation_xyz
x,y,z
-x,-y,-z
loop_
_atom_site_type_symbol
_atom_site_label
_atom_site_fract_x
_atom_site_fract_y
_atom_site_fract_z
Si Si1 0.576727 0.712644 0.452073
Si Si2 0.114980 0.024747 0.504750
Si Si3 0.212614 0.478632 0.715195
Si Si4 0.940615 0.631773 0.051256
Si Si5 0.136518 0.201639 0.208009
Si Si6 0.839560 0.221555 0.669025
Si Si7 0.426286 0.908613 0.211250
Si Si8 0.348350 0.617599 0.816281
O O1 0.329682 0.768431 0.324721
O O2 0.540722 0.794626 0.302175
O O3 0.769651 0.598613 0.413357
O O4 0.699736 0.681520 0.822093
O O5 0.937174 0.149019 0.467776
O O6 0.206728 0.988215 0.269149
O O7 0.000000 0.000000 0.500000
O O8 0.337675 0.951700 0.856805
O O9 0.495095 0.386410 0.933255
O O10 0.083028 0.570487 0.415191
O O11 0.113780 0.537781 0.935586
O O12 0.875760 0.729786 0.968682
O O13 0.619528 0.886332 0.461326
O O14 0.066244 0.165450 0.983317
O O15 0.916100 0.291692 0.258606
O O16 0.684991 0.342873 0.497565
O O17 0.500000 0.500000 0.000000
#
# Coordination Sequence:
#
# PCOD9066259 Si02
#       8
#     2   2   2   2   2   2   2   2
#     4  11  25  45  72 110 149 194 260 313 378 451
#     4  12  28  52  83 113 155 189 257 320 390 445
#     4  12  24  42  71 103 149 202 255 303 367 445
#     4  11  26  45  68 106 151 203 251 315 369 437
#     4  11  27  47  74 109 154 201 256 303 379 460
#     4  12  28  47  79 111 150 205 257 310 384 459
#     4  11  29  51  80 112 151 201 246 327 381 441
#     4  12  26  45  73 107 157 201 250 304 376 447
#
# _framework density 27.092184
#
# number of rings (size 3 to 8) (size 9 to 14) (size 15 to 20)
#    0.000    0.500    3.750    2.625    5.250    7.000 
#    0.000    0.000    0.000    0.000    0.000    0.000 
#    0.000    0.000    0.000    0.000    0.000    0.000 
#
# Total GULP energy -89730.817305 kJ/mol
# GULP energy per Si atom -5608.176082 kJ/mol
# Density = 2.703052 g / cm^3
# Si number density = 27.092184 Si / 1000 Ang^3
#
#
#
# Elastic Constant Matrix: (Units=GPa)
#
#
# Indices 1 2 3 4 5 6 
#
# 1 110.5799 18.1738 30.1460 -0.1566 30.7735 4.6412
# 2 18.1738 125.3855 -0.4319 6.1012 -2.1046 6.8368
# 3 30.1460 -0.4319 113.8835 -12.2170 10.4440 6.6978
# 4 -0.1566 6.1012 -12.2170 46.2242 3.4656 -4.2019
# 5 30.7735 -2.1046 10.4440 3.4656 46.7897 -2.2139
# 6 4.6412 6.8368 6.6978 -4.2019 -2.2139 42.9310
#
#
#
# Elastic Compliance Matrix: (Units=1/GPa)
#
#
# Indices 1 2 3 4 5 6 
#
# 1 0.012176 -0.001851 -0.002461 0.000112 -0.007598 -0.001018
# 2 -0.001851 0.008399 0.000316 -0.001260 0.001560 -0.001230
# 3 -0.002461 0.000316 0.009842 0.002510 -0.000803 -0.001115
# 4 0.000112 -0.001260 0.002510 0.022809 -0.002290 0.001911
# 5 -0.007598 0.001560 -0.000803 -0.002290 0.026877 0.001860
# 6 -0.001018 -0.001230 -0.001115 0.001911 0.001860 0.024056
#
#
# Mechanical properties :
#
#
# Convention : Reuss Voigt Hill
#
# Bulk Modulus (GPa) = 44.59341 49.51386 47.05364
# Shear Modulus (GPa) = 41.79674 47.31971 44.55823
#
# Velocity S-wave (km/s) = 3.93206 4.18379 4.05988
# Velocity P-wave (km/s) = 6.09183 6.45403 6.27555
#
# Compressibility (1/GPa) = 0.02242484
#
# Stress axis : x y z
#
# Youngs Moduli (GPa) = 82.12960 119.05768 101.60434
#
# Poissons Ratio (x) = 0.22035 0.25008
# Poissons Ratio (y) = 0.15200 -0.03209
# Poissons Ratio (z) = 0.20215 -0.03761
#
# Static dielectric constant tensor:
#      x y z
#    x 2.169780 -0.012200 0.008980 
#    y -0.012200 2.106250 -0.022110 
#    z 0.008980 -0.022110 2.104730 
# 
# From -- ./inp_files/83815.got.cif
#   From: 2010.05.17/outbox.cif.g08.bks.cpg/sg2_42_cif.got.tgz:83815.got - 2010.06.03 11:33:40.
