data_PCOD9066862
_publ_section_title
;
Structure prediction by ZEFSAII (Michael W. Deem and Ramdas Pophale) SiO2 
 PCOD9066862
Probable space group: P -1
;
_chemical_formula_sum "Si O2"
_cell_formula_units_Z 12
_cell_length_a 15.936314
_cell_length_b 5.508676
_cell_length_c 9.859538
_cell_angle_alpha 89.528513
_cell_angle_beta 129.019558
_cell_angle_gamma 121.387677
_cell_volume 502.980842
_symmetry_space_group_name_H-M "P -1"
_symmetry_group_IT_number 2
_symmetry_cell_setting 'triclinic'
loop_
_space_group_symop_operation_xyz
x,y,z
-x,-y,-z
loop_
_atom_site_type_symbol
_atom_site_label
_atom_site_fract_x
_atom_site_fract_y
_atom_site_fract_z
Si Si1 0.409997 0.880214 0.770697
Si Si2 0.353841 0.435593 0.495094
Si Si3 0.958311 0.194052 0.881670
Si Si4 0.111320 0.482709 0.544217
Si Si5 0.392679 0.563530 0.244362
Si Si6 0.893535 0.825572 0.195699
O O1 0.344404 0.545857 0.631283
O O2 0.264654 0.817987 0.651515
O O3 0.521730 0.130930 0.768722
O O4 0.500000 0.000000 0.000000
O O5 0.361583 0.611051 0.364780
O O6 0.501569 0.507286 0.642962
O O7 0.211733 0.065646 0.322393
O O8 0.046660 0.307148 0.831488
O O9 0.000000 0.500000 0.000000
O O10 0.000000 0.000000 0.000000
O O11 0.147606 0.335533 0.697508
O O12 0.000000 0.500000 0.500000
O O13 0.021314 0.209913 0.338732
O O14 0.243531 0.274904 0.021259
#
# Coordination Sequence:
#
# PCOD9066862 Si02
#       6
#     2   2   2   2   2   2
#     4  12  26  47  73 108 151 203 260 320 397 466
#     4  11  27  47  73 114 154 204 256 324 390 476
#     4  12  28  48  81 114 155 206 262 324 396 467
#     4  11  27  45  72 105 150 204 263 327 389 468
#     4  11  26  46  75 107 153 200 256 319 396 464
#     4  11  25  47  70 109 151 200 264 324 392 468
#
# _framework density 23.857766999999999
#
# number of rings (size 3 to 8) (size 9 to 14) (size 15 to 20)
#    0.000    0.667    5.000    0.500    9.333    3.333 
#    0.000    0.000    0.000    0.000    0.000    0.000 
#    0.000    0.000    0.000    0.000    0.000    0.000 
#
# Total GULP energy -67104.416971 kJ/mol
# GULP energy per Si atom -5592.034748 kJ/mol
# Density = 2.380347 g / cm^3
# Si number density = 23.857767 Si / 1000 Ang^3
#
#
#
# Elastic Constant Matrix: (Units=GPa)
#
#
# Indices 1 2 3 4 5 6 
#
# 1 128.4443 16.1637 83.0678 20.7288 -1.2629 4.7849
# 2 16.1637 68.0398 58.6882 7.8295 -9.4022 6.3360
# 3 83.0678 58.6882 223.9336 19.9848 4.0055 3.6254
# 4 20.7288 7.8295 19.9848 40.1449 5.5833 1.9544
# 5 -1.2629 -9.4022 4.0055 5.5833 56.4258 7.1359
# 6 4.7849 6.3360 3.6254 1.9544 7.1359 33.9675
#
#
#
# Elastic Compliance Matrix: (Units=1/GPa)
#
#
# Indices 1 2 3 4 5 6 
#
# 1 0.010996 0.001811 -0.004191 -0.004071 0.001439 -0.001507
# 2 0.001811 0.020680 -0.005884 -0.002482 0.004697 -0.004329
# 3 -0.004191 -0.005884 0.007599 -0.000290 -0.001744 0.001260
# 4 -0.004071 -0.002482 -0.000290 0.028090 -0.003281 0.000140
# 5 0.001439 0.004697 -0.001744 -0.003281 0.019595 -0.004820
# 6 -0.001507 -0.004329 0.001260 0.000140 -0.004820 0.031330
#
#
# Mechanical properties :
#
#
# Convention : Reuss Voigt Hill
#
# Bulk Modulus (GPa) = 43.96443 81.80633 62.88538
# Shear Modulus (GPa) = 35.11223 43.60751 39.35987
#
# Velocity S-wave (km/s) = 3.84048 4.27993 4.06614
# Velocity P-wave (km/s) = 6.17523 7.66729 6.96135
#
# Compressibility (1/GPa) = 0.02274566
#
# Stress axis : x y z
#
# Youngs Moduli (GPa) = 90.94601 48.35563 131.59393
#
# Poissons Ratio (x) = -0.08756 0.55156
# Poissons Ratio (y) = -0.16469 0.77430
# Poissons Ratio (z) = 0.38119 0.28452
#
# Static dielectric constant tensor:
#      x y z
#    x 1.899330 0.026930 -0.029200 
#    y 0.026930 2.020360 -0.044330 
#    z -0.029200 -0.044330 1.912700 
# 
# From -- ./inp_files/26309.got.cif
#   From: 2010.05.17/outbox.cif.g08.bks.cpg/sg2_14_cif.got.tgz:26309.got - 2010.06.03 11:33:40.
