data_PCOD9066607
_publ_section_title
;
Structure prediction by ZEFSAII (Michael W. Deem and Ramdas Pophale) SiO2 
 PCOD9066607
Probable space group: P -1
;
_chemical_formula_sum "Si O2"
_cell_formula_units_Z 14
_cell_length_a 13.898465
_cell_length_b 10.333934
_cell_length_c 8.519526
_cell_angle_alpha 61.090211
_cell_angle_beta 114.846400
_cell_angle_gamma 150.144573
_cell_volume 533.225590
_symmetry_space_group_name_H-M "P -1"
_symmetry_group_IT_number 2
_symmetry_cell_setting 'triclinic'
loop_
_space_group_symop_operation_xyz
x,y,z
-x,-y,-z
loop_
_atom_site_type_symbol
_atom_site_label
_atom_site_fract_x
_atom_site_fract_y
_atom_site_fract_z
Si Si1 0.860742 0.977597 0.568699
Si Si2 0.270642 0.748606 0.998265
Si Si3 0.407257 0.545504 0.958737
Si Si4 0.765392 0.385734 0.598899
Si Si5 0.616536 0.940443 0.592644
Si Si6 0.943589 0.790096 0.935814
Si Si7 0.290885 0.098591 0.802132
O O1 0.747199 0.840744 0.405896
O O2 0.064640 0.299614 0.497049
O O3 0.736081 0.937484 0.622310
O O4 0.895555 0.856537 0.732003
O O5 0.210422 0.662790 0.188359
O O6 0.166770 0.495529 0.986436
O O7 0.224523 0.858810 0.843388
O O8 0.500000 0.000000 0.000000
O O9 0.174305 0.281681 0.953235
O O10 0.493743 0.664719 0.123108
O O11 0.500000 0.500000 0.000000
O O12 0.499707 0.771134 0.772472
O O13 0.555263 0.219968 0.550737
O O14 0.748715 0.237078 0.543867
O O15 0.160104 0.995044 0.921228
#
# Coordination Sequence:
#
# PCOD9066607 Si02
#       7
#     2   2   2   2   2   2   2
#     4  12  27  45  76 110 145 190 243 304 364 428
#     4  12  23  47  74 107 145 190 244 296 356 435
#     4  12  27  49  72 105 146 191 243 296 368 431
#     4  11  25  46  72 106 147 187 247 295 365 432
#     4  11  25  48  73 104 147 196 238 301 361 433
#     4  12  27  45  75 108 148 187 243 305 362 427
#     4  12  27  46  77 108 144 194 242 300 365 430
#
# _framework density 26.255303999999999
#
# number of rings (size 3 to 8) (size 9 to 14) (size 15 to 20)
#    0.000    0.286    5.714    2.143    2.000    3.429 
#    0.000    0.000    0.000    0.000    0.000    0.000 
#    0.000    0.000    0.000    0.000    0.000    0.000 
#
# Total GULP energy -78474.047140 kJ/mol
# GULP energy per Si atom -5605.289081 kJ/mol
# Density = 2.619555 g / cm^3
# Si number density = 26.255304 Si / 1000 Ang^3
#
#
#
# Elastic Constant Matrix: (Units=GPa)
#
#
# Indices 1 2 3 4 5 6 
#
# 1 124.1000 8.7853 -14.9077 -16.0099 7.3334 14.1157
# 2 8.7853 89.3901 7.8850 -19.7865 -10.8871 25.1835
# 3 -14.9077 7.8850 81.3097 -11.6179 9.0177 -1.7292
# 4 -16.0099 -19.7865 -11.6179 33.0388 3.5009 -0.8442
# 5 7.3334 -10.8871 9.0177 3.5009 46.0383 -9.1023
# 6 14.1157 25.1835 -1.7292 -0.8442 -9.1023 37.0027
#
#
#
# Elastic Compliance Matrix: (Units=1/GPa)
#
#
# Indices 1 2 3 4 5 6 
#
# 1 0.010018 0.001366 0.002964 0.006943 -0.003429 -0.005298
# 2 0.001366 0.016638 -0.000233 0.010175 0.000726 -0.011445
# 3 0.002964 -0.000233 0.014248 0.006707 -0.004056 -0.001151
# 4 0.006943 0.010175 0.006707 0.042383 -0.005125 -0.009554
# 5 -0.003429 0.000726 -0.004056 -0.005125 0.024936 0.006641
# 6 -0.005298 -0.011445 -0.001151 -0.009554 0.006641 0.038197
#
#
# Mechanical properties :
#
#
# Convention : Reuss Voigt Hill
#
# Bulk Modulus (GPa) = 20.36761 33.14723 26.75742
# Shear Modulus (GPa) = 32.34272 42.75175 37.54724
#
# Velocity S-wave (km/s) = 3.51359 4.03961 3.78575
# Velocity P-wave (km/s) = 4.92288 5.86603 5.41503
#
# Compressibility (1/GPa) = 0.04909757
#
# Stress axis : x y z
#
# Youngs Moduli (GPa) = 99.81779 60.10254 70.18332
#
# Poissons Ratio (x) = -0.08208 -0.20802
# Poissons Ratio (y) = -0.13631 0.01637
# Poissons Ratio (z) = -0.29586 0.01402
#
# Static dielectric constant tensor:
#      x y z
#    x 2.088350 -0.029320 -0.055170 
#    y -0.029320 2.048640 0.004460 
#    z -0.055170 0.004460 2.021290 
# 
# From -- ./inp_files/263238.got.cif
#   From: 2010.05.17/outbox.cif.g08.bks.cpg/sg2_132_cif.got.tgz:263238.got - 2010.06.03 11:33:40.
