data_PCOD9066191
_publ_section_title
;
Structure prediction by ZEFSAII (Michael W. Deem and Ramdas Pophale) SiO2 
 PCOD9066191
Probable space group: P -1
;
_chemical_formula_sum "Si O2"
_cell_formula_units_Z 10
_cell_length_a 13.794100
_cell_length_b 11.472131
_cell_length_c 13.584169
_cell_angle_alpha 158.822972
_cell_angle_beta 29.309809
_cell_angle_gamma 145.891595
_cell_volume 378.806589
_symmetry_space_group_name_H-M "P -1"
_symmetry_group_IT_number 2
_symmetry_cell_setting 'triclinic'
loop_
_space_group_symop_operation_xyz
x,y,z
-x,-y,-z
loop_
_atom_site_type_symbol
_atom_site_label
_atom_site_fract_x
_atom_site_fract_y
_atom_site_fract_z
Si Si1 0.887673 0.167035 0.066087
Si Si2 0.533008 0.977801 0.570034
Si Si3 0.674677 0.458457 0.171527
Si Si4 0.086771 0.582571 0.379970
Si Si5 0.762669 0.766165 0.533297
O O1 0.676357 0.039685 0.200608
O O2 0.030964 0.286762 0.123880
O O3 0.873100 0.490826 0.272061
O O4 0.963112 0.893285 0.713225
O O5 0.631213 0.652286 0.263499
O O6 0.500000 0.000000 0.500000
O O7 0.685018 0.279967 0.705971
O O8 0.758701 0.710061 0.376396
O O9 0.459751 0.325094 0.298836
O O10 0.800993 0.148260 0.814950
O O11 0.000000 0.500000 0.500000
#
# Coordination Sequence:
#
# PCOD9066191 Si02
#       5
#     2   2   2   2   2
#     4  11  25  46  71 100 136 178 221 280 338 395
#     4  11  25  45  71 101 136 182 223 276 339 395
#     4   9  19  37  63  97 126 170 222 265 324 404
#     4  12  26  45  67 103 138 174 230 274 330 411
#     4   9  18  39  65  91 131 171 213 272 333 384
#
# _framework density 26.398696000000001
#
# number of rings (size 3 to 8) (size 9 to 14) (size 15 to 20)
#    0.000    1.600    2.000    1.800    0.000    8.800 
#    0.000    6.000    0.000    0.000    0.000    0.000 
#    0.000    0.000    0.000    0.000    0.000    0.000 
#
# Total GULP energy -56067.445079 kJ/mol
# GULP energy per Si atom -5606.744508 kJ/mol
# Density = 2.633861 g / cm^3
# Si number density = 26.398696 Si / 1000 Ang^3
#
#
#
# Elastic Constant Matrix: (Units=GPa)
#
#
# Indices 1 2 3 4 5 6 
#
# 1 102.2669 38.0565 11.9084 14.2553 -20.0153 -28.8362
# 2 38.0565 216.8327 16.2511 -6.3003 1.1288 3.4053
# 3 11.9084 16.2511 91.7260 19.2291 -14.7067 -18.7097
# 4 14.2553 -6.3003 19.2291 28.8789 -2.0355 -1.0659
# 5 -20.0153 1.1288 -14.7067 -2.0355 36.9225 8.6550
# 6 -28.8362 3.4053 -18.7097 -1.0659 8.6550 53.5356
#
#
#
# Elastic Compliance Matrix: (Units=1/GPa)
#
#
# Indices 1 2 3 4 5 6 
#
# 1 0.016093 -0.003582 0.003733 -0.010346 0.007699 0.008750
# 2 -0.003582 0.005591 -0.002313 0.004277 -0.002176 -0.002657
# 3 0.003733 -0.002313 0.015656 -0.012102 0.006165 0.006392
# 4 -0.010346 0.004277 -0.012102 0.048001 -0.006003 -0.008148
# 5 0.007699 -0.002176 0.006165 -0.006003 0.033226 0.000949
# 6 0.008750 -0.002657 0.006392 -0.008148 0.000949 0.025480
#
#
# Mechanical properties :
#
#
# Convention : Reuss Voigt Hill
#
# Bulk Modulus (GPa) = 30.28736 60.36195 45.32465
# Shear Modulus (GPa) = 31.37222 46.84139 39.10681
#
# Velocity S-wave (km/s) = 3.45106 4.21691 3.85306
# Velocity P-wave (km/s) = 5.23237 6.82825 6.08287
#
# Compressibility (1/GPa) = 0.03301708
#
# Stress axis : x y z
#
# Youngs Moduli (GPa) = 62.13917 178.85098 63.87179
#
# Poissons Ratio (x) = 0.64071 -0.23846
# Poissons Ratio (y) = 0.22261 0.14772
# Poissons Ratio (z) = -0.23199 0.41364
#
# Static dielectric constant tensor:
#      x y z
#    x 2.067540 0.034950 -0.135360 
#    y 0.034950 2.069880 -0.051810 
#    z -0.135360 -0.051810 2.141790 
# 
# From -- ./inp_files/42879.got.cif
#   From: 2010.05.17/outbox.cif.g08.bks.cpg/sg2_22_cif.got.tgz:42879.got - 2010.06.03 11:33:40.
