data_PCOD9066819
_publ_section_title
;
Structure prediction by ZEFSAII (Michael W. Deem and Ramdas Pophale) SiO2 
 PCOD9066819
Probable space group: P -1
;
_chemical_formula_sum "Si O2"
_cell_formula_units_Z 12
_cell_length_a 5.047823
_cell_length_b 21.301070
_cell_length_c 11.285633
_cell_angle_alpha 156.474424
_cell_angle_beta 66.324607
_cell_angle_gamma 113.230662
_cell_volume 442.456907
_symmetry_space_group_name_H-M "P -1"
_symmetry_group_IT_number 2
_symmetry_cell_setting 'triclinic'
loop_
_space_group_symop_operation_xyz
x,y,z
-x,-y,-z
loop_
_atom_site_type_symbol
_atom_site_label
_atom_site_fract_x
_atom_site_fract_y
_atom_site_fract_z
Si Si1 0.399473 0.469972 0.113004
Si Si2 0.039789 0.690334 0.275439
Si Si3 0.718891 0.596279 0.711394
Si Si4 0.784833 0.108950 0.607492
Si Si5 0.543794 0.823794 0.739152
Si Si6 0.175639 0.846074 0.068877
O O1 0.395632 0.411777 0.148266
O O2 0.364872 0.658996 0.443637
O O3 0.165508 0.369531 0.902511
O O4 0.726036 0.435766 0.953963
O O5 0.861255 0.773867 0.554665
O O6 0.237202 0.826754 0.408922
O O7 0.500000 0.500000 0.500000
O O8 0.000000 0.500000 0.500000
O O9 0.873949 0.761572 0.927442
O O10 0.792854 0.216633 0.910947
O O11 0.500000 0.000000 0.500000
O O12 0.085065 0.023520 0.405405
O O13 0.439670 0.830391 0.905512
O O14 0.500000 0.000000 0.000000
#
# Coordination Sequence:
#
# PCOD9066819 Si02
#       6
#     2   2   2   2   2   2
#     4  12  27  51  81 112 160 207 265 314 400 467
#     4  12  27  53  78 116 157 213 256 324 393 472
#     4  12  25  45  79 115 151 198 259 329 382 454
#     4  11  25  46  79 112 155 208 257 328 397 463
#     4  12  27  51  77 114 158 208 263 324 390 472
#     4  11  25  48  74 116 155 200 267 324 392 463
#
# _framework density 27.121283999999999
#
# number of rings (size 3 to 8) (size 9 to 14) (size 15 to 20)
#    0.000    0.333    5.000    3.000    4.667    0.000 
#    3.000    4.167    0.000    0.000    0.000    0.000 
#    0.000    0.000    0.000    0.000    0.000    0.000 
#
# Total GULP energy -67088.277489 kJ/mol
# GULP energy per Si atom -5590.689791 kJ/mol
# Density = 2.705956 g / cm^3
# Si number density = 27.121284 Si / 1000 Ang^3
#
#
#
# Elastic Constant Matrix: (Units=GPa)
#
#
# Indices 1 2 3 4 5 6 
#
# 1 109.7640 27.1005 44.1677 -7.0768 15.9526 17.6857
# 2 27.1005 186.7089 64.9270 -43.9761 0.7645 7.0268
# 3 44.1677 64.9270 162.6535 -21.5189 -27.9423 13.9593
# 4 -7.0768 -43.9761 -21.5189 61.3606 7.3862 -10.0806
# 5 15.9526 0.7645 -27.9423 7.3862 54.7626 -0.2233
# 6 17.6857 7.0268 13.9593 -10.0806 -0.2233 39.0317
#
#
#
# Elastic Compliance Matrix: (Units=1/GPa)
#
#
# Indices 1 2 3 4 5 6 
#
# 1 0.012165 -0.000313 -0.003782 -0.000176 -0.005462 -0.004180
# 2 -0.000313 0.007423 -0.002681 0.004747 -0.002017 0.000979
# 3 -0.003782 -0.002681 0.009359 0.000032 0.005905 -0.001109
# 4 -0.000176 0.004747 0.000032 0.020775 -0.002782 0.004563
# 5 -0.005462 -0.002017 0.005905 -0.002782 0.023269 0.000141
# 6 -0.004180 0.000979 -0.001109 0.004563 0.000141 0.028914
#
#
# Mechanical properties :
#
#
# Convention : Reuss Voigt Hill
#
# Bulk Modulus (GPa) = 64.94469 81.27964 73.11216
# Shear Modulus (GPa) = 41.46374 52.55972 47.01173
#
# Velocity S-wave (km/s) = 3.91426 4.40699 4.16792
# Velocity P-wave (km/s) = 6.66533 7.47860 7.08365
#
# Compressibility (1/GPa) = 0.01539772
#
# Stress axis : x y z
#
# Youngs Moduli (GPa) = 82.20072 134.71572 106.85140
#
# Poissons Ratio (x) = 0.04211 0.40407
# Poissons Ratio (y) = 0.02570 0.28642
# Poissons Ratio (z) = 0.31085 0.36111
#
# Static dielectric constant tensor:
#      x y z
#    x 2.333050 0.316760 0.496730 
#    y 0.316760 3.215650 1.479920 
#    z 0.496730 1.479920 4.082760 
# 
# From -- ./inp_files/363182.got.cif
#   From: 2010.05.17/outbox.cif.g08.bks.cpg/sg2_182_cif.got.tgz:363182.got - 2010.06.03 11:33:40.
