data_PCOD9066856
_publ_section_title
;
Structure prediction by ZEFSAII (Michael W. Deem and Ramdas Pophale) SiO2 
 PCOD9066856
Probable space group: P -1
;
_chemical_formula_sum "Si O2"
_cell_formula_units_Z 14
_cell_length_a 12.055737
_cell_length_b 9.942988
_cell_length_c 8.248380
_cell_angle_alpha 67.429615
_cell_angle_beta 113.439590
_cell_angle_gamma 65.907925
_cell_volume 627.808264
_symmetry_space_group_name_H-M "P -1"
_symmetry_group_IT_number 2
_symmetry_cell_setting 'triclinic'
loop_
_space_group_symop_operation_xyz
x,y,z
-x,-y,-z
loop_
_atom_site_type_symbol
_atom_site_label
_atom_site_fract_x
_atom_site_fract_y
_atom_site_fract_z
Si Si1 0.926623 0.939245 0.866386
Si Si2 0.096645 0.559364 0.961934
Si Si3 0.244771 0.712029 0.634633
Si Si4 0.559107 0.843771 0.754972
Si Si5 0.423334 0.710424 0.983597
Si Si6 0.992741 0.666930 0.493009
Si Si7 0.692728 0.992386 0.964241
O O1 0.063648 0.719223 0.988210
O O2 0.837981 0.091104 0.598726
O O3 0.789001 0.964909 0.873871
O O4 0.000000 0.000000 0.000000
O O5 0.003473 0.661769 0.693383
O O6 0.280084 0.366872 0.119053
O O7 0.000000 0.500000 0.000000
O O8 0.263290 0.748780 0.816554
O O9 0.142213 0.653228 0.547932
O O10 0.429020 0.519033 0.800473
O O11 0.457599 0.798980 0.813631
O O12 0.500000 0.000000 0.500000
O O13 0.602964 0.918769 0.892123
O O14 0.412957 0.802088 0.105351
O O15 0.000000 0.500000 0.500000
O O16 0.828315 0.858980 0.239794
#
# Coordination Sequence:
#
# PCOD9066856 Si02
#       7
#     2   2   2   2   2   2   2
#     4  12  26  43  71 108 143 183 241 298 357 417
#     4  12  26  47  75 106 142 187 241 301 358 423
#     4  11  25  47  70 104 145 192 236 298 364 427
#     4  12  26  48  72 104 148 187 240 296 369 430
#     4  11  26  46  70 103 147 190 239 290 369 434
#     4  12  23  45  76 103 141 182 248 301 351 422
#     4  12  25  45  71 106 140 188 246 295 355 430
#
# _framework density 22.299803000000001
#
# number of rings (size 3 to 8) (size 9 to 14) (size 15 to 20)
#    0.000    0.286    5.714    2.143    4.000    2.857 
#    0.000    0.000    0.000    0.000    0.000    0.000 
#    0.000    0.000    0.000    0.000    0.000    0.000 
#
# Total GULP energy -78181.304051 kJ/mol
# GULP energy per Si atom -5584.378861 kJ/mol
# Density = 2.224905 g / cm^3
# Si number density = 22.299803 Si / 1000 Ang^3
#
#
#
# Elastic Constant Matrix: (Units=GPa)
#
#
# Indices 1 2 3 4 5 6 
#
# 1 38.5742 14.0897 2.9722 -2.9923 -0.3240 1.3231
# 2 14.0897 189.2263 27.0475 -0.1198 13.5812 7.2936
# 3 2.9722 27.0475 97.8166 2.2578 8.9855 9.9727
# 4 -2.9923 -0.1198 2.2578 28.6030 8.5853 1.1083
# 5 -0.3240 13.5812 8.9855 8.5853 24.6995 7.6930
# 6 1.3231 7.2936 9.9727 1.1083 7.6930 30.9709
#
#
#
# Elastic Compliance Matrix: (Units=1/GPa)
#
#
# Indices 1 2 3 4 5 6 
#
# 1 0.026915 -0.001990 -0.000322 0.002583 0.000948 -0.000906
# 2 -0.001990 0.005838 -0.001280 0.000826 -0.003008 -0.000160
# 3 -0.000322 -0.001280 0.011086 -0.000065 -0.002490 -0.002633
# 4 0.002583 0.000826 -0.000065 0.039598 -0.014774 0.001969
# 5 0.000948 -0.003008 -0.002490 -0.014774 0.051561 -0.010809
# 6 -0.000906 -0.000160 -0.002633 0.001969 -0.010809 0.035827
#
#
# Mechanical properties :
#
#
# Convention : Reuss Voigt Hill
#
# Bulk Modulus (GPa) = 27.28130 45.98177 36.63154
# Shear Modulus (GPa) = 26.28419 35.62187 30.95303
#
# Velocity S-wave (km/s) = 3.43691 4.00109 3.72968
# Velocity P-wave (km/s) = 5.29247 6.48148 5.91692
#
# Compressibility (1/GPa) = 0.03665514
#
# Stress axis : x y z
#
# Youngs Moduli (GPa) = 37.15399 171.27931 90.20550
#
# Poissons Ratio (x) = 0.34077 0.02906
# Poissons Ratio (y) = 0.07392 0.11550
# Poissons Ratio (z) = 0.01197 0.21930
#
# Static dielectric constant tensor:
#      x y z
#    x 1.952680 0.052600 -0.021540 
#    y 0.052600 1.893050 -0.018240 
#    z -0.021540 -0.018240 1.788590 
# 
# From -- ./inp_files/242477.got.cif
#   From: 2010.05.17/outbox.cif.g08.bks.cpg/sg2_122_cif.got.tgz:242477.got - 2010.06.03 11:33:40.
