data_PCOD9066136
_publ_section_title
;
Structure prediction by ZEFSAII (Michael W. Deem and Ramdas Pophale) SiO2 
 PCOD9066136
Probable space group: P -1
;
_chemical_formula_sum "Si O2"
_cell_formula_units_Z 16
_cell_length_a 20.193567
_cell_length_b 9.535137
_cell_length_c 8.691670
_cell_angle_alpha 113.566709
_cell_angle_beta 149.288654
_cell_angle_gamma 65.031573
_cell_volume 772.367126
_symmetry_space_group_name_H-M "P -1"
_symmetry_group_IT_number 2
_symmetry_cell_setting 'triclinic'
loop_
_space_group_symop_operation_xyz
x,y,z
-x,-y,-z
loop_
_atom_site_type_symbol
_atom_site_label
_atom_site_fract_x
_atom_site_fract_y
_atom_site_fract_z
Si Si1 0.297939 0.956839 0.244839
Si Si2 0.385020 0.623942 0.752145
Si Si3 0.907047 0.386758 0.827753
Si Si4 0.987317 0.971093 0.142612
Si Si5 0.625964 0.386923 0.646106
Si Si6 0.542535 0.038831 0.929375
Si Si7 0.871331 0.523139 0.151849
Si Si8 0.787046 0.883751 0.172184
O O1 0.361817 0.779400 0.323534
O O2 0.410845 0.049305 0.569475
O O3 0.163252 0.984936 0.085908
O O4 0.257977 0.005661 0.013831
O O5 0.245185 0.587261 0.515243
O O6 0.382281 0.620142 0.558931
O O7 0.500000 0.500000 0.000000
O O8 0.404562 0.798759 0.904249
O O9 0.966108 0.212067 0.823129
O O10 0.901646 0.421274 0.014247
O O11 0.000000 0.500000 0.000000
O O12 0.085506 0.064729 0.470959
O O13 0.000000 0.000000 0.000000
O O14 0.500000 0.500000 0.500000
O O15 0.755105 0.457343 0.975650
O O16 0.500000 0.000000 0.000000
O O17 0.662754 0.910171 0.051920
O O18 0.823177 0.706469 0.108860
O O19 0.000000 0.500000 0.500000
#
# Coordination Sequence:
#
# PCOD9066136 Si02
#       8
#     2   2   2   2   2   2   2   2
#     4  12  26  43  72 105 140 186 240 291 357 424
#     4  11  26  45  70 103 140 184 239 291 349 429
#     4  11  25  46  69 101 138 179 231 285 348 414
#     4  12  24  46  73 102 141 186 236 293 348 422
#     4  11  25  45  67 101 143 185 231 290 357 419
#     4  12  25  47  72 103 140 186 243 289 358 422
#     4  11  25  45  68 101 140 179 231 286 353 419
#     4  12  26  46  72 104 143 185 237 298 353 425
#
# _framework density 20.715539
#
# number of rings (size 3 to 8) (size 9 to 14) (size 15 to 20)
#    0.000    0.500    2.500    6.000    7.000    2.000 
#    0.000    0.000    0.000    0.000    0.000    0.000 
#    0.000    0.000    0.000    0.000    0.000    0.000 
#
# Total GULP energy -89536.564471 kJ/mol
# GULP energy per Si atom -5596.035279 kJ/mol
# Density = 2.066839 g / cm^3
# Si number density = 20.715539 Si / 1000 Ang^3
#
#
#
# Elastic Constant Matrix: (Units=GPa)
#
#
# Indices 1 2 3 4 5 6 
#
# 1 73.7738 8.4209 22.8194 -2.6489 22.9759 -3.4682
# 2 8.4209 77.8614 10.2195 -8.6712 0.2706 -2.9649
# 3 22.8194 10.2195 150.2303 4.5290 21.2488 0.5841
# 4 -2.6489 -8.6712 4.5290 39.9095 1.7822 3.6186
# 5 22.9759 0.2706 21.2488 1.7822 39.8038 -6.1456
# 6 -3.4682 -2.9649 0.5841 3.6186 -6.1456 39.9263
#
#
#
# Elastic Compliance Matrix: (Units=1/GPa)
#
#
# Indices 1 2 3 4 5 6 
#
# 1 0.017027 -0.001503 -0.001216 0.001370 -0.009256 -0.000164
# 2 -0.001503 0.013471 -0.000958 0.002803 0.001290 0.000828
# 3 -0.001216 -0.000958 0.007405 -0.000917 -0.003314 -0.000712
# 4 0.001370 0.002803 -0.000917 0.026153 -0.001849 -0.002314
# 5 -0.009256 0.001290 -0.003314 -0.001849 0.033018 0.004590
# 6 -0.000164 0.000828 -0.000712 -0.002314 0.004590 0.026020
#
#
# Mechanical properties :
#
#
# Convention : Reuss Voigt Hill
#
# Bulk Modulus (GPa) = 32.73472 42.75389 37.74430
# Shear Modulus (GPa) = 35.55400 41.28829 38.42115
#
# Velocity S-wave (km/s) = 4.14732 4.46927 4.31130
# Velocity P-wave (km/s) = 6.22655 6.87865 6.56071
#
# Compressibility (1/GPa) = 0.03054861
#
# Stress axis : x y z
#
# Youngs Moduli (GPa) = 58.73162 74.23387 135.03642
#
# Poissons Ratio (x) = 0.11161 0.16414
# Poissons Ratio (y) = 0.08830 0.12939
# Poissons Ratio (z) = 0.07139 0.07113
#
# Static dielectric constant tensor:
#      x y z
#    x 1.768190 -0.019280 -0.028650 
#    y -0.019280 1.726160 0.037370 
#    z -0.028650 0.037370 1.754340 
# 
# From -- ./inp_files/299063.got.cif
#   From: 2010.05.17/outbox.cif.g08.bks.cpg/sg2_150_cif.got.tgz:299063.got - 2010.06.03 11:33:40.
