data_PCOD9066797
_publ_section_title
;
Structure prediction by ZEFSAII (Michael W. Deem and Ramdas Pophale) SiO2 
 PCOD9066797
Probable space group: P -1
;
_chemical_formula_sum "Si O2"
_cell_formula_units_Z 13
_cell_length_a 6.179552
_cell_length_b 12.638039
_cell_length_c 8.850120
_cell_angle_alpha 114.240824
_cell_angle_beta 75.874591
_cell_angle_gamma 79.030691
_cell_volume 577.255347
_symmetry_space_group_name_H-M "P -1"
_symmetry_group_IT_number 2
_symmetry_cell_setting 'triclinic'
loop_
_space_group_symop_operation_xyz
x,y,z
-x,-y,-z
loop_
_atom_site_type_symbol
_atom_site_label
_atom_site_fract_x
_atom_site_fract_y
_atom_site_fract_z
Si Si1 0.731489 0.305938 0.447286
Si Si2 0.269057 0.909783 0.886263
Si Si3 0.219626 0.454629 0.749762
Si Si4 0.841196 0.140714 0.623880
Si Si5 0.980060 0.698409 0.077158
Si Si6 0.000000 0.500000 0.500000
Si Si7 0.443807 0.110825 0.865494
O O1 0.712359 0.220325 0.261925
O O2 0.472719 0.392288 0.593826
O O3 0.836610 0.212688 0.512206
O O4 0.884516 0.390836 0.431449
O O5 0.396384 0.981454 0.797108
O O6 0.402444 0.892073 0.012994
O O7 0.000000 0.000000 0.000000
O O8 0.167753 0.367869 0.835563
O O9 0.026463 0.470435 0.661376
O O10 0.190269 0.586001 0.906340
O O11 0.587298 0.134854 0.713548
O O12 0.932069 0.211998 0.780334
O O13 0.000000 0.000000 0.500000
O O14 0.806404 0.781276 0.029643
#
# Coordination Sequence:
#
# PCOD9066797 Si02
#       7
#     2   2   2   2   2   1   2
#     4  12  27  49  74 108 151 192 253 302 373 438
#     4  11  27  48  74 114 147 193 244 308 370 442
#     4  11  27  47  73 104 145 199 246 305 361 439
#     4  12  26  46  77 111 148 190 245 310 366 450
#     4  11  25  48  73 109 146 191 249 298 374 441
#     4  12  28  48  72 106 150 200 242 310 362 438
#     4  11  25  46  77 107 148 194 239 307 378 433
#
# _framework density 22.520365000000002
#
# number of rings (size 3 to 8) (size 9 to 14) (size 15 to 20)
#    0.000    0.615    3.077    3.231    8.615    4.308 
#    0.000    0.000    0.000    0.000    0.000    0.000 
#    0.000    0.000    0.000    0.000    0.000    0.000 
#
# Total GULP energy -72564.569204 kJ/mol
# GULP energy per Si atom -5581.889939 kJ/mol
# Density = 2.246911 g / cm^3
# Si number density = 22.520365 Si / 1000 Ang^3
#
#
#
# Elastic Constant Matrix: (Units=GPa)
#
#
# Indices 1 2 3 4 5 6 
#
# 1 51.6119 30.7039 34.4741 19.3426 13.9046 25.3338
# 2 30.7039 121.1676 31.6788 9.5647 -0.5609 33.7821
# 3 34.4741 31.6788 102.4691 45.3833 7.4316 10.1170
# 4 19.3426 9.5647 45.3833 49.6860 2.1552 9.3182
# 5 13.9046 -0.5609 7.4316 2.1552 37.0026 1.8433
# 6 25.3338 33.7821 10.1170 9.3182 1.8433 46.8324
#
#
#
# Elastic Compliance Matrix: (Units=1/GPa)
#
#
# Indices 1 2 3 4 5 6 
#
# 1 0.039123 -0.003110 -0.008103 -0.003714 -0.012110 -0.015954
# 2 -0.003110 0.011559 -0.003510 0.003344 0.002185 -0.006648
# 3 -0.008103 -0.003510 0.019825 -0.015330 -0.000381 0.005698
# 4 -0.003714 0.003344 -0.015330 0.035619 0.002664 -0.004283
# 5 -0.012110 0.002185 -0.000381 0.002664 0.031366 0.003292
# 6 -0.015954 -0.006648 0.005698 -0.004283 0.003292 0.034271
#
#
# Mechanical properties :
#
#
# Convention : Reuss Voigt Hill
#
# Bulk Modulus (GPa) = 24.35413 52.10690 38.23052
# Shear Modulus (GPa) = 23.26715 38.59697 30.93206
#
# Velocity S-wave (km/s) = 3.21777 4.14438 3.71012
# Velocity P-wave (km/s) = 4.96418 6.78890 5.94694
#
# Compressibility (1/GPa) = 0.04106079
#
# Stress axis : x y z
#
# Youngs Moduli (GPa) = 25.56033 86.51556 50.44146
#
# Poissons Ratio (x) = 0.26909 0.40871
# Poissons Ratio (y) = 0.07950 0.17706
# Poissons Ratio (z) = 0.20710 0.30368
#
# Static dielectric constant tensor:
#      x y z
#    x 1.824140 -0.013400 -0.032260 
#    y -0.013400 1.988840 -0.052650 
#    z -0.032260 -0.052650 1.824010 
# 
# From -- ./inp_files/25608.got.cif
#   From: 2010.05.17/outbox.cif.g08.bks.cpg/sg2_13_cif.got.tgz:25608.got - 2010.06.03 11:33:40.
