data_PCOD9066550
_publ_section_title
;
Structure prediction by ZEFSAII (Michael W. Deem and Ramdas Pophale) SiO2 
 PCOD9066550
Probable space group: P -1
;
_chemical_formula_sum "Si O2"
_cell_formula_units_Z 11
_cell_length_a 13.045022
_cell_length_b 16.722687
_cell_length_c 16.685366
_cell_angle_alpha 17.008897
_cell_angle_beta 33.799654
_cell_angle_gamma 25.867011
_cell_volume 451.979081
_symmetry_space_group_name_H-M "P -1"
_symmetry_group_IT_number 2
_symmetry_cell_setting 'triclinic'
loop_
_space_group_symop_operation_xyz
x,y,z
-x,-y,-z
loop_
_atom_site_type_symbol
_atom_site_label
_atom_site_fract_x
_atom_site_fract_y
_atom_site_fract_z
Si Si1 0.500000 0.000000 0.500000
Si Si2 0.902346 0.930086 0.383287
Si Si3 0.727168 0.861541 0.313969
Si Si4 0.779890 0.436565 0.224778
Si Si5 0.683287 0.375594 0.719681
Si Si6 0.005192 0.601308 0.037286
O O1 0.365487 0.863390 0.673020
O O2 0.403159 0.982206 0.666915
O O3 0.077813 0.798889 0.319594
O O4 0.950482 0.607848 0.710294
O O5 0.972387 0.108817 0.225789
O O6 0.605566 0.730720 0.470169
O O7 0.000000 0.500000 0.500000
O O8 0.730113 0.117284 0.008313
O O9 0.525412 0.531657 0.292087
O O10 0.789019 0.642420 0.094740
O O11 0.000000 0.000000 0.500000
O O12 0.814602 0.569237 0.992303
#
# Coordination Sequence:
#
# PCOD9066550 Si02
#       6
#     1   2   2   2   2   2
#     4  12  28  46  80 106 152 196 252 300 380 432
#     4  12  26  46  71 109 146 197 247 313 366 450
#     4  12  27  51  75 112 149 200 247 311 368 454
#     4  11  25  48  76 107 147 200 246 319 370 446
#     4  12  28  48  75 107 156 188 254 311 374 439
#     4  11  25  46  71 105 144 189 256 295 381 438
#
# _framework density 24.337408
#
# number of rings (size 3 to 8) (size 9 to 14) (size 15 to 20)
#    0.000    0.364    3.636    3.818    5.091    2.909 
#    0.000    0.000    0.000    0.000    0.000    0.000 
#    0.000    0.000    0.000    0.000    0.000    0.000 
#
# Total GULP energy -61253.116896 kJ/mol
# GULP energy per Si atom -5568.465172 kJ/mol
# Density = 2.428202 g / cm^3
# Si number density = 24.337408 Si / 1000 Ang^3
#
#
#
# Elastic Constant Matrix: (Units=GPa)
#
#
# Indices 1 2 3 4 5 6 
#
# 1 115.4522 46.7126 -1.9815 -4.1817 -19.8965 -3.8253
# 2 46.7126 90.0877 47.9650 30.5692 18.3207 3.9627
# 3 -1.9815 47.9650 116.6313 24.5011 18.7869 -4.5172
# 4 -4.1817 30.5692 24.5011 29.7439 3.3367 6.0844
# 5 -19.8965 18.3207 18.7869 3.3367 38.6402 10.1880
# 6 -3.8253 3.9627 -4.5172 6.0844 10.1880 56.6791
#
#
#
# Elastic Compliance Matrix: (Units=1/GPa)
#
#
# Indices 1 2 3 4 5 6 
#
# 1 0.026194 -0.030125 0.002184 0.030805 0.025041 -0.003760
# 2 -0.030125 0.054812 -0.006021 -0.052791 -0.035519 0.005706
# 3 0.002184 -0.006021 0.012382 -0.003933 -0.002333 0.002397
# 4 0.030805 -0.052791 -0.003933 0.093540 0.037724 -0.011366
# 5 0.025041 -0.035519 -0.002333 0.037724 0.056170 -0.010159
# 6 -0.003760 0.005706 0.002397 -0.011366 -0.010159 0.020228
#
#
# Mechanical properties :
#
#
# Convention : Reuss Voigt Hill
#
# Bulk Modulus (GPa) = 39.27115 56.39594 47.83355
# Shear Modulus (GPa) = 14.71714 40.31096 27.51405
#
# Velocity S-wave (km/s) = 2.46176 4.07423 3.36598
# Velocity P-wave (km/s) = 4.92458 6.73463 5.89944
#
# Compressibility (1/GPa) = 0.02546398
#
# Stress axis : x y z
#
# Youngs Moduli (GPa) = 38.17615 18.24404 80.76070
#
# Poissons Ratio (x) = 0.54960 -0.17635
# Poissons Ratio (y) = 1.15005 0.48627
# Poissons Ratio (z) = -0.08336 0.10985
#
# Static dielectric constant tensor:
#      x y z
#    x 2.063360 -0.071720 0.009250 
#    y -0.071720 1.918430 -0.051390 
#    z 0.009250 -0.051390 1.954700 
# 
# From -- ./inp_files/521182.got.cif
#   From: 2010.05.17/outbox.cif.g08.bks.cpg/sg2_261_cif.got.tgz:521182.got - 2010.06.03 11:33:40.
