data_PCOD9066952
_publ_section_title
;
Structure prediction by ZEFSAII (Michael W. Deem and Ramdas Pophale) SiO2 
 PCOD9066952
Probable space group: P -1
;
_chemical_formula_sum "Si O2"
_cell_formula_units_Z 14
_cell_length_a 26.236510
_cell_length_b 5.496389
_cell_length_c 9.836616
_cell_angle_alpha 73.776507
_cell_angle_beta 150.176487
_cell_angle_gamma 114.770733
_cell_volume 629.343689
_symmetry_space_group_name_H-M "P -1"
_symmetry_group_IT_number 2
_symmetry_cell_setting 'triclinic'
loop_
_space_group_symop_operation_xyz
x,y,z
-x,-y,-z
loop_
_atom_site_type_symbol
_atom_site_label
_atom_site_fract_x
_atom_site_fract_y
_atom_site_fract_z
Si Si1 0.681517 0.487454 0.251160
Si Si2 0.268365 0.986849 0.599764
Si Si3 0.094073 0.146901 0.582488
Si Si4 0.693144 0.329002 0.614572
Si Si5 0.419852 0.257653 0.664103
Si Si6 0.132419 0.629315 0.771048
Si Si7 0.030787 0.818672 0.985805
O O1 0.731060 0.811484 0.309510
O O2 0.708518 0.427819 0.478431
O O3 0.731060 0.303245 0.309510
O O4 0.551083 0.378894 0.946545
O O5 0.377241 0.136479 0.736008
O O6 0.163582 0.943139 0.268049
O O7 0.159645 0.443095 0.750899
O O8 0.159645 0.944585 0.750899
O O9 0.000000 0.000000 0.500000
O O10 0.030078 0.162357 0.295600
O O11 0.627681 0.503632 0.503661
O O12 0.627681 0.003427 0.503662
O O13 0.806682 0.390264 0.946203
O O14 0.000000 0.500000 0.500000
O O15 0.000000 0.500000 0.000000
O O16 0.000000 0.000000 0.000000
#
# Coordination Sequence:
#
# PCOD9066952 Si02
#       7
#     2   2   2   2   2   2   2
#     4  10  19  31  53  83 121 149 197 253 318 371
#     4  10  20  32  56  75 115 162 196 234 318 353
#     4  10  23  38  60  83 119 156 214 256 299 342
#     4  10  18  28  47  74 119 156 178 235 312 362
#     4  10  19  31  51  83 121 153 193 251 320 372
#     4  10  21  31  52  81 116 153 203 240 292 363
#     4  12  26  43  61  87 127 173 216 249 298 371
#
# _framework density 22.245398999999999
#
# number of rings (size 3 to 8) (size 9 to 14) (size 15 to 20)
#    0.000    1.714    0.000    6.857   16.000    0.000 
#    0.000    0.000    0.000    0.000    0.000    0.000 
#    0.000  132.571    0.000    0.000    0.000    0.000 
#
# Total GULP energy -78233.941954 kJ/mol
# GULP energy per Si atom -5588.138711 kJ/mol
# Density = 2.219477 g / cm^3
# Si number density = 22.245399 Si / 1000 Ang^3
#
#
#
# Elastic Constant Matrix: (Units=GPa)
#
#
# Indices 1 2 3 4 5 6 
#
# 1 43.7534 56.6960 37.0555 -5.3019 -10.3135 -14.8012
# 2 56.6960 165.1738 47.3494 -1.6169 -11.8974 -74.6219
# 3 37.0555 47.3494 135.1426 -1.7948 -2.8644 -7.4200
# 4 -5.3019 -1.6169 -1.7948 36.1238 -5.8204 -2.9617
# 5 -10.3135 -11.8974 -2.8644 -5.8204 28.9619 -0.5315
# 6 -14.8012 -74.6219 -7.4200 -2.9617 -0.5315 48.9844
#
#
#
# Elastic Compliance Matrix: (Units=1/GPa)
#
#
# Indices 1 2 3 4 5 6 
#
# 1 0.066781 -0.036261 -0.007296 0.006304 0.008776 -0.035690
# 2 -0.036261 0.048210 -0.003312 0.003119 0.008334 0.062263
# 3 -0.007296 -0.003312 0.010144 -0.001745 -0.003414 -0.005856
# 4 0.006304 0.003119 -0.001745 0.030913 0.009719 0.008366
# 5 0.008776 0.008334 -0.003414 0.009719 0.042984 0.015884
# 6 -0.035690 0.062263 -0.005856 0.008366 0.015884 0.104273
#
#
# Mechanical properties :
#
#
# Convention : Reuss Voigt Hill
#
# Bulk Modulus (GPa) = 31.85092 69.58573 50.71832
# Shear Modulus (GPa) = 12.26969 36.34526 24.30748
#
# Velocity S-wave (km/s) = 2.35108 4.04645 3.30918
# Velocity P-wave (km/s) = 4.66038 7.29250 6.11963
#
# Compressibility (1/GPa) = 0.03139627
#
# Stress axis : x y z
#
# Youngs Moduli (GPa) = 14.97426 20.74243 98.58484
#
# Poissons Ratio (x) = 0.75214 0.71930
# Poissons Ratio (y) = 0.54298 0.32651
# Poissons Ratio (z) = 0.10926 0.06870
#
# Static dielectric constant tensor:
#      x y z
#    x 1.836040 -0.072000 0.013440 
#    y -0.072000 1.930090 0.016790 
#    z 0.013440 0.016790 1.763240 
# 
# From -- ./inp_files/40189.got.cif
#   From: 2010.05.17/outbox.cif.g08.bks.cpg/sg2_21_cif.got.tgz:40189.got - 2010.06.03 11:33:40.
