data_PCOD9066047
_publ_section_title
;
Structure prediction by ZEFSAII (Michael W. Deem and Ramdas Pophale) SiO2 
 PCOD9066047
Probable space group: P -1
;
_chemical_formula_sum "Si O2"
_cell_formula_units_Z 12
_cell_length_a 21.016244
_cell_length_b 7.972538
_cell_length_c 4.977131
_cell_angle_alpha 65.372938
_cell_angle_beta 112.301421
_cell_angle_gamma 137.245353
_cell_volume 510.965123
_symmetry_space_group_name_H-M "P -1"
_symmetry_group_IT_number 2
_symmetry_cell_setting 'triclinic'
loop_
_space_group_symop_operation_xyz
x,y,z
-x,-y,-z
loop_
_atom_site_type_symbol
_atom_site_label
_atom_site_fract_x
_atom_site_fract_y
_atom_site_fract_z
Si Si1 0.445910 0.727125 0.794641
Si Si2 0.168951 0.182878 0.394036
Si Si3 0.642934 0.639046 0.606925
Si Si4 0.183806 0.457351 0.725918
Si Si5 0.616659 0.011860 0.262520
Si Si6 0.992599 0.621597 0.654551
O O1 0.418457 0.568291 0.588899
O O2 0.424274 0.906126 0.658391
O O3 0.379312 0.516427 0.059778
O O4 0.550183 0.891535 0.974712
O O5 0.247979 0.184612 0.419782
O O6 0.212939 0.386669 0.565279
O O7 0.078706 0.922239 0.558363
O O8 0.145192 0.264470 0.041470
O O9 0.617564 0.804337 0.502873
O O10 0.275874 0.732872 0.794228
O O11 0.104344 0.445215 0.486559
O O12 0.000000 0.500000 0.500000
O O13 0.000000 0.500000 0.000000
#
# Coordination Sequence:
#
# PCOD9066047 Si02
#       6
#     2   2   2   2   2   2
#     4  11  26  45  66 106 143 183 244 289 349 410
#     4  12  24  45  69 102 141 183 233 292 349 426
#     4  12  24  45  69 103 141 187 240 287 350 416
#     4  12  25  46  69 103 140 186 232 289 358 416
#     4  11  25  44  73 100 143 192 232 294 349 420
#     4  12  26  46  71 104 135 181 236 286 353 429
#
# _framework density 23.484966
#
# number of rings (size 3 to 8) (size 9 to 14) (size 15 to 20)
#    0.000    0.333    3.333    5.000    0.000    8.000 
#    0.000    0.000    0.000    0.000    0.000    0.000 
#    0.000    0.000    0.000    0.000    0.000    0.000 
#
# Total GULP energy -67269.198584 kJ/mol
# GULP energy per Si atom -5605.766549 kJ/mol
# Density = 2.343151 g / cm^3
# Si number density = 23.484966 Si / 1000 Ang^3
#
#
#
# Elastic Constant Matrix: (Units=GPa)
#
#
# Indices 1 2 3 4 5 6 
#
# 1 117.0007 34.5491 57.2139 -1.6742 29.5570 -6.2355
# 2 34.5491 93.9812 23.4438 -5.3893 28.8696 17.9491
# 3 57.2139 23.4438 157.2264 -0.0804 10.0050 -2.1458
# 4 -1.6742 -5.3893 -0.0804 23.3495 3.7114 6.2914
# 5 29.5570 28.8696 10.0050 3.7114 48.2601 7.0329
# 6 -6.2355 17.9491 -2.1458 6.2914 7.0329 55.3909
#
#
#
# Elastic Compliance Matrix: (Units=1/GPa)
#
#
# Indices 1 2 3 4 5 6 
#
# 1 0.012848 -0.002378 -0.003895 0.000579 -0.006087 0.002773
# 2 -0.002378 0.015267 -0.001019 0.005840 -0.007185 -0.005005
# 3 -0.003895 -0.001019 0.007841 -0.000739 0.001412 0.000100
# 4 0.000579 0.005840 -0.000739 0.046947 -0.006376 -0.006379
# 5 -0.006087 -0.007185 0.001412 -0.006376 0.029131 -0.001277
# 6 0.002773 -0.005005 0.000100 -0.006379 -0.001277 0.020878
#
#
# Mechanical properties :
#
#
# Convention : Reuss Voigt Hill
#
# Bulk Modulus (GPa) = 46.79287 66.51354 56.65321
# Shear Modulus (GPa) = 32.33752 42.26687 37.30219
#
# Velocity S-wave (km/s) = 3.71475 4.24694 3.98973
# Velocity P-wave (km/s) = 6.19411 7.24099 6.73791
#
# Compressibility (1/GPa) = 0.02137078
#
# Stress axis : x y z
#
# Youngs Moduli (GPa) = 77.83474 65.50183 127.53812
#
# Poissons Ratio (x) = 0.15575 0.49678
# Poissons Ratio (y) = 0.18508 0.12999
# Poissons Ratio (z) = 0.30318 0.06676
#
# Static dielectric constant tensor:
#      x y z
#    x 1.671720 -0.311940 -0.028890 
#    y -0.311940 1.301090 -0.071040 
#    z -0.028890 -0.071040 1.833990 
# 
# From -- ./inp_files/116746.got.cif
#   From: 2010.05.17/outbox.cif.g08.bks.cpg/sg2_59_cif.got.tgz:116746.got - 2010.06.03 11:33:40.
