data_PCOD9066092
_publ_section_title
;
Structure prediction by ZEFSAII (Michael W. Deem and Ramdas Pophale) SiO2 
 PCOD9066092
Probable space group: P -1
;
_chemical_formula_sum "Si O2"
_cell_formula_units_Z 13
_cell_length_a 11.272619
_cell_length_b 12.019734
_cell_length_c 9.522749
_cell_angle_alpha 141.092247
_cell_angle_beta 39.495303
_cell_angle_gamma 134.462613
_cell_volume 499.016885
_symmetry_space_group_name_H-M "P -1"
_symmetry_group_IT_number 2
_symmetry_cell_setting 'triclinic'
loop_
_space_group_symop_operation_xyz
x,y,z
-x,-y,-z
loop_
_atom_site_type_symbol
_atom_site_label
_atom_site_fract_x
_atom_site_fract_y
_atom_site_fract_z
Si Si1 0.448694 0.618951 0.454300
Si Si2 0.667523 0.687291 0.055898
Si Si3 0.825844 0.206502 0.600023
Si Si4 0.500000 0.000000 0.500000
Si Si5 0.971455 0.376497 0.218992
Si Si6 0.909580 0.019436 0.751911
Si Si7 0.507474 0.233338 0.125584
O O1 0.615237 0.729840 0.308125
O O2 0.250556 0.621319 0.559184
O O3 0.473422 0.415111 0.257593
O O4 0.453028 0.706952 0.689956
O O5 0.625270 0.857806 0.182377
O O6 0.500000 0.500000 0.000000
O O7 0.885231 0.667809 0.836182
O O8 0.695844 0.136654 0.516104
O O9 0.919330 0.421397 0.728291
O O10 0.988875 0.098876 0.356980
O O11 0.681206 0.173660 0.833020
O O12 0.960171 0.226040 0.961148
O O13 0.683909 0.927529 0.865603
O O14 0.000000 0.000000 0.500000
#
# Coordination Sequence:
#
# PCOD9066092 Si02
#       7
#     2   2   2   1   2   2   2
#     4  11  25  44  75 107 146 185 242 296 365 426
#     4  12  25  49  71 104 142 192 238 302 359 425
#     4  12  26  49  73 105 147 190 244 297 359 431
#     4  12  26  48  76  98 146 194 242 292 360 432
#     4  12  25  45  72 107 142 188 238 301 358 424
#     4  12  27  43  72 111 148 189 240 295 364 432
#     4  11  25  45  74 108 146 190 235 298 364 429
#
# _framework density 26.051221999999999
#
# number of rings (size 3 to 8) (size 9 to 14) (size 15 to 20)
#    0.000    0.308    6.154    1.846    4.308    3.077 
#    0.000    1.538    0.000    0.000    0.000    0.000 
#    0.000    0.000    0.000    0.000    0.000    0.000 
#
# Total GULP energy -72701.381043 kJ/mol
# GULP energy per Si atom -5592.413926 kJ/mol
# Density = 2.599193 g / cm^3
# Si number density = 26.051222 Si / 1000 Ang^3
#
#
#
# Elastic Constant Matrix: (Units=GPa)
#
#
# Indices 1 2 3 4 5 6 
#
# 1 108.2964 40.1459 41.2919 -2.7356 -15.8421 28.7438
# 2 40.1459 122.9717 59.1942 11.2759 7.4839 28.5573
# 3 41.2919 59.1942 132.9615 18.2834 -4.1842 18.3149
# 4 -2.7356 11.2759 18.2834 54.9180 15.9748 6.4555
# 5 -15.8421 7.4839 -4.1842 15.9748 65.9832 -5.9193
# 6 28.7438 28.5573 18.3149 6.4555 -5.9193 43.0569
#
#
#
# Elastic Compliance Matrix: (Units=1/GPa)
#
#
# Indices 1 2 3 4 5 6 
#
# 1 0.012920 -0.001839 -0.002529 0.001998 0.002098 -0.006341
# 2 -0.001839 0.012161 -0.004206 0.000216 -0.002628 -0.005443
# 3 -0.002529 -0.004206 0.010581 -0.003267 0.001391 0.000658
# 4 0.001998 0.000216 -0.003267 0.021361 -0.005284 -0.004017
# 5 0.002098 -0.002628 0.001391 -0.005284 0.017590 0.002962
# 6 -0.006341 -0.005443 0.000658 -0.004017 0.002962 0.031798
#
#
# Mechanical properties :
#
#
# Convention : Reuss Voigt Hill
#
# Bulk Modulus (GPa) = 54.01022 71.72152 62.86587
# Shear Modulus (GPa) = 38.54167 47.69813 43.11990
#
# Velocity S-wave (km/s) = 3.85054 4.28359 4.07282
# Velocity P-wave (km/s) = 6.36759 7.21500 6.80450
#
# Compressibility (1/GPa) = 0.01851502
#
# Stress axis : x y z
#
# Youngs Moduli (GPa) = 77.39767 82.23153 94.50826
#
# Poissons Ratio (x) = 0.15122 0.23902
# Poissons Ratio (y) = 0.14233 0.39746
# Poissons Ratio (z) = 0.19575 0.34583
#
# Static dielectric constant tensor:
#      x y z
#    x 2.203460 -0.069140 -0.029040 
#    y -0.069140 2.127720 0.033120 
#    z -0.029040 0.033120 2.045220 
# 
# From -- ./inp_files/430569.got.cif
#   From: 2010.05.17/outbox.cif.g08.bks.cpg/sg2_216_cif.got.tgz:430569.got - 2010.06.03 11:33:40.
