data_PCOD9066492
_publ_section_title
;
Structure prediction by ZEFSAII (Michael W. Deem and Ramdas Pophale) SiO2 
 PCOD9066492
Probable space group: P -1
;
_chemical_formula_sum "Si O2"
_cell_formula_units_Z 16
_cell_length_a 17.478289
_cell_length_b 10.641583
_cell_length_c 8.518567
_cell_angle_alpha 53.399887
_cell_angle_beta 49.612711
_cell_angle_gamma 32.270299
_cell_volume 639.770726
_symmetry_space_group_name_H-M "P -1"
_symmetry_group_IT_number 2
_symmetry_cell_setting 'triclinic'
loop_
_space_group_symop_operation_xyz
x,y,z
-x,-y,-z
loop_
_atom_site_type_symbol
_atom_site_label
_atom_site_fract_x
_atom_site_fract_y
_atom_site_fract_z
Si Si1 0.759699 0.521199 0.542780
Si Si2 0.408594 0.487076 0.026507
Si Si3 0.281539 0.190617 0.183263
Si Si4 0.821390 0.228098 0.402220
Si Si5 0.571273 0.668130 0.199072
Si Si6 0.181396 0.259015 0.914449
Si Si7 0.055904 0.221053 0.568948
Si Si8 0.887481 0.965041 0.016694
O O1 0.612263 0.644608 0.744225
O O2 0.811665 0.307917 0.530926
O O3 0.749219 0.677706 0.321711
O O4 0.890676 0.411428 0.572166
O O5 0.480775 0.375780 0.844501
O O6 0.500000 0.500000 0.000000
O O7 0.239572 0.751736 0.018535
O O8 0.314770 0.335219 0.023813
O O9 0.135786 0.294469 0.386651
O O10 0.258639 0.168980 0.048160
O O11 0.427959 0.933111 0.253083
O O12 0.851210 0.011362 0.492463
O O13 0.664832 0.462723 0.353598
O O14 0.961685 0.151953 0.185308
O O15 0.186974 0.091474 0.937030
O O16 0.000000 0.500000 0.000000
O O17 0.069574 0.141262 0.786484
#
# Coordination Sequence:
#
# PCOD9066492 Si02
#       8
#     2   2   2   2   2   2   2   2
#     4  12  26  42  73 103 135 186 231 280 343 409
#     4  12  28  48  69 101 140 183 227 289 347 402
#     4  11  25  46  70 102 138 185 227 282 338 414
#     4  12  23  45  70 102 140 179 231 282 341 408
#     4  11  25  48  69  95 145 180 225 284 343 402
#     4  12  23  45  69 103 141 182 230 280 340 407
#     4  12  25  41  73 105 136 179 230 284 345 403
#     4  12  25  44  68 103 144 175 228 289 336 410
#
# _framework density 25.008956999999999
#
# number of rings (size 3 to 8) (size 9 to 14) (size 15 to 20)
#    0.000    0.250    6.250    2.250    5.250    2.000 
#    0.000    1.250    0.000    0.000    0.000    0.000 
#    0.000    0.000    0.000    0.000    0.000    0.000 
#
# Total GULP energy -89796.200195 kJ/mol
# GULP energy per Si atom -5612.262512 kJ/mol
# Density = 2.495204 g / cm^3
# Si number density = 25.008957 Si / 1000 Ang^3
#
#
#
# Elastic Constant Matrix: (Units=GPa)
#
#
# Indices 1 2 3 4 5 6 
#
# 1 130.0997 4.1569 23.9635 -2.0729 12.0608 4.0628
# 2 4.1569 59.2970 1.4823 -9.5335 1.3905 -10.6712
# 3 23.9635 1.4823 113.2201 0.5703 -1.2656 -18.2783
# 4 -2.0729 -9.5335 0.5703 27.3851 -1.9487 1.6183
# 5 12.0608 1.3905 -1.2656 -1.9487 43.4558 -0.2748
# 6 4.0628 -10.6712 -18.2783 1.6183 -0.2748 45.1523
#
#
#
# Elastic Compliance Matrix: (Units=1/GPa)
#
#
# Indices 1 2 3 4 5 6 
#
# 1 0.008374 -0.000746 -0.002081 0.000356 -0.002356 -0.001799
# 2 -0.000746 0.018707 0.000610 0.006172 -0.000068 0.004514
# 3 -0.002081 0.000610 0.009985 -0.000351 0.000861 0.004391
# 4 0.000356 0.006172 -0.000351 0.038807 0.001433 -0.000098
# 5 -0.002356 -0.000068 0.000861 0.001433 0.023761 0.000638
# 6 -0.001799 0.004514 0.004391 -0.000098 0.000638 0.025161
#
#
# Mechanical properties :
#
#
# Convention : Reuss Voigt Hill
#
# Bulk Modulus (GPa) = 30.64552 40.20246 35.42399
# Shear Modulus (GPa) = 35.68665 41.39956 38.54310
#
# Velocity S-wave (km/s) = 3.78160 4.07306 3.93004
# Velocity P-wave (km/s) = 5.59891 6.18303 5.89821
#
# Compressibility (1/GPa) = 0.03263120
#
# Stress axis : x y z
#
# Youngs Moduli (GPa) = 119.41842 53.45450 100.14803
#
# Poissons Ratio (x) = 0.03990 0.20843
# Poissons Ratio (y) = 0.08913 -0.06108
# Poissons Ratio (z) = 0.24854 -0.03260
#
# Static dielectric constant tensor:
#      x y z
#    x 1.946120 0.036970 -0.019080 
#    y 0.036970 1.977510 0.006600 
#    z -0.019080 0.006600 1.915510 
# 
# From -- ./inp_files/272392.got.cif
#   From: 2010.05.17/outbox.cif.g08.bks.cpg/sg2_137_cif.got.tgz:272392.got - 2010.06.03 11:33:40.
