data_PCOD9066096
_publ_section_title
;
Structure prediction by ZEFSAII (Michael W. Deem and Ramdas Pophale) SiO2 
 PCOD9066096
Probable space group: P -1
;
_chemical_formula_sum "Si O2"
_cell_formula_units_Z 14
_cell_length_a 23.829582
_cell_length_b 14.609359
_cell_length_c 5.511097
_cell_angle_alpha 113.255210
_cell_angle_beta 66.169124
_cell_angle_gamma 158.961852
_cell_volume 629.118779
_symmetry_space_group_name_H-M "P -1"
_symmetry_group_IT_number 2
_symmetry_cell_setting 'triclinic'
loop_
_space_group_symop_operation_xyz
x,y,z
-x,-y,-z
loop_
_atom_site_type_symbol
_atom_site_label
_atom_site_fract_x
_atom_site_fract_y
_atom_site_fract_z
Si Si1 0.566608 0.407776 0.217137
Si Si2 0.639850 0.292009 0.062291
Si Si3 0.068461 0.211497 0.634901
Si Si4 0.605113 0.788847 0.185730
Si Si5 0.906256 0.379016 0.284525
Si Si6 0.805386 0.912990 0.128877
Si Si7 0.916784 0.610563 0.612112
O O1 0.580531 0.308229 0.069691
O O2 0.499173 0.340518 0.527812
O O3 0.729396 0.710895 0.206486
O O4 0.468102 0.298158 0.041106
O O5 0.747197 0.499485 0.311853
O O6 0.778965 0.437235 0.848080
O O7 0.500000 0.000000 0.000000
O O8 0.058375 0.257071 0.456160
O O9 0.000000 0.000000 0.500000
O O10 0.942687 0.073614 0.891138
O O11 0.672882 0.777783 0.079330
O O12 0.753524 0.083520 0.249044
O O13 0.860611 0.426458 0.394322
O O14 0.000000 0.500000 0.500000
O O15 0.000000 0.500000 0.000000
O O16 0.906550 0.144166 0.345552
#
# Coordination Sequence:
#
# PCOD9066096 Si02
#       7
#     2   2   2   2   2   2   2
#     4  12  28  46  73 104 150 190 236 299 362 432
#     4  11  27  48  70 105 145 191 245 300 367 435
#     4  11  25  45  77 103 140 190 247 304 360 431
#     4  12  27  46  72 108 145 191 237 298 364 428
#     4  12  25  46  74 105 145 184 241 302 359 434
#     4  11  25  46  72 106 141 186 244 295 364 433
#     4  11  25  44  76 102 139 191 241 303 356 433
#
# _framework density 22.253349
#
# number of rings (size 3 to 8) (size 9 to 14) (size 15 to 20)
#    0.000    0.571    1.429    5.143   12.000    2.857 
#    0.000    0.000    0.000    0.000    0.000    0.000 
#    0.000    0.000    0.000    0.000    0.000    0.000 
#
# Total GULP energy -78084.238748 kJ/mol
# GULP energy per Si atom -5577.445625 kJ/mol
# Density = 2.220270 g / cm^3
# Si number density = 22.253349 Si / 1000 Ang^3
#
#
#
# Elastic Constant Matrix: (Units=GPa)
#
#
# Indices 1 2 3 4 5 6 
#
# 1 145.3700 44.1952 31.7907 -3.8623 -12.4536 -21.1945
# 2 44.1952 159.5989 28.5316 -0.0579 4.4887 -17.3638
# 3 31.7907 28.5316 75.3473 -19.7410 6.8065 -12.2810
# 4 -3.8623 -0.0579 -19.7410 65.3634 -9.2275 18.8360
# 5 -12.4536 4.4887 6.8065 -9.2275 42.9110 14.0711
# 6 -21.1945 -17.3638 -12.2810 18.8360 14.0711 58.1289
#
#
#
# Elastic Compliance Matrix: (Units=1/GPa)
#
#
# Indices 1 2 3 4 5 6 
#
# 1 0.008487 -0.001716 -0.003047 -0.000490 0.002534 0.001484
# 2 -0.001716 0.007382 -0.001954 -0.001595 -0.002015 0.002172
# 3 -0.003047 -0.001954 0.016840 0.004153 -0.002854 0.001209
# 4 -0.000490 -0.001595 0.004153 0.019564 0.006060 -0.007584
# 5 0.002534 -0.002015 -0.002854 0.006060 0.029048 -0.009276
# 6 0.001484 0.002172 0.001209 -0.007584 -0.009276 0.023351
#
#
# Mechanical properties :
#
#
# Convention : Reuss Voigt Hill
#
# Bulk Modulus (GPa) = 51.87287 65.48346 58.67817
# Shear Modulus (GPa) = 40.15074 51.66725 45.90900
#
# Velocity S-wave (km/s) = 4.25226 4.82371 4.54697
# Velocity P-wave (km/s) = 6.88983 7.77910 7.34793
#
# Compressibility (1/GPa) = 0.01927790
#
# Stress axis : x y z
#
# Youngs Moduli (GPa) = 117.82371 135.45744 59.38227
#
# Poissons Ratio (x) = 0.23239 0.18092
# Poissons Ratio (y) = 0.20214 0.11601
# Poissons Ratio (z) = 0.35898 0.26462
#
# Static dielectric constant tensor:
#      x y z
#    x 1.858480 0.093390 0.011070 
#    y 0.093390 1.877960 0.084260 
#    z 0.011070 0.084260 1.887200 
# 
# From -- ./inp_files/124371.got.cif
#   From: 2010.05.17/outbox.cif.g08.bks.cpg/sg2_63_cif.got.tgz:124371.got - 2010.06.03 11:33:40.
