data_PCOD9066554
_publ_section_title
;
Structure prediction by ZEFSAII (Michael W. Deem and Ramdas Pophale) SiO2 
 PCOD9066554
Probable space group: P -1
;
_chemical_formula_sum "Si O2"
_cell_formula_units_Z 15
_cell_length_a 17.362324
_cell_length_b 7.079086
_cell_length_c 5.084734
_cell_angle_alpha 101.206320
_cell_angle_beta 110.395790
_cell_angle_gamma 72.780268
_cell_volume 556.615581
_symmetry_space_group_name_H-M "P -1"
_symmetry_group_IT_number 2
_symmetry_cell_setting 'triclinic'
loop_
_space_group_symop_operation_xyz
x,y,z
-x,-y,-z
loop_
_atom_site_type_symbol
_atom_site_label
_atom_site_fract_x
_atom_site_fract_y
_atom_site_fract_z
Si Si1 0.425664 0.294960 0.828499
Si Si2 0.433219 0.857997 0.669873
Si Si3 0.267327 0.295228 0.396274
Si Si4 0.980295 0.378486 0.198866
Si Si5 0.283918 0.945411 0.942749
Si Si6 0.142695 0.093110 0.430883
Si Si7 0.205790 0.677644 0.096304
Si Si8 0.500000 0.500000 0.500000
O O1 0.477345 0.306207 0.163659
O O2 0.325966 0.312816 0.719700
O O3 0.440697 0.435342 0.655460
O O4 0.459924 0.062422 0.725442
O O5 0.422761 0.710935 0.389884
O O6 0.356894 0.897980 0.796102
O O7 0.179016 0.260944 0.375308
O O8 0.308849 0.089876 0.232734
O O9 0.256068 0.485990 0.258006
O O10 0.043694 0.161918 0.271652
O O11 0.000000 0.500000 0.500000
O O12 0.883912 0.364198 0.095352
O O13 0.000000 0.500000 0.000000
O O14 0.191253 0.076165 0.762568
O O15 0.259073 0.747020 0.950214
O O16 0.181399 0.875715 0.300468
#
# Coordination Sequence:
#
# PCOD9066554 Si02
#       8
#     2   2   2   2   2   2   2   1
#     4  11  27  45  71  98 143 189 238 310 372 448
#     4  11  27  49  67 103 145 193 246 310 380 449
#     4  11  25  46  71 106 145 192 246 310 377 446
#     4  12  27  50  83 114 162 208 256 315 392 465
#     4  11  27  45  75 108 145 194 251 313 372 463
#     4  11  25  48  75 109 150 195 250 306 376 455
#     4  11  27  47  76 112 148 194 253 309 382 453
#     4  12  28  44  70 102 134 190 252 300 376 452
#
# _framework density 26.948578000000001
#
# number of rings (size 3 to 8) (size 9 to 14) (size 15 to 20)
#    0.000    0.800    2.667    2.000   13.067    2.667 
#    0.000    0.000    0.000    0.000    0.000    0.000 
#    0.000    0.000    0.000    0.000    0.000    0.000 
#
# Total GULP energy -83839.340645 kJ/mol
# GULP energy per Si atom -5589.289376 kJ/mol
# Density = 2.688724 g / cm^3
# Si number density = 26.948578 Si / 1000 Ang^3
#
#
#
# Elastic Constant Matrix: (Units=GPa)
#
#
# Indices 1 2 3 4 5 6 
#
# 1 92.4971 21.7478 39.9550 6.2241 29.1459 10.8826
# 2 21.7478 194.4309 11.0770 0.6613 -1.5640 15.8401
# 3 39.9550 11.0770 108.1016 0.1596 19.1447 13.3339
# 4 6.2241 0.6613 0.1596 35.6143 -5.8076 -2.7168
# 5 29.1459 -1.5640 19.1447 -5.8076 46.8369 0.1631
# 6 10.8826 15.8401 13.3339 -2.7168 0.1631 52.9532
#
#
#
# Elastic Compliance Matrix: (Units=1/GPa)
#
#
# Indices 1 2 3 4 5 6 
#
# 1 0.016301 -0.001483 -0.003995 -0.004448 -0.009105 -0.002101
# 2 -0.001483 0.005426 -0.000054 0.000249 0.001161 -0.001296
# 3 -0.003995 -0.000054 0.011358 0.000147 -0.002133 -0.002009
# 4 -0.004448 0.000249 0.000147 0.030078 0.006438 0.002326
# 5 -0.009105 0.001161 -0.002133 0.006438 0.028717 0.002303
# 6 -0.002101 -0.001296 -0.002009 0.002326 0.002303 0.020322
#
#
# Mechanical properties :
#
#
# Convention : Reuss Voigt Hill
#
# Bulk Modulus (GPa) = 45.41045 60.06547 52.73796
# Shear Modulus (GPa) = 38.28311 48.56421 43.42366
#
# Velocity S-wave (km/s) = 3.77317 4.24973 4.01852
# Velocity P-wave (km/s) = 5.98914 6.81304 6.41433
#
# Compressibility (1/GPa) = 0.02202136
#
# Stress axis : x y z
#
# Youngs Moduli (GPa) = 61.34715 184.29129 88.04391
#
# Poissons Ratio (x) = 0.27324 0.35172
# Poissons Ratio (y) = 0.09096 0.00478
# Poissons Ratio (z) = 0.24507 0.01000
#
# Static dielectric constant tensor:
#      x y z
#    x 2.159090 -0.146840 0.018450 
#    y -0.146840 2.196270 0.086070 
#    z 0.018450 0.086070 2.378580 
# 
# From -- ./inp_files/11367.got.cif
#   From: 2010.05.17/outbox.cif.g08.bks.cpg/sg2_6_cif.got.tgz:11367.got - 2010.06.03 11:33:40.
