data_PCOD9066435
_publ_section_title
;
Structure prediction by ZEFSAII (Michael W. Deem and Ramdas Pophale) SiO2 
 PCOD9066435
Probable space group: P -1
;
_chemical_formula_sum "Si O2"
_cell_formula_units_Z 12
_cell_length_a 12.925350
_cell_length_b 8.682175
_cell_length_c 9.369755
_cell_angle_alpha 110.614151
_cell_angle_beta 32.347847
_cell_angle_gamma 95.218338
_cell_volume 479.735730
_symmetry_space_group_name_H-M "P -1"
_symmetry_group_IT_number 2
_symmetry_cell_setting 'triclinic'
loop_
_space_group_symop_operation_xyz
x,y,z
-x,-y,-z
loop_
_atom_site_type_symbol
_atom_site_label
_atom_site_fract_x
_atom_site_fract_y
_atom_site_fract_z
Si Si1 0.686554 0.806959 0.540918
Si Si2 0.776326 0.344081 0.778386
Si Si3 0.730514 0.487632 0.194669
Si Si4 0.686537 0.628650 0.761808
Si Si5 0.028983 0.901635 0.084661
Si Si6 0.774425 0.930995 0.872464
O O1 0.728194 0.675388 0.313896
O O2 0.778752 0.678658 0.528110
O O3 0.796263 0.945103 0.436324
O O4 0.435389 0.914034 0.900218
O O5 0.818720 0.436276 0.616193
O O6 0.986014 0.161739 0.499251
O O7 0.757651 0.451358 0.982199
O O8 0.546782 0.350729 0.005891
O O9 0.500000 0.500000 0.500000
O O10 0.872532 0.314752 0.071257
O O11 0.697226 0.769368 0.912759
O O12 0.182463 0.973481 0.010081
O O13 0.000000 0.000000 0.000000
#
# Coordination Sequence:
#
# PCOD9066435 Si02
#       6
#     2   2   2   2   2   2
#     4  12  27  50  79 111 153 200 251 312 380 451
#     4  11  26  48  79 113 154 197 254 311 376 451
#     4  12  25  52  77 109 155 203 248 309 381 450
#     4  11  25  45  78 113 151 197 253 310 378 443
#     4  12  30  48  77 114 154 197 256 314 379 450
#     4  12  26  47  75 111 151 197 253 311 375 440
#
# _framework density 25.013771999999999
#
# number of rings (size 3 to 8) (size 9 to 14) (size 15 to 20)
#    0.000    0.333    3.333    3.500    4.667    6.667 
#    0.000    0.000    0.000    0.000    0.000    0.000 
#    0.000    0.000    0.000    0.000    0.000    0.000 
#
# Total GULP energy -66984.412439 kJ/mol
# GULP energy per Si atom -5582.034370 kJ/mol
# Density = 2.495684 g / cm^3
# Si number density = 25.013772 Si / 1000 Ang^3
#
#
#
# Elastic Constant Matrix: (Units=GPa)
#
#
# Indices 1 2 3 4 5 6 
#
# 1 150.1656 72.1693 53.5593 -13.7698 -34.4090 4.5863
# 2 72.1693 104.2938 20.6492 -13.0858 5.2016 -24.5243
# 3 53.5593 20.6492 94.0161 2.5321 -24.4824 -18.0638
# 4 -13.7698 -13.0858 2.5321 40.7396 2.4693 6.7346
# 5 -34.4090 5.2016 -24.4824 2.4693 32.4435 -12.8674
# 6 4.5863 -24.5243 -18.0638 6.7346 -12.8674 52.4536
#
#
#
# Elastic Compliance Matrix: (Units=1/GPa)
#
#
# Indices 1 2 3 4 5 6 
#
# 1 0.019852 -0.014846 -0.004955 0.002301 0.016933 -0.006525
# 2 -0.014846 0.022583 0.000971 0.001769 -0.015535 0.008153
# 3 -0.004955 0.000971 0.019363 -0.005373 0.014268 0.011745
# 4 0.002301 0.001769 -0.005373 0.027677 -0.006534 -0.006381
# 5 0.016933 -0.015535 0.014268 -0.006534 0.067962 0.013681
# 6 -0.006525 0.008153 0.011745 -0.006381 0.013681 0.031667
#
#
# Mechanical properties :
#
#
# Convention : Reuss Voigt Hill
#
# Bulk Modulus (GPa) = 41.42838 71.24788 56.33813
# Shear Modulus (GPa) = 21.29383 38.60052 29.94717
#
# Velocity S-wave (km/s) = 2.92084 3.93258 3.46385
# Velocity P-wave (km/s) = 5.28898 7.01182 6.21043
#
# Compressibility (1/GPa) = 0.02413804
#
# Stress axis : x y z
#
# Youngs Moduli (GPa) = 50.37299 44.28046 51.64591
#
# Poissons Ratio (x) = 0.65740 0.25589
# Poissons Ratio (y) = 0.74785 -0.05015
# Poissons Ratio (z) = 0.24959 -0.04300
#
# Static dielectric constant tensor:
#      x y z
#    x 1.987800 0.068960 -0.017380 
#    y 0.068960 2.067090 0.062270 
#    z -0.017380 0.062270 2.102870 
# 
# From -- ./inp_files/152342.got.cif
#   From: 2010.05.17/outbox.cif.g08.bks.cpg/sg2_77_cif.got.tgz:152342.got - 2010.06.03 11:33:40.
