data_PCOD9066879
_publ_section_title
;
Structure prediction by ZEFSAII (Michael W. Deem and Ramdas Pophale) SiO2 
 PCOD9066879
Probable space group: P -1
;
_chemical_formula_sum "Si O2"
_cell_formula_units_Z 16
_cell_length_a 7.134980
_cell_length_b 13.607377
_cell_length_c 7.356860
_cell_angle_alpha 73.280249
_cell_angle_beta 93.343986
_cell_angle_gamma 119.489474
_cell_volume 592.465723
_symmetry_space_group_name_H-M "P -1"
_symmetry_group_IT_number 2
_symmetry_cell_setting 'triclinic'
loop_
_space_group_symop_operation_xyz
x,y,z
-x,-y,-z
loop_
_atom_site_type_symbol
_atom_site_label
_atom_site_fract_x
_atom_site_fract_y
_atom_site_fract_z
Si Si1 0.913411 0.266010 0.985209
Si Si2 0.790731 0.017621 0.502246
Si Si3 0.652002 0.483176 0.749709
Si Si4 0.564976 0.760476 0.694607
Si Si5 0.743912 0.480666 0.170045
Si Si6 0.276204 0.981527 0.921611
Si Si7 0.443650 0.232855 0.912071
Si Si8 0.057185 0.268746 0.409308
O O1 0.909356 0.150107 0.962963
O O2 0.667460 0.235924 0.970574
O O3 0.988468 0.274842 0.193517
O O4 0.057067 0.393390 0.833049
O O5 0.606727 0.893122 0.635832
O O6 0.720129 0.023252 0.292229
O O7 0.000000 0.000000 0.500000
O O8 0.863815 0.142962 0.537475
O O9 0.466359 0.512357 0.783168
O O10 0.833940 0.595283 0.589853
O O11 0.755318 0.476844 0.952456
O O12 0.526057 0.350942 0.733474
O O13 0.324924 0.652164 0.698554
O O14 0.627528 0.740128 0.912661
O O15 0.740560 0.755569 0.577900
O O16 0.500000 0.000000 0.000000
O O17 0.276316 0.101773 0.906492
#
# Coordination Sequence:
#
# PCOD9066879 Si02
#       8
#     2   2   2   2   2   2   2   2
#     4   9  16  28  45  65  94 129 161 191 236 290
#     4   9  17  33  54  71  93 132 169 194 235 297
#     4   8  14  25  43  68  95 121 156 202 239 273
#     4   9  17  29  49  74  95 119 160 208 241 275
#     4   8  14  26  43  66  96 124 153 197 245 279
#     4   9  19  34  49  68 100 135 158 193 251 297
#     4  10  18  28  47  73  95 121 163 205 236 281
#     4   8  15  29  46  66  96 127 156 194 243 284
#
# _framework density 27.005783999999998
#
# number of rings (size 3 to 8) (size 9 to 14) (size 15 to 20)
#    0.000    3.250    0.000    2.250    0.000    4.500 
#    0.000   15.625    0.000   11.250    0.000    0.000 
#    0.000    0.000    0.000    0.000    0.000    0.000 
#
# Total GULP energy -89276.944188 kJ/mol
# GULP energy per Si atom -5579.809012 kJ/mol
# Density = 2.694432 g / cm^3
# Si number density = 27.005784 Si / 1000 Ang^3
#
#
#
# Elastic Constant Matrix: (Units=GPa)
#
#
# Indices 1 2 3 4 5 6 
#
# 1 86.6409 21.2591 7.4790 1.1970 6.7744 4.0543
# 2 21.2591 282.0845 48.6409 -74.8715 -13.0506 -1.4347
# 3 7.4790 48.6409 78.1812 -7.4415 3.9767 7.7068
# 4 1.1970 -74.8715 -7.4415 52.9530 7.7173 2.8377
# 5 6.7744 -13.0506 3.9767 7.7173 13.0239 -5.4687
# 6 4.0543 -1.4347 7.7068 2.8377 -5.4687 29.4492
#
#
#
# Elastic Compliance Matrix: (Units=1/GPa)
#
#
# Indices 1 2 3 4 5 6 
#
# 1 0.012889 -0.001887 0.000674 -0.001266 -0.009606 -0.003705
# 2 -0.001887 0.006733 -0.003606 0.008305 0.004572 0.001580
# 3 0.000674 -0.003606 0.016081 -0.000899 -0.011047 -0.006442
# 4 -0.001266 0.008305 -0.000899 0.032507 -0.011909 -0.004530
# 5 -0.009606 0.004572 -0.011047 -0.011909 0.107518 0.025550
# 6 -0.003705 0.001580 -0.006442 -0.004530 0.025550 0.041411
#
#
# Mechanical properties :
#
#
# Convention : Reuss Voigt Hill
#
# Bulk Modulus (GPa) = 38.36567 66.85161 52.60864
# Shear Modulus (GPa) = 21.23458 43.72039 32.47749
#
# Velocity S-wave (km/s) = 2.80714 4.02795 3.47163
# Velocity P-wave (km/s) = 4.97434 6.81475 5.96594
#
# Compressibility (1/GPa) = 0.02606497
#
# Stress axis : x y z
#
# Youngs Moduli (GPa) = 77.58796 148.52477 62.18412
#
# Poissons Ratio (x) = 0.28025 -0.04193
# Poissons Ratio (y) = 0.14640 0.22425
# Poissons Ratio (z) = -0.05232 0.53562
#
# Static dielectric constant tensor:
#      x y z
#    x 2.125220 -0.032840 0.010730 
#    y -0.032840 2.245690 -0.079220 
#    z 0.010730 -0.079220 2.140780 
# 
# From -- ./inp_files/206430.got.cif
#   From: 2010.05.17/outbox.cif.g08.bks.cpg/sg2_104_cif.got.tgz:206430.got - 2010.06.03 11:33:40.
