data_PCOD9066705
_publ_section_title
;
Structure prediction by ZEFSAII (Michael W. Deem and Ramdas Pophale) SiO2 
 PCOD9066705
Probable space group: P -1
;
_chemical_formula_sum "Si O2"
_cell_formula_units_Z 15
_cell_length_a 9.407253
_cell_length_b 5.494122
_cell_length_c 14.825489
_cell_angle_alpha 103.734313
_cell_angle_beta 58.684363
_cell_angle_gamma 107.646229
_cell_volume 620.808893
_symmetry_space_group_name_H-M "P -1"
_symmetry_group_IT_number 2
_symmetry_cell_setting 'triclinic'
loop_
_space_group_symop_operation_xyz
x,y,z
-x,-y,-z
loop_
_atom_site_type_symbol
_atom_site_label
_atom_site_fract_x
_atom_site_fract_y
_atom_site_fract_z
Si Si1 0.705734 0.931742 0.666503
Si Si2 0.124423 0.201435 0.163185
Si Si3 0.397548 0.205489 0.514270
Si Si4 0.376717 0.114344 0.851640
Si Si5 0.167340 0.232715 0.756567
Si Si6 0.897828 0.504298 0.629141
Si Si7 0.899555 0.315083 0.090118
Si Si8 0.500000 0.500000 0.000000
O O1 0.665599 0.878726 0.570920
O O2 0.762070 0.680796 0.664032
O O3 0.540624 0.994782 0.773503
O O4 0.838583 0.205629 0.648708
O O5 0.042659 0.354161 0.282536
O O6 0.037983 0.233346 0.099435
O O7 0.324746 0.318843 0.094406
O O8 0.033589 0.904432 0.188030
O O9 0.500000 0.500000 0.500000
O O10 0.242952 0.192447 0.632420
O O11 0.500000 0.000000 0.500000
O O12 0.279839 0.138055 0.790909
O O13 0.431289 0.367744 0.914693
O O14 0.237777 0.903351 0.930393
O O15 0.195916 0.529311 0.797416
O O16 0.000000 0.500000 0.500000
O O17 0.000000 0.500000 0.000000
#
# Coordination Sequence:
#
# PCOD9066705 Si02
#       8
#     2   2   2   2   2   2   2   1
#     4  12  26  47  76 113 154 202 264 320 388 462
#     4  11  27  46  74 111 148 215 262 328 395 478
#     4  12  25  43  77 118 155 208 259 321 393 473
#     4  11  25  46  74 113 149 203 255 336 391 477
#     4  11  25  46  74 107 161 196 262 324 402 467
#     4  12  28  49  75 110 163 207 257 320 396 472
#     4  11  25  46  75 108 152 198 263 327 403 462
#     4  12  24  48  76 102 158 196 278 314 408 460
#
# _framework density 24.162026000000001
#
# number of rings (size 3 to 8) (size 9 to 14) (size 15 to 20)
#    0.000    0.533    2.667    4.400    7.467    3.200 
#    0.000    4.000    0.000    0.000    0.000    0.000 
#    0.000    0.000    0.000    0.000    0.000    0.000 
#
# Total GULP energy -83571.976844 kJ/mol
# GULP energy per Si atom -5571.465123 kJ/mol
# Density = 2.410703 g / cm^3
# Si number density = 24.162026 Si / 1000 Ang^3
#
#
#
# Elastic Constant Matrix: (Units=GPa)
#
#
# Indices 1 2 3 4 5 6 
#
# 1 64.2389 39.8780 28.6763 -12.7253 -4.8305 15.3771
# 2 39.8780 109.1463 15.2855 -3.3446 -0.0612 27.4603
# 3 28.6763 15.2855 133.0377 -8.4151 0.4612 8.0357
# 4 -12.7253 -3.3446 -8.4151 45.9818 3.1007 -3.6145
# 5 -4.8305 -0.0612 0.4612 3.1007 40.9075 9.7652
# 6 15.3771 27.4603 8.0357 -3.6145 9.7652 54.9647
#
#
#
# Elastic Compliance Matrix: (Units=1/GPa)
#
#
# Indices 1 2 3 4 5 6 
#
# 1 0.023614 -0.007280 -0.003795 0.004896 0.003079 -0.002639
# 2 -0.007280 0.012899 0.000275 -0.001413 0.000363 -0.004605
# 3 -0.003795 0.000275 0.008348 0.000521 -0.000542 -0.000165
# 4 0.004896 -0.001413 0.000521 0.023275 -0.001444 0.001047
# 5 0.003079 0.000363 -0.000542 -0.001444 0.026293 -0.005730
# 6 -0.002639 -0.004605 -0.000165 0.001047 -0.005730 0.022344
#
#
# Mechanical properties :
#
#
# Convention : Reuss Voigt Hill
#
# Bulk Modulus (GPa) = 42.99326 52.67805 47.83565
# Shear Modulus (GPa) = 34.21701 43.20965 38.71333
#
# Velocity S-wave (km/s) = 3.76726 4.23345 4.00714
# Velocity P-wave (km/s) = 6.06262 6.76354 6.42265
#
# Compressibility (1/GPa) = 0.02325946
#
# Stress axis : x y z
#
# Youngs Moduli (GPa) = 42.34852 77.52545 119.78993
#
# Poissons Ratio (x) = 0.56441 0.45460
# Poissons Ratio (y) = 0.30831 -0.03291
# Poissons Ratio (z) = 0.16071 -0.02130
#
# Static dielectric constant tensor:
#      x y z
#    x 1.909180 -0.031100 -0.042360 
#    y -0.031100 2.190660 0.144340 
#    z -0.042360 0.144340 2.087320 
# 
# From -- ./inp_files/488618.got.cif
#   From: 2010.05.17/outbox.cif.g08.bks.cpg/sg2_245_cif.got.tgz:488618.got - 2010.06.03 11:33:40.
