data_PCOD9066759
_publ_section_title
;
Structure prediction by ZEFSAII (Michael W. Deem and Ramdas Pophale) SiO2 
 PCOD9066759
Probable space group: P -1
;
_chemical_formula_sum "Si O2"
_cell_formula_units_Z 13
_cell_length_a 5.091305
_cell_length_b 5.650361
_cell_length_c 16.462058
_cell_angle_alpha 79.938157
_cell_angle_beta 81.744603
_cell_angle_gamma 79.854426
_cell_volume 455.881083
_symmetry_space_group_name_H-M "P -1"
_symmetry_group_IT_number 2
_symmetry_cell_setting 'triclinic'
loop_
_space_group_symop_operation_xyz
x,y,z
-x,-y,-z
loop_
_atom_site_type_symbol
_atom_site_label
_atom_site_fract_x
_atom_site_fract_y
_atom_site_fract_z
Si Si1 0.923953 0.986144 0.227102
Si Si2 0.114016 0.210540 0.932191
Si Si3 0.285538 0.345111 0.145648
Si Si4 0.521566 0.631820 0.701987
Si Si5 0.500000 0.500000 0.000000
Si Si6 0.814743 0.809352 0.547500
Si Si7 0.237840 0.342493 0.609800
O O1 0.737004 0.236799 0.247156
O O2 0.185665 0.092073 0.179812
O O3 0.831114 0.846380 0.162096
O O4 0.914968 0.832698 0.318879
O O5 0.863488 0.447122 0.923469
O O6 0.362711 0.293007 0.961920
O O7 0.000000 0.000000 0.000000
O O8 0.287721 0.464299 0.226676
O O9 0.558630 0.307117 0.086222
O O10 0.629656 0.843922 0.632827
O O11 0.453516 0.437706 0.652469
O O12 0.654840 0.757961 0.476349
O O13 0.019682 0.572822 0.580934
O O14 0.000000 0.000000 0.500000
#
# Coordination Sequence:
#
# PCOD9066759 Si02
#       7
#     2   2   2   2   1   2   2
#     4  12  26  48  74 110 154 202 249 319 382 458
#     4  12  28  52  78 109 155 197 258 324 385 456
#     4  12  27  48  75 110 152 195 258 318 381 467
#     4  12  26  46  74 110 151 201 252 309 389 458
#     4  12  26  50  80 108 144 200 260 316 388 450
#     4  11  25  48  76 109 151 199 252 316 376 456
#     4  11  25  46  75 109 153 196 254 311 382 454
#
# _framework density 28.516210000000001
#
# number of rings (size 3 to 8) (size 9 to 14) (size 15 to 20)
#    0.000    0.308    1.538    7.385    2.154    9.231 
#    2.769    1.538    0.000    0.000    0.000    0.000 
#    0.000    0.000    0.000    0.000    0.000    0.000 
#
# Total GULP energy -72744.273859 kJ/mol
# GULP energy per Si atom -5595.713374 kJ/mol
# Density = 2.845131 g / cm^3
# Si number density = 28.516210 Si / 1000 Ang^3
#
#
#
# Elastic Constant Matrix: (Units=GPa)
#
#
# Indices 1 2 3 4 5 6 
#
# 1 86.7771 42.3286 52.8972 -4.1304 -0.6215 30.1036
# 2 42.3286 98.6496 72.7891 -7.1832 9.7006 32.9656
# 3 52.8972 72.7891 281.0787 -9.7275 5.1409 44.0782
# 4 -4.1304 -7.1832 -9.7275 86.7174 8.3435 2.3456
# 5 -0.6215 9.7006 5.1409 8.3435 62.9369 -0.5365
# 6 30.1036 32.9656 44.0782 2.3456 -0.5365 69.6507
#
#
#
# Elastic Compliance Matrix: (Units=1/GPa)
#
#
# Indices 1 2 3 4 5 6 
#
# 1 0.015917 -0.004738 -0.001165 0.000252 0.000916 -0.003901
# 2 -0.004738 0.015586 -0.002461 0.001127 -0.002430 -0.003828
# 3 -0.001165 -0.002461 0.004625 0.000300 -0.000061 -0.001269
# 4 0.000252 0.001127 0.000300 0.011876 -0.001781 -0.001246
# 5 0.000916 -0.002430 -0.000061 -0.001781 0.016522 0.000980
# 6 -0.003901 -0.003828 -0.001269 -0.001246 0.000980 0.018708
#
#
# Mechanical properties :
#
#
# Convention : Reuss Voigt Hill
#
# Bulk Modulus (GPa) = 51.54592 89.17058 70.35825
# Shear Modulus (GPa) = 46.98044 63.76037 55.37040
#
# Velocity S-wave (km/s) = 4.06334 4.73370 4.41127
# Velocity P-wave (km/s) = 6.33479 7.82401 7.11845
#
# Compressibility (1/GPa) = 0.01940018
#
# Stress axis : x y z
#
# Youngs Moduli (GPa) = 62.82614 64.16043 216.23288
#
# Poissons Ratio (x) = 0.30401 0.25184
# Poissons Ratio (y) = 0.29769 0.53208
# Poissons Ratio (z) = 0.07317 0.15788
#
# Static dielectric constant tensor:
#      x y z
#    x 0.655580 0.398380 0.954990 
#    y 0.398380 2.162020 -0.252820 
#    z 0.954990 -0.252820 1.581930 
# 
# From -- ./inp_files/4369.got.cif
#   From: 2010.05.17/outbox.cif.g08.bks.cpg/sg2_3_cif.got.tgz:4369.got - 2010.06.03 11:33:40.
