data_PCOD9066690
_publ_section_title
;
Structure prediction by ZEFSAII (Michael W. Deem and Ramdas Pophale) SiO2 
 PCOD9066690
Probable space group: P -1
;
_chemical_formula_sum "Si O2"
_cell_formula_units_Z 15
_cell_length_a 12.966447
_cell_length_b 5.556354
_cell_length_c 12.424998
_cell_angle_alpha 134.645454
_cell_angle_beta 101.711268
_cell_angle_gamma 93.797767
_cell_volume 594.940112
_symmetry_space_group_name_H-M "P -1"
_symmetry_group_IT_number 2
_symmetry_cell_setting 'triclinic'
loop_
_space_group_symop_operation_xyz
x,y,z
-x,-y,-z
loop_
_atom_site_type_symbol
_atom_site_label
_atom_site_fract_x
_atom_site_fract_y
_atom_site_fract_z
Si Si1 0.792721 0.658777 0.150412
Si Si2 0.000000 0.500000 0.500000
Si Si3 0.338341 0.528130 0.338955
Si Si4 0.842654 0.691251 0.931111
Si Si5 0.427849 0.336380 0.606456
Si Si6 0.995312 0.496586 0.245133
Si Si7 0.230116 0.569043 0.558517
Si Si8 0.446874 0.613686 0.918082
O O1 0.904772 0.670295 0.237470
O O2 0.679723 0.416800 0.097311
O O3 0.783710 0.054784 0.288322
O O4 0.801721 0.548857 0.994936
O O5 0.971914 0.431628 0.601952
O O6 0.106136 0.332231 0.481004
O O7 0.258387 0.291187 0.159568
O O8 0.455400 0.453604 0.356406
O O9 0.270922 0.534234 0.435219
O O10 0.379275 0.933235 0.431145
O O11 0.905232 0.464403 0.805140
O O12 0.927050 0.075711 0.093317
O O13 0.329385 0.505397 0.626849
O O14 0.451821 0.337295 0.738921
O O15 0.500000 0.500000 0.000000
O O16 0.500000 0.000000 0.000000
#
# Coordination Sequence:
#
# PCOD9066690 Si02
#       8
#     2   1   2   2   2   2   2   2
#     4  12  26  46  76 105 156 198 257 324 394 470
#     4  12  24  46  78 108 150 200 256 324 388 466
#     4  11  25  46  74 103 149 204 249 314 394 456
#     4  11  25  49  71 112 153 198 256 317 395 468
#     4  11  26  47  73 107 149 196 260 316 384 473
#     4  11  26  46  74 113 151 197 257 320 388 475
#     4  12  25  47  72 111 150 202 258 322 385 468
#     4  12  27  46  77 114 153 203 266 329 399 466
#
# _framework density 25.212620000000001
#
# number of rings (size 3 to 8) (size 9 to 14) (size 15 to 20)
#    0.000    0.533    4.000    3.200    3.733    2.667 
#    0.000    0.000    0.000    0.000    0.000    0.000 
#    0.000    0.000    0.000    0.000    0.000    0.000 
#
# Total GULP energy -83798.293330 kJ/mol
# GULP energy per Si atom -5586.552889 kJ/mol
# Density = 2.515524 g / cm^3
# Si number density = 25.212620 Si / 1000 Ang^3
#
#
#
# Elastic Constant Matrix: (Units=GPa)
#
#
# Indices 1 2 3 4 5 6 
#
# 1 194.5605 37.2481 42.9664 -23.5042 -32.5500 -5.6640
# 2 37.2481 70.8037 42.4796 -19.3559 -14.9945 -10.2501
# 3 42.9664 42.4796 107.1792 -41.3361 -26.9066 7.6554
# 4 -23.5042 -19.3559 -41.3361 50.0609 2.9321 -2.7217
# 5 -32.5500 -14.9945 -26.9066 2.9321 36.3852 -3.9026
# 6 -5.6640 -10.2501 7.6554 -2.7217 -3.9026 57.3569
#
#
#
# Elastic Compliance Matrix: (Units=1/GPa)
#
#
# Indices 1 2 3 4 5 6 
#
# 1 0.006609 -0.001735 0.000196 0.002330 0.005239 0.000784
# 2 -0.001735 0.020634 -0.006415 0.001970 0.002547 0.004639
# 3 0.000196 -0.006415 0.019760 0.013163 0.010825 -0.002403
# 4 0.002330 0.001970 0.013163 0.032162 0.010150 0.001042
# 5 0.005239 0.002547 0.010825 0.010150 0.040705 0.002779
# 6 0.000784 0.004639 -0.002403 0.001042 0.002779 0.018900
#
#
# Mechanical properties :
#
#
# Convention : Reuss Voigt Hill
#
# Bulk Modulus (GPa) = 32.15890 68.65907 50.40898
# Shear Modulus (GPa) = 30.29462 45.41720 37.85591
#
# Velocity S-wave (km/s) = 3.47012 4.24886 3.87908
# Velocity P-wave (km/s) = 5.37014 7.16670 6.33245
#
# Compressibility (1/GPa) = 0.03109559
#
# Stress axis : x y z
#
# Youngs Moduli (GPa) = 151.29957 48.46274 50.60642
#
# Poissons Ratio (x) = 0.08406 -0.00990
# Poissons Ratio (y) = 0.26245 0.32466
# Poissons Ratio (z) = -0.02960 0.31090
#
# Static dielectric constant tensor:
#      x y z
#    x 1.954330 -0.098520 -0.128110 
#    y -0.098520 1.898900 -0.190300 
#    z -0.128110 -0.190300 1.609430 
# 
# From -- ./inp_files/123553.got.cif
#   From: 2010.05.17/outbox.cif.g08.bks.cpg/sg2_62_cif.got.tgz:123553.got - 2010.06.03 11:33:40.
