data_PCOD9066979
_publ_section_title
;
Structure prediction by ZEFSAII (Michael W. Deem and Ramdas Pophale) SiO2 
 PCOD9066979
Probable space group: P -1
;
_chemical_formula_sum "Si O2"
_cell_formula_units_Z 16
_cell_length_a 5.344844
_cell_length_b 19.974577
_cell_length_c 9.020454
_cell_angle_alpha 58.459900
_cell_angle_beta 123.910258
_cell_angle_gamma 108.280280
_cell_volume 680.840906
_symmetry_space_group_name_H-M "P -1"
_symmetry_group_IT_number 2
_symmetry_cell_setting 'triclinic'
loop_
_space_group_symop_operation_xyz
x,y,z
-x,-y,-z
loop_
_atom_site_type_symbol
_atom_site_label
_atom_site_fract_x
_atom_site_fract_y
_atom_site_fract_z
Si Si1 0.864614 0.422879 0.965612
Si Si2 0.625026 0.202850 0.556442
Si Si3 0.310510 0.066047 0.438994
Si Si4 0.124778 0.574693 0.541750
Si Si5 0.322920 0.958317 0.851637
Si Si6 0.348019 0.191622 0.811294
Si Si7 0.508125 0.632188 0.826505
Si Si8 0.504500 0.634722 0.333583
O O1 0.683937 0.370554 0.085860
O O2 0.139062 0.378744 0.031166
O O3 0.625126 0.430751 0.746903
O O4 0.000000 0.500000 0.000000
O O5 0.491472 0.144905 0.452168
O O6 0.467569 0.188208 0.682697
O O7 0.552868 0.289099 0.374368
O O8 0.984917 0.191725 0.697995
O O9 0.019558 0.078300 0.224160
O O10 0.500000 0.000000 0.500000
O O11 0.269164 0.025992 0.634463
O O12 0.375532 0.560319 0.764310
O O13 0.289893 0.628517 0.410983
O O14 0.000000 0.500000 0.500000
O O15 0.851715 0.613695 0.494152
O O16 0.527509 0.883589 0.975050
O O17 0.500000 0.000000 0.000000
O O18 0.479306 0.275126 0.818970
#
# Coordination Sequence:
#
# PCOD9066979 Si02
#       8
#     2   2   2   2   2   2   2   2
#     4  12  26  44  67 100 143 187 236 300 360 423
#     4  12  26  47  73 104 147 186 240 302 363 433
#     4  11  27  46  75 112 145 192 250 293 365 441
#     4  12  23  43  70  97 133 182 238 293 348 422
#     4  11  25  47  74 107 148 194 239 301 364 428
#     4  12  25  46  73 103 144 192 237 299 368 430
#     4  12  24  44  68  99 139 186 233 292 364 412
#     4  12  24  44  65 104 137 181 243 285 355 434
#
# _framework density 23.500351999999999
#
# number of rings (size 3 to 8) (size 9 to 14) (size 15 to 20)
#    0.000    0.250    3.750    5.250    5.250    2.000 
#    0.000    0.000    0.000    0.000    0.000    0.000 
#    0.000    0.000    0.000    0.000    0.000    0.000 
#
# Total GULP energy -89421.485860 kJ/mol
# GULP energy per Si atom -5588.842866 kJ/mol
# Density = 2.344686 g / cm^3
# Si number density = 23.500352 Si / 1000 Ang^3
#
#
#
# Elastic Constant Matrix: (Units=GPa)
#
#
# Indices 1 2 3 4 5 6 
#
# 1 109.9848 25.5835 30.3721 4.9038 22.5756 15.6194
# 2 25.5835 124.0244 22.3404 17.3616 6.2801 3.7727
# 3 30.3721 22.3404 97.2359 14.2363 21.6944 11.2117
# 4 4.9038 17.3616 14.2363 49.2901 -2.0785 1.1850
# 5 22.5756 6.2801 21.6944 -2.0785 48.7672 -0.5706
# 6 15.6194 3.7727 11.2117 1.1850 -0.5706 24.9518
#
#
#
# Elastic Compliance Matrix: (Units=1/GPa)
#
#
# Indices 1 2 3 4 5 6 
#
# 1 0.011793 -0.001706 -0.001465 -0.000189 -0.004673 -0.006564
# 2 -0.001706 0.008988 -0.001199 -0.002657 0.000057 0.000375
# 3 -0.001465 -0.001199 0.013237 -0.003361 -0.005255 -0.004810
# 4 -0.000189 -0.002657 -0.003361 0.022310 0.002887 0.001036
# 5 -0.004673 0.000057 -0.005255 0.002887 0.025189 0.005717
# 6 -0.006564 0.000375 -0.004810 0.001036 0.005717 0.046373
#
#
# Mechanical properties :
#
#
# Convention : Reuss Voigt Hill
#
# Bulk Modulus (GPa) = 39.55977 54.20412 46.88194
# Shear Modulus (GPa) = 34.46935 41.46510 37.96723
#
# Velocity S-wave (km/s) = 3.83398 4.20509 4.02382
# Velocity P-wave (km/s) = 6.03900 6.83318 6.44833
#
# Compressibility (1/GPa) = 0.02527821
#
# Stress axis : x y z
#
# Youngs Moduli (GPa) = 84.79392 111.25362 75.54864
#
# Poissons Ratio (x) = 0.18982 0.11065
# Poissons Ratio (y) = 0.14467 0.09060
# Poissons Ratio (z) = 0.12419 0.13342
#
# Static dielectric constant tensor:
#      x y z
#    x 1.994080 0.045380 -0.077670 
#    y 0.045380 1.963400 -0.007250 
#    z -0.077670 -0.007250 1.866320 
# 
# From -- ./inp_files/141321.got.cif
#   From: 2010.05.17/outbox.cif.g08.bks.cpg/sg2_71_cif.got.tgz:141321.got - 2010.06.03 11:33:40.
