data_PCOD9066894
_publ_section_title
;
Structure prediction by ZEFSAII (Michael W. Deem and Ramdas Pophale) SiO2 
 PCOD9066894
Probable space group: P -1
;
_chemical_formula_sum "Si O2"
_cell_formula_units_Z 16
_cell_length_a 9.142653
_cell_length_b 8.684339
_cell_length_c 11.440337
_cell_angle_alpha 93.847773
_cell_angle_beta 90.233129
_cell_angle_gamma 56.388345
_cell_volume 754.168856
_symmetry_space_group_name_H-M "P -1"
_symmetry_group_IT_number 2
_symmetry_cell_setting 'triclinic'
loop_
_space_group_symop_operation_xyz
x,y,z
-x,-y,-z
loop_
_atom_site_type_symbol
_atom_site_label
_atom_site_fract_x
_atom_site_fract_y
_atom_site_fract_z
Si Si1 0.685105 0.462773 0.793312
Si Si2 0.974114 0.841384 0.347974
Si Si3 0.349188 0.165214 0.762752
Si Si4 0.137478 0.279588 0.984075
Si Si5 0.276784 0.196284 0.220595
Si Si6 0.689369 0.450545 0.243988
Si Si7 0.996473 0.819361 0.623633
Si Si8 0.133989 0.780452 0.010362
O O1 0.700418 0.639859 0.815406
O O2 0.491205 0.536854 0.752402
O O3 0.839896 0.340529 0.696071
O O4 0.708368 0.336423 0.901666
O O5 0.804142 0.847774 0.298460
O O6 0.956430 0.847995 0.488441
O O7 0.001754 0.004937 0.320404
O O8 0.304004 0.205514 0.902023
O O9 0.346221 0.345928 0.737872
O O10 0.537660 0.975937 0.744423
O O11 0.198515 0.170821 0.099885
O O12 0.000000 0.500000 0.000000
O O13 0.006994 0.238990 0.920130
O O14 0.134226 0.226115 0.316819
O O15 0.794361 0.334535 0.118434
O O16 0.809662 0.346359 0.350006
O O17 0.000000 0.000000 0.000000
#
# Coordination Sequence:
#
# PCOD9066894 Si02
#       8
#     2   2   2   2   2   2   2   2
#     4  12  25  43  67 100 136 175 221 270 327 393
#     4  11  25  47  71  96 130 172 221 277 333 392
#     4  12  25  42  69  99 136 175 219 272 329 392
#     4  12  21  42  66  97 135 177 216 266 329 391
#     4  12  25  42  69  99 136 175 219 272 329 392
#     4  12  25  43  67 100 136 175 221 270 327 393
#     4  11  25  47  71  96 130 172 221 277 333 392
#     4  12  25  40  70  97 137 179 218 267 330 393
#
# _framework density 21.215406999999999
#
# number of rings (size 3 to 8) (size 9 to 14) (size 15 to 20)
#    0.000    0.250    5.000    3.750    3.500    3.000 
#    0.000    0.000    0.000    0.000    0.000    0.000 
#    0.000    0.000    0.000    0.000    0.000    0.000 
#
# Total GULP energy -89094.008867 kJ/mol
# GULP energy per Si atom -5568.375554 kJ/mol
# Density = 2.116712 g / cm^3
# Si number density = 21.215407 Si / 1000 Ang^3
#
#
#
# Elastic Constant Matrix: (Units=GPa)
#
#
# Indices 1 2 3 4 5 6 
#
# 1 121.0507 36.6055 25.1927 -3.5523 10.2986 -19.4426
# 2 36.6055 110.9370 11.1617 -9.8011 13.5316 -4.3038
# 3 25.1927 11.1617 54.6187 -12.6815 9.8935 -0.1888
# 4 -3.5523 -9.8011 -12.6815 22.7048 3.4075 4.3666
# 5 10.2986 13.5316 9.8935 3.4075 15.5629 -6.6453
# 6 -19.4426 -4.3038 -0.1888 4.3666 -6.6453 36.4354
#
#
#
# Elastic Compliance Matrix: (Units=1/GPa)
#
#
# Indices 1 2 3 4 5 6 
#
# 1 0.011364 -0.003800 -0.006420 -0.005390 0.004018 0.006961
# 2 -0.003800 0.012437 0.004386 0.010403 -0.015319 -0.004577
# 3 -0.006420 0.004386 0.031619 0.025209 -0.029981 -0.011233
# 4 -0.005390 0.010403 0.025209 0.072081 -0.045137 -0.018388
# 5 0.004018 -0.015319 -0.029981 -0.045137 0.115216 0.026602
# 6 0.006961 -0.004577 -0.011233 -0.018388 0.026602 0.037617
#
#
# Mechanical properties :
#
#
# Convention : Reuss Voigt Hill
#
# Bulk Modulus (GPa) = 22.85718 48.05848 35.45783
# Shear Modulus (GPa) = 16.30853 29.18372 22.74612
#
# Velocity S-wave (km/s) = 2.77557 3.71292 3.27792
# Velocity P-wave (km/s) = 4.59010 6.40959 5.57458
#
# Compressibility (1/GPa) = 0.04374994
#
# Stress axis : x y z
#
# Youngs Moduli (GPa) = 87.99423 80.40645 31.62679
#
# Poissons Ratio (x) = 0.30556 0.20306
# Poissons Ratio (y) = 0.33439 -0.13870
# Poissons Ratio (z) = 0.56496 -0.35263
#
# Static dielectric constant tensor:
#      x y z
#    x 1.676280 -0.061770 0.165020 
#    y -0.061770 1.584460 0.257300 
#    z 0.165020 0.257300 1.558110 
# 
# From -- ./inp_files/188019.got.cif
#   From: 2010.05.17/outbox.cif.g08.bks.cpg/sg2_95_cif.got.tgz:188019.got - 2010.06.03 11:33:40.
