data_PCOD9066300
_publ_section_title
;
Structure prediction by ZEFSAII (Michael W. Deem and Ramdas Pophale) SiO2 
 PCOD9066300
Probable space group: P -1
;
_chemical_formula_sum "Si O2"
_cell_formula_units_Z 15
_cell_length_a 12.940779
_cell_length_b 8.076243
_cell_length_c 8.560272
_cell_angle_alpha 52.987322
_cell_angle_beta 121.135524
_cell_angle_gamma 97.703660
_cell_volume 590.564238
_symmetry_space_group_name_H-M "P -1"
_symmetry_group_IT_number 2
_symmetry_cell_setting 'triclinic'
loop_
_space_group_symop_operation_xyz
x,y,z
-x,-y,-z
loop_
_atom_site_type_symbol
_atom_site_label
_atom_site_fract_x
_atom_site_fract_y
_atom_site_fract_z
Si Si1 0.855881 0.675996 0.388082
Si Si2 0.500000 0.500000 0.500000
Si Si3 0.067683 0.588495 0.858537
Si Si4 0.410419 0.820589 0.682929
Si Si5 0.938710 0.051449 0.133488
Si Si6 0.652699 0.507028 0.930193
Si Si7 0.609820 0.849427 0.273329
Si Si8 0.812563 0.230181 0.628979
O O1 0.886984 0.841112 0.196138
O O2 0.742936 0.821629 0.316724
O O3 0.817249 0.461183 0.433415
O O4 0.977894 0.606832 0.630642
O O5 0.602517 0.465682 0.744872
O O6 0.585196 0.618683 0.395498
O O7 0.078930 0.823161 0.789530
O O8 0.208789 0.464053 0.998273
O O9 0.000000 0.500000 0.000000
O O10 0.552472 0.708243 0.814579
O O11 0.322480 0.812236 0.471655
O O12 0.398693 0.050482 0.617962
O O13 0.358634 0.687408 0.852702
O O14 0.085855 0.961599 0.267464
O O15 0.864444 0.215375 0.853320
O O16 0.500000 0.000000 0.000000
#
# Coordination Sequence:
#
# PCOD9066300 Si02
#       8
#     2   1   2   2   2   2   2   2
#     4  12  25  46  77 106 149 201 247 315 371 447
#     4  12  26  50  76 108 146 198 246 308 374 444
#     4  12  24  47  73 111 151 200 253 304 376 450
#     4  11  25  51  74 112 154 193 251 316 373 448
#     4  11  25  45  73 109 148 198 249 305 373 450
#     4  11  26  44  80 109 150 199 251 309 373 450
#     4  12  27  49  77 110 148 197 252 309 378 449
#     4  11  25  47  73 113 150 191 250 312 376 446
#
# _framework density 25.399438
#
# number of rings (size 3 to 8) (size 9 to 14) (size 15 to 20)
#    0.000    0.533    2.667    4.800    3.733    0.533 
#    2.400    1.333    0.000    0.000    0.000    0.000 
#    0.000    0.000    0.000    0.000    0.000    0.000 
#
# Total GULP energy -83848.072827 kJ/mol
# GULP energy per Si atom -5589.871522 kJ/mol
# Density = 2.534163 g / cm^3
# Si number density = 25.399438 Si / 1000 Ang^3
#
#
#
# Elastic Constant Matrix: (Units=GPa)
#
#
# Indices 1 2 3 4 5 6 
#
# 1 161.0248 14.7308 35.9664 -9.2000 33.2195 11.0112
# 2 14.7308 83.8123 18.8769 9.8004 25.7918 4.5487
# 3 35.9664 18.8769 75.9021 4.9189 4.9971 9.1556
# 4 -9.2000 9.8004 4.9189 26.4864 5.7321 3.8250
# 5 33.2195 25.7918 4.9971 5.7321 52.3240 -4.7174
# 6 11.0112 4.5487 9.1556 3.8250 -4.7174 31.3758
#
#
#
# Elastic Compliance Matrix: (Units=1/GPa)
#
#
# Indices 1 2 3 4 5 6 
#
# 1 0.008967 0.000945 -0.003937 0.005504 -0.006730 -0.003818
# 2 0.000945 0.015346 -0.003283 -0.002706 -0.007774 -0.002438
# 3 -0.003937 -0.003283 0.016142 -0.003460 0.002774 -0.002014
# 4 0.005504 -0.002706 -0.003460 0.043890 -0.007267 -0.006973
# 5 -0.006730 -0.007774 0.002774 -0.007267 0.028455 0.007844
# 6 -0.003818 -0.002438 -0.002014 -0.006973 0.007844 0.036182
#
#
# Mechanical properties :
#
#
# Convention : Reuss Voigt Hill
#
# Bulk Modulus (GPa) = 35.83683 51.09862 43.46773
# Shear Modulus (GPa) = 29.26817 38.78158 34.02488
#
# Velocity S-wave (km/s) = 3.39826 3.91175 3.66401
# Velocity P-wave (km/s) = 5.43484 6.36900 5.92037
#
# Compressibility (1/GPa) = 0.02790425
#
# Stress axis : x y z
#
# Youngs Moduli (GPa) = 111.51768 65.16429 61.95163
#
# Poissons Ratio (x) = -0.06161 0.24392
# Poissons Ratio (y) = -0.10544 0.20341
# Poissons Ratio (z) = 0.43908 0.21396
#
# Static dielectric constant tensor:
#      x y z
#    x 1.957750 -0.005830 -0.002740 
#    y -0.005830 2.030320 -0.053220 
#    z -0.002740 -0.053220 1.954260 
# 
# From -- ./inp_files/242260.got.cif
#   From: 2010.05.17/outbox.cif.g08.bks.cpg/sg2_122_cif.got.tgz:242260.got - 2010.06.03 11:33:40.
