data_PCOD9066488
_publ_section_title
;
Structure prediction by ZEFSAII (Michael W. Deem and Ramdas Pophale) SiO2 
 PCOD9066488
Probable space group: P -1
;
_chemical_formula_sum "Si O2"
_cell_formula_units_Z 14
_cell_length_a 15.330916
_cell_length_b 8.550421
_cell_length_c 21.519349
_cell_angle_alpha 32.343729
_cell_angle_beta 28.472903
_cell_angle_gamma 47.720068
_cell_volume 691.929443
_symmetry_space_group_name_H-M "P -1"
_symmetry_group_IT_number 2
_symmetry_cell_setting 'triclinic'
loop_
_space_group_symop_operation_xyz
x,y,z
-x,-y,-z
loop_
_atom_site_type_symbol
_atom_site_label
_atom_site_fract_x
_atom_site_fract_y
_atom_site_fract_z
Si Si1 0.517793 0.674717 0.496618
Si Si2 0.329362 0.189533 0.203730
Si Si3 0.072140 0.839798 0.595294
Si Si4 0.782565 0.931727 0.442052
Si Si5 0.084344 0.219173 0.055394
Si Si6 0.931426 0.859185 0.156564
Si Si7 0.487662 0.638723 0.260464
O O1 0.500000 0.500000 0.500000
O O2 0.726950 0.909471 0.284060
O O3 0.518130 0.479718 0.624349
O O4 0.351720 0.838816 0.552565
O O5 0.147048 0.216321 0.269194
O O6 0.222586 0.031419 0.386580
O O7 0.425889 0.946147 0.195869
O O8 0.500000 0.500000 0.000000
O O9 0.097256 0.501994 0.702111
O O10 0.121109 0.026536 0.565313
O O11 0.652512 0.606527 0.612557
O O12 0.946279 0.020688 0.258712
O O13 0.299005 0.320755 0.909174
O O14 0.076397 0.025390 0.062615
O O15 0.000000 0.500000 0.000000
O O16 0.000000 0.000000 0.000000
#
# Coordination Sequence:
#
# PCOD9066488 Si02
#       7
#     2   2   2   2   2   2   2
#     4  12  21  40  66  99 139 176 220 279 345 410
#     4  11  25  48  74  95 133 183 242 288 328 412
#     4  11  25  46  70 100 134 182 233 284 346 406
#     4  12  24  43  66 102 144 174 222 287 353 417
#     4  12  23  38  64  99 139 178 223 275 347 415
#     4  12  23  41  68 103 139 178 231 283 344 415
#     4  12  24  43  67  97 137 182 226 283 345 399
#
# _framework density 20.233277000000001
#
# number of rings (size 3 to 8) (size 9 to 14) (size 15 to 20)
#    0.000    0.286    5.714    3.857    0.000    4.000 
#    0.000    1.429    0.000    0.000    0.000    0.000 
#    0.000    0.000    0.000    0.000    0.000    0.000 
#
# Total GULP energy -78290.416249 kJ/mol
# GULP energy per Si atom -5592.172589 kJ/mol
# Density = 2.018723 g / cm^3
# Si number density = 20.233277 Si / 1000 Ang^3
#
#
#
# Elastic Constant Matrix: (Units=GPa)
#
#
# Indices 1 2 3 4 5 6 
#
# 1 121.8525 50.1705 68.7279 -12.0410 -19.6734 12.0141
# 2 50.1705 113.4307 62.5717 -7.3677 -11.4874 2.3224
# 3 68.7279 62.5717 161.0163 5.8055 -33.3660 -3.7185
# 4 -12.0410 -7.3677 5.8055 39.1759 1.8695 -14.9727
# 5 -19.6734 -11.4874 -33.3660 1.8695 33.9188 -1.6169
# 6 12.0141 2.3224 -3.7185 -14.9727 -1.6169 35.7188
#
#
#
# Elastic Compliance Matrix: (Units=1/GPa)
#
#
# Indices 1 2 3 4 5 6 
#
# 1 0.012556 -0.002928 -0.003953 0.002538 0.002107 -0.003285
# 2 -0.002928 0.012237 -0.003876 0.002308 -0.001461 0.000687
# 3 -0.003953 -0.003876 0.011141 -0.003309 0.007617 0.001699
# 4 0.002538 0.002308 -0.003309 0.031891 -0.002190 0.011921
# 5 0.002107 -0.001461 0.007617 -0.002190 0.037870 0.000975
# 6 -0.003285 0.000687 0.001699 0.011921 0.000975 0.034275
#
#
# Mechanical properties :
#
#
# Convention : Reuss Voigt Hill
#
# Bulk Modulus (GPa) = 69.33961 84.35994 76.84977
# Shear Modulus (GPa) = 30.06820 36.08467 33.07644
#
# Velocity S-wave (km/s) = 3.85915 4.22765 4.04760
# Velocity P-wave (km/s) = 7.36219 8.10030 7.74005
#
# Compressibility (1/GPa) = 0.01442177
#
# Stress axis : x y z
#
# Youngs Moduli (GPa) = 79.64120 81.72108 89.76041
#
# Poissons Ratio (x) = 0.23927 0.35479
# Poissons Ratio (y) = 0.23318 0.34788
# Poissons Ratio (z) = 0.31479 0.31672
#
# Static dielectric constant tensor:
#      x y z
#    x 1.738780 -0.005050 -0.005900 
#    y -0.005050 1.705170 -0.001270 
#    z -0.005900 -0.001270 1.717190 
# 
# From -- ./inp_files/283412.got.cif
#   From: 2010.05.17/outbox.cif.g08.bks.cpg/sg2_142_cif.got.tgz:283412.got - 2010.06.03 11:33:40.
