data_PCOD9066570
_publ_section_title
;
Structure prediction by ZEFSAII (Michael W. Deem and Ramdas Pophale) SiO2 
 PCOD9066570
Probable space group: P -1
;
_chemical_formula_sum "Si O2"
_cell_formula_units_Z 12
_cell_length_a 7.594923
_cell_length_b 10.288367
_cell_length_c 15.149549
_cell_angle_alpha 145.353562
_cell_angle_beta 128.614038
_cell_angle_gamma 68.967105
_cell_volume 493.019794
_symmetry_space_group_name_H-M "P -1"
_symmetry_group_IT_number 2
_symmetry_cell_setting 'triclinic'
loop_
_space_group_symop_operation_xyz
x,y,z
-x,-y,-z
loop_
_atom_site_type_symbol
_atom_site_label
_atom_site_fract_x
_atom_site_fract_y
_atom_site_fract_z
Si Si1 0.445078 0.735011 0.083314
Si Si2 0.511811 0.750228 0.904768
Si Si3 0.283930 0.753940 0.572489
Si Si4 0.959612 0.258914 0.909346
Si Si5 0.183834 0.242163 0.233724
Si Si6 0.139087 0.254812 0.437127
O O1 0.209237 0.738462 0.060499
O O2 0.656048 0.990411 0.315784
O O3 0.500000 0.500000 0.000000
O O4 0.432123 0.734606 0.973324
O O5 0.545409 0.758654 0.689992
O O6 0.344976 0.501052 0.668347
O O7 0.500000 0.000000 0.000000
O O8 0.183481 0.503917 0.346501
O O9 0.101679 0.748742 0.590968
O O10 0.831198 0.003013 0.674663
O O11 0.000000 0.500000 0.000000
O O12 0.216741 0.247424 0.010809
O O13 0.127383 0.249960 0.324645
O O14 0.000000 0.000000 0.000000
#
# Coordination Sequence:
#
# PCOD9066570 Si02
#       6
#     2   2   2   2   2   2
#     4  12  25  54  80 111 159 214 266 326 401 483
#     4  12  30  49  84 121 162 211 265 339 403 472
#     4  11  25  46  71 112 152 198 267 321 397 472
#     4  12  27  54  81 112 162 214 272 330 401 486
#     4  11  27  45  72 109 157 211 260 323 401 478
#     4  12  27  47  73 114 156 204 266 330 399 476
#
# _framework density 24.339793
#
# number of rings (size 3 to 8) (size 9 to 14) (size 15 to 20)
#    0.000    0.333    5.000    1.500    4.667    6.000 
#    0.000    1.667    0.000    0.000    0.000    0.000 
#    0.000    0.000    0.000    0.000    0.000    0.000 
#
# Total GULP energy -67316.299436 kJ/mol
# GULP energy per Si atom -5609.691620 kJ/mol
# Density = 2.428439 g / cm^3
# Si number density = 24.339793 Si / 1000 Ang^3
#
#
#
# Elastic Constant Matrix: (Units=GPa)
#
#
# Indices 1 2 3 4 5 6 
#
# 1 245.0888 66.3701 81.2670 6.3154 -15.5105 15.7949
# 2 66.3701 168.2964 94.7985 54.7613 -10.6841 4.3432
# 3 81.2670 94.7985 255.3094 53.1327 -0.9972 2.7701
# 4 6.3154 54.7613 53.1327 54.3515 1.0258 -11.5323
# 5 -15.5105 -10.6841 -0.9972 1.0258 46.5728 4.8519
# 6 15.7949 4.3432 2.7701 -11.5323 4.8519 46.2312
#
#
#
# Elastic Compliance Matrix: (Units=1/GPa)
#
#
# Indices 1 2 3 4 5 6 
#
# 1 0.005162 -0.001941 -0.001430 0.002517 0.001292 -0.001003
# 2 -0.001941 0.011028 -0.001281 -0.010343 0.002410 -0.003129
# 3 -0.001430 -0.001281 0.005753 -0.004320 -0.000472 -0.000764
# 4 0.002517 -0.010343 -0.004320 0.034810 -0.003374 0.009408
# 5 0.001292 0.002410 -0.000472 -0.003374 0.022924 -0.003887
# 6 -0.001003 -0.003129 -0.000764 0.009408 -0.003887 0.025068
#
#
# Mechanical properties :
#
#
# Convention : Reuss Voigt Hill
#
# Bulk Modulus (GPa) = 79.12325 128.17400 103.64863
# Shear Modulus (GPa) = 42.27886 57.84837 50.06361
#
# Velocity S-wave (km/s) = 4.17229 4.88043 4.54019
# Velocity P-wave (km/s) = 7.46920 9.19417 8.37621
#
# Compressibility (1/GPa) = 0.01263851
#
# Stress axis : x y z
#
# Youngs Moduli (GPa) = 193.74118 90.67738 173.81257
#
# Poissons Ratio (x) = 0.17600 0.24856
# Poissons Ratio (y) = 0.37603 0.22270
# Poissons Ratio (z) = 0.27706 0.11618
#
# Static dielectric constant tensor:
#      x y z
#    x 1.920880 0.004940 0.015780 
#    y 0.004940 1.982980 0.028940 
#    z 0.015780 0.028940 1.988680 
# 
# From -- ./inp_files/224380.got.cif
#   From: 2010.05.17/outbox.cif.g08.bks.cpg/sg2_113_cif.got.tgz:224380.got - 2010.06.03 11:33:40.
