data_PCOD9066866
_publ_section_title
;
Structure prediction by ZEFSAII (Michael W. Deem and Ramdas Pophale) SiO2 
 PCOD9066866
Probable space group: P -1
;
_chemical_formula_sum "Si O2"
_cell_formula_units_Z 14
_cell_length_a 8.049826
_cell_length_b 20.878557
_cell_length_c 8.350168
_cell_angle_alpha 146.902161
_cell_angle_beta 128.777669
_cell_angle_gamma 52.038038
_cell_volume 583.793109
_symmetry_space_group_name_H-M "P -1"
_symmetry_group_IT_number 2
_symmetry_cell_setting 'triclinic'
loop_
_space_group_symop_operation_xyz
x,y,z
-x,-y,-z
loop_
_atom_site_type_symbol
_atom_site_label
_atom_site_fract_x
_atom_site_fract_y
_atom_site_fract_z
Si Si1 0.187907 0.584504 0.130351
Si Si2 0.566659 0.864753 0.571348
Si Si3 0.910162 0.138676 0.783074
Si Si4 0.385232 0.350497 0.629126
Si Si5 0.843018 0.695676 0.909207
Si Si6 0.044992 0.801659 0.706185
Si Si7 0.551103 0.084513 0.853608
O O1 0.381917 0.626851 0.237694
O O2 0.149913 0.665633 0.435408
O O3 0.278736 0.442316 0.896781
O O4 0.965971 0.616277 0.959772
O O5 0.350414 0.834175 0.301033
O O6 0.588642 0.783689 0.572937
O O7 0.799864 0.831486 0.552317
O O8 0.518523 0.008995 0.834578
O O9 0.989586 0.170825 0.070568
O O10 0.000000 0.000000 0.500000
O O11 0.993130 0.221287 0.876677
O O12 0.223296 0.375756 0.432563
O O13 0.618488 0.790135 0.005975
O O14 0.210398 0.884978 0.928555
O O15 0.500000 0.000000 0.500000
#
# Coordination Sequence:
#
# PCOD9066866 Si02
#       7
#     2   2   2   2   2   2   2
#     4  11  26  46  74 100 139 185 241 290 334 415
#     4  12  25  44  71 101 144 180 227 286 350 414
#     4  12  25  44  69 105 145 181 228 284 353 425
#     4  11  25  47  71 101 138 189 239 280 350 410
#     4  12  23  46  72 100 140 183 234 286 351 413
#     4  12  26  45  69 106 142 182 234 285 350 411
#     4  12  24  43  69 105 141 179 223 289 353 417
#
# _framework density 23.981096000000001
#
# number of rings (size 3 to 8) (size 9 to 14) (size 15 to 20)
#    0.000    0.286    7.143    1.714    0.000    4.000 
#    0.000    0.714    0.000    0.000    0.000    0.000 
#    0.000    0.000    0.000    0.000    0.000    0.000 
#
# Total GULP energy -78261.016551 kJ/mol
# GULP energy per Si atom -5590.072611 kJ/mol
# Density = 2.392651 g / cm^3
# Si number density = 23.981096 Si / 1000 Ang^3
#
#
#
# Elastic Constant Matrix: (Units=GPa)
#
#
# Indices 1 2 3 4 5 6 
#
# 1 76.4220 28.1702 20.5909 -2.8950 21.4421 -28.6740
# 2 28.1702 85.6390 30.9508 -4.1979 -4.2663 -14.5342
# 3 20.5909 30.9508 121.9806 5.4076 -31.7561 -22.9206
# 4 -2.8950 -4.1979 5.4076 30.8431 -20.0208 2.0580
# 5 21.4421 -4.2663 -31.7561 -20.0208 53.4023 -6.9408
# 6 -28.6740 -14.5342 -22.9206 2.0580 -6.9408 43.4207
#
#
#
# Elastic Compliance Matrix: (Units=1/GPa)
#
#
# Indices 1 2 3 4 5 6 
#
# 1 0.023449 -0.005699 -0.003953 -0.007460 -0.013764 0.009644
# 2 -0.005699 0.014730 -0.001753 0.004444 0.004180 0.000699
# 3 -0.003953 -0.001753 0.013140 0.004220 0.011542 0.005384
# 4 -0.007460 0.004444 0.004220 0.046781 0.023439 0.000318
# 5 -0.013764 0.004180 0.011542 0.023439 0.040732 0.003802
# 6 0.009644 0.000699 0.005384 0.000318 0.003802 0.033068
#
#
# Mechanical properties :
#
#
# Convention : Reuss Voigt Hill
#
# Bulk Modulus (GPa) = 35.07736 49.27392 42.17564
# Shear Modulus (GPa) = 24.48440 39.15519 31.81980
#
# Velocity S-wave (km/s) = 3.19876 4.04512 3.64657
# Velocity P-wave (km/s) = 5.31992 6.51221 5.94603
#
# Compressibility (1/GPa) = 0.02850842
#
# Stress axis : x y z
#
# Youngs Moduli (GPa) = 42.64571 67.88910 76.10619
#
# Poissons Ratio (x) = 0.38693 0.30082
# Poissons Ratio (y) = 0.24306 0.13341
# Poissons Ratio (z) = 0.16856 0.11901
#
# Static dielectric constant tensor:
#      x y z
#    x 1.973130 0.020170 -0.041060 
#    y 0.020170 1.947200 -0.041030 
#    z -0.041060 -0.041030 1.950460 
# 
# From -- ./inp_files/225770.got.cif
#   From: 2010.05.17/outbox.cif.g08.bks.cpg/sg2_113_cif.got.tgz:225770.got - 2010.06.03 11:33:40.
