data_PCOD9066414
_publ_section_title
;
Structure prediction by ZEFSAII (Michael W. Deem and Ramdas Pophale) SiO2 
 PCOD9066414
Probable space group: P -1
;
_chemical_formula_sum "Si O2"
_cell_formula_units_Z 13
_cell_length_a 11.448035
_cell_length_b 9.653674
_cell_length_c 4.913449
_cell_angle_alpha 103.329467
_cell_angle_beta 104.156916
_cell_angle_gamma 64.684883
_cell_volume 471.018299
_symmetry_space_group_name_H-M "P -1"
_symmetry_group_IT_number 2
_symmetry_cell_setting 'triclinic'
loop_
_space_group_symop_operation_xyz
x,y,z
-x,-y,-z
loop_
_atom_site_type_symbol
_atom_site_label
_atom_site_fract_x
_atom_site_fract_y
_atom_site_fract_z
Si Si1 0.511807 0.740386 0.653351
Si Si2 0.375276 0.559497 0.763054
Si Si3 0.268300 0.195865 0.904401
Si Si4 0.078848 0.863606 0.277653
Si Si5 0.082237 0.685137 0.716671
Si Si6 0.000000 0.500000 0.000000
Si Si7 0.701792 0.012877 0.671223
O O1 0.394173 0.702070 0.694932
O O2 0.605512 0.580396 0.493405
O O3 0.598494 0.780997 0.941890
O O4 0.443486 0.873826 0.455489
O O5 0.236221 0.612727 0.847062
O O6 0.500000 0.500000 0.000000
O O7 0.280574 0.052847 0.045344
O O8 0.145162 0.351299 0.970470
O O9 0.257587 0.136312 0.570496
O O10 0.084668 0.716416 0.407828
O O11 0.207759 0.892572 0.291852
O O12 0.023733 0.837034 0.944982
O O13 0.000000 0.000000 0.500000
O O14 0.019582 0.577684 0.760929
#
# Coordination Sequence:
#
# PCOD9066414 Si02
#       7
#     2   2   2   2   2   1   2
#     4  11  26  47  75 113 156 195 259 309 385 453
#     4  11  25  45  77 111 147 205 243 315 376 455
#     4  12  29  47  76 110 153 203 248 317 380 446
#     4  12  25  48  76 107 147 198 253 306 374 448
#     4  12  27  47  77 106 148 195 248 315 368 447
#     4  12  30  52  76 110 156 194 264 310 384 454
#     4  12  26  49  75 113 151 199 252 311 385 448
#
# _framework density 27.599775999999999
#
# number of rings (size 3 to 8) (size 9 to 14) (size 15 to 20)
#    0.000    0.308    1.538    6.000   10.769    1.231 
#    0.000    0.000    0.000    0.000    0.000    0.000 
#    0.000    0.000    0.000    0.000    0.000    0.000 
#
# Total GULP energy -72720.313063 kJ/mol
# GULP energy per Si atom -5593.870236 kJ/mol
# Density = 2.753696 g / cm^3
# Si number density = 27.599776 Si / 1000 Ang^3
#
#
#
# Elastic Constant Matrix: (Units=GPa)
#
#
# Indices 1 2 3 4 5 6 
#
# 1 88.7677 28.8708 13.8641 19.3820 -16.2279 12.8170
# 2 28.8708 106.5222 22.7860 -19.7118 -16.4154 5.1953
# 3 13.8641 22.7860 132.6296 3.8093 -8.5003 9.9877
# 4 19.3820 -19.7118 3.8093 39.7645 -0.4143 2.1879
# 5 -16.2279 -16.4154 -8.5003 -0.4143 37.8231 -7.3162
# 6 12.8170 5.1953 9.9877 2.1879 -7.3162 49.4349
#
#
#
# Elastic Compliance Matrix: (Units=1/GPa)
#
#
# Indices 1 2 3 4 5 6 
#
# 1 0.016589 -0.005744 0.000016 -0.010748 0.004002 -0.002633
# 2 -0.005744 0.013615 -0.001847 0.009733 0.003229 0.000479
# 3 0.000016 -0.001847 0.008045 -0.001617 0.000753 -0.001252
# 4 -0.010748 0.009733 -0.001617 0.035337 -0.000270 0.000487
# 5 0.004002 0.003229 0.000753 -0.000270 0.030297 0.002967
# 6 -0.002633 0.000479 -0.001252 0.000487 0.002967 0.021531
#
#
# Mechanical properties :
#
#
# Convention : Reuss Voigt Hill
#
# Bulk Modulus (GPa) = 43.29177 50.99571 47.14374
# Shear Modulus (GPa) = 33.72371 42.89773 38.31072
#
# Velocity S-wave (km/s) = 3.49934 3.94671 3.72974
# Velocity P-wave (km/s) = 5.66098 6.26783 5.97212
#
# Compressibility (1/GPa) = 0.02309908
#
# Stress axis : x y z
#
# Youngs Moduli (GPa) = 60.27957 73.44950 124.30836
#
# Poissons Ratio (x) = 0.42186 -0.00199
# Poissons Ratio (y) = 0.34622 0.22964
# Poissons Ratio (z) = -0.00097 0.13568
#
# Static dielectric constant tensor:
#      x y z
#    x 2.135910 0.022700 0.020070 
#    y 0.022700 2.208100 0.012600 
#    z 0.020070 0.012600 2.130760 
# 
# From -- ./inp_files/45512.got.cif
#   From: 2010.05.17/outbox.cif.g08.bks.cpg/sg2_23_cif.got.tgz:45512.got - 2010.06.03 11:33:40.
