data_PCOD9066140
_publ_section_title
;
Structure prediction by ZEFSAII (Michael W. Deem and Ramdas Pophale) SiO2 
 PCOD9066140
Probable space group: P -1
;
_chemical_formula_sum "Si O2"
_cell_formula_units_Z 14
_cell_length_a 15.029180
_cell_length_b 11.595094
_cell_length_c 21.147117
_cell_angle_alpha 149.843673
_cell_angle_beta 22.185893
_cell_angle_gamma 150.968405
_cell_volume 644.141331
_symmetry_space_group_name_H-M "P -1"
_symmetry_group_IT_number 2
_symmetry_cell_setting 'triclinic'
loop_
_space_group_symop_operation_xyz
x,y,z
-x,-y,-z
loop_
_atom_site_type_symbol
_atom_site_label
_atom_site_fract_x
_atom_site_fract_y
_atom_site_fract_z
Si Si1 0.618001 0.754857 0.718946
Si Si2 0.605985 0.433644 0.697482
Si Si3 0.860514 0.016068 0.163873
Si Si4 0.112900 0.778920 0.083419
Si Si5 0.012050 0.205080 0.285563
Si Si6 0.399975 0.646641 0.559931
Si Si7 0.082415 0.218142 0.649115
O O1 0.617936 0.627004 0.725994
O O2 0.541077 0.539314 0.614879
O O3 0.411179 0.879340 0.916885
O O4 0.897068 0.960781 0.618574
O O5 0.753196 0.581327 0.732581
O O6 0.767091 0.275222 0.491240
O O7 0.320620 0.251598 0.816190
O O8 0.676167 0.157723 0.334791
O O9 0.040546 0.166429 0.174176
O O10 0.000000 0.000000 0.000000
O O11 0.067488 0.768063 0.182613
O O12 0.982670 0.950839 0.219637
O O13 0.000000 0.500000 0.000000
O O14 0.161128 0.464176 0.671690
O O15 0.644482 0.778840 0.506278
#
# Coordination Sequence:
#
# PCOD9066140 Si02
#       7
#     2   2   2   2   2   2   2
#     4  12  24  44  74 102 134 181 236 285 338 409
#     4  11  25  45  74 100 135 188 233 282 338 410
#     4  12  28  43  69 101 141 184 225 284 354 413
#     4  12  24  41  73 106 137 175 230 290 338 400
#     4  11  25  46  71 103 138 179 235 284 337 415
#     4  11  26  45  67  99 142 182 227 282 345 420
#     4  11  25  45  68 100 138 181 224 286 346 401
#
# _framework density 21.734359999999999
#
# number of rings (size 3 to 8) (size 9 to 14) (size 15 to 20)
#    0.000    0.571    4.286    3.000    6.000    0.571 
#    0.000    0.000    0.000    0.000    0.000    0.000 
#    0.000    0.000    0.000    0.000    0.000    0.000 
#
# Total GULP energy -78361.104735 kJ/mol
# GULP energy per Si atom -5597.221767 kJ/mol
# Density = 2.168489 g / cm^3
# Si number density = 21.734360 Si / 1000 Ang^3
#
#
#
# Elastic Constant Matrix: (Units=GPa)
#
#
# Indices 1 2 3 4 5 6 
#
# 1 81.0586 21.3336 11.3226 -7.1409 20.5437 5.0258
# 2 21.3336 98.8255 18.1329 -11.8198 -3.1037 0.3249
# 3 11.3226 18.1329 65.6946 3.0633 18.2819 1.5167
# 4 -7.1409 -11.8198 3.0633 29.5441 -1.3772 1.2637
# 5 20.5437 -3.1037 18.2819 -1.3772 38.1307 0.5777
# 6 5.0258 0.3249 1.5167 1.2637 0.5777 30.6303
#
#
#
# Elastic Compliance Matrix: (Units=1/GPa)
#
#
# Indices 1 2 3 4 5 6 
#
# 1 0.015802 -0.003587 0.000752 0.001991 -0.009056 -0.002503
# 2 -0.003587 0.012465 -0.004527 0.004819 0.005286 0.000382
# 3 0.000752 -0.004527 0.019388 -0.004087 -0.010207 -0.000674
# 4 0.001991 0.004819 -0.004087 0.036878 0.002637 -0.001747
# 5 -0.009056 0.005286 -0.010207 0.002637 0.036507 0.001138
# 6 -0.002503 0.000382 -0.000674 -0.001747 0.001138 0.033138
#
#
# Mechanical properties :
#
#
# Convention : Reuss Voigt Hill
#
# Bulk Modulus (GPa) = 30.36691 38.57300 34.46995
# Shear Modulus (GPa) = 27.79645 32.64702 30.22174
#
# Velocity S-wave (km/s) = 3.58008 3.87989 3.73299
# Velocity P-wave (km/s) = 5.57597 6.15284 5.87149
#
# Compressibility (1/GPa) = 0.03293059
#
# Stress axis : x y z
#
# Youngs Moduli (GPa) = 63.28470 80.22496 51.57735
#
# Poissons Ratio (x) = 0.28777 -0.03877
# Poissons Ratio (y) = 0.22701 0.23348
# Poissons Ratio (z) = -0.04757 0.36317
#
# Static dielectric constant tensor:
#      x y z
#    x 1.782140 0.037160 0.001320 
#    y 0.037160 1.820150 -0.012020 
#    z 0.001320 -0.012020 1.783280 
# 
# From -- ./inp_files/346295.got.cif
#   From: 2010.05.17/outbox.cif.g08.bks.cpg/sg2_174_cif.got.tgz:346295.got - 2010.06.03 11:33:40.
