data_PCOD9066889
_publ_section_title
;
Structure prediction by ZEFSAII (Michael W. Deem and Ramdas Pophale) SiO2 
 PCOD9066889
Probable space group: P -1
;
_chemical_formula_sum "Si O2"
_cell_formula_units_Z 15
_cell_length_a 10.825850
_cell_length_b 5.588499
_cell_length_c 11.447126
_cell_angle_alpha 103.966528
_cell_angle_beta 112.220256
_cell_angle_gamma 66.337428
_cell_volume 583.934238
_symmetry_space_group_name_H-M "P -1"
_symmetry_group_IT_number 2
_symmetry_cell_setting 'triclinic'
loop_
_space_group_symop_operation_xyz
x,y,z
-x,-y,-z
loop_
_atom_site_type_symbol
_atom_site_label
_atom_site_fract_x
_atom_site_fract_y
_atom_site_fract_z
Si Si1 0.226336 0.720058 0.238956
Si Si2 0.962926 0.209586 0.243581
Si Si3 0.537370 0.342895 0.837265
Si Si4 0.656001 0.398257 0.490378
Si Si5 0.850179 0.570457 0.022213
Si Si6 0.000000 0.500000 0.500000
Si Si7 0.702015 0.803693 0.363115
Si Si8 0.320580 0.849367 0.887725
O O1 0.363203 0.789344 0.253545
O O2 0.238950 0.628030 0.365426
O O3 0.237338 0.502619 0.121011
O O4 0.077024 0.949639 0.198284
O O5 0.903866 0.399166 0.136304
O O6 0.045321 0.270589 0.389980
O O7 0.817145 0.176329 0.229748
O O8 0.408891 0.224019 0.777149
O O9 0.454324 0.658528 0.840136
O O10 0.631052 0.275814 0.980246
O O11 0.500000 0.500000 0.500000
O O12 0.679530 0.609369 0.434492
O O13 0.676274 0.105548 0.418323
O O14 0.745722 0.847482 0.064888
O O15 0.000000 0.500000 0.000000
O O16 0.869508 0.667243 0.384392
#
# Coordination Sequence:
#
# PCOD9066889 Si02
#       8
#     2   2   2   2   2   1   2   2
#     4  12  25  46  75 112 149 202 258 330 386 470
#     4  12  25  51  70 111 149 197 261 316 395 469
#     4  11  25  47  74 108 156 199 254 325 394 465
#     4  12  28  48  76 114 157 200 266 324 400 469
#     4  12  26  43  78 109 146 202 257 326 388 471
#     4  12  28  50  78 108 158 218 258 332 392 486
#     4  12  28  50  77 113 157 212 263 325 392 478
#     4  11  25  47  71 109 150 193 256 316 392 469
#
# _framework density 25.687825
#
# number of rings (size 3 to 8) (size 9 to 14) (size 15 to 20)
#    0.000    0.267    6.667    1.600    3.733    2.133 
#    0.000    0.000    0.000    0.000    0.000    0.000 
#    0.000    0.000    0.000    0.000    0.000    0.000 
#
# Total GULP energy -83549.087775 kJ/mol
# GULP energy per Si atom -5569.939185 kJ/mol
# Density = 2.562936 g / cm^3
# Si number density = 25.687825 Si / 1000 Ang^3
#
#
#
# Elastic Constant Matrix: (Units=GPa)
#
#
# Indices 1 2 3 4 5 6 
#
# 1 85.4830 47.2918 22.0735 -9.4968 2.6852 -31.9567
# 2 47.2918 166.9410 43.9681 -12.5494 -8.1161 -20.0456
# 3 22.0735 43.9681 153.5456 1.7342 8.7775 21.9714
# 4 -9.4968 -12.5494 1.7342 44.5389 -3.8030 7.0267
# 5 2.6852 -8.1161 8.7775 -3.8030 35.0370 -6.9340
# 6 -31.9567 -20.0456 21.9714 7.0267 -6.9340 42.3177
#
#
#
# Elastic Compliance Matrix: (Units=1/GPa)
#
#
# Indices 1 2 3 4 5 6 
#
# 1 0.020865 -0.002231 -0.005044 0.001489 0.002778 0.017527
# 2 -0.002231 0.008142 -0.002810 0.001619 0.003723 0.003973
# 3 -0.005044 -0.002810 0.009907 -0.000954 -0.005016 -0.010948
# 4 0.001489 0.001619 -0.000954 0.023677 0.002857 -0.001076
# 5 0.002778 0.003723 -0.005016 0.002857 0.033014 0.011401
# 6 0.017527 0.003973 -0.010948 -0.001076 0.011401 0.046479
#
#
# Mechanical properties :
#
#
# Convention : Reuss Voigt Hill
#
# Bulk Modulus (GPa) = 53.35307 70.29292 61.82299
# Shear Modulus (GPa) = 29.67312 43.88782 36.78047
#
# Velocity S-wave (km/s) = 3.40243 4.13789 3.78805
# Velocity P-wave (km/s) = 6.02082 7.08895 6.57660
#
# Compressibility (1/GPa) = 0.01874306
#
# Stress axis : x y z
#
# Youngs Moduli (GPa) = 47.92644 122.82086 100.94124
#
# Poissons Ratio (x) = 0.27397 0.50920
# Poissons Ratio (y) = 0.10691 0.28368
# Poissons Ratio (z) = 0.24176 0.34517
#
# Static dielectric constant tensor:
#      x y z
#    x 2.286800 0.120000 0.108150 
#    y 0.120000 1.936410 -0.047880 
#    z 0.108150 -0.047880 1.987780 
# 
# From -- ./inp_files/69153.got.cif
#   From: 2010.05.17/outbox.cif.g08.bks.cpg/sg2_35_cif.got.tgz:69153.got - 2010.06.03 11:33:40.
