data_PCOD9066021
_publ_section_title
;
Structure prediction by ZEFSAII (Michael W. Deem and Ramdas Pophale) SiO2 
 PCOD9066021
Probable space group: P -1
;
_chemical_formula_sum "Si O2"
_cell_formula_units_Z 11
_cell_length_a 5.289994
_cell_length_b 13.576557
_cell_length_c 17.872524
_cell_angle_alpha 25.752529
_cell_angle_beta 131.630219
_cell_angle_gamma 138.832202
_cell_volume 366.698087
_symmetry_space_group_name_H-M "P -1"
_symmetry_group_IT_number 2
_symmetry_cell_setting 'triclinic'
loop_
_space_group_symop_operation_xyz
x,y,z
-x,-y,-z
loop_
_atom_site_type_symbol
_atom_site_label
_atom_site_fract_x
_atom_site_fract_y
_atom_site_fract_z
Si Si1 0.102622 0.608577 0.364385
Si Si2 0.273605 0.653012 0.878032
Si Si3 0.741902 0.289728 0.878353
Si Si4 0.000000 0.000000 0.500000
Si Si5 0.666073 0.850050 0.955912
Si Si6 0.136930 0.262339 0.502038
O O1 0.894377 0.362441 0.436599
O O2 0.575528 0.743255 0.373675
O O3 0.000000 0.500000 0.500000
O O4 0.060707 0.855947 0.164030
O O5 0.140632 0.782909 0.697837
O O6 0.576499 0.896306 0.821407
O O7 0.500000 0.500000 0.000000
O O8 0.000000 0.500000 0.000000
O O9 0.643728 0.485612 0.680758
O O10 0.669347 0.274655 0.962901
O O11 0.156763 0.338572 0.897843
O O12 0.500000 0.000000 0.000000
O O13 0.039856 0.958444 0.443210
#
# Coordination Sequence:
#
# PCOD9066021 Si02
#       6
#     2   2   2   1   2   2
#     4  11  25  44  72 102 150 195 246 317 389 461
#     4  12  28  53  78 114 164 215 267 331 405 481
#     4  12  25  45  77 111 147 200 258 324 393 468
#     4  12  26  52  78 116 160 210 272 328 402 484
#     4  12  25  47  73 107 152 195 256 326 387 462
#     4  11  25  46  70 107 146 197 255 314 391 470
#
# _framework density 29.997427999999999
#
# number of rings (size 3 to 8) (size 9 to 14) (size 15 to 20)
#    0.000    0.364    3.636    4.909    5.091    2.182 
#    3.273    0.000    0.000    0.000    0.000    0.000 
#    0.000    0.000    0.000    0.000    0.000    0.000 
#
# Total GULP energy -61247.343775 kJ/mol
# GULP energy per Si atom -5567.940343 kJ/mol
# Density = 2.992915 g / cm^3
# Si number density = 29.997428 Si / 1000 Ang^3
#
#
#
# Elastic Constant Matrix: (Units=GPa)
#
#
# Indices 1 2 3 4 5 6 
#
# 1 166.3543 29.0567 72.2593 4.5365 9.8907 -53.8371
# 2 29.0567 158.7471 29.2518 19.1999 8.6832 -78.4725
# 3 72.2593 29.2518 203.6181 11.7672 25.4220 -12.1590
# 4 4.5365 19.1999 11.7672 59.5927 -5.5753 -0.1379
# 5 9.8907 8.6832 25.4220 -5.5753 59.3333 -2.4265
# 6 -53.8371 -78.4725 -12.1590 -0.1379 -2.4265 61.8673
#
#
#
# Elastic Compliance Matrix: (Units=1/GPa)
#
#
# Indices 1 2 3 4 5 6 
#
# 1 0.015685 0.013205 -0.005266 -0.004483 -0.001514 0.029294
# 2 0.013205 0.030362 -0.005132 -0.009978 -0.003386 0.048839
# 3 -0.005266 -0.005132 0.007131 0.000457 -0.001782 -0.009760
# 4 -0.004483 -0.009978 0.000457 0.020515 0.003273 -0.016293
# 5 -0.001514 -0.003386 -0.001782 0.003273 0.018459 -0.005231
# 6 0.029294 0.048839 -0.009760 -0.016293 -0.005231 0.101443
#
#
# Mechanical properties :
#
#
# Convention : Reuss Voigt Hill
#
# Bulk Modulus (GPa) = 17.00927 87.76167 52.38547
# Shear Modulus (GPa) = 24.08741 62.70211 43.39476
#
# Velocity S-wave (km/s) = 2.83677 4.57688 3.80757
# Velocity P-wave (km/s) = 4.05120 7.56640 6.06888
#
# Compressibility (1/GPa) = 0.05879146
#
# Stress axis : x y z
#
# Youngs Moduli (GPa) = 63.75639 32.93567 140.24257
#
# Poissons Ratio (x) = -0.43492 0.73849
# Poissons Ratio (y) = -0.84191 0.71976
# Poissons Ratio (z) = 0.33573 0.16903
#
# Static dielectric constant tensor:
#      x y z
#    x 2.814990 0.419020 0.166100 
#    y 0.419020 2.939060 0.051840 
#    z 0.166100 0.051840 2.333140 
# 
# From -- ./inp_files/87101.got.cif
#   From: 2010.05.17/outbox.cif.g08.bks.cpg/sg2_44_cif.got.tgz:87101.got - 2010.06.03 11:33:40.
