data_PCOD9066659
_publ_section_title
;
Structure prediction by ZEFSAII (Michael W. Deem and Ramdas Pophale) SiO2 
 PCOD9066659
Probable space group: P -1
;
_chemical_formula_sum "Si O2"
_cell_formula_units_Z 8
_cell_length_a 6.624724
_cell_length_b 9.197062
_cell_length_c 5.151955
_cell_angle_alpha 106.265235
_cell_angle_beta 112.882297
_cell_angle_gamma 96.834749
_cell_volume 268.244956
_symmetry_space_group_name_H-M "P -1"
_symmetry_group_IT_number 2
_symmetry_cell_setting 'triclinic'
loop_
_space_group_symop_operation_xyz
x,y,z
-x,-y,-z
loop_
_atom_site_type_symbol
_atom_site_label
_atom_site_fract_x
_atom_site_fract_y
_atom_site_fract_z
Si Si1 0.114280 0.368317 0.215789
Si Si2 0.127127 0.893298 0.344544
Si Si3 0.372872 0.606704 0.824123
Si Si4 0.385726 0.131685 0.233193
O O1 0.289644 0.531392 0.459767
O O2 0.250003 0.250000 0.350334
O O3 0.867473 0.382543 0.181701
O O4 0.039728 0.278872 0.861709
O O5 0.367469 0.882541 0.568314
O O6 0.210359 0.968609 0.138732
O O7 0.000000 0.000000 0.500000
O O8 0.539724 0.778875 0.956894
O O9 0.500000 0.500000 0.000000
#
# Coordination Sequence:
#
# PCOD9066659 Si02
#       4
#     2   2   2   2
#     4  11  25  46  73 106 144 189 241 297 363 431
#     4  11  26  47  72 106 146 188 240 300 361 430
#     4  11  26  47  72 106 146 188 240 300 361 430
#     4  11  25  46  73 106 144 189 241 297 363 431
#
# _framework density 29.823484000000001
#
# number of rings (size 3 to 8) (size 9 to 14) (size 15 to 20)
#    0.000    1.000    0.000    4.500    0.000   14.000 
#    0.000    2.500    0.000    0.000    0.000    0.000 
#    0.000    0.000    0.000    0.000    0.000    0.000 
#
# Total GULP energy -44630.723871 kJ/mol
# GULP energy per Si atom -5578.840484 kJ/mol
# Density = 2.975560 g / cm^3
# Si number density = 29.823484 Si / 1000 Ang^3
#
#
#
# Elastic Constant Matrix: (Units=GPa)
#
#
# Indices 1 2 3 4 5 6 
#
# 1 329.0419 67.2174 76.0962 -21.4850 41.4143 -54.4118
# 2 67.2174 146.1578 40.2718 -19.2694 0.4271 -15.2074
# 3 76.0962 40.2718 124.8437 13.7547 18.0608 -25.0807
# 4 -21.4850 -19.2694 13.7547 52.6302 -13.5036 -2.5733
# 5 41.4143 0.4271 18.0608 -13.5036 54.2549 -11.6142
# 6 -54.4118 -15.2074 -25.0807 -2.5733 -11.6142 58.7564
#
#
#
# Elastic Compliance Matrix: (Units=1/GPa)
#
#
# Indices 1 2 3 4 5 6 
#
# 1 0.004450 -0.001077 -0.001702 0.001534 -0.001836 0.002820
# 2 -0.001077 0.008793 -0.002929 0.004350 0.002983 0.000809
# 3 -0.001702 -0.002929 0.011441 -0.005585 -0.003532 0.001607
# 4 0.001534 0.004350 -0.005585 0.024705 0.007382 0.002704
# 5 -0.001836 0.002983 -0.003532 0.007382 0.023359 0.002504
# 6 0.002820 0.000809 0.001607 0.002704 0.002504 0.021140
#
#
# Mechanical properties :
#
#
# Convention : Reuss Voigt Hill
#
# Bulk Modulus (GPa) = 75.35741 107.46825 91.41283
# Shear Modulus (GPa) = 45.56772 60.89218 53.22995
#
# Velocity S-wave (km/s) = 3.91309 4.52348 4.22931
# Velocity P-wave (km/s) = 6.76307 7.96213 7.38697
#
# Compressibility (1/GPa) = 0.01327010
#
# Stress axis : x y z
#
# Youngs Moduli (GPa) = 224.69909 113.72725 87.40229
#
# Poissons Ratio (x) = 0.12245 0.14877
# Poissons Ratio (y) = 0.24192 0.25596
# Poissons Ratio (z) = 0.38246 0.33305
#
# Static dielectric constant tensor:
#      x y z
#    x 2.203740 -0.026390 -0.119280 
#    y -0.026390 2.297600 -0.078300 
#    z -0.119280 -0.078300 2.420720 
# 
# From -- ./inp_files/16460.got.cif
#   From: 2010.05.17/outbox.cif.g08.bks.cpg/sg2_9_cif.got.tgz:16460.got - 2010.06.03 11:33:40.
