data_PCOD9066180
_publ_section_title
;
Structure prediction by ZEFSAII (Michael W. Deem and Ramdas Pophale) SiO2 
 PCOD9066180
Probable space group: P -1
;
_chemical_formula_sum "Si O2"
_cell_formula_units_Z 14
_cell_length_a 11.673746
_cell_length_b 11.367724
_cell_length_c 20.844803
_cell_angle_alpha 140.611339
_cell_angle_beta 156.636761
_cell_angle_gamma 51.514756
_cell_volume 652.997635
_symmetry_space_group_name_H-M "P -1"
_symmetry_group_IT_number 2
_symmetry_cell_setting 'triclinic'
loop_
_space_group_symop_operation_xyz
x,y,z
-x,-y,-z
loop_
_atom_site_type_symbol
_atom_site_label
_atom_site_fract_x
_atom_site_fract_y
_atom_site_fract_z
Si Si1 0.625911 0.046024 0.884855
Si Si2 0.321992 0.269248 0.322633
Si Si3 0.454146 0.860927 0.856294
Si Si4 0.186366 0.390734 0.009636
Si Si5 0.227614 0.299834 0.757754
Si Si6 0.800802 0.713758 0.407808
Si Si7 0.222443 0.849073 0.417941
O O1 0.642058 0.860369 0.774376
O O2 0.539471 0.988872 0.889507
O O3 0.374892 0.127577 0.760703
O O4 0.958976 0.216197 0.123036
O O5 0.500000 0.500000 0.500000
O O6 0.461176 0.189026 0.421370
O O7 0.678055 0.737200 0.928415
O O8 0.095090 0.729095 0.608708
O O9 0.500000 0.000000 0.000000
O O10 0.486420 0.543748 0.193922
O O11 0.000000 0.500000 0.000000
O O12 0.959297 0.257242 0.782986
O O13 0.115178 0.315328 0.634870
O O14 0.980696 0.250286 0.666267
O O15 0.500000 0.500000 0.000000
O O16 0.745926 0.922697 0.472666
#
# Coordination Sequence:
#
# PCOD9066180 Si02
#       7
#     2   2   2   2   2   2   2
#     4  11  25  45  70 104 144 178 229 294 349 420
#     4  11  26  43  70 106 142 182 225 291 368 413
#     4  12  26  50  71 101 144 190 239 282 345 421
#     4  12  30  47  71 103 142 192 240 284 343 429
#     4  12  22  44  77 105 137 175 233 299 355 409
#     4  12  25  47  77 100 141 184 236 298 352 412
#     4  12  24  47  69 106 139 181 236 290 357 413
#
# _framework density 21.439589000000002
#
# number of rings (size 3 to 8) (size 9 to 14) (size 15 to 20)
#    0.000    0.286    5.714    2.571    4.000    1.714 
#    0.000    0.000    0.000    0.000    0.000    0.000 
#    0.000    0.000    0.000    0.000    0.000    0.000 
#
# Total GULP energy -78433.622342 kJ/mol
# GULP energy per Si atom -5602.401596 kJ/mol
# Density = 2.139079 g / cm^3
# Si number density = 21.439589 Si / 1000 Ang^3
#
#
#
# Elastic Constant Matrix: (Units=GPa)
#
#
# Indices 1 2 3 4 5 6 
#
# 1 57.7959 0.3930 13.7819 -1.9358 -14.8427 4.9018
# 2 0.3930 70.7757 12.9714 -10.0508 -12.1506 -6.1974
# 3 13.7819 12.9714 98.3434 -6.8656 -26.2002 5.3681
# 4 -1.9358 -10.0508 -6.8656 50.9472 0.8925 1.9389
# 5 -14.8427 -12.1506 -26.2002 0.8925 42.0229 -1.6008
# 6 4.9018 -6.1974 5.3681 1.9389 -1.6008 25.0641
#
#
#
# Elastic Compliance Matrix: (Units=1/GPa)
#
#
# Indices 1 2 3 4 5 6 
#
# 1 0.019457 0.001023 -0.000918 0.000818 0.006463 -0.003006
# 2 0.001023 0.015816 -0.001097 0.002783 0.004344 0.004008
# 3 -0.000918 -0.001097 0.012555 0.001410 0.007064 -0.002438
# 4 0.000818 0.002783 0.001410 0.020420 0.001491 -0.001258
# 5 0.006463 0.004344 0.007064 0.001491 0.031716 0.000208
# 6 -0.003006 0.004008 -0.002438 -0.001258 0.000208 0.042109
#
#
# Mechanical properties :
#
#
# Convention : Reuss Voigt Hill
#
# Bulk Modulus (GPa) = 21.81316 31.24530 26.52923
# Shear Modulus (GPa) = 31.37970 36.92476 34.15223
#
# Velocity S-wave (km/s) = 3.82990 4.15453 3.99551
# Velocity P-wave (km/s) = 5.45470 6.13341 5.80399
#
# Compressibility (1/GPa) = 0.04584389
#
# Stress axis : x y z
#
# Youngs Moduli (GPa) = 51.39655 63.22562 79.64856
#
# Poissons Ratio (x) = -0.06468 0.07315
# Poissons Ratio (y) = -0.05258 0.08735
# Poissons Ratio (z) = 0.04720 0.06934
#
# Static dielectric constant tensor:
#      x y z
#    x 1.734820 -0.006410 0.009750 
#    y -0.006410 1.766680 -0.001810 
#    z 0.009750 -0.001810 1.779810 
# 
# From -- ./inp_files/190436.got.cif
#   From: 2010.05.17/outbox.cif.g08.bks.cpg/sg2_96_cif.got.tgz:190436.got - 2010.06.03 11:33:40.
