data_PCOD9066087
_publ_section_title
;
Structure prediction by ZEFSAII (Michael W. Deem and Ramdas Pophale) SiO2 
 PCOD9066087
Probable space group: P -1
;
_chemical_formula_sum "Si O2"
_cell_formula_units_Z 14
_cell_length_a 12.272984
_cell_length_b 11.867054
_cell_length_c 6.703037
_cell_angle_alpha 101.619304
_cell_angle_beta 61.423832
_cell_angle_gamma 129.678092
_cell_volume 651.983734
_symmetry_space_group_name_H-M "P -1"
_symmetry_group_IT_number 2
_symmetry_cell_setting 'triclinic'
loop_
_space_group_symop_operation_xyz
x,y,z
-x,-y,-z
loop_
_atom_site_type_symbol
_atom_site_label
_atom_site_fract_x
_atom_site_fract_y
_atom_site_fract_z
Si Si1 0.452360 0.342250 0.432570
Si Si2 0.237878 0.612931 0.881166
Si Si3 0.285594 0.099530 0.820005
Si Si4 0.884090 0.138912 0.446923
Si Si5 0.668671 0.073128 0.978576
Si Si6 0.848563 0.841446 0.666880
Si Si7 0.068580 0.595458 0.670911
O O1 0.500000 0.500000 0.500000
O O2 0.601428 0.362687 0.210071
O O3 0.410927 0.246116 0.634358
O O4 0.297826 0.251700 0.391371
O O5 0.190453 0.586621 0.680807
O O6 0.256882 0.759174 0.972273
O O7 0.084596 0.472930 0.078458
O O8 0.161487 0.983045 0.719703
O O9 0.209150 0.133331 0.070066
O O10 0.348150 0.022687 0.853927
O O11 0.777616 0.075059 0.716523
O O12 0.068345 0.231527 0.379755
O O13 0.851355 0.239811 0.404738
O O14 0.500000 0.000000 0.000000
O O15 0.000000 0.000000 0.500000
O O16 0.000000 0.500000 0.500000
#
# Coordination Sequence:
#
# PCOD9066087 Si02
#       7
#     2   2   2   2   2   2   2
#     4  12  31  49  71 106 152 194 240 304 363 436
#     4  11  26  47  69 108 142 184 247 291 364 435
#     4  12  25  47  73 104 142 195 240 298 366 423
#     4  12  25  44  74 106 141 191 243 298 361 429
#     4  12  25  43  73 106 144 180 243 303 356 435
#     4  12  26  47  73 107 144 188 251 294 353 442
#     4  11  25  44  75 104 142 193 235 299 368 432
#
# _framework density 21.472926000000001
#
# number of rings (size 3 to 8) (size 9 to 14) (size 15 to 20)
#    0.000    0.286    5.714    2.143    6.000    2.857 
#    0.000    0.000    0.000    0.000    0.000    0.000 
#    0.000    0.000    0.000    0.000    0.000    0.000 
#
# Total GULP energy -78296.948012 kJ/mol
# GULP energy per Si atom -5592.639144 kJ/mol
# Density = 2.142405 g / cm^3
# Si number density = 21.472926 Si / 1000 Ang^3
#
#
#
# Elastic Constant Matrix: (Units=GPa)
#
#
# Indices 1 2 3 4 5 6 
#
# 1 143.7983 20.4985 37.2497 4.3110 5.5249 22.6128
# 2 20.4985 87.4840 32.5835 5.3502 10.7059 7.1079
# 3 37.2497 32.5835 91.2404 12.0008 10.1727 6.9364
# 4 4.3110 5.3502 12.0008 38.1184 -2.0279 8.4645
# 5 5.5249 10.7059 10.1727 -2.0279 38.3799 -1.9637
# 6 22.6128 7.1079 6.9364 8.4645 -1.9637 38.0487
#
#
#
# Elastic Compliance Matrix: (Units=1/GPa)
#
#
# Indices 1 2 3 4 5 6 
#
# 1 0.008536 -0.000495 -0.003041 0.001078 -0.000468 -0.004690
# 2 -0.000495 0.013583 -0.004186 -0.000333 -0.002705 -0.001546
# 3 -0.003041 -0.004186 0.014421 -0.003892 -0.002387 0.000703
# 4 0.001078 -0.000333 -0.003892 0.028872 0.002179 -0.006180
# 5 -0.000468 -0.002705 -0.002387 0.002179 0.027736 0.002165
# 6 -0.004690 -0.001546 0.000703 -0.006180 0.002165 0.030717
#
#
# Mechanical properties :
#
#
# Convention : Reuss Voigt Hill
#
# Bulk Modulus (GPa) = 47.40287 55.90958 51.65623
# Shear Modulus (GPa) = 34.16730 38.38881 36.27805
#
# Velocity S-wave (km/s) = 3.99329 4.23280 4.11479
# Velocity P-wave (km/s) = 6.58676 7.06983 6.83257
#
# Compressibility (1/GPa) = 0.02109577
#
# Stress axis : x y z
#
# Youngs Moduli (GPa) = 117.15528 73.62408 69.34385
#
# Poissons Ratio (x) = 0.03644 0.21088
# Poissons Ratio (y) = 0.05799 0.29024
# Poissons Ratio (z) = 0.35628 0.30816
#
# Static dielectric constant tensor:
#      x y z
#    x 1.785500 -0.035250 0.031710 
#    y -0.035250 1.771360 0.036740 
#    z 0.031710 0.036740 1.726230 
# 
# From -- ./inp_files/71145.got.cif
#   From: 2010.05.17/outbox.cif.g08.bks.cpg/sg2_36_cif.got.tgz:71145.got - 2010.06.03 11:33:40.
