data_PCOD9066449
_publ_section_title
;
Structure prediction by ZEFSAII (Michael W. Deem and Ramdas Pophale) SiO2 
 PCOD9066449
Probable space group: P -1
;
_chemical_formula_sum "Si O2"
_cell_formula_units_Z 16
_cell_length_a 10.473477
_cell_length_b 10.513208
_cell_length_c 9.681599
_cell_angle_alpha 107.866366
_cell_angle_beta 99.957315
_cell_angle_gamma 36.377778
_cell_volume 596.576842
_symmetry_space_group_name_H-M "P -1"
_symmetry_group_IT_number 2
_symmetry_cell_setting 'triclinic'
loop_
_space_group_symop_operation_xyz
x,y,z
-x,-y,-z
loop_
_atom_site_type_symbol
_atom_site_label
_atom_site_fract_x
_atom_site_fract_y
_atom_site_fract_z
Si Si1 0.077627 0.729087 0.959881
Si Si2 0.266589 0.301761 0.906495
Si Si3 0.636512 0.609682 0.666432
Si Si4 0.031610 0.858178 0.567798
Si Si5 0.261662 0.173077 0.155816
Si Si6 0.828212 0.661187 0.396161
Si Si7 0.410736 0.862380 0.438539
Si Si8 0.285423 0.771093 0.833400
O O1 0.251181 0.692754 0.924380
O O2 0.940989 0.756057 0.827162
O O3 0.191728 0.514248 0.990529
O O4 0.887827 0.967408 0.081328
O O5 0.132319 0.358461 0.768353
O O6 0.522600 0.086890 0.854547
O O7 0.244806 0.222260 0.006327
O O8 0.692185 0.719976 0.734407
O O9 0.455464 0.759209 0.561153
O O10 0.514792 0.642184 0.784233
O O11 0.852408 0.357568 0.567941
O O12 0.785860 0.047824 0.643696
O O13 0.696948 0.903240 0.487229
O O14 0.000000 0.000000 0.500000
O O15 0.195926 0.762132 0.684586
O O16 0.652862 0.685053 0.371151
O O17 0.000000 0.500000 0.500000
#
# Coordination Sequence:
#
# PCOD9066449 Si02
#       8
#     2   2   2   2   2   2   2   2
#     4  11  28  49  78 111 163 208 266 334 397 482
#     4  11  25  45  79 112 158 210 254 327 405 476
#     4  12  26  50  81 113 161 208 273 336 402 486
#     4  12  28  46  79 109 155 217 269 330 394 482
#     4  11  26  49  79 121 152 207 273 325 402 489
#     4  11  26  45  74 120 163 200 258 334 409 475
#     4  11  26  45  73 115 154 208 262 328 404 473
#     4  11  27  53  71 114 160 214 272 320 403 485
#
# _framework density 26.819679000000001
#
# number of rings (size 3 to 8) (size 9 to 14) (size 15 to 20)
#    0.000    0.750    2.500    3.000   10.500    0.000 
#    0.000    2.500    0.000    0.000    0.000    0.000 
#    0.000    0.000    0.000    0.000    0.000    0.000 
#
# Total GULP energy -89523.842915 kJ/mol
# GULP energy per Si atom -5595.240182 kJ/mol
# Density = 2.675864 g / cm^3
# Si number density = 26.819679 Si / 1000 Ang^3
#
#
#
# Elastic Constant Matrix: (Units=GPa)
#
#
# Indices 1 2 3 4 5 6 
#
# 1 119.0090 57.6110 27.4823 10.0357 -11.0526 -17.8561
# 2 57.6110 172.0513 39.0461 0.0687 -1.8580 -3.1043
# 3 27.4823 39.0461 93.2424 -11.9443 -0.2253 -18.1345
# 4 10.0357 0.0687 -11.9443 50.8645 0.3272 -1.0925
# 5 -11.0526 -1.8580 -0.2253 0.3272 45.6617 6.0821
# 6 -17.8561 -3.1043 -18.1345 -1.0925 6.0821 58.2132
#
#
#
# Elastic Compliance Matrix: (Units=1/GPa)
#
#
# Indices 1 2 3 4 5 6 
#
# 1 0.011190 -0.003273 -0.001783 -0.002585 0.002263 0.002417
# 2 -0.003273 0.007425 -0.002396 0.000047 -0.000327 -0.001319
# 3 -0.001783 -0.002396 0.013427 0.003593 -0.000978 0.003678
# 4 -0.002585 0.000047 0.003593 0.021037 -0.000865 0.000814
# 5 0.002263 -0.000327 -0.000978 -0.000865 0.022705 -0.002016
# 6 0.002417 -0.001319 0.003678 0.000814 -0.002016 0.019221
#
#
# Mechanical properties :
#
#
# Convention : Reuss Voigt Hill
#
# Bulk Modulus (GPa) = 58.35187 70.28684 64.31936
# Shear Modulus (GPa) = 43.24527 48.29210 45.76868
#
# Velocity S-wave (km/s) = 4.01988 4.24798 4.13550
# Velocity P-wave (km/s) = 6.58409 7.09398 6.84378
#
# Compressibility (1/GPa) = 0.01713741
#
# Stress axis : x y z
#
# Youngs Moduli (GPa) = 89.36722 134.68758 74.47868
#
# Poissons Ratio (x) = 0.44086 0.13279
# Poissons Ratio (y) = 0.29251 0.17843
# Poissons Ratio (z) = 0.15933 0.32268
#
# Static dielectric constant tensor:
#      x y z
#    x 2.160610 -0.030210 -0.033440 
#    y -0.030210 2.126970 0.111780 
#    z -0.033440 0.111780 2.228210 
# 
# From -- ./inp_files/387298.got.cif
#   From: 2010.05.17/outbox.cif.g08.bks.cpg/sg2_194_cif.got.tgz:387298.got - 2010.06.03 11:33:40.
