data_PCOD9066361
_publ_section_title
;
Structure prediction by ZEFSAII (Michael W. Deem and Ramdas Pophale) SiO2 
 PCOD9066361
Probable space group: P -1
;
_chemical_formula_sum "Si O2"
_cell_formula_units_Z 12
_cell_length_a 10.281015
_cell_length_b 14.649455
_cell_length_c 8.595232
_cell_angle_alpha 149.295516
_cell_angle_beta 127.635075
_cell_angle_gamma 52.761069
_cell_volume 513.083771
_symmetry_space_group_name_H-M "P -1"
_symmetry_group_IT_number 2
_symmetry_cell_setting 'triclinic'
loop_
_space_group_symop_operation_xyz
x,y,z
-x,-y,-z
loop_
_atom_site_type_symbol
_atom_site_label
_atom_site_fract_x
_atom_site_fract_y
_atom_site_fract_z
Si Si1 0.897868 0.572376 0.844425
Si Si2 0.608906 0.148102 0.340550
Si Si3 0.110371 0.810890 0.870192
Si Si4 0.450219 0.829984 0.301794
Si Si5 0.282152 0.492446 0.077893
Si Si6 0.086054 0.102796 0.844673
O O1 0.910990 0.365150 0.499187
O O2 0.776324 0.597304 0.940672
O O3 0.825815 0.738668 0.923697
O O4 0.094491 0.589592 0.027575
O O5 0.616424 0.139221 0.523615
O O6 0.596666 0.361105 0.603739
O O7 0.774587 0.062689 0.236761
O O8 0.500000 0.000000 0.000000
O O9 0.305366 0.792197 0.024458
O O10 0.034040 0.803645 0.974413
O O11 0.000000 0.000000 0.000000
O O12 0.613492 0.666971 0.185205
O O13 0.500000 0.000000 0.500000
O O14 0.000000 0.000000 0.500000
#
# Coordination Sequence:
#
# PCOD9066361 Si02
#       6
#     2   2   2   2   2   2
#     4  11  25  45  75 104 137 188 232 293 350 416
#     4  12  28  45  73 106 144 187 229 288 354 418
#     4  12  27  45  74 103 140 188 237 289 351 414
#     4  12  27  46  70 106 145 183 235 293 346 417
#     4  11  25  47  73 103 143 181 239 289 351 416
#     4  12  24  48  71 101 143 183 236 287 349 416
#
# _framework density 23.387993000000002
#
# number of rings (size 3 to 8) (size 9 to 14) (size 15 to 20)
#    0.000    0.333    3.333    4.000   11.667    0.667 
#    0.000    0.000    0.000    0.000    0.000    0.000 
#    0.000    0.000    0.000    0.000    0.000    0.000 
#
# Total GULP energy -66898.826058 kJ/mol
# GULP energy per Si atom -5574.902172 kJ/mol
# Density = 2.333476 g / cm^3
# Si number density = 23.387993 Si / 1000 Ang^3
#
#
#
# Elastic Constant Matrix: (Units=GPa)
#
#
# Indices 1 2 3 4 5 6 
#
# 1 101.5130 2.3704 16.1530 2.6509 -0.7750 0.2103
# 2 2.3704 48.7559 11.2403 19.4835 8.5060 12.7298
# 3 16.1530 11.2403 102.7237 9.2007 14.0832 -7.0187
# 4 2.6509 19.4835 9.2007 40.3263 -3.8936 2.9423
# 5 -0.7750 8.5060 14.0832 -3.8936 33.3386 3.3201
# 6 0.2103 12.7298 -7.0187 2.9423 3.3201 33.4394
#
#
#
# Elastic Compliance Matrix: (Units=1/GPa)
#
#
# Indices 1 2 3 4 5 6 
#
# 1 0.010143 -0.000115 -0.001752 -0.000075 0.001045 -0.000485
# 2 -0.000115 0.030632 -0.001649 -0.014444 -0.007817 -0.009959
# 3 -0.001752 -0.001649 0.011362 -0.002444 -0.005078 0.003743
# 4 -0.000075 -0.014444 -0.002444 0.033065 0.008454 0.001238
# 5 0.001045 -0.007817 -0.005078 0.008454 0.035381 -0.002353
# 6 -0.000485 -0.009959 0.003743 0.001238 -0.002353 0.034610
#
#
# Mechanical properties :
#
#
# Convention : Reuss Voigt Hill
#
# Bulk Modulus (GPa) = 22.17024 34.72445 28.44734
# Shear Modulus (GPa) = 28.20737 36.30279 32.25508
#
# Velocity S-wave (km/s) = 3.47661 3.94407 3.71769
# Velocity P-wave (km/s) = 5.06119 5.96827 5.53335
#
# Compressibility (1/GPa) = 0.04510551
#
# Stress axis : x y z
#
# Youngs Moduli (GPa) = 98.58651 32.64546 88.01648
#
# Poissons Ratio (x) = 0.00375 0.15421
# Poissons Ratio (y) = 0.01131 0.14513
# Poissons Ratio (z) = 0.17273 0.05383
#
# Static dielectric constant tensor:
#      x y z
#    x -61.799620 -11.246520 -27.790780 
#    y -11.246520 -0.026280 -4.958710 
#    z -27.790780 -4.958710 -10.288940 
# 
# From -- ./inp_files/198797.got.cif
#   From: 2010.05.17/outbox.cif.g08.bks.cpg/sg2_100_cif.got.tgz:198797.got - 2010.06.03 11:33:40.
