data_PCOD9066358
_publ_section_title
;
Structure prediction by ZEFSAII (Michael W. Deem and Ramdas Pophale) SiO2 
 PCOD9066358
Probable space group: P -1
;
_chemical_formula_sum "Si O2"
_cell_formula_units_Z 14
_cell_length_a 5.215744
_cell_length_b 6.717796
_cell_length_c 26.542724
_cell_angle_alpha 61.565507
_cell_angle_beta 65.565199
_cell_angle_gamma 47.617223
_cell_volume 597.904914
_symmetry_space_group_name_H-M "P -1"
_symmetry_group_IT_number 2
_symmetry_cell_setting 'triclinic'
loop_
_space_group_symop_operation_xyz
x,y,z
-x,-y,-z
loop_
_atom_site_type_symbol
_atom_site_label
_atom_site_fract_x
_atom_site_fract_y
_atom_site_fract_z
Si Si1 0.787812 0.425745 0.210825
Si Si2 0.569229 0.802141 0.690686
Si Si3 0.655416 0.400937 0.115723
Si Si4 0.826413 0.006263 0.961394
Si Si5 0.332356 0.498029 0.461827
Si Si6 0.872638 0.103554 0.383414
Si Si7 0.551403 0.957703 0.226120
O O1 0.453601 0.433618 0.252784
O O2 0.798445 0.462593 0.145950
O O3 0.133698 0.119510 0.234107
O O4 0.762688 0.664309 0.216053
O O5 0.357586 0.872611 0.647679
O O6 0.387201 0.044397 0.719273
O O7 0.942797 0.741519 0.658599
O O8 0.604336 0.172211 0.168292
O O9 0.912991 0.252712 0.065498
O O10 0.316447 0.700754 0.089915
O O11 0.500000 0.000000 0.000000
O O12 0.000000 0.000000 0.000000
O O13 0.500000 0.500000 0.500000
O O14 0.621842 0.235395 0.436260
O O15 0.000000 0.500000 0.500000
O O16 0.185813 0.780304 0.408211
#
# Coordination Sequence:
#
# PCOD9066358 Si02
#       7
#     2   2   2   2   2   2   2
#     4  11  25  45  75 103 149 186 235 287 348 450
#     4  11  26  47  70 114 144 187 234 289 366 420
#     4  11  26  46  74 106 142 192 236 289 366 420
#     4  12  28  48  74 104 142 184 242 304 354 416
#     4  12  26  48  72 104 140 190 246 292 350 416
#     4  12  26  45  76 104 148 185 234 302 352 416
#     4  11  25  45  75 103 149 186 235 287 348 450
#
# _framework density 23.415098
#
# number of rings (size 3 to 8) (size 9 to 14) (size 15 to 20)
#    0.000    0.571    1.429    5.143    8.000    5.714 
#    0.000    0.000    0.000    0.000    0.000    0.000 
#    0.000    0.000    0.000    0.000    0.000    0.000 
#
# Total GULP energy -78426.635952 kJ/mol
# GULP energy per Si atom -5601.902568 kJ/mol
# Density = 2.336180 g / cm^3
# Si number density = 23.415098 Si / 1000 Ang^3
#
#
#
# Elastic Constant Matrix: (Units=GPa)
#
#
# Indices 1 2 3 4 5 6 
#
# 1 161.3419 16.8411 58.5576 21.7496 21.3910 20.3683
# 2 16.8411 89.8116 16.8129 12.3478 21.3319 7.6898
# 3 58.5576 16.8129 96.5764 24.8315 27.1544 21.4423
# 4 21.7496 12.3478 24.8315 44.8376 10.6012 2.9305
# 5 21.3910 21.3319 27.1544 10.6012 68.1234 4.5629
# 6 20.3683 7.6898 21.4423 2.9305 4.5629 31.6882
#
#
#
# Elastic Compliance Matrix: (Units=1/GPa)
#
#
# Indices 1 2 3 4 5 6 
#
# 1 0.008201 -0.000276 -0.003860 -0.001477 -0.000561 -0.002375
# 2 -0.000276 0.012484 0.000022 -0.002391 -0.003314 -0.002169
# 3 -0.003860 0.000022 0.017226 -0.006165 -0.004165 -0.008011
# 4 -0.001477 -0.002391 -0.006165 0.027056 -0.000762 0.003309
# 5 -0.000561 -0.003314 -0.004165 -0.000762 0.017570 0.001524
# 6 -0.002375 -0.002169 -0.008011 0.003309 0.001524 0.038506
#
#
# Mechanical properties :
#
#
# Convention : Reuss Voigt Hill
#
# Bulk Modulus (GPa) = 33.68835 59.12812 46.40823
# Shear Modulus (GPa) = 35.92909 45.96439 40.94674
#
# Velocity S-wave (km/s) = 3.92144 4.43541 4.18632
# Velocity P-wave (km/s) = 5.90951 7.17896 6.57494
#
# Compressibility (1/GPa) = 0.02968385
#
# Stress axis : x y z
#
# Youngs Moduli (GPa) = 121.93670 80.10557 58.05241
#
# Poissons Ratio (x) = 0.02207 0.22406
# Poissons Ratio (y) = 0.03359 -0.00127
# Poissons Ratio (z) = 0.47063 -0.00175
#
# Static dielectric constant tensor:
#      x y z
#    x 1.901520 0.004010 -0.034210 
#    y 0.004010 1.851290 -0.025210 
#    z -0.034210 -0.025210 1.892700 
# 
# From -- ./inp_files/603140.got.cif
#   From: 2010.05.17/outbox.cif.g08.bks.cpg/sg2_302_cif.got.tgz:603140.got - 2010.06.03 11:33:40.
