data_PCOD9066901
_publ_section_title
;
Structure prediction by ZEFSAII (Michael W. Deem and Ramdas Pophale) SiO2 
 PCOD9066901
Probable space group: P -1
;
_chemical_formula_sum "Si O2"
_cell_formula_units_Z 16
_cell_length_a 21.749587
_cell_length_b 18.348564
_cell_length_c 11.153300
_cell_angle_alpha 147.430437
_cell_angle_beta 41.248493
_cell_angle_gamma 160.956399
_cell_volume 755.999268
_symmetry_space_group_name_H-M "P -1"
_symmetry_group_IT_number 2
_symmetry_cell_setting 'triclinic'
loop_
_space_group_symop_operation_xyz
x,y,z
-x,-y,-z
loop_
_atom_site_type_symbol
_atom_site_label
_atom_site_fract_x
_atom_site_fract_y
_atom_site_fract_z
Si Si1 0.197870 0.628306 0.627845
Si Si2 0.910075 0.719278 0.327411
Si Si3 0.557160 0.223790 0.339134
Si Si4 0.001098 0.860466 0.879188
Si Si5 0.596434 0.769270 0.227522
Si Si6 0.474569 0.128191 0.754214
Si Si7 0.108936 0.607474 0.110339
Si Si8 0.843130 0.744219 0.194358
O O1 0.339403 0.761202 0.712408
O O2 0.173368 0.460136 0.351962
O O3 0.990012 0.415353 0.684752
O O4 0.292629 0.872258 0.754627
O O5 0.715711 0.470549 0.350324
O O6 0.866174 0.730568 0.279346
O O7 0.953970 0.624016 0.090723
O O8 0.086342 0.009039 0.549677
O O9 0.497715 0.269892 0.578622
O O10 0.342433 0.907081 0.170583
O O11 0.183285 0.000381 0.776432
O O12 0.989090 0.876487 0.060188
O O13 0.000000 0.000000 0.000000
O O14 0.569562 0.832527 0.239791
O O15 0.500000 0.500000 0.000000
O O16 0.500000 0.000000 0.500000
O O17 0.642502 0.423464 0.992140
O O18 0.000000 0.500000 0.000000
#
# Coordination Sequence:
#
# PCOD9066901 Si02
#       8
#     2   2   2   2   2   2   2   2
#     4  12  25  46  72 111 144 192 246 318 378 434
#     4  11  26  46  71 103 148 204 244 300 371 447
#     4  12  24  48  73 106 149 190 255 302 370 452
#     4  12  25  46  76 105 149 193 247 320 376 446
#     4  12  26  44  74 113 144 193 247 307 388 445
#     4  12  25  45  75 110 148 193 246 316 386 439
#     4  12  27  43  72 106 145 195 251 300 365 450
#     4  11  25  47  72 102 148 195 247 306 373 449
#
# _framework density 21.164041999999998
#
# number of rings (size 3 to 8) (size 9 to 14) (size 15 to 20)
#    0.000    0.250    5.000    4.125    3.500    1.500 
#    0.000    0.625    0.000    0.000    0.000    0.000 
#    0.000    0.000    0.000    0.000    0.000    0.000 
#
# Total GULP energy -89151.652637 kJ/mol
# GULP energy per Si atom -5571.978290 kJ/mol
# Density = 2.111587 g / cm^3
# Si number density = 21.164042 Si / 1000 Ang^3
#
#
#
# Elastic Constant Matrix: (Units=GPa)
#
#
# Indices 1 2 3 4 5 6 
#
# 1 106.4063 62.8793 63.3405 -0.2012 -11.3646 -8.4290
# 2 62.8793 91.6747 37.5390 2.5308 -1.1154 -7.6546
# 3 63.3405 37.5390 158.6305 17.0998 5.5396 -2.1925
# 4 -0.2012 2.5308 17.0998 43.0636 -2.2869 5.4745
# 5 -11.3646 -1.1154 5.5396 -2.2869 34.4253 -1.5808
# 6 -8.4290 -7.6546 -2.1925 5.4745 -1.5808 40.8235
#
#
#
# Elastic Compliance Matrix: (Units=1/GPa)
#
#
# Indices 1 2 3 4 5 6 
#
# 1 0.021022 -0.011724 -0.006246 0.003476 0.007872 0.001645
# 2 -0.011724 0.018836 0.000545 -0.001716 -0.003405 0.001239
# 3 -0.006246 0.000545 0.009216 -0.003882 -0.003800 -0.000319
# 4 0.003476 -0.001716 -0.003882 0.025447 0.003265 -0.003099
# 5 0.007872 -0.003405 -0.003800 0.003265 0.032439 0.001601
# 6 0.001645 0.001239 -0.000319 -0.003099 0.001601 0.025528
#
#
# Mechanical properties :
#
#
# Convention : Reuss Voigt Hill
#
# Bulk Modulus (GPa) = 70.30942 76.02543 73.16743
# Shear Modulus (GPa) = 29.05635 36.52599 32.79117
#
# Velocity S-wave (km/s) = 3.70930 4.15884 3.94049
# Velocity P-wave (km/s) = 7.18599 7.68513 7.43975
#
# Compressibility (1/GPa) = 0.01422284
#
# Stress axis : x y z
#
# Youngs Moduli (GPa) = 47.56920 53.09058 108.50769
#
# Poissons Ratio (x) = 0.62243 0.67779
# Poissons Ratio (y) = 0.55770 -0.05914
# Poissons Ratio (z) = 0.29714 -0.02893
#
# Static dielectric constant tensor:
#      x y z
#    x 1.650300 -0.059780 0.035060 
#    y -0.059780 1.767440 0.012380 
#    z 0.035060 0.012380 1.814710 
# 
# From -- ./inp_files/472499.got.cif
#   From: 2010.05.17/outbox.cif.g08.bks.cpg/sg2_237_cif.got.tgz:472499.got - 2010.06.03 11:33:40.
