data_PCOD9066520
_publ_section_title
;
Structure prediction by ZEFSAII (Michael W. Deem and Ramdas Pophale) SiO2 
 PCOD9066520
Probable space group: P -1
;
_chemical_formula_sum "Si O2"
_cell_formula_units_Z 11
_cell_length_a 10.937850
_cell_length_b 12.423599
_cell_length_c 7.674726
_cell_angle_alpha 111.223659
_cell_angle_beta 77.289085
_cell_angle_gamma 156.008614
_cell_volume 378.045182
_symmetry_space_group_name_H-M "P -1"
_symmetry_group_IT_number 2
_symmetry_cell_setting 'triclinic'
loop_
_space_group_symop_operation_xyz
x,y,z
-x,-y,-z
loop_
_atom_site_type_symbol
_atom_site_label
_atom_site_fract_x
_atom_site_fract_y
_atom_site_fract_z
Si Si1 0.791460 0.478834 0.405825
Si Si2 0.012226 0.150223 0.246965
Si Si3 0.856906 0.114488 0.897046
Si Si4 0.000000 0.500000 0.000000
Si Si5 0.285426 0.719446 0.330523
Si Si6 0.260165 0.273602 0.708884
O O1 0.013111 0.775595 0.546493
O O2 0.760000 0.404157 0.570032
O O3 0.956860 0.513662 0.265489
O O4 0.451646 0.207383 0.275053
O O5 0.383706 0.433191 0.295592
O O6 0.206415 0.143331 0.814916
O O7 0.931558 0.138203 0.082075
O O8 0.148983 0.307051 0.810924
O O9 0.827309 0.224865 0.937747
O O10 0.335092 0.727173 0.123961
O O11 0.500000 0.000000 0.500000
O O12 0.000000 0.000000 0.500000
#
# Coordination Sequence:
#
# PCOD9066520 Si02
#       6
#     2   2   2   1   2   2
#     4  11  26  45  74 107 154 204 255 317 387 463
#     4  12  28  52  80 117 157 207 258 327 386 463
#     4  12  27  49  76 117 155 206 264 317 392 465
#     4  12  26  44  78 110 154 198 254 322 384 452
#     4  11  25  46  70 108 153 203 253 317 385 462
#     4  12  28  52  84 114 157 209 260 322 390 461
#
# _framework density 29.097049999999999
#
# number of rings (size 3 to 8) (size 9 to 14) (size 15 to 20)
#    0.000    0.364    5.455    1.636    5.091    3.636 
#    0.000    0.000    0.000    0.000    0.000    0.000 
#    0.000    0.000    0.000    0.000    0.000    0.000 
#
# Total GULP energy -61612.819675 kJ/mol
# GULP energy per Si atom -5601.165425 kJ/mol
# Density = 2.903082 g / cm^3
# Si number density = 29.097050 Si / 1000 Ang^3
#
#
#
# Elastic Constant Matrix: (Units=GPa)
#
#
# Indices 1 2 3 4 5 6 
#
# 1 121.1370 51.3359 47.5815 -25.1176 -11.3563 -12.4823
# 2 51.3359 102.4730 -0.5073 -2.5935 2.8022 10.5136
# 3 47.5815 -0.5073 175.3337 0.4262 29.0516 -7.0237
# 4 -25.1176 -2.5935 0.4262 40.9665 -7.9318 4.6947
# 5 -11.3563 2.8022 29.0516 -7.9318 81.2747 -12.4991
# 6 -12.4823 10.5136 -7.0237 4.6947 -12.4991 80.8435
#
#
#
# Elastic Compliance Matrix: (Units=1/GPa)
#
#
# Indices 1 2 3 4 5 6 
#
# 1 0.017776 -0.009220 -0.005812 0.011210 0.006558 0.003802
# 2 -0.009220 0.014717 0.003070 -0.005124 -0.003913 -0.003378
# 3 -0.005812 0.003070 0.007977 -0.004173 -0.004335 -0.001032
# 4 0.011210 -0.005124 -0.004173 0.032136 0.006553 0.001181
# 5 0.006558 -0.003913 -0.004335 0.006553 0.016043 0.003245
# 6 0.003802 -0.003378 -0.001032 0.001181 0.003245 0.013739
#
#
# Mechanical properties :
#
#
# Convention : Reuss Voigt Hill
#
# Bulk Modulus (GPa) = 60.43946 66.19599 63.31772
# Shear Modulus (GPa) = 37.92849 60.65249 49.29049
#
# Velocity S-wave (km/s) = 3.61434 4.57057 4.12029
# Velocity P-wave (km/s) = 6.18342 7.11709 6.66662
#
# Compressibility (1/GPa) = 0.01654548
#
# Stress axis : x y z
#
# Youngs Moduli (GPa) = 56.25495 67.95040 125.36440
#
# Poissons Ratio (x) = 0.62649 0.72865
# Poissons Ratio (y) = 0.51866 -0.38487
# Poissons Ratio (z) = 0.32697 -0.20861
#
# Static dielectric constant tensor:
#      x y z
#    x 2.342730 0.106260 -0.016010 
#    y 0.106260 2.384640 -0.202240 
#    z -0.016010 -0.202240 2.734090 
# 
# From -- ./inp_files/316656.got.cif
#   From: 2010.05.17/outbox.cif.g08.bks.cpg/sg2_159_cif.got.tgz:316656.got - 2010.06.03 11:33:40.
