data_PCOD9066603
_publ_section_title
;
Structure prediction by ZEFSAII (Michael W. Deem and Ramdas Pophale) SiO2 
 PCOD9066603
Probable space group: P -1
;
_chemical_formula_sum "Si O2"
_cell_formula_units_Z 14
_cell_length_a 5.050667
_cell_length_b 24.397191
_cell_length_c 15.008294
_cell_angle_alpha 159.969351
_cell_angle_beta 76.994843
_cell_angle_gamma 113.114066
_cell_volume 518.379418
_symmetry_space_group_name_H-M "P -1"
_symmetry_group_IT_number 2
_symmetry_cell_setting 'triclinic'
loop_
_space_group_symop_operation_xyz
x,y,z
-x,-y,-z
loop_
_atom_site_type_symbol
_atom_site_label
_atom_site_fract_x
_atom_site_fract_y
_atom_site_fract_z
Si Si1 0.209990 0.883816 0.770462
Si Si2 0.135985 0.366850 0.792695
Si Si3 0.129526 0.077184 0.467725
Si Si4 0.687890 0.159153 0.024800
Si Si5 0.383700 0.296294 0.955097
Si Si6 0.461918 0.327555 0.540809
Si Si7 0.256298 0.522601 0.618366
O O1 0.305113 0.725230 0.511407
O O2 0.838608 0.805543 0.707660
O O3 0.500000 0.000000 0.000000
O O4 0.344514 0.026965 0.894455
O O5 0.988875 0.190135 0.602479
O O6 0.203118 0.313830 0.610559
O O7 0.500000 0.500000 0.000000
O O8 0.000000 0.500000 0.000000
O O9 0.394192 0.216603 0.734933
O O10 0.870690 0.892485 0.260569
O O11 0.235439 0.990748 0.249688
O O12 0.735886 0.300814 0.158244
O O13 0.928531 0.316008 0.318608
O O14 0.312031 0.457846 0.183471
O O15 0.650906 0.413926 0.190201
O O16 0.500000 0.500000 0.500000
#
# Coordination Sequence:
#
# PCOD9066603 Si02
#       7
#     2   2   2   2   2   2   2
#     4  12  28  47  79 111 153 204 266 318 386 465
#     4  12  26  50  76 111 155 204 254 319 394 461
#     4  11  25  49  76 116 148 202 263 315 384 469
#     4  11  26  47  76 112 148 205 261 317 385 469
#     4  11  26  47  75 110 155 196 254 321 385 458
#     4  12  27  48  76 110 155 200 255 326 391 454
#     4  11  25  46  72 105 153 197 247 317 390 451
#
# _framework density 27.007242000000002
#
# number of rings (size 3 to 8) (size 9 to 14) (size 15 to 20)
#    0.000    0.571    4.286    2.143    6.000    1.714 
#    2.571    0.000    0.000    0.000    0.000    0.000 
#    0.000    0.000    0.000    0.000    0.000    0.000 
#
# Total GULP energy -78193.301215 kJ/mol
# GULP energy per Si atom -5585.235801 kJ/mol
# Density = 2.694577 g / cm^3
# Si number density = 27.007242 Si / 1000 Ang^3
#
#
#
# Elastic Constant Matrix: (Units=GPa)
#
#
# Indices 1 2 3 4 5 6 
#
# 1 146.9156 42.2997 60.8052 -3.9596 -13.5876 -3.7435
# 2 42.2997 131.5585 68.8876 19.7624 -17.6126 -15.6569
# 3 60.8052 68.8876 170.9523 2.5006 -1.9360 -12.2482
# 4 -3.9596 19.7624 2.5006 58.1710 6.0187 15.6405
# 5 -13.5876 -17.6126 -1.9360 6.0187 31.0423 -4.7698
# 6 -3.7435 -15.6569 -12.2482 15.6405 -4.7698 34.9143
#
#
#
# Elastic Compliance Matrix: (Units=1/GPa)
#
#
# Indices 1 2 3 4 5 6 
#
# 1 0.008469 -0.001312 -0.002521 0.001061 0.002492 -0.000699
# 2 -0.001312 0.014056 -0.004254 -0.008387 0.010272 0.009831
# 3 -0.002521 -0.004254 0.008383 0.001330 -0.003296 -0.000283
# 4 0.001061 -0.008387 0.001330 0.025636 -0.011681 -0.016261
# 5 0.002492 0.010272 -0.003296 -0.011681 0.043480 0.014890
# 6 -0.000699 0.009831 -0.000283 -0.016261 0.014890 0.042194
#
#
# Mechanical properties :
#
#
# Convention : Reuss Voigt Hill
#
# Bulk Modulus (GPa) = 67.86866 88.15683 78.01275
# Shear Modulus (GPa) = 30.61796 43.32112 36.96954
#
# Velocity S-wave (km/s) = 3.37069 4.00941 3.70384
# Velocity P-wave (km/s) = 6.35083 7.35844 6.87313
#
# Compressibility (1/GPa) = 0.01473434
#
# Stress axis : x y z
#
# Youngs Moduli (GPa) = 118.07738 71.14647 119.28314
#
# Poissons Ratio (x) = 0.09333 0.30072
# Poissons Ratio (y) = 0.15489 0.50742
# Poissons Ratio (z) = 0.29768 0.30265
#
# Static dielectric constant tensor:
#      x y z
#    x 2.616680 -0.145620 0.010630 
#    y -0.145620 2.221930 -0.144230 
#    z 0.010630 -0.144230 2.410310 
# 
# From -- ./inp_files/486008.got.cif
#   From: 2010.05.17/outbox.cif.g08.bks.cpg/sg2_244_cif.got.tgz:486008.got - 2010.06.03 11:33:40.
