data_PCOD9066296
_publ_section_title
;
Structure prediction by ZEFSAII (Michael W. Deem and Ramdas Pophale) SiO2 
 PCOD9066296
Probable space group: P -1
;
_chemical_formula_sum "Si O2"
_cell_formula_units_Z 14
_cell_length_a 6.660706
_cell_length_b 5.045606
_cell_length_c 20.220199
_cell_angle_alpha 79.054036
_cell_angle_beta 67.748271
_cell_angle_gamma 70.769780
_cell_volume 592.193599
_symmetry_space_group_name_H-M "P -1"
_symmetry_group_IT_number 2
_symmetry_cell_setting 'triclinic'
loop_
_space_group_symop_operation_xyz
x,y,z
-x,-y,-z
loop_
_atom_site_type_symbol
_atom_site_label
_atom_site_fract_x
_atom_site_fract_y
_atom_site_fract_z
Si Si1 0.398683 0.384290 0.330692
Si Si2 0.764597 0.404865 0.011322
Si Si3 0.603518 0.228150 0.177329
Si Si4 0.091020 0.998585 0.355840
Si Si5 0.971256 0.279409 0.860161
Si Si6 0.390433 0.761004 0.547795
Si Si7 0.145953 0.107515 0.199789
O O1 0.539273 0.396224 0.245890
O O2 0.291165 0.126687 0.346659
O O3 0.541809 0.334844 0.381407
O O4 0.192858 0.665062 0.352520
O O5 0.680851 0.360803 0.096490
O O6 0.182601 0.816762 0.170159
O O7 0.890034 0.206855 0.945257
O O8 0.000000 0.500000 0.000000
O O9 0.385273 0.141893 0.186823
O O10 0.793457 0.934904 0.179179
O O11 0.021917 0.103268 0.284551
O O12 0.879592 0.110973 0.424777
O O13 0.961147 0.606577 0.842138
O O14 0.500000 0.500000 0.000000
O O15 0.500000 0.500000 0.500000
O O16 0.500000 0.000000 0.500000
#
# Coordination Sequence:
#
# PCOD9066296 Si02
#       7
#     2   2   2   2   2   2   2
#     4  11  26  47  74 109 146 198 249 316 378 470
#     4  12  28  49  79 116 163 214 277 341 410 481
#     4  11  26  46  74 107 150 201 263 317 402 468
#     4  11  25  45  73 108 150 190 251 303 387 450
#     4  12  26  45  74 105 154 199 261 325 395 457
#     4  12  27  46  74 109 147 193 245 309 384 470
#     4  11  25  45  73 108 145 199 251 326 377 482
#
# _framework density 23.640919
#
# number of rings (size 3 to 8) (size 9 to 14) (size 15 to 20)
#    0.000    0.571    1.429    5.571    2.000   12.000 
#    0.000    0.000    0.000    0.000    0.000    0.000 
#    0.000    0.000    0.000    0.000    0.000    0.000 
#
# Total GULP energy -78033.740402 kJ/mol
# GULP energy per Si atom -5573.838600 kJ/mol
# Density = 2.358711 g / cm^3
# Si number density = 23.640919 Si / 1000 Ang^3
#
#
#
# Elastic Constant Matrix: (Units=GPa)
#
#
# Indices 1 2 3 4 5 6 
#
# 1 96.2259 10.6493 52.7843 9.4956 4.6171 -2.7361
# 2 10.6493 82.2646 26.9308 16.1344 -3.1698 -0.4656
# 3 52.7843 26.9308 128.8607 25.7603 -8.9831 -3.2616
# 4 9.4956 16.1344 25.7603 46.4671 -4.0535 1.6881
# 5 4.6171 -3.1698 -8.9831 -4.0535 49.2203 1.9279
# 6 -2.7361 -0.4656 -3.2616 1.6881 1.9279 38.8356
#
#
#
# Elastic Compliance Matrix: (Units=1/GPa)
#
#
# Indices 1 2 3 4 5 6 
#
# 1 0.013679 0.000001 -0.005790 0.000188 -0.002347 0.000586
# 2 0.000001 0.013546 -0.002111 -0.003521 0.000192 0.000129
# 3 -0.005790 -0.002111 0.011609 -0.004356 0.002143 0.000625
# 4 0.000188 -0.003521 -0.004356 0.025272 0.001103 -0.001548
# 5 -0.002347 0.000192 0.002143 0.001103 0.021073 -0.001077
# 6 0.000586 0.000129 0.000625 -0.001548 -0.001077 0.025966
#
#
# Mechanical properties :
#
#
# Convention : Reuss Voigt Hill
#
# Bulk Modulus (GPa) = 43.41436 54.23112 48.82274
# Shear Modulus (GPa) = 37.14124 41.37039 39.25581
#
# Velocity S-wave (km/s) = 3.96796 4.18778 4.07935
# Velocity P-wave (km/s) = 6.27669 6.80974 6.54864
#
# Compressibility (1/GPa) = 0.02303385
#
# Stress axis : x y z
#
# Youngs Moduli (GPa) = 73.10601 73.82522 86.14089
#
# Poissons Ratio (x) = -0.00004 0.49873
# Poissons Ratio (y) = -0.00004 0.18181
# Poissons Ratio (z) = 0.42326 0.15581
#
# Static dielectric constant tensor:
#      x y z
#    x 2.083430 -0.064740 0.031030 
#    y -0.064740 1.901800 -0.050920 
#    z 0.031030 -0.050920 1.880890 
# 
# From -- ./inp_files/580433.got.cif
#   From: 2010.05.17/outbox.cif.g08.bks.cpg/sg2_291_cif.got.tgz:580433.got - 2010.06.03 11:33:40.
