data_PCOD9066413
_publ_section_title
;
Structure prediction by ZEFSAII (Michael W. Deem and Ramdas Pophale) SiO2 
 PCOD9066413
Probable space group: P -1
;
_chemical_formula_sum "Si O2"
_cell_formula_units_Z 16
_cell_length_a 5.668485
_cell_length_b 11.792521
_cell_length_c 10.822237
_cell_angle_alpha 90.947004
_cell_angle_beta 118.928451
_cell_angle_gamma 99.632026
_cell_volume 620.234687
_symmetry_space_group_name_H-M "P -1"
_symmetry_group_IT_number 2
_symmetry_cell_setting 'triclinic'
loop_
_space_group_symop_operation_xyz
x,y,z
-x,-y,-z
loop_
_atom_site_type_symbol
_atom_site_label
_atom_site_fract_x
_atom_site_fract_y
_atom_site_fract_z
Si Si1 0.127301 0.048682 0.403458
Si Si2 0.064375 0.377472 0.549003
Si Si3 0.032502 0.276132 0.285648
Si Si4 0.357703 0.891898 0.301429
Si Si5 0.629804 0.517143 0.750724
Si Si6 0.509819 0.689749 0.930503
Si Si7 0.972918 0.340598 0.803935
Si Si8 0.332992 0.042011 0.074724
O O1 0.053018 0.143869 0.293337
O O2 0.424938 0.111885 0.534895
O O3 0.118072 0.936763 0.314640
O O4 0.000000 0.000000 0.500000
O O5 0.952674 0.293581 0.408007
O O6 0.393503 0.410608 0.646159
O O7 0.939328 0.338935 0.648171
O O8 0.000000 0.500000 0.500000
O O9 0.291609 0.378867 0.326634
O O10 0.807283 0.303425 0.132831
O O11 0.234591 0.772469 0.201847
O O12 0.458427 0.989083 0.225662
O O13 0.527403 0.584411 0.840070
O O14 0.888501 0.456022 0.834970
O O15 0.621384 0.818673 0.907729
O O16 0.716038 0.670313 0.089390
O O17 0.500000 0.000000 0.000000
O O18 0.000000 0.000000 0.000000
#
# Coordination Sequence:
#
# PCOD9066413 Si02
#       8
#     2   2   2   2   2   2   2   2
#     4  11  25  45  77 110 148 198 260 331 397 469
#     4  12  25  47  70 107 145 197 254 316 386 467
#     4  12  26  45  77 106 150 198 250 326 389 470
#     4  11  26  48  73 114 149 201 264 325 394 476
#     4  12  26  46  74 104 151 199 258 313 398 458
#     4  12  28  47  75 112 149 197 259 319 394 468
#     4  12  27  47  74 106 154 199 259 315 392 465
#     4  12  29  52  81 114 162 211 263 325 404 477
#
# _framework density 25.796688
#
# number of rings (size 3 to 8) (size 9 to 14) (size 15 to 20)
#    0.000    0.250    3.750    3.750    7.000    7.000 
#    0.000    0.000    0.000    0.000    0.000    0.000 
#    0.000    0.000    0.000    0.000    0.000    0.000 
#
# Total GULP energy -89516.691387 kJ/mol
# GULP energy per Si atom -5594.793212 kJ/mol
# Density = 2.573797 g / cm^3
# Si number density = 25.796688 Si / 1000 Ang^3
#
#
#
# Elastic Constant Matrix: (Units=GPa)
#
#
# Indices 1 2 3 4 5 6 
#
# 1 63.0710 24.2217 6.4776 -8.7210 5.0977 -6.3305
# 2 24.2217 150.7080 14.0154 -9.5309 11.5702 -9.6312
# 3 6.4776 14.0154 85.9889 -13.7919 7.8886 -14.3644
# 4 -8.7210 -9.5309 -13.7919 42.7007 0.1858 7.0352
# 5 5.0977 11.5702 7.8886 0.1858 42.0399 -2.2085
# 6 -6.3305 -9.6312 -14.3644 7.0352 -2.2085 33.9914
#
#
#
# Elastic Compliance Matrix: (Units=1/GPa)
#
#
# Indices 1 2 3 4 5 6 
#
# 1 0.017458 -0.002405 -0.000047 0.002706 -0.001358 0.001902
# 2 -0.002405 0.007315 -0.000554 0.000784 -0.001562 0.001127
# 3 -0.000047 -0.000554 0.013226 0.003392 -0.002098 0.004585
# 4 0.002706 0.000784 0.003392 0.025788 -0.001466 -0.003273
# 5 -0.001358 -0.001562 -0.002098 -0.001466 0.024799 0.000333
# 6 0.001902 0.001127 0.004585 -0.003273 0.000333 0.032729
#
#
# Mechanical properties :
#
#
# Convention : Reuss Voigt Hill
#
# Bulk Modulus (GPa) = 31.26131 43.24414 37.25272
# Shear Modulus (GPa) = 36.23498 40.74995 38.49246
#
# Velocity S-wave (km/s) = 3.75191 3.97880 3.86702
# Velocity P-wave (km/s) = 5.56002 6.15692 5.86607
#
# Compressibility (1/GPa) = 0.03198842
#
# Stress axis : x y z
#
# Youngs Moduli (GPa) = 57.27936 136.70877 75.61049
#
# Poissons Ratio (x) = 0.32872 0.00354
# Poissons Ratio (y) = 0.13773 0.04188
# Poissons Ratio (z) = 0.00268 0.07571
#
# Static dielectric constant tensor:
#      x y z
#    x 2.289910 -0.186680 0.054870 
#    y -0.186680 2.315910 0.117570 
#    z 0.054870 0.117570 2.106600 
# 
# From -- ./inp_files/364654.got.cif
#   From: 2010.05.17/outbox.cif.g08.bks.cpg/sg2_183_cif.got.tgz:364654.got - 2010.06.03 11:33:40.
