data_PCOD9066664
_publ_section_title
;
Structure prediction by ZEFSAII (Michael W. Deem and Ramdas Pophale) SiO2 
 PCOD9066664
Probable space group: P -1
;
_chemical_formula_sum "Si O2"
_cell_formula_units_Z 14
_cell_length_a 9.030470
_cell_length_b 8.173310
_cell_length_c 11.219850
_cell_angle_alpha 114.767633
_cell_angle_beta 126.110858
_cell_angle_gamma 75.306182
_cell_volume 607.457021
_symmetry_space_group_name_H-M "P -1"
_symmetry_group_IT_number 2
_symmetry_cell_setting 'triclinic'
loop_
_space_group_symop_operation_xyz
x,y,z
-x,-y,-z
loop_
_atom_site_type_symbol
_atom_site_label
_atom_site_fract_x
_atom_site_fract_y
_atom_site_fract_z
Si Si1 0.215880 0.485033 0.584456
Si Si2 0.952812 0.225086 0.785046
Si Si3 0.712695 0.498888 0.624374
Si Si4 0.700664 0.916379 0.215841
Si Si5 0.677343 0.234835 0.105097
Si Si6 0.984594 0.786461 0.917459
Si Si7 0.681920 0.931837 0.495061
O O1 0.227912 0.588347 0.497782
O O2 0.331903 0.581633 0.769604
O O3 0.288377 0.281948 0.544816
O O4 0.000000 0.500000 0.500000
O O5 0.796578 0.369843 0.723172
O O6 0.125888 0.213423 0.773719
O O7 0.852007 0.033910 0.666865
O O8 0.012990 0.269186 0.960349
O O9 0.500000 0.500000 0.500000
O O10 0.805807 0.692777 0.748596
O O11 0.689280 0.969208 0.366433
O O12 0.718592 0.079943 0.177704
O O13 0.509572 0.820496 0.064110
O O14 0.841061 0.261960 0.096619
O O15 0.000000 0.000000 0.000000
O O16 0.500000 0.000000 0.500000
#
# Coordination Sequence:
#
# PCOD9066664 Si02
#       7
#     2   2   2   2   2   2   2
#     4  12  24  46  74 105 147 194 254 308 376 445
#     4  12  25  48  75 108 152 195 253 314 374 452
#     4  12  28  47  76 109 151 200 253 314 379 452
#     4  11  25  46  75 107 149 195 253 308 381 450
#     4  11  25  46  73 107 149 199 247 311 377 454
#     4  12  25  49  76 111 154 196 253 311 385 446
#     4  12  26  48  74 108 148 196 249 311 381 454
#
# _framework density 23.046897999999999
#
# number of rings (size 3 to 8) (size 9 to 14) (size 15 to 20)
#    0.000    0.286    2.857    6.000    2.000    1.714 
#    2.571    0.000    0.000    0.000    0.000    0.000 
#    0.000    0.000    0.000    0.000    0.000    0.000 
#
# Total GULP energy -78258.977948 kJ/mol
# GULP energy per Si atom -5589.926996 kJ/mol
# Density = 2.299444 g / cm^3
# Si number density = 23.046898 Si / 1000 Ang^3
#
#
#
# Elastic Constant Matrix: (Units=GPa)
#
#
# Indices 1 2 3 4 5 6 
#
# 1 141.9109 16.7877 86.4762 -12.8884 6.0518 -4.1001
# 2 16.7877 99.0387 35.7805 15.4707 8.1005 -16.6054
# 3 86.4762 35.7805 165.5604 20.7147 0.0381 -11.7165
# 4 -12.8884 15.4707 20.7147 41.0302 6.3650 5.3829
# 5 6.0518 8.1005 0.0381 6.3650 53.4930 -5.3937
# 6 -4.1001 -16.6054 -11.7165 5.3829 -5.3937 18.4992
#
#
#
# Elastic Compliance Matrix: (Units=1/GPa)
#
#
# Indices 1 2 3 4 5 6 
#
# 1 0.013336 -0.002020 -0.008476 0.010842 -0.003329 -0.008351
# 2 -0.002020 0.014092 0.000049 -0.007985 0.000528 0.014710
# 3 -0.008476 0.000049 0.012537 -0.010858 0.003265 0.010218
# 4 0.010842 -0.007985 -0.010858 0.040796 -0.007454 -0.025685
# 5 -0.003329 0.000528 0.003265 -0.007454 0.020890 0.010063
# 6 -0.008351 0.014710 0.010218 -0.025685 0.010063 0.082289
#
#
# Mechanical properties :
#
#
# Convention : Reuss Voigt Hill
#
# Bulk Modulus (GPa) = 52.43060 76.06653 64.24856
# Shear Modulus (GPa) = 23.67523 40.43551 32.05537
#
# Velocity S-wave (km/s) = 3.20857 4.19321 3.73349
# Velocity P-wave (km/s) = 6.04363 7.51803 6.82078
#
# Compressibility (1/GPa) = 0.01907283
#
# Stress axis : x y z
#
# Youngs Moduli (GPa) = 74.98568 70.96160 79.76145
#
# Poissons Ratio (x) = 0.14333 0.67605
# Poissons Ratio (y) = 0.15146 -0.00394
# Poissons Ratio (z) = 0.63557 -0.00350
#
# Static dielectric constant tensor:
#      x y z
#    x 1.765290 0.081040 -0.051320 
#    y 0.081040 1.910550 -0.007530 
#    z -0.051320 -0.007530 1.811010 
# 
# From -- ./inp_files/328651.got.cif
#   From: 2010.05.17/outbox.cif.g08.bks.cpg/sg2_165_cif.got.tgz:328651.got - 2010.06.03 11:33:40.
