data_PCOD9066944
_publ_section_title
;
Structure prediction by ZEFSAII (Michael W. Deem and Ramdas Pophale) SiO2 
 PCOD9066944
Probable space group: P -1
;
_chemical_formula_sum "Si O2"
_cell_formula_units_Z 13
_cell_length_a 12.405863
_cell_length_b 15.094917
_cell_length_c 14.990915
_cell_angle_alpha 153.347044
_cell_angle_beta 29.132253
_cell_angle_gamma 151.449476
_cell_volume 548.268635
_symmetry_space_group_name_H-M "P -1"
_symmetry_group_IT_number 2
_symmetry_cell_setting 'triclinic'
loop_
_space_group_symop_operation_xyz
x,y,z
-x,-y,-z
loop_
_atom_site_type_symbol
_atom_site_label
_atom_site_fract_x
_atom_site_fract_y
_atom_site_fract_z
Si Si1 0.017693 0.974768 0.589741
Si Si2 0.754026 0.010309 0.221066
Si Si3 0.513789 0.311475 0.600480
Si Si4 0.002034 0.310137 0.478971
Si Si5 0.810057 0.303920 0.899569
Si Si6 0.675383 0.448729 0.936657
Si Si7 0.500000 0.000000 0.000000
O O1 0.011440 0.837548 0.559744
O O2 0.039082 0.827434 0.361981
O O3 0.776429 0.011964 0.803091
O O4 0.278436 0.193715 0.600801
O O5 0.642671 0.151373 0.373812
O O6 0.828703 0.143011 0.379420
O O7 0.544973 0.761667 0.137701
O O8 0.000000 0.000000 0.000000
O O9 0.724530 0.545131 0.625579
O O10 0.402865 0.358996 0.814563
O O11 0.905127 0.485628 0.740993
O O12 0.737365 0.388145 0.936392
O O13 0.000000 0.500000 0.000000
O O14 0.568126 0.153926 0.997061
#
# Coordination Sequence:
#
# PCOD9066944 Si02
#       7
#     2   2   2   2   2   2   1
#     4  11  27  48  74 111 149 188 256 307 363 457
#     4  12  25  47  75 112 157 193 247 305 359 448
#     4  12  25  47  73 107 152 197 243 301 369 435
#     4  11  25  47  74 108 153 204 238 304 374 433
#     4  11  25  49  72 107 147 190 249 313 364 440
#     4  11  25  47  73 109 152 192 254 304 361 449
#     4  12  26  44  78 102 140 198 238 310 384 410
#
# _framework density 23.711003999999999
#
# number of rings (size 3 to 8) (size 9 to 14) (size 15 to 20)
#    0.000    0.615    4.615    3.231    0.000    6.154 
#    0.000    0.000    0.000    0.000    0.000    0.000 
#    0.000    0.000    0.000    0.000    0.000    0.000 
#
# Total GULP energy -72510.865886 kJ/mol
# GULP energy per Si atom -5577.758914 kJ/mol
# Density = 2.365704 g / cm^3
# Si number density = 23.711004 Si / 1000 Ang^3
#
#
#
# Elastic Constant Matrix: (Units=GPa)
#
#
# Indices 1 2 3 4 5 6 
#
# 1 118.2327 50.7346 58.2045 -14.2706 13.5427 25.3060
# 2 50.7346 80.8348 44.9300 -10.7852 7.5794 35.3551
# 3 58.2045 44.9300 162.5710 -18.3516 -1.2971 30.2532
# 4 -14.2706 -10.7852 -18.3516 42.9317 8.6563 1.6835
# 5 13.5427 7.5794 -1.2971 8.6563 48.2895 2.9659
# 6 25.3060 35.3551 30.2532 1.6835 2.9659 32.5567
#
#
#
# Elastic Compliance Matrix: (Units=1/GPa)
#
#
# Indices 1 2 3 4 5 6 
#
# 1 0.013110 -0.005320 -0.002613 0.002636 -0.003272 -0.001823
# 2 -0.005320 0.028896 -0.000270 0.006970 -0.002635 -0.027114
# 3 -0.002613 -0.000270 0.008574 0.002784 0.000867 -0.005866
# 4 0.002636 0.006970 0.002784 0.028860 -0.006125 -0.013139
# 5 -0.003272 -0.002635 0.000867 -0.006125 0.022988 0.002822
# 6 -0.001823 -0.027114 -0.005866 -0.013139 0.002822 0.067451
#
#
# Mechanical properties :
#
#
# Convention : Reuss Voigt Hill
#
# Bulk Modulus (GPa) = 29.26129 74.37519 51.81824
# Shear Modulus (GPa) = 25.29384 38.60689 31.95037
#
# Velocity S-wave (km/s) = 3.26967 4.03951 3.67480
# Velocity P-wave (km/s) = 5.15964 7.29330 6.31721
#
# Compressibility (1/GPa) = 0.03417484
#
# Stress axis : x y z
#
# Youngs Moduli (GPa) = 76.27597 34.60680 116.63119
#
# Poissons Ratio (x) = 0.18412 0.30472
# Poissons Ratio (y) = 0.40581 0.03146
# Poissons Ratio (z) = 0.19929 0.00934
#
# Static dielectric constant tensor:
#      x y z
#    x 1.941810 -0.049060 -0.046290 
#    y -0.049060 1.860210 0.041820 
#    z -0.046290 0.041820 1.942360 
# 
# From -- ./inp_files/521836.got.cif
#   From: 2010.05.17/outbox.cif.g08.bks.cpg/sg2_261_cif.got.tgz:521836.got - 2010.06.03 11:33:40.
