data_PCOD9066022
_publ_section_title
;
Structure prediction by ZEFSAII (Michael W. Deem and Ramdas Pophale) SiO2 
 PCOD9066022
Probable space group: P -1
;
_chemical_formula_sum "Si O2"
_cell_formula_units_Z 15
_cell_length_a 11.092001
_cell_length_b 9.262397
_cell_length_c 22.396619
_cell_angle_alpha 142.616438
_cell_angle_beta 26.833226
_cell_angle_gamma 141.414835
_cell_volume 608.058039
_symmetry_space_group_name_H-M "P -1"
_symmetry_group_IT_number 2
_symmetry_cell_setting 'triclinic'
loop_
_space_group_symop_operation_xyz
x,y,z
-x,-y,-z
loop_
_atom_site_type_symbol
_atom_site_label
_atom_site_fract_x
_atom_site_fract_y
_atom_site_fract_z
Si Si1 0.762480 0.996811 0.151594
Si Si2 0.282504 0.284480 0.291258
Si Si3 0.500000 0.000000 0.000000
Si Si4 0.090683 0.638513 0.066497
Si Si5 0.701281 0.996778 0.496601
Si Si6 0.078071 0.897199 0.749324
Si Si7 0.725139 0.371512 0.700876
Si Si8 0.628529 0.458238 0.308670
O O1 0.516451 0.747645 0.184528
O O2 0.896164 0.035143 0.170702
O O3 0.640474 0.225487 0.265552
O O4 0.000000 0.000000 0.000000
O O5 0.333794 0.518787 0.301863
O O6 0.377354 0.382110 0.347470
O O7 0.453342 0.108378 0.129164
O O8 0.956974 0.139646 0.389278
O O9 0.407210 0.706098 0.966797
O O10 0.888481 0.526380 0.170600
O O11 0.115549 0.936165 0.138605
O O12 0.000000 0.500000 0.000000
O O13 0.387018 0.004406 0.622156
O O14 0.663047 0.704270 0.412575
O O15 0.779960 0.117570 0.566717
O O16 0.962311 0.604961 0.696518
#
# Coordination Sequence:
#
# PCOD9066022 Si02
#       8
#     2   2   1   2   2   2   2   2
#     4  11  28  45  70 100 140 184 228 278 343 414
#     4  12  25  42  73 104 136 178 228 288 344 409
#     4  12  24  40  68 108 136 176 226 288 350 400
#     4  12  24  42  72 100 139 176 227 287 344 403
#     4  11  25  44  72 103 137 177 233 287 343 404
#     4  11  25  48  72 102 137 183 228 287 341 406
#     4  11  25  46  68 101 139 181 228 281 339 406
#     4  12  25  43  67 102 136 180 227 282 340 408
#
# _framework density 24.668697999999999
#
# number of rings (size 3 to 8) (size 9 to 14) (size 15 to 20)
#    0.000    0.533    4.000    3.600    1.867    7.467 
#    0.000    4.000    0.000    0.000    0.000    0.000 
#    0.000    0.000    0.000    0.000    0.000    0.000 
#
# Total GULP energy -83674.177112 kJ/mol
# GULP energy per Si atom -5578.278474 kJ/mol
# Density = 2.461255 g / cm^3
# Si number density = 24.668698 Si / 1000 Ang^3
#
#
#
# Elastic Constant Matrix: (Units=GPa)
#
#
# Indices 1 2 3 4 5 6 
#
# 1 50.4232 44.8861 3.7738 -6.3130 -1.5860 4.3923
# 2 44.8861 229.5550 69.6389 -12.6390 -10.3858 24.4635
# 3 3.7738 69.6389 130.1942 -18.9670 1.3087 8.9299
# 4 -6.3130 -12.6390 -18.9670 50.5773 10.9146 -1.0176
# 5 -1.5860 -10.3858 1.3087 10.9146 29.1267 3.8819
# 6 4.3923 24.4635 8.9299 -1.0176 3.8819 58.4679
#
#
#
# Elastic Compliance Matrix: (Units=1/GPa)
#
#
# Indices 1 2 3 4 5 6 
#
# 1 0.024985 -0.005671 0.002775 0.003182 -0.002013 0.000261
# 2 -0.005671 0.006837 -0.003523 -0.000998 0.002942 -0.002109
# 3 0.002775 -0.003523 0.010083 0.003899 -0.003018 -0.000006
# 4 0.003182 -0.000998 0.003899 0.023379 -0.009198 0.000601
# 5 -0.002013 0.002942 -0.003018 -0.009198 0.039306 -0.003389
# 6 0.000261 -0.002109 -0.000006 0.000601 -0.003389 0.018203
#
#
# Mechanical properties :
#
#
# Convention : Reuss Voigt Hill
#
# Bulk Modulus (GPa) = 34.40257 71.86334 53.13296
# Shear Modulus (GPa) = 34.40688 47.09262 40.74975
#
# Velocity S-wave (km/s) = 3.73870 4.37395 4.06874
# Velocity P-wave (km/s) = 5.71080 7.39617 6.60744
#
# Compressibility (1/GPa) = 0.02906759
#
# Stress axis : x y z
#
# Youngs Moduli (GPa) = 40.02398 146.26746 99.17276
#
# Poissons Ratio (x) = 0.82949 -0.27520
# Poissons Ratio (y) = 0.22698 0.34936
# Poissons Ratio (z) = -0.11107 0.51527
#
# Static dielectric constant tensor:
#      x y z
#    x 1.964250 0.057550 -0.095310 
#    y 0.057550 1.953810 0.049000 
#    z -0.095310 0.049000 2.226920 
# 
# From -- ./inp_files/593810.got.cif
#   From: 2010.05.17/outbox.cif.g08.bks.cpg/sg2_297_cif.got.tgz:593810.got - 2010.06.03 11:33:40.
