data_PCOD9066914
_publ_section_title
;
Structure prediction by ZEFSAII (Michael W. Deem and Ramdas Pophale) SiO2 
 PCOD9066914
Probable space group: P -1
;
_chemical_formula_sum "Si O2"
_cell_formula_units_Z 15
_cell_length_a 9.012638
_cell_length_b 15.331013
_cell_length_c 5.119506
_cell_angle_alpha 52.599856
_cell_angle_beta 87.743882
_cell_angle_gamma 84.116740
_cell_volume 558.754951
_symmetry_space_group_name_H-M "P -1"
_symmetry_group_IT_number 2
_symmetry_cell_setting 'triclinic'
loop_
_space_group_symop_operation_xyz
x,y,z
-x,-y,-z
loop_
_atom_site_type_symbol
_atom_site_label
_atom_site_fract_x
_atom_site_fract_y
_atom_site_fract_z
Si Si1 0.787632 0.498980 0.259087
Si Si2 0.537948 0.251584 0.524069
Si Si3 0.707786 0.726630 0.127142
Si Si4 0.125383 0.798307 0.578567
Si Si5 0.106431 0.932057 0.835990
Si Si6 0.378957 0.070278 0.562950
Si Si7 0.056583 0.357354 0.388166
Si Si8 0.500000 0.500000 0.000000
O O1 0.761024 0.603190 0.257780
O O2 0.629701 0.457901 0.278408
O O3 0.921266 0.407788 0.489705
O O4 0.849639 0.546532 0.898443
O O5 0.463828 0.264608 0.790007
O O6 0.711693 0.234225 0.492292
O O7 0.470360 0.139428 0.632553
O O8 0.475481 0.367730 0.180095
O O9 0.822954 0.735004 0.338944
O O10 0.718543 0.829631 0.757436
O O11 0.148175 0.830277 0.818288
O O12 0.025844 0.697584 0.742628
O O13 0.055241 0.887638 0.202459
O O14 0.254473 0.990574 0.790294
O O15 0.000000 0.000000 0.500000
O O16 0.500000 0.000000 0.500000
#
# Coordination Sequence:
#
# PCOD9066914 Si02
#       8
#     2   2   2   2   2   2   2   1
#     4  11  25  47  72 108 149 196 249 321 382 462
#     4  12  27  48  74 109 150 197 252 325 376 464
#     4  12  25  45  74 105 142 201 252 309 394 448
#     4  12  28  50  76 114 152 201 258 319 382 460
#     4  12  29  49  77 112 152 202 258 318 383 460
#     4  12  26  48  73 104 151 196 254 315 380 454
#     4  11  25  47  72 108 153 194 250 316 388 462
#     4  12  22  50  68 112 146 188 260 300 388 454
#
# _framework density 26.845400000000001
#
# number of rings (size 3 to 8) (size 9 to 14) (size 15 to 20)
#    0.000    0.267    5.333    2.400    7.467    1.600 
#    2.400    0.000    0.000    0.000    0.000    0.000 
#    0.000    0.000    0.000    0.000    0.000    0.000 
#
# Total GULP energy -83652.844550 kJ/mol
# GULP energy per Si atom -5576.856303 kJ/mol
# Density = 2.678430 g / cm^3
# Si number density = 26.845400 Si / 1000 Ang^3
#
#
#
# Elastic Constant Matrix: (Units=GPa)
#
#
# Indices 1 2 3 4 5 6 
#
# 1 93.6219 13.8781 -4.0521 -5.2984 9.5834 11.5140
# 2 13.8781 118.7444 17.3381 -9.3158 -10.1624 4.2047
# 3 -4.0521 17.3381 81.6351 3.7274 5.5186 13.0282
# 4 -5.2984 -9.3158 3.7274 35.2937 3.4624 -2.1260
# 5 9.5834 -10.1624 5.5186 3.4624 32.9659 -10.9782
# 6 11.5140 4.2047 13.0282 -2.1260 -10.9782 44.2724
#
#
#
# Elastic Compliance Matrix: (Units=1/GPa)
#
#
# Indices 1 2 3 4 5 6 
#
# 1 0.012484 -0.002054 0.002276 0.001416 -0.006550 -0.005278
# 2 -0.002054 0.009551 -0.002780 0.002180 0.004317 0.001621
# 3 0.002276 -0.002780 0.014391 -0.001712 -0.005772 -0.006076
# 4 0.001416 0.002180 -0.001712 0.029575 -0.002300 0.000778
# 5 -0.006550 0.004317 -0.005772 -0.002300 0.038953 0.012541
# 6 -0.005278 0.001621 -0.006076 0.000778 0.012541 0.028741
#
#
# Mechanical properties :
#
#
# Convention : Reuss Voigt Hill
#
# Bulk Modulus (GPa) = 31.93920 38.70329 35.32124
# Shear Modulus (GPa) = 33.50124 40.29555 36.89840
#
# Velocity S-wave (km/s) = 3.53644 3.87851 3.71142
# Velocity P-wave (km/s) = 5.34776 5.87414 5.61712
#
# Compressibility (1/GPa) = 0.03130949
#
# Stress axis : x y z
#
# Youngs Moduli (GPa) = 80.10311 104.70502 69.48699
#
# Poissons Ratio (x) = 0.21506 -0.15817
# Poissons Ratio (y) = 0.16453 0.19320
# Poissons Ratio (z) = -0.18233 0.29112
#
# Static dielectric constant tensor:
#      x y z
#    x 2.510360 -0.014760 -0.026920 
#    y -0.014760 2.250440 -0.008310 
#    z -0.026920 -0.008310 2.202020 
# 
# From -- ./inp_files/27058.got.cif
#   From: 2010.05.17/outbox.cif.g08.bks.cpg/sg2_14_cif.got.tgz:27058.got - 2010.06.03 11:33:40.
