data_PCOD9066147
_publ_section_title
;
Structure prediction by ZEFSAII (Michael W. Deem and Ramdas Pophale) SiO2 
 PCOD9066147
Probable space group: P -1
;
_chemical_formula_sum "Si O2"
_cell_formula_units_Z 15
_cell_length_a 4.978847
_cell_length_b 20.377440
_cell_length_c 22.518746
_cell_angle_alpha 160.774085
_cell_angle_beta 88.904258
_cell_angle_gamma 81.848273
_cell_volume 657.579730
_symmetry_space_group_name_H-M "P -1"
_symmetry_group_IT_number 2
_symmetry_cell_setting 'triclinic'
loop_
_space_group_symop_operation_xyz
x,y,z
-x,-y,-z
loop_
_atom_site_type_symbol
_atom_site_label
_atom_site_fract_x
_atom_site_fract_y
_atom_site_fract_z
Si Si1 0.711192 0.567252 0.017131
Si Si2 0.818123 0.183365 0.605318
Si Si3 0.640807 0.591344 0.626254
Si Si4 0.375494 0.097906 0.459635
Si Si5 0.859859 0.217611 0.110057
Si Si6 0.500000 0.000000 0.000000
Si Si7 0.919962 0.877995 0.715055
Si Si8 0.506235 0.757266 0.542542
O O1 0.579152 0.827646 0.224101
O O2 0.500000 0.500000 0.000000
O O3 0.762755 0.421994 0.834168
O O4 0.000000 0.500000 0.000000
O O5 0.514615 0.175384 0.580169
O O6 0.040135 0.134597 0.506957
O O7 0.000000 0.000000 0.500000
O O8 0.500000 0.500000 0.500000
O O9 0.884127 0.376394 0.476183
O O10 0.377292 0.782470 0.836938
O O11 0.726684 0.777013 0.762160
O O12 0.407249 0.213643 0.499289
O O13 0.197205 0.115107 0.048328
O O14 0.696728 0.487509 0.327366
O O15 0.869249 0.071724 0.928196
O O16 0.145846 0.861900 0.646458
O O17 0.615838 0.892519 0.701809
#
# Coordination Sequence:
#
# PCOD9066147 Si02
#       8
#     2   2   2   2   2   1   2   2
#     4  12  23  39  66 101 134 170 215 266 331 392
#     4  12  23  41  71 102 136 173 215 281 334 393
#     4   9  21  40  64 102 129 166 215 279 339 396
#     4  12  25  44  68  99 137 175 227 273 335 399
#     4   9  23  41  68  97 132 173 224 275 333 399
#     4   8  20  40  66 102 126 168 220 272 342 388
#     4  11  25  45  68  92 135 175 224 279 332 395
#     4  11  27  47  66  95 134 182 225 277 329 403
#
# _framework density 22.810922999999999
#
# number of rings (size 3 to 8) (size 9 to 14) (size 15 to 20)
#    0.800    0.533    2.667    2.000    3.733    6.400 
#    0.000    0.000    0.000    0.000    0.000    0.000 
#    0.000    0.000    0.000    0.000    0.000    0.000 
#
# Total GULP energy -83797.096459 kJ/mol
# GULP energy per Si atom -5586.473097 kJ/mol
# Density = 2.275900 g / cm^3
# Si number density = 22.810923 Si / 1000 Ang^3
#
#
#
# Elastic Constant Matrix: (Units=GPa)
#
#
# Indices 1 2 3 4 5 6 
#
# 1 85.2958 17.1840 8.4986 6.8602 11.1374 5.3983
# 2 17.1840 85.0834 19.7965 4.7726 5.7342 20.3026
# 3 8.4986 19.7965 130.2506 -12.9365 30.1775 -1.5067
# 4 6.8602 4.7726 -12.9365 27.7675 -1.9726 7.9522
# 5 11.1374 5.7342 30.1775 -1.9726 40.9251 -15.4734
# 6 5.3983 20.3026 -1.5067 7.9522 -15.4734 41.1104
#
#
#
# Elastic Compliance Matrix: (Units=1/GPa)
#
#
# Indices 1 2 3 4 5 6 
#
# 1 0.012946 -0.001757 0.000119 -0.002593 -0.004212 -0.001912
# 2 -0.001757 0.014724 -0.001416 -0.000622 -0.003740 -0.008380
# 3 0.000119 -0.001416 0.010314 0.005317 -0.008360 -0.003114
# 4 -0.002593 -0.000622 0.005317 0.041458 -0.004481 -0.008863
# 5 -0.004212 -0.003740 -0.008360 -0.004481 0.038677 0.017518
# 6 -0.001912 -0.008380 -0.003114 -0.008863 0.017518 0.036908
#
#
# Mechanical properties :
#
#
# Convention : Reuss Voigt Hill
#
# Bulk Modulus (GPa) = 31.37142 43.50978 37.44060
# Shear Modulus (GPa) = 29.11055 38.97064 34.04059
#
# Velocity S-wave (km/s) = 3.57622 4.13779 3.86721
# Velocity P-wave (km/s) = 5.55294 6.47641 6.03237
#
# Compressibility (1/GPa) = 0.03187615
#
# Stress axis : x y z
#
# Youngs Moduli (GPa) = 77.24683 67.91715 96.95618
#
# Poissons Ratio (x) = 0.11930 -0.01150
# Poissons Ratio (y) = 0.13569 0.13724
# Poissons Ratio (z) = -0.00916 0.09614
#
# Static dielectric constant tensor:
#      x y z
#    x 1.887060 0.077030 0.001570 
#    y 0.077030 1.854400 -0.038000 
#    z 0.001570 -0.038000 1.892910 
# 
# From -- ./inp_files/584334.got.cif
#   From: 2010.05.17/outbox.cif.g08.bks.cpg/sg2_293_cif.got.tgz:584334.got - 2010.06.03 11:33:40.
