data_PCOD9066337
_publ_section_title
;
Structure prediction by ZEFSAII (Michael W. Deem and Ramdas Pophale) SiO2 
 PCOD9066337
Probable space group: P -1
;
_chemical_formula_sum "Si O2"
_cell_formula_units_Z 14
_cell_length_a 9.177354
_cell_length_b 12.975436
_cell_length_c 9.144686
_cell_angle_alpha 66.231401
_cell_angle_beta 76.513835
_cell_angle_gamma 128.050284
_cell_volume 583.794137
_symmetry_space_group_name_H-M "P -1"
_symmetry_group_IT_number 2
_symmetry_cell_setting 'triclinic'
loop_
_space_group_symop_operation_xyz
x,y,z
-x,-y,-z
loop_
_atom_site_type_symbol
_atom_site_label
_atom_site_fract_x
_atom_site_fract_y
_atom_site_fract_z
Si Si1 0.766764 0.033788 0.308888
Si Si2 0.309057 0.902086 0.430321
Si Si3 0.834736 0.699375 0.189290
Si Si4 0.391276 0.474448 0.194136
Si Si5 0.920834 0.880006 0.355089
Si Si6 0.493413 0.790272 0.961035
Si Si7 0.107626 0.679707 0.312882
O O1 0.840293 0.162454 0.349495
O O2 0.487786 0.903121 0.412882
O O3 0.806811 0.929455 0.402946
O O4 0.933159 0.145770 0.061946
O O5 0.181189 0.800490 0.363983
O O6 0.479260 0.116923 0.244050
O O7 0.594556 0.569676 0.218816
O O8 0.823655 0.783233 0.274416
O O9 0.901531 0.622160 0.298669
O O10 0.165172 0.260942 0.422610
O O11 0.500000 0.500000 0.000000
O O12 0.354100 0.586760 0.121240
O O13 0.218082 0.067615 0.158954
O O14 0.352629 0.790816 0.102423
O O15 0.000000 0.500000 0.500000
#
# Coordination Sequence:
#
# PCOD9066337 Si02
#       7
#     2   2   2   2   2   2   2
#     4  11  25  45  74 108 145 197 244 311 367 444
#     4  11  25  46  72 106 151 194 248 298 379 434
#     4  12  25  48  73 108 147 196 251 305 372 441
#     4  12  30  48  73 114 151 193 249 307 377 440
#     4  12  26  48  77 109 150 194 252 306 370 444
#     4  12  25  48  78 106 148 198 244 308 371 437
#     4  12  27  48  75 109 150 199 251 305 363 451
#
# _framework density 23.981055999999999
#
# number of rings (size 3 to 8) (size 9 to 14) (size 15 to 20)
#    0.000    0.286    4.286    3.857    6.000    1.143 
#    0.000    1.429    0.000    0.000    0.000    0.000 
#    0.000    0.000    0.000    0.000    0.000    0.000 
#
# Total GULP energy -78344.934070 kJ/mol
# GULP energy per Si atom -5596.066719 kJ/mol
# Density = 2.392647 g / cm^3
# Si number density = 23.981056 Si / 1000 Ang^3
#
#
#
# Elastic Constant Matrix: (Units=GPa)
#
#
# Indices 1 2 3 4 5 6 
#
# 1 131.0693 22.7451 3.7697 -2.8169 -5.7469 -20.6256
# 2 22.7451 41.4610 28.4773 8.7379 -0.4311 -19.9592
# 3 3.7697 28.4773 107.4551 7.9730 -5.9556 -15.6259
# 4 -2.8169 8.7379 7.9730 42.9815 -19.7203 4.2202
# 5 -5.7469 -0.4311 -5.9556 -19.7203 42.9963 8.5411
# 6 -20.6256 -19.9592 -15.6259 4.2202 8.5411 46.5093
#
#
#
# Elastic Compliance Matrix: (Units=1/GPa)
#
#
# Indices 1 2 3 4 5 6 
#
# 1 0.008924 -0.005583 0.001317 0.002297 0.002092 0.001411
# 2 -0.005583 0.044373 -0.008614 -0.014850 -0.011717 0.017171
# 3 0.001317 -0.008614 0.011672 0.000474 0.001839 0.000428
# 4 0.002297 -0.014850 0.000474 0.036387 0.019305 -0.012042
# 5 0.002092 -0.011717 0.001839 0.019305 0.034840 -0.011632
# 6 0.001411 0.017171 0.000428 -0.012042 -0.011632 0.032869
#
#
# Mechanical properties :
#
#
# Convention : Reuss Voigt Hill
#
# Bulk Modulus (GPa) = 25.50473 43.32995 34.41734
# Shear Modulus (GPa) = 24.05089 41.49696 32.77392
#
# Velocity S-wave (km/s) = 3.17031 4.16433 3.70085
# Velocity P-wave (km/s) = 4.90506 6.42104 5.71356
#
# Compressibility (1/GPa) = 0.03920841
#
# Stress axis : x y z
#
# Youngs Moduli (GPa) = 112.06053 22.53645 85.67599
#
# Poissons Ratio (x) = 0.12583 -0.11287
# Poissons Ratio (y) = 0.62565 0.73802
# Poissons Ratio (z) = -0.14762 0.19413
#
# Static dielectric constant tensor:
#      x y z
#    x 1.972800 0.035020 -0.026510 
#    y 0.035020 1.937490 -0.054650 
#    z -0.026510 -0.054650 1.941430 
# 
# From -- ./inp_files/185829.got.cif
#   From: 2010.05.17/outbox.cif.g08.bks.cpg/sg2_93_cif.got.tgz:185829.got - 2010.06.03 11:33:40.
