data_PCOD9066790
_publ_section_title
;
Structure prediction by ZEFSAII (Michael W. Deem and Ramdas Pophale) SiO2 
 PCOD9066790
Probable space group: P -1
;
_chemical_formula_sum "Si O2"
_cell_formula_units_Z 16
_cell_length_a 7.618190
_cell_length_b 14.353288
_cell_length_c 15.304013
_cell_angle_alpha 151.695395
_cell_angle_beta 80.271276
_cell_angle_gamma 83.472965
_cell_volume 647.092820
_symmetry_space_group_name_H-M "P -1"
_symmetry_group_IT_number 2
_symmetry_cell_setting 'triclinic'
loop_
_space_group_symop_operation_xyz
x,y,z
-x,-y,-z
loop_
_atom_site_type_symbol
_atom_site_label
_atom_site_fract_x
_atom_site_fract_y
_atom_site_fract_z
Si Si1 0.230212 0.955728 0.544941
Si Si2 0.886260 0.897116 0.981516
Si Si3 0.307635 0.678327 0.541287
Si Si4 0.180521 0.089484 0.300720
Si Si5 0.939148 0.684361 0.992184
Si Si6 0.402989 0.531275 0.823429
Si Si7 0.085187 0.193976 0.580667
Si Si8 0.302141 0.251707 0.259630
O O1 0.416219 0.678965 0.304883
O O2 0.013872 0.958698 0.557312
O O3 0.226449 0.090334 0.569752
O O4 0.213085 0.096769 0.750432
O O5 0.689818 0.144651 0.244383
O O6 0.875523 0.726100 0.773617
O O7 0.000000 0.000000 0.000000
O O8 0.952930 0.752118 0.947260
O O9 0.495394 0.571458 0.365876
O O10 0.327120 0.463149 0.413449
O O11 0.068201 0.817324 0.628346
O O12 0.202171 0.168263 0.459356
O O13 0.250779 0.203464 0.318523
O O14 0.335760 0.802654 0.049489
O O15 0.185013 0.563744 0.900053
O O16 0.902983 0.475034 0.833471
O O17 0.500000 0.000000 0.000000
#
# Coordination Sequence:
#
# PCOD9066790 Si02
#       8
#     2   2   2   2   2   2   2   2
#     4  11  25  50  70 104 140 180 235 297 347 413
#     4  12  25  43  70 100 139 187 223 280 352 400
#     4  12  24  46  68  99 146 183 229 290 338 410
#     4  12  23  48  66 103 143 183 230 292 341 410
#     4  12  25  47  71 104 143 180 234 292 344 417
#     4  12  22  45  74  97 145 178 227 299 340 406
#     4  11  25  46  76  99 139 192 227 285 369 404
#     4  12  27  43  71 104 139 183 236 279 338 421
#
# _framework density 24.725974000000001
#
# number of rings (size 3 to 8) (size 9 to 14) (size 15 to 20)
#    0.000    0.250    7.500    1.500    1.750    2.500 
#    2.250    0.000    0.000    0.000    0.000    0.000 
#    0.000    0.000    0.000    0.000    0.000    0.000 
#
# Total GULP energy -89407.564548 kJ/mol
# GULP energy per Si atom -5587.972784 kJ/mol
# Density = 2.466970 g / cm^3
# Si number density = 24.725974 Si / 1000 Ang^3
#
#
#
# Elastic Constant Matrix: (Units=GPa)
#
#
# Indices 1 2 3 4 5 6 
#
# 1 33.2126 15.3769 14.5299 4.6084 4.3038 6.6886
# 2 15.3769 186.5359 54.9370 13.7441 2.4984 -5.6171
# 3 14.5299 54.9370 150.7273 24.4902 6.8090 5.5323
# 4 4.6084 13.7441 24.4902 38.8092 3.3412 1.4900
# 5 4.3038 2.4984 6.8090 3.3412 40.0274 7.6898
# 6 6.6886 -5.6171 5.5323 1.4900 7.6898 11.0762
#
#
#
# Elastic Compliance Matrix: (Units=1/GPa)
#
#
# Indices 1 2 3 4 5 6 
#
# 1 0.037113 -0.003303 -0.001284 -0.001606 0.001190 -0.024056
# 2 -0.003303 0.006558 -0.002168 -0.000752 -0.001006 0.007203
# 3 -0.001284 -0.002168 0.008379 -0.004213 -0.000049 -0.003909
# 4 -0.001606 -0.000752 -0.004213 0.029015 -0.001446 -0.000207
# 5 0.001190 -0.001006 -0.000049 -0.001446 0.029126 -0.021230
# 6 -0.024056 0.007203 -0.003909 -0.000207 -0.021230 0.125183
#
#
# Mechanical properties :
#
#
# Convention : Reuss Voigt Hill
#
# Bulk Modulus (GPa) = 25.94781 60.01815 42.98298
# Shear Modulus (GPa) = 19.10368 37.02469 28.06419
#
# Velocity S-wave (km/s) = 2.78261 3.87382 3.37264
# Velocity P-wave (km/s) = 4.56518 6.65843 5.70857
#
# Compressibility (1/GPa) = 0.03853890
#
# Stress axis : x y z
#
# Youngs Moduli (GPa) = 26.94458 152.49432 119.34931
#
# Poissons Ratio (x) = 0.50374 0.15318
# Poissons Ratio (y) = 0.08901 0.25881
# Poissons Ratio (z) = 0.03458 0.33068
#
# Static dielectric constant tensor:
#      x y z
#    x 2.182090 -0.112510 -0.046780 
#    y -0.112510 2.031310 0.055720 
#    z -0.046780 0.055720 1.975950 
# 
# From -- ./inp_files/505820.got.cif
#   From: 2010.05.17/outbox.cif.g08.bks.cpg/sg2_253_cif.got.tgz:505820.got - 2010.06.03 11:33:40.
