data_PCOD9066661
_publ_section_title
;
Structure prediction by ZEFSAII (Michael W. Deem and Ramdas Pophale) SiO2 
 PCOD9066661
Probable space group: P -1
;
_chemical_formula_sum "Si O2"
_cell_formula_units_Z 14
_cell_length_a 12.392011
_cell_length_b 9.244015
_cell_length_c 8.914230
_cell_angle_alpha 128.425075
_cell_angle_beta 53.103257
_cell_angle_gamma 124.062931
_cell_volume 610.608521
_symmetry_space_group_name_H-M "P -1"
_symmetry_group_IT_number 2
_symmetry_cell_setting 'triclinic'
loop_
_space_group_symop_operation_xyz
x,y,z
-x,-y,-z
loop_
_atom_site_type_symbol
_atom_site_label
_atom_site_fract_x
_atom_site_fract_y
_atom_site_fract_z
Si Si1 0.684529 0.239692 0.609199
Si Si2 0.560183 0.818873 0.798706
Si Si3 0.343298 0.473401 0.923022
Si Si4 0.487615 0.193846 0.508567
Si Si5 0.113028 0.050629 0.303485
Si Si6 0.013670 0.718057 0.665028
Si Si7 0.035860 0.344433 0.980038
O O1 0.645201 0.279367 0.497833
O O2 0.826036 0.175794 0.451341
O O3 0.561502 0.040082 0.616035
O O4 0.691759 0.419637 0.828915
O O5 0.475300 0.640659 0.856052
O O6 0.530472 0.746964 0.606627
O O7 0.727255 0.886566 0.732597
O O8 0.500000 0.000000 0.000000
O O9 0.394282 0.281035 0.757589
O O10 0.207228 0.415700 0.890432
O O11 0.087878 0.204846 0.305254
O O12 0.000000 0.000000 0.500000
O O13 0.065827 0.850399 0.128127
O O14 0.000000 0.500000 0.500000
O O15 0.992859 0.708019 0.853017
O O16 0.000000 0.500000 0.000000
#
# Coordination Sequence:
#
# PCOD9066661 Si02
#       7
#     2   2   2   2   2   2   2
#     4  11  25  46  73 106 151 192 250 320 376 457
#     4  12  26  47  77 111 153 201 255 316 387 456
#     4  12  25  46  74 108 148 196 259 308 387 454
#     4  11  26  45  72 107 148 194 248 316 382 451
#     4  12  28  49  79 113 158 203 255 320 389 464
#     4  12  26  46  74 107 153 200 257 307 392 455
#     4  12  27  47  76 109 151 202 256 318 386 462
#
# _framework density 22.927947
#
# number of rings (size 3 to 8) (size 9 to 14) (size 15 to 20)
#    0.000    0.286    2.857    5.571    6.000    1.143 
#    0.000    0.000    0.000    0.000    0.000    0.000 
#    0.000    0.000    0.000    0.000    0.000    0.000 
#
# Total GULP energy -78115.902371 kJ/mol
# GULP energy per Si atom -5579.707312 kJ/mol
# Density = 2.287576 g / cm^3
# Si number density = 22.927947 Si / 1000 Ang^3
#
#
#
# Elastic Constant Matrix: (Units=GPa)
#
#
# Indices 1 2 3 4 5 6 
#
# 1 150.0791 26.0713 18.9731 -12.0071 -7.8292 -1.4053
# 2 26.0713 91.1725 20.8783 4.2415 0.8968 -11.2212
# 3 18.9731 20.8783 55.4673 -11.8128 0.6193 -16.4784
# 4 -12.0071 4.2415 -11.8128 42.2593 -5.1480 -5.3671
# 5 -7.8292 0.8968 0.6193 -5.1480 37.0773 -0.3054
# 6 -1.4053 -11.2212 -16.4784 -5.3671 -0.3054 47.3194
#
#
#
# Elastic Compliance Matrix: (Units=1/GPa)
#
#
# Indices 1 2 3 4 5 6 
#
# 1 0.007460 -0.001956 -0.001562 0.002045 0.001928 -0.000542
# 2 -0.001956 0.012843 -0.004497 -0.003097 -0.001070 0.001063
# 3 -0.001562 -0.004497 0.024406 0.007949 0.000543 0.008291
# 4 0.002045 -0.003097 0.007949 0.027974 0.004302 0.005295
# 5 0.001928 -0.001070 0.000543 0.004302 0.027997 0.000661
# 6 -0.000542 0.001063 0.008291 0.005295 0.000661 0.024861
#
#
# Mechanical properties :
#
#
# Convention : Reuss Voigt Hill
#
# Bulk Modulus (GPa) = 34.87043 47.61828 41.24435
# Shear Modulus (GPa) = 33.08412 40.71762 36.90087
#
# Velocity S-wave (km/s) = 3.80275 4.21871 4.01612
# Velocity P-wave (km/s) = 5.87562 6.67411 6.28756
#
# Compressibility (1/GPa) = 0.02867759
#
# Stress axis : x y z
#
# Youngs Moduli (GPa) = 134.05526 77.86455 40.97418
#
# Poissons Ratio (x) = 0.15232 0.06401
# Poissons Ratio (y) = 0.26224 0.18425
# Poissons Ratio (z) = 0.20943 0.35014
#
# Static dielectric constant tensor:
#      x y z
#    x 1.941450 -0.036870 -0.054490 
#    y -0.036870 2.072420 -0.078920 
#    z -0.054490 -0.078920 1.894560 
# 
# From -- ./inp_files/245804.got.cif
#   From: 2010.05.17/outbox.cif.g08.bks.cpg/sg2_123_cif.got.tgz:245804.got - 2010.06.03 11:33:40.
