data_PCOD9066313
_publ_section_title
;
Structure prediction by ZEFSAII (Michael W. Deem and Ramdas Pophale) SiO2 
 PCOD9066313
Probable space group: P -1
;
_chemical_formula_sum "Si O2"
_cell_formula_units_Z 12
_cell_length_a 9.485497
_cell_length_b 8.499815
_cell_length_c 7.926358
_cell_angle_alpha 125.533404
_cell_angle_beta 69.162043
_cell_angle_gamma 116.282335
_cell_volume 462.034238
_symmetry_space_group_name_H-M "P -1"
_symmetry_group_IT_number 2
_symmetry_cell_setting 'triclinic'
loop_
_space_group_symop_operation_xyz
x,y,z
-x,-y,-z
loop_
_atom_site_type_symbol
_atom_site_label
_atom_site_fract_x
_atom_site_fract_y
_atom_site_fract_z
Si Si1 0.538915 0.038376 0.201543
Si Si2 0.411719 0.298756 0.811699
Si Si3 0.629762 0.440077 0.514816
Si Si4 0.821377 0.162811 0.647422
Si Si5 0.071344 0.142957 0.810560
Si Si6 0.895884 0.592307 0.723996
O O1 0.617888 0.887909 0.165668
O O2 0.358498 0.972562 0.317523
O O3 0.669323 0.264650 0.286048
O O4 0.500000 0.000000 0.000000
O O5 0.534635 0.294381 0.613187
O O6 0.247884 0.299922 0.798598
O O7 0.500000 0.500000 0.000000
O O8 0.500000 0.500000 0.500000
O O9 0.762339 0.614688 0.661576
O O10 0.826601 0.392249 0.747258
O O11 0.935734 0.165156 0.758380
O O12 0.894012 0.064308 0.398177
O O13 0.044817 0.215058 0.057075
O O14 0.000000 0.500000 0.500000
#
# Coordination Sequence:
#
# PCOD9066313 Si02
#       6
#     2   2   2   2   2   2
#     4  12  26  45  74 106 143 190 248 306 363 434
#     4  12  22  46  72 101 141 190 237 304 365 425
#     4  12  26  44  71 106 143 190 247 297 365 435
#     4  11  25  50  72 105 146 194 238 301 370 438
#     4  11  25  45  74 100 144 191 236 296 368 433
#     4  12  28  46  72 107 149 189 243 301 368 437
#
# _framework density 25.972100000000001
#
# number of rings (size 3 to 8) (size 9 to 14) (size 15 to 20)
#    0.000    0.333    5.000    3.000    4.667    0.667 
#    0.000    0.000    0.000    0.000    0.000    0.000 
#    0.000    0.000    0.000    0.000    0.000    0.000 
#
# Total GULP energy -66978.820509 kJ/mol
# GULP energy per Si atom -5581.568376 kJ/mol
# Density = 2.591299 g / cm^3
# Si number density = 25.972100 Si / 1000 Ang^3
#
#
#
# Elastic Constant Matrix: (Units=GPa)
#
#
# Indices 1 2 3 4 5 6 
#
# 1 146.0489 13.1158 54.0340 6.3124 28.4321 -8.9005
# 2 13.1158 62.0013 27.0312 16.6465 6.8146 -19.5607
# 3 54.0340 27.0312 175.3918 10.6077 29.7718 -7.4059
# 4 6.3124 16.6465 10.6077 45.1904 10.0824 -4.7318
# 5 28.4321 6.8146 29.7718 10.0824 54.7124 -7.3259
# 6 -8.9005 -19.5607 -7.4059 -4.7318 -7.3259 38.0751
#
#
#
# Elastic Compliance Matrix: (Units=1/GPa)
#
#
# Indices 1 2 3 4 5 6 
#
# 1 0.008241 -0.000367 -0.001933 0.000216 -0.003119 0.000789
# 2 -0.000367 0.022300 -0.002739 -0.006785 0.001532 0.010289
# 3 -0.001933 -0.002739 0.007127 0.000102 -0.002682 -0.000976
# 4 0.000216 -0.006785 0.000102 0.025387 -0.004143 -0.001057
# 5 -0.003119 0.001532 -0.002682 -0.004143 0.022376 0.003326
# 6 0.000789 0.010289 -0.000976 -0.001057 0.003326 0.032053
#
#
# Mechanical properties :
#
#
# Convention : Reuss Voigt Hill
#
# Bulk Modulus (GPa) = 36.24435 63.53377 49.88906
# Shear Modulus (GPa) = 36.56086 46.87965 41.72026
#
# Velocity S-wave (km/s) = 3.75600 4.25314 4.01228
# Velocity P-wave (km/s) = 5.72673 6.97383 6.38082
#
# Compressibility (1/GPa) = 0.02759051
#
# Stress axis : x y z
#
# Youngs Moduli (GPa) = 121.34499 44.84325 140.31341
#
# Poissons Ratio (x) = 0.01647 0.27116
# Poissons Ratio (y) = 0.04456 0.38431
# Poissons Ratio (z) = 0.23450 0.12282
#
# Static dielectric constant tensor:
#      x y z
#    x 2.189350 0.165390 0.190050 
#    y 0.165390 2.106840 0.195440 
#    z 0.190050 0.195440 2.719670 
# 
# From -- ./inp_files/160324.got.cif
#   From: 2010.05.17/outbox.cif.g08.bks.cpg/sg2_81_cif.got.tgz:160324.got - 2010.06.03 11:33:40.
