data_PCOD9066073
_publ_section_title
;
Structure prediction by ZEFSAII (Michael W. Deem and Ramdas Pophale) SiO2 
 PCOD9066073
Probable space group: P -1
;
_chemical_formula_sum "Si O2"
_cell_formula_units_Z 12
_cell_length_a 7.432763
_cell_length_b 5.012231
_cell_length_c 13.043636
_cell_angle_alpha 84.201381
_cell_angle_beta 93.067504
_cell_angle_gamma 92.375193
_cell_volume 482.440197
_symmetry_space_group_name_H-M "P -1"
_symmetry_group_IT_number 2
_symmetry_cell_setting 'triclinic'
loop_
_space_group_symop_operation_xyz
x,y,z
-x,-y,-z
loop_
_atom_site_type_symbol
_atom_site_label
_atom_site_fract_x
_atom_site_fract_y
_atom_site_fract_z
Si Si1 0.502193 0.894837 0.773581
Si Si2 0.716399 0.528883 0.522565
Si Si3 0.940359 0.264418 0.931818
Si Si4 0.523366 0.347804 0.899944
Si Si5 0.196876 0.936075 0.598578
Si Si6 0.118906 0.832525 0.287498
O O1 0.437096 0.070701 0.863075
O O2 0.373810 0.958445 0.673672
O O3 0.488669 0.580105 0.808201
O O4 0.709827 0.977332 0.750130
O O5 0.500000 0.500000 0.500000
O O6 0.773191 0.837901 0.496384
O O7 0.807675 0.354263 0.442588
O O8 0.788077 0.398324 0.634137
O O9 0.728156 0.273044 0.917282
O O10 0.989265 0.277620 0.812471
O O11 0.000000 0.500000 0.000000
O O12 0.000000 0.000000 0.000000
O O13 0.500000 0.500000 0.000000
O O14 0.973807 0.989449 0.342319
#
# Coordination Sequence:
#
# PCOD9066073 Si02
#       6
#     2   2   2   2   2   2
#     4  11  25  45  70 108 141 192 233 301 359 417
#     4  12  26  49  74 109 146 189 238 301 359 428
#     4  11  26  45  68 105 139 185 235 295 351 414
#     4  11  25  44  73  98 146 186 245 294 357 420
#     4  12  27  45  77 105 146 191 240 287 368 430
#     4  11  27  47  76 104 150 187 245 297 356 431
#
# _framework density 24.873549000000001
#
# number of rings (size 3 to 8) (size 9 to 14) (size 15 to 20)
#    0.000    0.667    1.667    5.000    7.000    5.333 
#    0.000    0.000    0.000    0.000    0.000    0.000 
#    0.000    0.000    0.000    0.000    0.000    0.000 
#
# Total GULP energy -67232.322967 kJ/mol
# GULP energy per Si atom -5602.693581 kJ/mol
# Density = 2.481694 g / cm^3
# Si number density = 24.873549 Si / 1000 Ang^3
#
#
#
# Elastic Constant Matrix: (Units=GPa)
#
#
# Indices 1 2 3 4 5 6 
#
# 1 75.1651 23.8540 21.3214 5.7549 -1.9523 -22.2582
# 2 23.8540 151.6675 47.1570 -5.3473 12.5289 -15.8661
# 3 21.3214 47.1570 144.0067 11.7080 19.4487 -14.5679
# 4 5.7549 -5.3473 11.7080 39.2407 1.6488 8.2909
# 5 -1.9523 12.5289 19.4487 1.6488 39.2854 5.8995
# 6 -22.2582 -15.8661 -14.5679 8.2909 5.8995 36.4217
#
#
#
# Elastic Compliance Matrix: (Units=1/GPa)
#
#
# Indices 1 2 3 4 5 6 
#
# 1 0.017603 -0.001639 -0.000604 -0.004935 0.000269 0.010882
# 2 -0.001639 0.007865 -0.002064 0.001686 -0.001866 0.001518
# 3 -0.000604 -0.002064 0.008946 -0.003485 -0.004223 0.003787
# 4 -0.004935 0.001686 -0.003485 0.029670 0.001295 -0.010639
# 5 0.000269 -0.001866 -0.004223 0.001295 0.029205 -0.007363
# 6 0.010882 0.001518 0.003787 -0.010639 -0.007363 0.039897
#
#
# Mechanical properties :
#
#
# Convention : Reuss Voigt Hill
#
# Bulk Modulus (GPa) = 38.75932 61.72269 50.24101
# Shear Modulus (GPa) = 33.24444 41.55669 37.40056
#
# Velocity S-wave (km/s) = 3.65983 4.09188 3.88187
# Velocity P-wave (km/s) = 5.78581 6.86972 6.35093
#
# Compressibility (1/GPa) = 0.02580024
#
# Stress axis : x y z
#
# Youngs Moduli (GPa) = 56.80980 127.13945 111.77720
#
# Poissons Ratio (x) = 0.20833 0.06751
# Poissons Ratio (y) = 0.09309 0.23076
# Poissons Ratio (z) = 0.03431 0.26248
#
# Static dielectric constant tensor:
#      x y z
#    x 1.951720 0.009910 -0.040650 
#    y 0.009910 1.935530 0.110200 
#    z -0.040650 0.110200 2.098760 
# 
# From -- ./inp_files/372680.got.cif
#   From: 2010.05.17/outbox.cif.g08.bks.cpg/sg2_187_cif.got.tgz:372680.got - 2010.06.03 11:33:40.
