data_PCOD9066053
_publ_section_title
;
Structure prediction by ZEFSAII (Michael W. Deem and Ramdas Pophale) SiO2 
 PCOD9066053
Probable space group: P -1
;
_chemical_formula_sum "Si O2"
_cell_formula_units_Z 16
_cell_length_a 10.228327
_cell_length_b 14.324587
_cell_length_c 14.729035
_cell_angle_alpha 146.322923
_cell_angle_beta 89.284189
_cell_angle_gamma 64.807973
_cell_volume 739.098086
_symmetry_space_group_name_H-M "P -1"
_symmetry_group_IT_number 2
_symmetry_cell_setting 'triclinic'
loop_
_space_group_symop_operation_xyz
x,y,z
-x,-y,-z
loop_
_atom_site_type_symbol
_atom_site_label
_atom_site_fract_x
_atom_site_fract_y
_atom_site_fract_z
Si Si1 0.382819 0.944271 0.429494
Si Si2 0.719867 0.679041 0.724812
Si Si3 0.480472 0.572168 0.273651
Si Si4 0.543378 0.753576 0.081624
Si Si5 0.960885 0.540786 0.925893
Si Si6 0.655742 0.355124 0.466594
Si Si7 0.922389 0.264359 0.034182
Si Si8 0.160706 0.374582 0.526837
O O1 0.382666 0.819696 0.413817
O O2 0.504717 0.747417 0.182577
O O3 0.500000 0.000000 0.500000
O O4 0.146051 0.233601 0.637295
O O5 0.689271 0.516819 0.618645
O O6 0.784565 0.623339 0.573569
O O7 0.918199 0.556065 0.677473
O O8 0.500000 0.000000 0.000000
O O9 0.429205 0.639957 0.435370
O O10 0.409661 0.462311 0.149004
O O11 0.732535 0.335278 0.064578
O O12 0.331644 0.059758 0.295910
O O13 0.733941 0.694668 0.028310
O O14 0.002274 0.684277 0.003169
O O15 0.000000 0.500000 0.000000
O O16 0.500000 0.500000 0.500000
O O17 0.875755 0.045096 0.187275
O O18 0.829245 0.479971 0.287027
#
# Coordination Sequence:
#
# PCOD9066053 Si02
#       8
#     2   2   2   2   2   2   2   2
#     4  12  23  46  72 104 143 186 240 294 360 430
#     4  11  25  46  72 103 146 186 241 296 360 428
#     4  12  27  46  70 106 146 186 237 305 360 423
#     4  12  26  43  74 106 146 186 241 296 361 429
#     4  12  25  42  74 103 137 192 237 288 354 432
#     4  12  28  44  71 105 145 186 244 297 359 424
#     4  12  26  44  72  98 143 185 239 291 358 422
#     4  11  25  44  73 103 140 194 237 293 360 428
#
# _framework density 21.648008000000001
#
# number of rings (size 3 to 8) (size 9 to 14) (size 15 to 20)
#    0.000    0.250    3.750    4.125    7.000    5.500 
#    0.000    0.000    0.000    0.000    0.000    0.000 
#    0.000    0.000    0.000    0.000    0.000    0.000 
#
# Total GULP energy -89608.518774 kJ/mol
# GULP energy per Si atom -5600.532423 kJ/mol
# Density = 2.159874 g / cm^3
# Si number density = 21.648008 Si / 1000 Ang^3
#
#
#
# Elastic Constant Matrix: (Units=GPa)
#
#
# Indices 1 2 3 4 5 6 
#
# 1 99.4116 18.5631 7.0181 5.2876 -10.8906 0.3365
# 2 18.5631 87.8078 8.3983 5.8810 -2.6328 10.5903
# 3 7.0181 8.3983 66.8966 14.7760 -2.8914 5.2435
# 4 5.2876 5.8810 14.7760 52.1841 -5.7461 -2.6846
# 5 -10.8906 -2.6328 -2.8914 -5.7461 37.3966 4.2763
# 6 0.3365 10.5903 5.2435 -2.6846 4.2763 33.3750
#
#
#
# Elastic Compliance Matrix: (Units=1/GPa)
#
#
# Indices 1 2 3 4 5 6 
#
# 1 0.010841 -0.002152 -0.000693 -0.000329 0.002868 0.000289
# 2 -0.002152 0.012485 -0.000761 -0.001125 0.000475 -0.003972
# 3 -0.000693 -0.000761 0.016366 -0.004551 0.000627 -0.002769
# 4 -0.000329 -0.001125 -0.004551 0.021005 0.002420 0.002455
# 5 0.002868 0.000475 0.000627 0.002420 0.028456 -0.003729
# 6 0.000289 -0.003972 -0.002769 0.002455 -0.003729 0.032330
#
#
# Mechanical properties :
#
#
# Convention : Reuss Voigt Hill
#
# Bulk Modulus (GPa) = 30.78930 35.78613 33.28772
# Shear Modulus (GPa) = 35.83665 39.26692 37.55179
#
# Velocity S-wave (km/s) = 4.07311 4.26359 4.16944
# Velocity P-wave (km/s) = 6.03107 6.38783 6.21201
#
# Compressibility (1/GPa) = 0.03247881
#
# Stress axis : x y z
#
# Youngs Moduli (GPa) = 92.24444 80.09655 61.10157
#
# Poissons Ratio (x) = 0.17239 0.04235
# Poissons Ratio (y) = 0.19854 0.04651
# Poissons Ratio (z) = 0.06393 0.06097
#
# Static dielectric constant tensor:
#      x y z
#    x 1.801230 -0.008340 -0.020680 
#    y -0.008340 1.799190 -0.024160 
#    z -0.020680 -0.024160 1.784150 
# 
# From -- ./inp_files/505816.got.cif
#   From: 2010.05.17/outbox.cif.g08.bks.cpg/sg2_253_cif.got.tgz:505816.got - 2010.06.03 11:33:40.
