data_PCOD9066332
_publ_section_title
;
Structure prediction by ZEFSAII (Michael W. Deem and Ramdas Pophale) SiO2 
 PCOD9066332
Probable space group: P -1
;
_chemical_formula_sum "Si O2"
_cell_formula_units_Z 16
_cell_length_a 9.924153
_cell_length_b 7.968283
_cell_length_c 11.686744
_cell_angle_alpha 55.077338
_cell_angle_beta 89.126687
_cell_angle_gamma 110.615234
_cell_volume 680.338049
_symmetry_space_group_name_H-M "P -1"
_symmetry_group_IT_number 2
_symmetry_cell_setting 'triclinic'
loop_
_space_group_symop_operation_xyz
x,y,z
-x,-y,-z
loop_
_atom_site_type_symbol
_atom_site_label
_atom_site_fract_x
_atom_site_fract_y
_atom_site_fract_z
Si Si1 0.947066 0.686993 0.472085
Si Si2 0.102328 0.190021 0.190948
Si Si3 0.424343 0.173243 0.930491
Si Si4 0.409730 0.597115 0.382366
Si Si5 0.901769 0.311437 0.298790
Si Si6 0.140659 0.244446 0.906764
Si Si7 0.409852 0.258432 0.150312
Si Si8 0.566530 0.040888 0.357655
O O1 0.768010 0.556820 0.542755
O O2 0.000000 0.500000 0.500000
O O3 0.038049 0.761293 0.560954
O O4 0.995547 0.917611 0.306807
O O5 0.259276 0.219212 0.231758
O O6 0.024946 0.330942 0.196264
O O7 0.151133 0.291195 0.024574
O O8 0.543227 0.365574 0.766823
O O9 0.276556 0.195495 0.877054
O O10 0.370466 0.121996 0.085440
O O11 0.500000 0.000000 0.000000
O O12 0.500000 0.500000 0.500000
O O13 0.468553 0.843484 0.347446
O O14 0.881662 0.543011 0.228564
O O15 0.742300 0.117007 0.334085
O O16 0.000000 0.000000 0.000000
O O17 0.534508 0.244017 0.233403
O O18 0.500000 0.500000 0.000000
O O19 0.500000 0.000000 0.500000
#
# Coordination Sequence:
#
# PCOD9066332 Si02
#       8
#     2   2   2   2   2   2   2   2
#     4  12  27  48  76 107 155 202 250 307 378 448
#     4  11  25  47  69 108 148 199 251 303 378 444
#     4  11  26  48  72 107 146 195 254 306 380 447
#     4  12  29  47  77 109 147 199 255 309 370 456
#     4  12  27  48  73 111 150 199 246 311 379 449
#     4  11  27  44  76 106 149 192 245 316 372 452
#     4  11  25  45  74 105 147 195 247 311 370 449
#     4  12  26  46  73 109 152 192 248 311 372 443
#
# _framework density 23.517721999999999
#
# number of rings (size 3 to 8) (size 9 to 14) (size 15 to 20)
#    0.000    0.500    1.250    6.000   14.000    0.000 
#    0.000    0.000    0.000    0.000    0.000    0.000 
#    0.000    0.000    0.000    0.000    0.000    0.000 
#
# Total GULP energy -89139.042976 kJ/mol
# GULP energy per Si atom -5571.190186 kJ/mol
# Density = 2.346419 g / cm^3
# Si number density = 23.517722 Si / 1000 Ang^3
#
#
#
# Elastic Constant Matrix: (Units=GPa)
#
#
# Indices 1 2 3 4 5 6 
#
# 1 203.8709 34.4154 46.0404 -7.0407 -16.7660 -0.9036
# 2 34.4154 46.2842 -2.2443 -12.5915 -1.5080 4.0557
# 3 46.0404 -2.2443 127.9539 -11.5956 13.0393 6.3226
# 4 -7.0407 -12.5915 -11.5956 34.8187 2.2569 3.9281
# 5 -16.7660 -1.5080 13.0393 2.2569 44.8962 -4.4605
# 6 -0.9036 4.0557 6.3226 3.9281 -4.4605 43.9284
#
#
#
# Elastic Compliance Matrix: (Units=1/GPa)
#
#
# Indices 1 2 3 4 5 6 
#
# 1 0.006852 -0.005896 -0.003222 -0.002245 0.003580 0.001713
# 2 -0.005896 0.029715 0.004311 0.011771 -0.003534 -0.004897
# 3 -0.003222 0.004311 0.010091 0.004878 -0.004514 -0.002811
# 4 -0.002245 0.011771 0.004878 0.035025 -0.004156 -0.005389
# 5 0.003580 -0.003534 -0.004514 -0.004156 0.025409 0.004001
# 6 0.001713 -0.004897 -0.002811 -0.005389 0.004001 0.024544
#
#
# Mechanical properties :
#
#
# Convention : Reuss Voigt Hill
#
# Bulk Modulus (GPa) = 26.99356 59.39247 43.19302
# Shear Modulus (GPa) = 32.55267 44.72183 38.63725
#
# Velocity S-wave (km/s) = 3.72449 4.36549 4.05767
# Velocity P-wave (km/s) = 5.47710 7.12174 6.35287
#
# Compressibility (1/GPa) = 0.03704587
#
# Stress axis : x y z
#
# Youngs Moduli (GPa) = 145.93508 33.65347 99.09645
#
# Poissons Ratio (x) = 0.19841 0.31928
# Poissons Ratio (y) = 0.86037 -0.42724
# Poissons Ratio (z) = 0.47019 -0.14509
#
# Static dielectric constant tensor:
#      x y z
#    x 1.910770 -0.066410 0.083750 
#    y -0.066410 2.132410 -0.082490 
#    z 0.083750 -0.082490 1.971660 
# 
# From -- ./inp_files/381054.got.cif
#   From: 2010.05.17/outbox.cif.g08.bks.cpg/sg2_191_cif.got.tgz:381054.got - 2010.06.03 11:33:40.
