data_PCOD9066899
_publ_section_title
;
Structure prediction by ZEFSAII (Michael W. Deem and Ramdas Pophale) SiO2 
 PCOD9066899
Probable space group: P -1
;
_chemical_formula_sum "Si O2"
_cell_formula_units_Z 14
_cell_length_a 7.687538
_cell_length_b 6.973209
_cell_length_c 13.416562
_cell_angle_alpha 62.621373
_cell_angle_beta 115.124269
_cell_angle_gamma 118.913352
_cell_volume 539.795283
_symmetry_space_group_name_H-M "P -1"
_symmetry_group_IT_number 2
_symmetry_cell_setting 'triclinic'
loop_
_space_group_symop_operation_xyz
x,y,z
-x,-y,-z
loop_
_atom_site_type_symbol
_atom_site_label
_atom_site_fract_x
_atom_site_fract_y
_atom_site_fract_z
Si Si1 0.145816 0.957607 0.629083
Si Si2 0.134772 0.238768 0.891081
Si Si3 0.457376 0.877187 0.627556
Si Si4 0.239596 0.219029 0.118077
Si Si5 0.537102 0.629497 0.373660
Si Si6 0.120893 0.459408 0.195289
Si Si7 0.167391 0.466674 0.628432
O O1 0.206538 0.738428 0.630191
O O2 0.014147 0.786656 0.726602
O O3 0.403590 0.089626 0.633661
O O4 0.000000 0.000000 0.500000
O O5 0.017206 0.386507 0.881164
O O6 0.167709 0.348619 0.764593
O O7 0.983280 0.979953 0.897708
O O8 0.310824 0.251170 0.011924
O O9 0.627599 0.864107 0.751321
O O10 0.417655 0.597701 0.629471
O O11 0.500000 0.000000 0.500000
O O12 0.211798 0.430801 0.117938
O O13 0.500000 0.500000 0.500000
O O14 0.316783 0.592180 0.279502
O O15 0.790542 0.765277 0.366680
O O16 0.000000 0.500000 0.500000
#
# Coordination Sequence:
#
# PCOD9066899 Si02
#       7
#     2   2   2   2   2   2   2
#     4  12  23  40  66 100 142 185 235 296 359 425
#     4  11  25  47  72 102 142 190 240 295 361 433
#     4  12  23  42  66  99 135 178 232 292 354 418
#     4  11  25  47  72 102 142 190 240 295 361 433
#     4  12  23  40  66 100 142 185 235 296 359 425
#     4  12  23  46  70 104 142 188 243 292 361 430
#     4  12  23  42  66  99 135 178 232 292 354 418
#
# _framework density 25.935759000000001
#
# number of rings (size 3 to 8) (size 9 to 14) (size 15 to 20)
#    0.000    0.286    4.286    6.429    0.000    0.571 
#    0.000    0.000    0.000    6.000    0.000    0.000 
#    0.000    0.000    0.000    0.000    0.000    0.000 
#
# Total GULP energy -78089.115792 kJ/mol
# GULP energy per Si atom -5577.793985 kJ/mol
# Density = 2.587673 g / cm^3
# Si number density = 25.935759 Si / 1000 Ang^3
#
#
#
# Elastic Constant Matrix: (Units=GPa)
#
#
# Indices 1 2 3 4 5 6 
#
# 1 122.9003 2.5838 56.4013 12.0304 -17.4415 -38.9761
# 2 2.5838 233.1195 71.0018 17.4325 -7.6894 -4.8966
# 3 56.4013 71.0018 257.7890 36.4296 -19.7878 9.3852
# 4 12.0304 17.4325 36.4296 55.4802 -8.7468 -1.9308
# 5 -17.4415 -7.6894 -19.7878 -8.7468 25.9445 5.7565
# 6 -38.9761 -4.8966 9.3852 -1.9308 5.7565 58.1976
#
#
#
# Elastic Compliance Matrix: (Units=1/GPa)
#
#
# Indices 1 2 3 4 5 6 
#
# 1 0.013030 0.001153 -0.003115 -0.000088 0.004731 0.008855
# 2 0.001153 0.004828 -0.001497 -0.000651 0.000547 0.001344
# 3 -0.003115 -0.001497 0.005555 -0.002358 0.001647 -0.003349
# 4 -0.000088 -0.000651 -0.002358 0.020566 0.004777 0.000476
# 5 0.004731 0.000547 0.001647 0.004777 0.045052 -0.001349
# 6 0.008855 0.001344 -0.003349 0.000476 -0.001349 0.023916
#
#
# Mechanical properties :
#
#
# Convention : Reuss Voigt Hill
#
# Bulk Modulus (GPa) = 60.62612 97.08692 78.85652
# Shear Modulus (GPa) = 39.88403 60.17924 50.03164
#
# Velocity S-wave (km/s) = 3.92573 4.82220 4.39687
# Velocity P-wave (km/s) = 6.63135 8.27766 7.49981
#
# Compressibility (1/GPa) = 0.01649454
#
# Stress axis : x y z
#
# Youngs Moduli (GPa) = 76.74324 207.13626 180.03046
#
# Poissons Ratio (x) = -0.23884 0.56084
# Poissons Ratio (y) = -0.08849 0.26949
# Poissons Ratio (z) = 0.23907 0.31007
#
# Static dielectric constant tensor:
#      x y z
#    x 2.430130 -0.113440 0.043360 
#    y -0.113440 2.426790 0.097250 
#    z 0.043360 0.097250 2.072010 
# 
# From -- ./inp_files/240972.got.cif
#   From: 2010.05.17/outbox.cif.g08.bks.cpg/sg2_121_cif.got.tgz:240972.got - 2010.06.03 11:33:40.
