data_PCOD9066506
_publ_section_title
;
Structure prediction by ZEFSAII (Michael W. Deem and Ramdas Pophale) SiO2 
 PCOD9066506
Probable space group: P -1
;
_chemical_formula_sum "Si O2"
_cell_formula_units_Z 14
_cell_length_a 16.784172
_cell_length_b 5.559009
_cell_length_c 8.973986
_cell_angle_alpha 63.117118
_cell_angle_beta 53.676579
_cell_angle_gamma 59.113056
_cell_volume 565.497554
_symmetry_space_group_name_H-M "P -1"
_symmetry_group_IT_number 2
_symmetry_cell_setting 'triclinic'
loop_
_space_group_symop_operation_xyz
x,y,z
-x,-y,-z
loop_
_atom_site_type_symbol
_atom_site_label
_atom_site_fract_x
_atom_site_fract_y
_atom_site_fract_z
Si Si1 0.613479 0.744485 0.942679
Si Si2 0.031835 0.684154 0.612248
Si Si3 0.429901 0.684219 0.657208
Si Si4 0.177558 0.503950 0.756784
Si Si5 0.158974 0.440887 0.260893
Si Si6 0.372893 0.266020 0.415690
Si Si7 0.882712 0.072914 0.033584
O O1 0.725726 0.787191 0.832470
O O2 0.630904 0.652426 0.775754
O O3 0.611994 0.510495 0.133259
O O4 0.500000 0.000000 0.000000
O O5 0.077198 0.689210 0.721776
O O6 0.118070 0.458742 0.471787
O O7 0.927795 0.607799 0.735692
O O8 0.000000 0.000000 0.500000
O O9 0.500000 0.500000 0.500000
O O10 0.510203 0.766842 0.653410
O O11 0.360684 0.965639 0.565054
O O12 0.280822 0.484152 0.552541
O O13 0.183251 0.671359 0.852817
O O14 0.154183 0.202920 0.866805
O O15 0.144919 0.765732 0.139760
O O16 0.000000 0.000000 0.000000
#
# Coordination Sequence:
#
# PCOD9066506 Si02
#       7
#     2   2   2   2   2   2   2
#     4  12  25  47  75 107 151 200 253 316 387 457
#     4  11  25  46  70 105 149 198 245 314 382 464
#     4  11  25  47  73 104 150 195 255 315 378 458
#     4  12  27  46  77 107 149 199 250 315 386 452
#     4  11  26  45  71 108 149 196 258 310 385 462
#     4  11  26  47  73 106 147 199 253 319 382 452
#     4  12  26  47  76 110 153 198 255 320 383 457
#
# _framework density 24.756957
#
# number of rings (size 3 to 8) (size 9 to 14) (size 15 to 20)
#    0.000    0.571    4.286    2.571    8.000    1.143 
#    2.571    0.000    0.000    0.000    0.000    0.000 
#    0.000    0.000    0.000    0.000    0.000    0.000 
#
# Total GULP energy -78187.812299 kJ/mol
# GULP energy per Si atom -5584.843736 kJ/mol
# Density = 2.470061 g / cm^3
# Si number density = 24.756957 Si / 1000 Ang^3
#
#
#
# Elastic Constant Matrix: (Units=GPa)
#
#
# Indices 1 2 3 4 5 6 
#
# 1 60.8035 18.0961 31.5718 4.3097 -1.0784 -12.3898
# 2 18.0961 81.2299 43.8155 5.6421 -6.9814 1.2564
# 3 31.5718 43.8155 147.0479 15.3558 9.5218 2.1415
# 4 4.3097 5.6421 15.3558 50.4932 -6.1270 -3.6514
# 5 -1.0784 -6.9814 9.5218 -6.1270 52.4381 13.2518
# 6 -12.3898 1.2564 2.1415 -3.6514 13.2518 31.6785
#
#
#
# Elastic Compliance Matrix: (Units=1/GPa)
#
#
# Indices 1 2 3 4 5 6 
#
# 1 0.021116 -0.003014 -0.003679 0.000129 -0.001641 0.009328
# 2 -0.003014 0.015588 -0.004182 -0.000001 0.003528 -0.002991
# 3 -0.003679 -0.004182 0.009253 -0.002398 -0.002285 -0.001219
# 4 0.000129 -0.000001 -0.002398 0.020939 0.002483 0.001587
# 5 -0.001641 0.003528 -0.002285 0.002483 0.022697 -0.009836
# 6 0.009328 -0.002991 -0.001219 0.001587 -0.009836 0.039714
#
#
# Mechanical properties :
#
#
# Convention : Reuss Voigt Hill
#
# Bulk Modulus (GPa) = 41.31167 52.89423 47.10295
# Shear Modulus (GPa) = 31.42171 39.96181 35.69176
#
# Velocity S-wave (km/s) = 3.56646 4.02203 3.80107
# Velocity P-wave (km/s) = 5.80367 6.55597 6.19126
#
# Compressibility (1/GPa) = 0.02420624
#
# Stress axis : x y z
#
# Youngs Moduli (GPa) = 47.35700 64.15300 108.07764
#
# Poissons Ratio (x) = 0.19337 0.39757
# Poissons Ratio (y) = 0.14275 0.45201
# Poissons Ratio (z) = 0.17421 0.26831
#
# Static dielectric constant tensor:
#      x y z
#    x 1.894510 -0.024200 0.138940 
#    y -0.024200 2.269110 -0.021010 
#    z 0.138940 -0.021010 1.813020 
# 
# From -- ./inp_files/89495.got.cif
#   From: 2010.05.17/outbox.cif.g08.bks.cpg/sg2_45_cif.got.tgz:89495.got - 2010.06.03 11:33:40.
