data_PCOD9066695
_publ_section_title
;
Structure prediction by ZEFSAII (Michael W. Deem and Ramdas Pophale) SiO2 
 PCOD9066695
Probable space group: P -1
;
_chemical_formula_sum "Si O2"
_cell_formula_units_Z 16
_cell_length_a 15.163152
_cell_length_b 8.825799
_cell_length_c 7.596626
_cell_angle_alpha 83.985274
_cell_angle_beta 74.023679
_cell_angle_gamma 134.690125
_cell_volume 625.130700
_symmetry_space_group_name_H-M "P -1"
_symmetry_group_IT_number 2
_symmetry_cell_setting 'triclinic'
loop_
_space_group_symop_operation_xyz
x,y,z
-x,-y,-z
loop_
_atom_site_type_symbol
_atom_site_label
_atom_site_fract_x
_atom_site_fract_y
_atom_site_fract_z
Si Si1 0.907046 0.786542 0.717365
Si Si2 0.376215 0.431016 0.181353
Si Si3 0.404185 0.755169 0.685213
Si Si4 0.657772 0.638910 0.405967
Si Si5 0.442404 0.091804 0.060291
Si Si6 0.846338 0.380009 0.633846
Si Si7 0.152467 0.604930 0.754462
Si Si8 0.910691 0.138204 0.102859
O O1 0.759154 0.687261 0.842816
O O2 0.866592 0.569315 0.687680
O O3 0.998881 0.865391 0.828995
O O4 0.000000 0.000000 0.500000
O O5 0.306213 0.282172 0.418014
O O6 0.500000 0.500000 0.000000
O O7 0.473312 0.698274 0.149568
O O8 0.345567 0.540814 0.627175
O O9 0.493505 0.797150 0.792612
O O10 0.263490 0.674563 0.823487
O O11 0.500000 0.000000 0.500000
O O12 0.500000 0.500000 0.500000
O O13 0.760865 0.866584 0.196417
O O14 0.271574 0.875467 0.175576
O O15 0.500000 0.000000 0.000000
O O16 0.781731 0.321705 0.482754
O O17 0.000000 0.500000 0.500000
O O18 0.115616 0.733018 0.799862
O O19 0.011037 0.320748 0.867959
#
# Coordination Sequence:
#
# PCOD9066695 Si02
#       8
#     2   2   2   2   2   2   2   2
#     4  12  25  49  76 104 153 192 244 310 372 442
#     4  12  27  46  73 109 145 196 245 302 370 438
#     4  12  24  45  77 104 146 195 244 309 374 438
#     4  12  27  48  70 108 152 192 249 306 375 441
#     4  12  26  47  74 106 147 190 251 304 365 444
#     4  12  26  45  74 108 145 194 249 303 369 441
#     4  11  25  46  74 105 144 190 252 301 372 438
#     4  11  26  48  72 105 146 194 243 308 367 443
#
# _framework density 25.594646999999998
#
# number of rings (size 3 to 8) (size 9 to 14) (size 15 to 20)
#    0.000    0.250    5.000    3.750    3.500    1.500 
#    2.250    0.000    0.000    0.000    0.000    0.000 
#    0.000    0.000    0.000    0.000    0.000    0.000 
#
# Total GULP energy -89566.619586 kJ/mol
# GULP energy per Si atom -5597.913724 kJ/mol
# Density = 2.553639 g / cm^3
# Si number density = 25.594647 Si / 1000 Ang^3
#
#
#
# Elastic Constant Matrix: (Units=GPa)
#
#
# Indices 1 2 3 4 5 6 
#
# 1 138.5551 19.1143 20.2692 -10.9165 -28.1999 12.6072
# 2 19.1143 60.2177 37.8894 -25.8741 -7.3751 0.2902
# 3 20.2692 37.8894 106.5301 -35.4742 -11.0484 -1.2625
# 4 -10.9165 -25.8741 -35.4742 63.3403 5.1411 -3.3071
# 5 -28.1999 -7.3751 -11.0484 5.1411 43.9244 -10.5573
# 6 12.6072 0.2902 -1.2625 -3.3071 -10.5573 40.8789
#
#
#
# Elastic Compliance Matrix: (Units=1/GPa)
#
#
# Indices 1 2 3 4 5 6 
#
# 1 0.008647 -0.001831 -0.000520 -0.000011 0.004768 -0.001439
# 2 -0.001831 0.023598 -0.005964 0.005966 0.000805 0.000904
# 3 -0.000520 -0.005964 0.013460 0.004942 0.001830 0.001491
# 4 -0.000011 0.005966 0.004942 0.021070 0.000222 0.001876
# 5 0.004768 0.000805 0.001830 0.000222 0.027785 0.005774
# 6 -0.001439 0.000904 0.001491 0.001876 0.005774 0.026589
#
#
# Mechanical properties :
#
#
# Convention : Reuss Voigt Hill
#
# Bulk Modulus (GPa) = 34.39465 51.09429 42.74447
# Shear Modulus (GPa) = 33.90501 44.83070 39.36786
#
# Velocity S-wave (km/s) = 3.64358 4.18971 3.92615
# Velocity P-wave (km/s) = 5.58286 6.58871 6.10653
#
# Compressibility (1/GPa) = 0.02907429
#
# Stress axis : x y z
#
# Youngs Moduli (GPa) = 115.65214 42.37696 74.29267
#
# Poissons Ratio (x) = 0.07760 0.03864
# Poissons Ratio (y) = 0.21179 0.44306
# Poissons Ratio (z) = 0.06016 0.25273
#
# Static dielectric constant tensor:
#      x y z
#    x 1.954420 0.111230 0.001180 
#    y 0.111230 2.045520 0.064230 
#    z 0.001180 0.064230 2.006520 
# 
# From -- ./inp_files/298218.got.cif
#   From: 2010.05.17/outbox.cif.g08.bks.cpg/sg2_150_cif.got.tgz:298218.got - 2010.06.03 11:33:40.
