data_PCOD9066408
_publ_section_title
;
Structure prediction by ZEFSAII (Michael W. Deem and Ramdas Pophale) SiO2 
 PCOD9066408
Probable space group: P -1
;
_chemical_formula_sum "Si O2"
_cell_formula_units_Z 14
_cell_length_a 10.275704
_cell_length_b 17.987594
_cell_length_c 7.191916
_cell_angle_alpha 115.816796
_cell_angle_beta 110.733014
_cell_angle_gamma 28.146347
_cell_volume 563.077217
_symmetry_space_group_name_H-M "P -1"
_symmetry_group_IT_number 2
_symmetry_cell_setting 'triclinic'
loop_
_space_group_symop_operation_xyz
x,y,z
-x,-y,-z
loop_
_atom_site_type_symbol
_atom_site_label
_atom_site_fract_x
_atom_site_fract_y
_atom_site_fract_z
Si Si1 0.118136 0.542353 0.459766
Si Si2 0.443595 0.941254 0.999157
Si Si3 0.005258 0.424975 0.138859
Si Si4 0.731042 0.258533 0.367029
Si Si5 0.049992 0.019683 0.739599
Si Si6 0.456094 0.607918 0.980377
Si Si7 0.186446 0.136018 0.441565
O O1 0.997795 0.591919 0.659061
O O2 0.449251 0.383429 0.470252
O O3 0.041169 0.505120 0.246661
O O4 0.979074 0.695497 0.481907
O O5 0.310077 0.947403 0.792278
O O6 0.727835 0.755777 0.008302
O O7 0.500000 0.000000 0.000000
O O8 0.231024 0.063687 0.192459
O O9 0.731241 0.522555 0.031199
O O10 0.861580 0.102202 0.216123
O O11 0.978091 0.184522 0.505283
O O12 0.626514 0.361762 0.244277
O O13 0.000000 0.000000 0.500000
O O14 0.786757 0.210005 0.862941
O O15 0.500000 0.500000 0.000000
O O16 0.500000 0.000000 0.500000
#
# Coordination Sequence:
#
# PCOD9066408 Si02
#       7
#     2   2   2   2   2   2   2
#     4  11  25  49  72 112 147 204 252 318 377 469
#     4  12  25  50  75 112 153 200 258 322 385 464
#     4  11  25  45  77 106 152 196 259 308 388 452
#     4  12  27  50  77 111 159 195 265 315 387 462
#     4  12  28  49  80 113 153 209 257 317 392 457
#     4  12  27  48  77 113 154 204 255 320 392 458
#     4  12  29  46  76 110 153 198 255 320 391 456
#
# _framework density 24.863374
#
# number of rings (size 3 to 8) (size 9 to 14) (size 15 to 20)
#    0.000    0.286    4.286    3.429    8.000    1.714 
#    0.000    0.000    0.000    0.000    0.000    0.000 
#    0.000    0.000    0.000    0.000    0.000    0.000 
#
# Total GULP energy -78451.764913 kJ/mol
# GULP energy per Si atom -5603.697494 kJ/mol
# Density = 2.480678 g / cm^3
# Si number density = 24.863374 Si / 1000 Ang^3
#
#
#
# Elastic Constant Matrix: (Units=GPa)
#
#
# Indices 1 2 3 4 5 6 
#
# 1 168.2934 74.4706 28.2570 7.5264 37.8853 -7.5134
# 2 74.4706 171.1132 32.5578 22.7221 27.7004 -20.3088
# 3 28.2570 32.5578 70.4989 8.3960 11.4948 -1.3505
# 4 7.5264 22.7221 8.3960 58.0359 -2.7320 11.9428
# 5 37.8853 27.7004 11.4948 -2.7320 38.3041 -6.2121
# 6 -7.5134 -20.3088 -1.3505 11.9428 -6.2121 63.0539
#
#
#
# Elastic Compliance Matrix: (Units=1/GPa)
#
#
# Indices 1 2 3 4 5 6 
#
# 1 0.008726 -0.002531 -0.001255 -0.000181 -0.006504 -0.000409
# 2 -0.002531 0.008587 -0.002015 -0.003453 -0.002896 0.002790
# 3 -0.001255 -0.002015 0.016156 -0.001410 -0.002318 -0.000414
# 4 -0.000181 -0.003453 -0.001410 0.019928 0.003780 -0.004566
# 5 -0.006504 -0.002896 -0.002318 0.003780 0.035769 0.001051
# 6 -0.000409 0.002790 -0.000414 -0.004566 0.001051 0.017669
#
#
# Mechanical properties :
#
#
# Convention : Reuss Voigt Hill
#
# Bulk Modulus (GPa) = 45.72570 75.60848 60.66709
# Shear Modulus (GPa) = 39.76927 50.18678 44.97803
#
# Velocity S-wave (km/s) = 4.00373 4.49765 4.25786
# Velocity P-wave (km/s) = 6.30903 7.57941 6.97321
#
# Compressibility (1/GPa) = 0.02186954
#
# Stress axis : x y z
#
# Youngs Moduli (GPa) = 114.59424 116.45158 61.89720
#
# Poissons Ratio (x) = 0.29470 0.07767
# Poissons Ratio (y) = 0.29000 0.12469
# Poissons Ratio (z) = 0.14379 0.23460
#
# Static dielectric constant tensor:
#      x y z
#    x 2.007740 -0.002610 -0.015770 
#    y -0.002610 1.959860 -0.071150 
#    z -0.015770 -0.071150 1.994880 
# 
# From -- ./inp_files/218368.got.cif
#   From: 2010.05.17/outbox.cif.g08.bks.cpg/sg2_110_cif.got.tgz:218368.got - 2010.06.03 11:33:40.
