data_PCOD9066902
_publ_section_title
;
Structure prediction by ZEFSAII (Michael W. Deem and Ramdas Pophale) SiO2 
 PCOD9066902
Probable space group: P -1
;
_chemical_formula_sum "Si O2"
_cell_formula_units_Z 13
_cell_length_a 8.919763
_cell_length_b 9.515738
_cell_length_c 16.747360
_cell_angle_alpha 137.036144
_cell_angle_beta 144.767757
_cell_angle_gamma 61.296576
_cell_volume 533.366171
_symmetry_space_group_name_H-M "P -1"
_symmetry_group_IT_number 2
_symmetry_cell_setting 'triclinic'
loop_
_space_group_symop_operation_xyz
x,y,z
-x,-y,-z
loop_
_atom_site_type_symbol
_atom_site_label
_atom_site_fract_x
_atom_site_fract_y
_atom_site_fract_z
Si Si1 0.792553 0.030068 0.486269
Si Si2 0.000000 0.500000 0.000000
Si Si3 0.761661 0.607610 0.100858
Si Si4 0.428225 0.225700 0.572946
Si Si5 0.430845 0.888158 0.008080
Si Si6 0.151203 0.379808 0.366638
Si Si7 0.429838 0.168773 0.274176
O O1 0.514029 0.022673 0.317256
O O2 0.944529 0.274437 0.683206
O O3 0.753017 0.841175 0.454909
O O4 0.000000 0.000000 0.500000
O O5 0.826801 0.475621 0.000264
O O6 0.293000 0.588386 0.212299
O O7 0.500000 0.500000 0.000000
O O8 0.681325 0.810653 0.113336
O O9 0.264152 0.272130 0.445407
O O10 0.500000 0.000000 0.500000
O O11 0.170817 0.681386 0.796760
O O12 0.500000 0.000000 0.000000
O O13 0.356381 0.038561 0.105994
O O14 0.227391 0.278885 0.275540
O O15 0.304483 0.630986 0.543427
#
# Coordination Sequence:
#
# PCOD9066902 Si02
#       7
#     2   1   2   2   2   2   2
#     4  12  23  47  73 104 146 190 248 300 365 431
#     4  12  28  46  78 112 146 182 256 306 368 432
#     4  12  26  48  76 113 146 194 250 307 365 438
#     4  12  25  46  75 105 142 189 242 307 360 433
#     4  12  28  47  69 105 152 191 236 297 371 438
#     4  11  26  47  72 108 144 189 246 294 366 438
#     4  11  25  47  72 103 145 196 236 302 363 429
#
# _framework density 24.3735
#
# number of rings (size 3 to 8) (size 9 to 14) (size 15 to 20)
#    0.000    0.308    4.615    3.231    2.154    1.846 
#    0.000    0.000    0.000    0.000    0.000    0.000 
#    0.000    0.000    0.000    0.000    0.000    0.000 
#
# Total GULP energy -72473.248857 kJ/mol
# GULP energy per Si atom -5574.865297 kJ/mol
# Density = 2.431802 g / cm^3
# Si number density = 24.373500 Si / 1000 Ang^3
#
#
#
# Elastic Constant Matrix: (Units=GPa)
#
#
# Indices 1 2 3 4 5 6 
#
# 1 140.3396 8.4371 36.6331 5.2716 -4.0312 35.8679
# 2 8.4371 71.1606 5.0474 0.5431 -11.2002 20.5743
# 3 36.6331 5.0474 113.0912 -1.8946 3.8715 15.3579
# 4 5.2716 0.5431 -1.8946 25.3186 10.1854 3.1849
# 5 -4.0312 -11.2002 3.8715 10.1854 45.9626 -5.6504
# 6 35.8679 20.5743 15.3579 3.1849 -5.6504 32.3005
#
#
#
# Elastic Compliance Matrix: (Units=1/GPa)
#
#
# Indices 1 2 3 4 5 6 
#
# 1 0.010695 0.002526 -0.001926 -0.001036 0.000422 -0.012394
# 2 0.002526 0.018251 0.000150 -0.000370 0.003025 -0.013936
# 3 -0.001926 0.000150 0.010008 0.002320 -0.001892 -0.003275
# 4 -0.001036 -0.000370 0.002320 0.045141 -0.011132 -0.006115
# 5 0.000422 0.003025 -0.001892 -0.011132 0.025660 0.004091
# 6 -0.012394 -0.013936 -0.003275 -0.006115 0.004091 0.056474
#
#
# Mechanical properties :
#
#
# Convention : Reuss Voigt Hill
#
# Bulk Modulus (GPa) = 24.71937 47.20296 35.96116
# Shear Modulus (GPa) = 28.05621 39.01458 33.53540
#
# Velocity S-wave (km/s) = 3.39646 4.00521 3.71333
# Velocity P-wave (km/s) = 5.05422 6.38729 5.75946
#
# Compressibility (1/GPa) = 0.04045411
#
# Stress axis : x y z
#
# Youngs Moduli (GPa) = 93.50162 54.79232 99.92043
#
# Poissons Ratio (x) = -0.13841 0.19243
# Poissons Ratio (y) = -0.23620 -0.01498
# Poissons Ratio (z) = 0.18007 -0.00821
#
# Static dielectric constant tensor:
#      x y z
#    x 2.007120 0.051690 -0.068100 
#    y 0.051690 1.931230 0.041520 
#    z -0.068100 0.041520 1.859050 
# 
# From -- ./inp_files/173740.got.cif
#   From: 2010.05.17/outbox.cif.g08.bks.cpg/sg2_87_cif.got.tgz:173740.got - 2010.06.03 11:33:40.
