data_PCOD9066168
_publ_section_title
;
Structure prediction by ZEFSAII (Michael W. Deem and Ramdas Pophale) SiO2 
 PCOD9066168
Probable space group: P -1
;
_chemical_formula_sum "Si O2"
_cell_formula_units_Z 16
_cell_length_a 12.102905
_cell_length_b 9.422465
_cell_length_c 9.666324
_cell_angle_alpha 70.635266
_cell_angle_beta 98.953404
_cell_angle_gamma 129.806818
_cell_volume 796.473948
_symmetry_space_group_name_H-M "P -1"
_symmetry_group_IT_number 2
_symmetry_cell_setting 'triclinic'
loop_
_space_group_symop_operation_xyz
x,y,z
-x,-y,-z
loop_
_atom_site_type_symbol
_atom_site_label
_atom_site_fract_x
_atom_site_fract_y
_atom_site_fract_z
Si Si1 0.393485 0.436755 0.875292
Si Si2 0.356007 0.748410 0.678856
Si Si3 0.855166 0.264266 0.880051
Si Si4 0.614054 0.179546 0.658543
Si Si5 0.114274 0.715697 0.802936
Si Si6 0.090549 0.175984 0.349029
Si Si7 0.867835 0.941730 0.903946
Si Si8 0.427826 0.535371 0.355547
O O1 0.348100 0.571511 0.792892
O O2 0.486093 0.450777 0.763553
O O3 0.500000 0.500000 0.000000
O O4 0.260469 0.227129 0.970572
O O5 0.335197 0.730664 0.514853
O O6 0.242671 0.771057 0.711482
O O7 0.511802 0.949155 0.686696
O O8 0.736058 0.250730 0.772791
O O9 0.003004 0.482022 0.848054
O O10 0.870475 0.122839 0.846639
O O11 0.822484 0.209580 0.053902
O O12 0.535695 0.259915 0.676075
O O13 0.016314 0.775296 0.722496
O O14 0.122933 0.116504 0.230177
O O15 0.252562 0.363459 0.369990
O O16 0.000000 0.000000 0.500000
O O17 0.000000 0.000000 0.000000
O O18 0.500000 0.500000 0.500000
#
# Coordination Sequence:
#
# PCOD9066168 Si02
#       8
#     2   2   2   2   2   2   2   2
#     4  12  26  46  73 104 145 191 237 301 351 416
#     4  11  27  45  69 104 145 185 235 294 352 421
#     4  11  25  45  70 100 140 186 232 288 350 420
#     4  11  26  46  70 103 142 189 235 286 357 419
#     4  11  26  47  69 103 144 182 234 294 352 421
#     4  12  29  48  73 106 144 188 237 300 357 424
#     4  12  26  46  72 105 143 188 240 289 358 423
#     4  12  27  48  72 105 144 186 242 289 355 427
#
# _framework density 20.088539999999998
#
# number of rings (size 3 to 8) (size 9 to 14) (size 15 to 20)
#    0.000    0.500    5.000    1.500   10.500    2.000 
#    0.000    0.000    0.000    0.000    0.000    0.000 
#    0.000    0.000    0.000    0.000    0.000    0.000 
#
# Total GULP energy -89293.426537 kJ/mol
# GULP energy per Si atom -5580.839159 kJ/mol
# Density = 2.004282 g / cm^3
# Si number density = 20.088540 Si / 1000 Ang^3
#
#
#
# Elastic Constant Matrix: (Units=GPa)
#
#
# Indices 1 2 3 4 5 6 
#
# 1 113.3474 23.8390 53.0531 13.4253 2.0602 -10.6312
# 2 23.8390 68.8734 36.4730 6.1000 -0.6678 -8.0304
# 3 53.0531 36.4730 135.5478 18.8008 -4.4766 1.0560
# 4 13.4253 6.1000 18.8008 33.9840 2.7925 4.9054
# 5 2.0602 -0.6678 -4.4766 2.7925 40.3753 0.3601
# 6 -10.6312 -8.0304 1.0560 4.9054 0.3601 49.2187
#
#
#
# Elastic Compliance Matrix: (Units=1/GPa)
#
#
# Indices 1 2 3 4 5 6 
#
# 1 0.011455 -0.001441 -0.003803 -0.002461 -0.000883 0.002572
# 2 -0.001441 0.017560 -0.004086 -0.000708 -0.000064 0.002713
# 3 -0.003803 -0.004086 0.010514 -0.003509 0.001547 -0.001375
# 4 -0.002461 -0.000708 -0.003509 0.033233 -0.002539 -0.003866
# 5 -0.000883 -0.000064 0.001547 -0.002539 0.025160 -0.000165
# 6 0.002572 0.002713 -0.001375 -0.003866 -0.000165 0.021732
#
#
# Mechanical properties :
#
#
# Convention : Reuss Voigt Hill
#
# Bulk Modulus (GPa) = 47.92054 60.49987 54.21020
# Shear Modulus (GPa) = 34.41837 38.34251 36.38044
#
# Velocity S-wave (km/s) = 4.14373 4.37358 4.26021
# Velocity P-wave (km/s) = 6.84109 7.46232 7.15845
#
# Compressibility (1/GPa) = 0.02086788
#
# Stress axis : x y z
#
# Youngs Moduli (GPa) = 87.30170 56.94611 95.11043
#
# Poissons Ratio (x) = 0.08208 0.36173
# Poissons Ratio (y) = 0.12583 0.38862
# Poissons Ratio (z) = 0.33203 0.23268
#
# Static dielectric constant tensor:
#      x y z
#    x 1.645430 -0.006820 -0.020560 
#    y -0.006820 1.700710 -0.004820 
#    z -0.020560 -0.004820 1.657400 
# 
# From -- ./inp_files/187764.got.cif
#   From: 2010.05.17/outbox.cif.g08.bks.cpg/sg2_94_cif.got.tgz:187764.got - 2010.06.03 11:33:40.
