data_PCOD9066823
_publ_section_title
;
Structure prediction by ZEFSAII (Michael W. Deem and Ramdas Pophale) SiO2 
 PCOD9066823
Probable space group: P -1
;
_chemical_formula_sum "Si O2"
_cell_formula_units_Z 13
_cell_length_a 9.486306
_cell_length_b 12.316043
_cell_length_c 8.466063
_cell_angle_alpha 131.219973
_cell_angle_beta 113.189979
_cell_angle_gamma 38.905856
_cell_volume 452.197077
_symmetry_space_group_name_H-M "P -1"
_symmetry_group_IT_number 2
_symmetry_cell_setting 'triclinic'
loop_
_space_group_symop_operation_xyz
x,y,z
-x,-y,-z
loop_
_atom_site_type_symbol
_atom_site_label
_atom_site_fract_x
_atom_site_fract_y
_atom_site_fract_z
Si Si1 0.212399 0.452626 0.102333
Si Si2 0.748565 0.668343 0.474438
Si Si3 0.709993 0.080202 0.358501
Si Si4 0.500000 0.500000 0.500000
Si Si5 0.830572 0.321686 0.990038
Si Si6 0.090305 0.180516 0.471446
Si Si7 0.317776 0.826291 0.011912
O O1 0.469154 0.213192 0.965808
O O2 0.161153 0.571006 0.359565
O O3 0.229009 0.571111 0.101829
O O4 0.000000 0.500000 0.000000
O O5 0.533004 0.833148 0.654251
O O6 0.756012 0.506342 0.244097
O O7 0.751236 0.790664 0.459913
O O8 0.000000 0.500000 0.500000
O O9 0.628816 0.299128 0.497496
O O10 0.826519 0.962440 0.470325
O O11 0.893268 0.902358 0.133602
O O12 0.355001 0.691757 0.756113
O O13 0.705898 0.266312 0.938679
O O14 0.110870 0.077955 0.219561
#
# Coordination Sequence:
#
# PCOD9066823 Si02
#       7
#     2   2   2   1   2   2   2
#     4  11  25  46  79 119 156 204 268 325 394 482
#     4  12  27  47  78 118 163 208 261 334 402 474
#     4  11  28  49  78 112 158 207 269 318 398 482
#     4  12  30  50  76 114 164 206 266 340 390 466
#     4  11  26  48  79 113 160 208 260 331 402 474
#     4  11  28  48  85 115 157 214 263 323 407 480
#     4  12  29  48  80 115 162 210 266 337 397 471
#
# _framework density 28.748526999999999
#
# number of rings (size 3 to 8) (size 9 to 14) (size 15 to 20)
#    0.000    0.615    3.077    1.846   12.923    2.462 
#    0.000    0.000    0.000    0.000    0.000    0.000 
#    0.000    0.000    0.000    0.000    0.000    0.000 
#
# Total GULP energy -72478.763859 kJ/mol
# GULP energy per Si atom -5575.289528 kJ/mol
# Density = 2.868309 g / cm^3
# Si number density = 28.748527 Si / 1000 Ang^3
#
#
#
# Elastic Constant Matrix: (Units=GPa)
#
#
# Indices 1 2 3 4 5 6 
#
# 1 185.9566 39.7622 82.1631 17.3543 -38.3138 -3.5400
# 2 39.7622 124.3460 36.4523 15.5280 -14.2946 12.3986
# 3 82.1631 36.4523 231.9171 15.4377 -28.5740 -11.6704
# 4 17.3543 15.5280 15.4377 47.2314 -2.8461 -7.0910
# 5 -38.3138 -14.2946 -28.5740 -2.8461 58.2425 22.3379
# 6 -3.5400 12.3986 -11.6704 -7.0910 22.3379 61.6017
#
#
#
# Elastic Compliance Matrix: (Units=1/GPa)
#
#
# Indices 1 2 3 4 5 6 
#
# 1 0.007431 -0.000968 -0.001922 -0.001751 0.004183 -0.001461
# 2 -0.000968 0.009573 -0.000838 -0.002875 0.002450 -0.003360
# 3 -0.001922 -0.000838 0.005302 -0.000597 0.000837 0.000690
# 4 -0.001751 -0.002875 -0.000597 0.023401 -0.002532 0.003977
# 5 0.004183 0.002450 0.000837 -0.002532 0.024343 -0.009213
# 6 -0.001461 -0.003360 0.000690 0.003977 -0.009213 0.020755
#
#
# Mechanical properties :
#
#
# Convention : Reuss Voigt Hill
#
# Bulk Modulus (GPa) = 67.33461 95.44164 81.38812
# Shear Modulus (GPa) = 48.44483 59.00460 53.72472
#
# Velocity S-wave (km/s) = 4.10948 4.53530 4.32763
# Velocity P-wave (km/s) = 6.78158 7.79077 7.30363
#
# Compressibility (1/GPa) = 0.01485120
#
# Stress axis : x y z
#
# Youngs Moduli (GPa) = 134.56752 104.46254 188.60096
#
# Poissons Ratio (x) = 0.10108 0.36253
# Poissons Ratio (y) = 0.13021 0.15799
# Poissons Ratio (z) = 0.25867 0.08751
#
# Static dielectric constant tensor:
#      x y z
#    x 1.788400 -0.106740 0.030470 
#    y -0.106740 2.877850 -0.009210 
#    z 0.030470 -0.009210 2.215900 
# 
# From -- ./inp_files/190858.got.cif
#   From: 2010.05.17/outbox.cif.g08.bks.cpg/sg2_96_cif.got.tgz:190858.got - 2010.06.03 11:33:40.
