data_PCOD9066326
_publ_section_title
;
Structure prediction by ZEFSAII (Michael W. Deem and Ramdas Pophale) SiO2 
 PCOD9066326
Probable space group: P -1
;
_chemical_formula_sum "Si O2"
_cell_formula_units_Z 14
_cell_length_a 11.561998
_cell_length_b 15.556587
_cell_length_c 9.522254
_cell_angle_alpha 145.930279
_cell_angle_beta 140.634221
_cell_angle_gamma 47.678430
_cell_volume 605.950653
_symmetry_space_group_name_H-M "P -1"
_symmetry_group_IT_number 2
_symmetry_cell_setting 'triclinic'
loop_
_space_group_symop_operation_xyz
x,y,z
-x,-y,-z
loop_
_atom_site_type_symbol
_atom_site_label
_atom_site_fract_x
_atom_site_fract_y
_atom_site_fract_z
Si Si1 0.854686 0.951471 0.409429
Si Si2 0.582813 0.120528 0.552185
Si Si3 0.993686 0.473607 0.292307
Si Si4 0.534135 0.210522 0.933011
Si Si5 0.892897 0.291995 0.510459
Si Si6 0.650476 0.752467 0.751375
Si Si7 0.670545 0.460199 0.774685
O O1 0.953177 0.819761 0.421402
O O2 0.775489 0.098267 0.623054
O O3 0.690805 0.883481 0.077525
O O4 0.000000 0.000000 0.500000
O O5 0.572362 0.223170 0.819774
O O6 0.427731 0.178171 0.374296
O O7 0.558474 0.945397 0.339447
O O8 0.034024 0.623153 0.440797
O O9 0.156700 0.346307 0.228799
O O10 0.000000 0.500000 0.500000
O O11 0.795993 0.437321 0.000063
O O12 0.725967 0.198948 0.178007
O O13 0.413886 0.363979 0.075155
O O14 0.803065 0.413249 0.704890
O O15 0.497341 0.645894 0.519156
#
# Coordination Sequence:
#
# PCOD9066326 Si02
#       7
#     2   2   2   2   2   2   2
#     4  12  26  47  74 109 152 198 248 300 369 451
#     4  11  26  45  69 105 151 197 243 300 375 446
#     4  12  28  44  73 114 152 188 242 310 378 435
#     4  11  25  45  74 104 146 196 245 307 374 434
#     4  12  25  46  78 109 146 195 249 310 370 435
#     4  12  26  47  75 108 147 195 252 304 369 435
#     4  12  25  48  79 107 146 190 254 312 365 436
#
# _framework density 23.104192000000001
#
# number of rings (size 3 to 8) (size 9 to 14) (size 15 to 20)
#    0.000    0.286    2.857    5.571    4.000    2.857 
#    0.000    0.000    0.000    0.000    0.000    0.000 
#    0.000    0.000    0.000    0.000    0.000    0.000 
#
# Total GULP energy -78513.617233 kJ/mol
# GULP energy per Si atom -5608.115517 kJ/mol
# Density = 2.305161 g / cm^3
# Si number density = 23.104192 Si / 1000 Ang^3
#
#
#
# Elastic Constant Matrix: (Units=GPa)
#
#
# Indices 1 2 3 4 5 6 
#
# 1 70.5217 18.4920 32.8447 -11.6903 -1.8193 11.3496
# 2 18.4920 108.0977 16.2915 -20.1027 -1.0067 5.6575
# 3 32.8447 16.2915 93.4900 -23.5040 -2.4473 2.1926
# 4 -11.6903 -20.1027 -23.5040 42.8880 12.9342 4.5004
# 5 -1.8193 -1.0067 -2.4473 12.9342 39.6944 -11.5730
# 6 11.3496 5.6575 2.1926 4.5004 -11.5730 34.7877
#
#
#
# Elastic Compliance Matrix: (Units=1/GPa)
#
#
# Indices 1 2 3 4 5 6 
#
# 1 0.018591 -0.001518 -0.005481 0.002755 -0.002349 -0.006611
# 2 -0.001518 0.010676 0.000103 0.005683 -0.002461 -0.002801
# 3 -0.005481 0.000103 0.014341 0.007041 -0.001851 -0.000659
# 4 0.002755 0.005683 0.007041 0.036208 -0.014529 -0.011784
# 5 -0.002349 -0.002461 -0.001851 -0.014529 0.033848 0.014423
# 6 -0.006611 -0.002801 -0.000659 -0.011784 0.014423 0.037722
#
#
# Mechanical properties :
#
#
# Convention : Reuss Voigt Hill
#
# Bulk Modulus (GPa) = 33.53925 45.26286 39.40106
# Shear Modulus (GPa) = 28.55265 37.10609 32.82937
#
# Velocity S-wave (km/s) = 3.51924 4.01188 3.77361
# Velocity P-wave (km/s) = 5.57328 6.41042 6.00645
#
# Compressibility (1/GPa) = 0.02981581
#
# Stress axis : x y z
#
# Youngs Moduli (GPa) = 53.79088 93.67227 69.73011
#
# Poissons Ratio (x) = 0.14218 0.38216
# Poissons Ratio (y) = 0.08165 -0.00717
# Poissons Ratio (z) = 0.29481 -0.00964
#
# Static dielectric constant tensor:
#      x y z
#    x 1.903000 0.016580 0.009030 
#    y 0.016580 1.827260 0.022680 
#    z 0.009030 0.022680 1.863200 
# 
# From -- ./inp_files/269366.got.cif
#   From: 2010.05.17/outbox.cif.g08.bks.cpg/sg2_135_cif.got.tgz:269366.got - 2010.06.03 11:33:40.
