data_PCOD9066590
_publ_section_title
;
Structure prediction by ZEFSAII (Michael W. Deem and Ramdas Pophale) SiO2 
 PCOD9066590
Probable space group: P -1
;
_chemical_formula_sum "Si O2"
_cell_formula_units_Z 16
_cell_length_a 12.352084
_cell_length_b 17.937965
_cell_length_c 8.986598
_cell_angle_alpha 119.807036
_cell_angle_beta 48.156131
_cell_angle_gamma 151.436129
_cell_volume 686.841223
_symmetry_space_group_name_H-M "P -1"
_symmetry_group_IT_number 2
_symmetry_cell_setting 'triclinic'
loop_
_space_group_symop_operation_xyz
x,y,z
-x,-y,-z
loop_
_atom_site_type_symbol
_atom_site_label
_atom_site_fract_x
_atom_site_fract_y
_atom_site_fract_z
Si Si1 0.039509 0.426275 0.731730
Si Si2 0.912841 0.023946 0.726182
Si Si3 0.338233 0.996463 0.569947
Si Si4 0.871070 0.850061 0.030289
Si Si5 0.396600 0.648229 0.874985
Si Si6 0.383190 0.523414 0.033861
Si Si7 0.895935 0.351554 0.456402
Si Si8 0.226303 0.878275 0.221092
O O1 0.997445 0.374114 0.549847
O O2 0.919575 0.286574 0.797200
O O3 0.327693 0.590624 0.709086
O O4 0.864544 0.427035 0.904308
O O5 0.635641 0.839006 0.856507
O O6 0.097382 0.131723 0.805833
O O7 0.909780 0.113803 0.738010
O O8 0.000000 0.000000 0.500000
O O9 0.573484 0.186179 0.557948
O O10 0.500000 0.000000 0.500000
O O11 0.275947 0.941372 0.402899
O O12 0.063830 0.877546 0.795804
O O13 0.560119 0.685700 0.110119
O O14 0.000000 0.000000 0.000000
O O15 0.434536 0.579674 0.870062
O O16 0.064737 0.377096 0.211680
O O17 0.500000 0.500000 0.000000
O O18 0.000000 0.500000 0.500000
O O19 0.500000 0.000000 0.000000
#
# Coordination Sequence:
#
# PCOD9066590 Si02
#       8
#     2   2   2   2   2   2   2   2
#     4  11  25  46  72 104 141 182 238 301 348 421
#     4  12  27  45  70 103 143 189 232 286 361 429
#     4  12  25  45  73 101 139 185 242 299 341 416
#     4  12  25  49  71  97 144 191 235 293 356 421
#     4  11  25  48  69 102 147 183 231 298 359 421
#     4  12  28  44  70 105 144 184 231 292 362 423
#     4  12  25  44  72 102 135 188 243 286 346 423
#     4  12  26  43  73 107 138 182 242 295 352 416
#
# _framework density 23.295048999999999
#
# number of rings (size 3 to 8) (size 9 to 14) (size 15 to 20)
#    0.000    0.250    5.000    3.750    7.000    0.000 
#    0.000    1.250    0.000    0.000    0.000    0.000 
#    0.000    0.000    0.000    0.000    0.000    0.000 
#
# Total GULP energy -89324.934358 kJ/mol
# GULP energy per Si atom -5582.808397 kJ/mol
# Density = 2.324203 g / cm^3
# Si number density = 23.295049 Si / 1000 Ang^3
#
#
#
# Elastic Constant Matrix: (Units=GPa)
#
#
# Indices 1 2 3 4 5 6 
#
# 1 125.7029 -0.7543 6.4861 5.7479 15.4304 -18.2488
# 2 -0.7543 86.0974 -17.5835 0.5197 7.0045 -1.9113
# 3 6.4861 -17.5835 77.0236 6.2255 6.6343 10.5873
# 4 5.7479 0.5197 6.2255 28.3721 6.0459 5.4573
# 5 15.4304 7.0045 6.6343 6.0459 42.5377 16.8595
# 6 -18.2488 -1.9113 10.5873 5.4573 16.8595 57.6151
#
#
#
# Elastic Compliance Matrix: (Units=1/GPa)
#
#
# Indices 1 2 3 4 5 6 
#
# 1 0.009373 0.000445 -0.000781 -0.001581 -0.005006 0.004742
# 2 0.000445 0.012494 0.002986 -0.000518 -0.002978 0.000927
# 3 -0.000781 0.002986 0.014329 -0.002354 -0.001238 -0.002196
# 4 -0.001581 -0.000518 -0.002354 0.037292 -0.003213 -0.002677
# 5 -0.005006 -0.002978 -0.001238 -0.003213 0.030454 -0.010064
# 6 0.004742 0.000927 -0.002196 -0.002677 -0.010064 0.022491
#
#
# Mechanical properties :
#
#
# Convention : Reuss Voigt Hill
#
# Bulk Modulus (GPa) = 24.09801 29.45781 26.77791
# Shear Modulus (GPa) = 37.04627 45.75003 41.39815
#
# Velocity S-wave (km/s) = 3.99219 4.43644 4.22017
# Velocity P-wave (km/s) = 5.62292 6.23824 5.93856
#
# Compressibility (1/GPa) = 0.04149720
#
# Stress axis : x y z
#
# Youngs Moduli (GPa) = 106.68432 80.03552 69.78759
#
# Poissons Ratio (x) = -0.03560 0.05447
# Poissons Ratio (y) = -0.04745 -0.20837
# Poissons Ratio (z) = 0.08327 -0.23897
#
# Static dielectric constant tensor:
#      x y z
#    x 1.934850 -0.057430 0.020450 
#    y -0.057430 1.936940 -0.035030 
#    z 0.020450 -0.035030 1.966880 
# 
# From -- ./inp_files/274703.got.cif
#   From: 2010.05.17/outbox.cif.g08.bks.cpg/sg2_138_cif.got.tgz:274703.got - 2010.06.03 11:33:40.
