data_PCOD9066194
_publ_section_title
;
Structure prediction by ZEFSAII (Michael W. Deem and Ramdas Pophale) SiO2 
 PCOD9066194
Probable space group: P -1
;
_chemical_formula_sum "Si O2"
_cell_formula_units_Z 14
_cell_length_a 24.862152
_cell_length_b 12.726629
_cell_length_c 5.020900
_cell_angle_alpha 110.956092
_cell_angle_beta 85.858197
_cell_angle_gamma 153.122581
_cell_volume 544.173727
_symmetry_space_group_name_H-M "P -1"
_symmetry_group_IT_number 2
_symmetry_cell_setting 'triclinic'
loop_
_space_group_symop_operation_xyz
x,y,z
-x,-y,-z
loop_
_atom_site_type_symbol
_atom_site_label
_atom_site_fract_x
_atom_site_fract_y
_atom_site_fract_z
Si Si1 0.759437 0.751617 0.292449
Si Si2 0.481256 0.651722 0.604091
Si Si3 0.949250 0.687459 0.083583
Si Si4 0.612787 0.298608 0.581015
Si Si5 0.236602 0.039030 0.853323
Si Si6 0.206851 0.835613 0.154258
Si Si7 0.872442 0.674212 0.619920
O O1 0.607493 0.507443 0.233839
O O2 0.827266 0.969614 0.253309
O O3 0.724664 0.567957 0.999695
O O4 0.874613 0.964854 0.681411
O O5 0.463313 0.739643 0.555292
O O6 0.648062 0.939924 0.817626
O O7 0.391210 0.382039 0.230144
O O8 0.910180 0.701452 0.340976
O O9 0.901488 0.473170 0.006925
O O10 0.869031 0.564056 0.729505
O O11 0.714671 0.427877 0.459398
O O12 0.500000 0.000000 0.500000
O O13 0.247070 0.978570 0.540631
O O14 0.154362 0.819547 0.928724
O O15 0.000000 0.000000 0.000000
#
# Coordination Sequence:
#
# PCOD9066194 Si02
#       7
#     2   2   2   2   2   2   2
#     4  11  26  45  70 103 140 181 232 283 342 415
#     4  11  25  45  71 102 140 178 235 282 344 412
#     4  12  28  46  70 106 140 181 235 279 341 413
#     4  11  26  43  71 104 141 179 232 287 344 403
#     4  11  25  46  72 103 137 186 225 285 349 402
#     4  12  26  45  73 102 141 180 231 285 340 411
#     4  12  25  48  72  99 139 190 225 278 348 409
#
# _framework density 25.727080999999998
#
# number of rings (size 3 to 8) (size 9 to 14) (size 15 to 20)
#    0.000    0.571    2.857    3.857   10.000    1.714 
#    0.000    0.000    0.000    0.000    0.000    0.000 
#    0.000    0.000    0.000    0.000    0.000    0.000 
#
# Total GULP energy -78559.457709 kJ/mol
# GULP energy per Si atom -5611.389836 kJ/mol
# Density = 2.566852 g / cm^3
# Si number density = 25.727081 Si / 1000 Ang^3
#
#
#
# Elastic Constant Matrix: (Units=GPa)
#
#
# Indices 1 2 3 4 5 6 
#
# 1 100.8244 65.3025 29.2429 7.2943 -3.0746 -13.0974
# 2 65.3025 111.2629 16.6656 -13.7771 -10.7809 -13.0279
# 3 29.2429 16.6656 45.7298 -11.0315 -4.3365 -0.3438
# 4 7.2943 -13.7771 -11.0315 48.8012 -4.5713 -5.0647
# 5 -3.0746 -10.7809 -4.3365 -4.5713 31.8708 -2.7363
# 6 -13.0974 -13.0279 -0.3438 -5.0647 -2.7363 72.9801
#
#
#
# Elastic Compliance Matrix: (Units=1/GPa)
#
#
# Indices 1 2 3 4 5 6 
#
# 1 0.022959 -0.013291 -0.012893 -0.010534 -0.005482 0.000750
# 2 -0.013291 0.018064 0.004754 0.008990 0.006914 0.001745
# 3 -0.012893 0.004754 0.031611 0.010963 0.006210 -0.000323
# 4 -0.010534 0.008990 0.010963 0.028011 0.007706 0.001999
# 5 -0.005482 0.006914 0.006210 0.007706 0.035321 0.002139
# 6 0.000750 0.001745 -0.000323 0.001999 0.002139 0.014366
#
#
# Mechanical properties :
#
#
# Convention : Reuss Voigt Hill
#
# Bulk Modulus (GPa) = 33.58825 53.35989 43.47407
# Shear Modulus (GPa) = 24.61638 40.50416 32.56027
#
# Velocity S-wave (km/s) = 3.09662 3.97215 3.56139
# Velocity P-wave (km/s) = 5.08619 6.46707 5.81775
#
# Compressibility (1/GPa) = 0.02977232
#
# Stress axis : x y z
#
# Youngs Moduli (GPa) = 43.55637 55.35823 31.63472
#
# Poissons Ratio (x) = 0.73579 0.40786
# Poissons Ratio (y) = 0.57893 -0.15038
# Poissons Ratio (z) = 0.56157 -0.26315
#
# Static dielectric constant tensor:
#      x y z
#    x 2.033580 -0.035120 0.014820 
#    y -0.035120 2.004750 -0.013240 
#    z 0.014820 -0.013240 1.968270 
# 
# From -- ./inp_files/26801.got.cif
#   From: 2010.05.17/outbox.cif.g08.bks.cpg/sg2_14_cif.got.tgz:26801.got - 2010.06.03 11:33:40.
