data_PCOD9066668
_publ_section_title
;
Structure prediction by ZEFSAII (Michael W. Deem and Ramdas Pophale) SiO2 
 PCOD9066668
Probable space group: P -1
;
_chemical_formula_sum "Si O2"
_cell_formula_units_Z 14
_cell_length_a 12.239918
_cell_length_b 5.633111
_cell_length_c 8.876942
_cell_angle_alpha 94.368853
_cell_angle_beta 97.539049
_cell_angle_gamma 77.448497
_cell_volume 591.543893
_symmetry_space_group_name_H-M "P -1"
_symmetry_group_IT_number 2
_symmetry_cell_setting 'triclinic'
loop_
_space_group_symop_operation_xyz
x,y,z
-x,-y,-z
loop_
_atom_site_type_symbol
_atom_site_label
_atom_site_fract_x
_atom_site_fract_y
_atom_site_fract_z
Si Si1 0.633749 0.001413 0.861746
Si Si2 0.735680 0.268828 0.371072
Si Si3 0.462563 0.692569 0.873199
Si Si4 0.558372 0.226099 0.557391
Si Si5 0.060815 0.055665 0.786854
Si Si6 0.892408 0.774112 0.891386
Si Si7 0.090761 0.566756 0.405031
O O1 0.567289 0.780107 0.817357
O O2 0.767985 0.944810 0.866064
O O3 0.582050 0.206031 0.739318
O O4 0.605986 0.076801 0.032994
O O5 0.631466 0.383072 0.252068
O O6 0.677330 0.150544 0.488777
O O7 0.798576 0.451955 0.476354
O O8 0.827934 0.084879 0.283075
O O9 0.500000 0.500000 0.000000
O O10 0.500000 0.500000 0.500000
O O11 0.500000 0.000000 0.500000
O O12 0.968824 0.167438 0.651467
O O13 0.087848 0.251011 0.924779
O O14 0.000250 0.873509 0.858675
O O15 0.884891 0.572055 0.755565
O O16 0.000000 0.500000 0.500000
#
# Coordination Sequence:
#
# PCOD9066668 Si02
#       7
#     2   2   2   2   2   2   2
#     4  11  25  46  73 108 149 203 261 321 388 476
#     4  12  25  48  76 110 155 203 257 333 390 471
#     4  11  25  48  73 107 151 201 260 320 395 469
#     4  12  28  48  76 116 159 210 265 328 399 470
#     4  11  25  49  71 108 149 200 253 312 395 468
#     4  11  25  48  75 105 150 197 256 315 392 473
#     4  12  27  43  73 112 148 196 253 322 390 468
#
# _framework density 23.666884
#
# number of rings (size 3 to 8) (size 9 to 14) (size 15 to 20)
#    0.000    0.571    4.286    2.571    4.000    2.286 
#    0.000    0.000    0.000    0.000    0.000    0.000 
#    0.000    0.000    0.000    0.000    0.000    0.000 
#
# Total GULP energy -78147.644301 kJ/mol
# GULP energy per Si atom -5581.974593 kJ/mol
# Density = 2.361302 g / cm^3
# Si number density = 23.666884 Si / 1000 Ang^3
#
#
#
# Elastic Constant Matrix: (Units=GPa)
#
#
# Indices 1 2 3 4 5 6 
#
# 1 136.1387 15.7188 39.0752 15.8334 -4.5285 10.4787
# 2 15.7188 50.2854 27.4515 5.3813 3.2900 6.9407
# 3 39.0752 27.4515 147.1568 13.9747 20.0291 -0.3315
# 4 15.8334 5.3813 13.9747 43.9391 -0.1834 -4.7130
# 5 -4.5285 3.2900 20.0291 -0.1834 62.0265 5.7333
# 6 10.4787 6.9407 -0.3315 -4.7130 5.7333 28.4971
#
#
#
# Elastic Compliance Matrix: (Units=1/GPa)
#
#
# Indices 1 2 3 4 5 6 
#
# 1 0.008732 -0.000849 -0.002140 -0.002766 0.001720 -0.003832
# 2 -0.000849 0.023326 -0.004033 -0.001892 0.000537 -0.005837
# 3 -0.002140 -0.004033 0.008641 -0.001254 -0.002945 0.002255
# 4 -0.002766 -0.001892 -0.001254 0.024989 -0.000143 0.005625
# 5 0.001720 0.000537 -0.002945 -0.000143 0.017572 -0.004356
# 6 -0.003832 -0.005837 0.002255 0.005625 -0.004356 0.039755
#
#
# Mechanical properties :
#
#
# Convention : Reuss Voigt Hill
#
# Bulk Modulus (GPa) = 37.51520 55.34132 46.42826
# Shear Modulus (GPa) = 34.25994 43.64825 38.95409
#
# Velocity S-wave (km/s) = 3.80885 4.29916 4.06141
# Velocity P-wave (km/s) = 5.93539 6.93382 6.45394
#
# Compressibility (1/GPa) = 0.02665586
#
# Stress axis : x y z
#
# Youngs Moduli (GPa) = 114.52685 42.87009 115.72751
#
# Poissons Ratio (x) = 0.03638 0.24769
# Poissons Ratio (y) = 0.09719 0.46669
# Poissons Ratio (z) = 0.24512 0.17288
#
# Static dielectric constant tensor:
#      x y z
#    x 1.847020 -0.020150 -0.010590 
#    y -0.020150 1.980570 0.094980 
#    z -0.010590 0.094980 1.949140 
# 
# From -- ./inp_files/111054.got.cif
#   From: 2010.05.17/outbox.cif.g08.bks.cpg/sg2_56_cif.got.tgz:111054.got - 2010.06.03 11:33:40.
