data_PCOD9066938
_publ_section_title
;
Structure prediction by ZEFSAII (Michael W. Deem and Ramdas Pophale) SiO2 
 PCOD9066938
Probable space group: P -1
;
_chemical_formula_sum "Si O2"
_cell_formula_units_Z 16
_cell_length_a 14.941005
_cell_length_b 5.691233
_cell_length_c 15.210396
_cell_angle_alpha 120.123418
_cell_angle_beta 139.853632
_cell_angle_gamma 53.736341
_cell_volume 669.292710
_symmetry_space_group_name_H-M "P -1"
_symmetry_group_IT_number 2
_symmetry_cell_setting 'triclinic'
loop_
_space_group_symop_operation_xyz
x,y,z
-x,-y,-z
loop_
_atom_site_type_symbol
_atom_site_label
_atom_site_fract_x
_atom_site_fract_y
_atom_site_fract_z
Si Si1 0.574883 0.424067 0.135732
Si Si2 0.810149 0.084379 0.801732
Si Si3 0.826267 0.912453 0.154587
Si Si4 0.371667 0.056756 0.682369
Si Si5 0.568457 0.147808 0.503693
Si Si6 0.958754 0.863243 0.532671
Si Si7 0.348602 0.399621 0.097389
Si Si8 0.896063 0.839927 0.993047
O O1 0.687671 0.094386 0.147519
O O2 0.676294 0.606793 0.265796
O O3 0.446233 0.512420 0.127593
O O4 0.500000 0.500000 0.000000
O O5 0.734535 0.061586 0.650531
O O6 0.721897 0.409390 0.834475
O O7 0.983041 0.010215 0.900783
O O8 0.795185 0.901571 0.841408
O O9 0.961002 0.002161 0.307677
O O10 0.820012 0.948096 0.049911
O O11 0.790096 0.616631 0.066863
O O12 0.222547 0.987381 0.567985
O O13 0.425252 0.001202 0.612527
O O14 0.515971 0.888025 0.819254
O O15 0.500000 0.500000 0.500000
O O16 0.500000 0.000000 0.500000
O O17 0.000000 0.500000 0.500000
O O18 0.000000 0.000000 0.500000
O O19 0.000000 0.500000 0.000000
#
# Coordination Sequence:
#
# PCOD9066938 Si02
#       8
#     2   2   2   2   2   2   2   2
#     4  12  25  42  74 111 147 193 257 319 390 447
#     4  11  25  47  74 109 149 194 263 316 389 464
#     4  12  25  47  74 107 150 196 256 316 388 460
#     4  12  27  49  73 112 155 206 262 320 396 471
#     4  12  28  47  78 112 155 207 255 319 395 465
#     4  12  29  51  77 109 158 206 259 316 392 477
#     4  12  25  44  78 112 148 195 261 327 387 462
#     4  11  25  47  73 107 144 198 250 322 386 462
#
# _framework density 23.905835
#
# number of rings (size 3 to 8) (size 9 to 14) (size 15 to 20)
#    0.000    0.250    5.000    3.375    5.250    1.000 
#    2.250    0.000    0.000    0.000    0.000    0.000 
#    0.000    0.000    0.000    0.000    0.000    0.000 
#
# Total GULP energy -89155.179425 kJ/mol
# GULP energy per Si atom -5572.198714 kJ/mol
# Density = 2.385142 g / cm^3
# Si number density = 23.905835 Si / 1000 Ang^3
#
#
#
# Elastic Constant Matrix: (Units=GPa)
#
#
# Indices 1 2 3 4 5 6 
#
# 1 124.2861 16.2921 23.9431 -2.1863 12.4140 5.3480
# 2 16.2921 90.7343 32.2433 -8.4432 -5.0065 2.5005
# 3 23.9431 32.2433 144.3776 6.9492 -0.0936 10.8907
# 4 -2.1863 -8.4432 6.9492 25.6128 0.1523 -3.4047
# 5 12.4140 -5.0065 -0.0936 0.1523 46.0964 -1.5444
# 6 5.3480 2.5005 10.8907 -3.4047 -1.5444 31.9727
#
#
#
# Elastic Compliance Matrix: (Units=1/GPa)
#
#
# Indices 1 2 3 4 5 6 
#
# 1 0.008730 -0.001231 -0.001120 0.000519 -0.002524 -0.001049
# 2 -0.001231 0.012837 -0.002967 0.005032 0.001731 0.000832
# 3 -0.001120 -0.002967 0.008158 -0.003652 -0.000084 -0.002752
# 4 0.000519 0.005032 -0.003652 0.042439 0.000437 0.005304
# 5 -0.002524 0.001731 -0.000084 0.000437 0.022608 0.001454
# 6 -0.001049 0.000832 -0.002752 0.005304 0.001454 0.032960
#
#
# Mechanical properties :
#
#
# Convention : Reuss Voigt Hill
#
# Bulk Modulus (GPa) = 52.38760 56.03943 54.21352
# Shear Modulus (GPa) = 34.54680 39.86436 37.20558
#
# Velocity S-wave (km/s) = 3.80560 4.08800 3.94933
# Velocity P-wave (km/s) = 6.42431 6.76572 6.59723
#
# Compressibility (1/GPa) = 0.01908849
#
# Stress axis : x y z
#
# Youngs Moduli (GPa) = 114.55396 77.89792 122.58065
#
# Poissons Ratio (x) = 0.09593 0.13731
# Poissons Ratio (y) = 0.14107 0.36364
# Poissons Ratio (z) = 0.12831 0.23108
#
# Static dielectric constant tensor:
#      x y z
#    x 1.934350 0.100890 0.049840 
#    y 0.100890 2.074480 0.015260 
#    z 0.049840 0.015260 1.934790 
# 
# From -- ./inp_files/526016.got.cif
#   From: 2010.05.17/outbox.cif.g08.bks.cpg/sg2_264_cif.got.tgz:526016.got - 2010.06.03 11:33:40.
