data_PCOD9066265
_publ_section_title
;
Structure prediction by ZEFSAII (Michael W. Deem and Ramdas Pophale) SiO2 
 PCOD9066265
Probable space group: P -1
;
_chemical_formula_sum "Si O2"
_cell_formula_units_Z 16
_cell_length_a 15.512308
_cell_length_b 9.202220
_cell_length_c 8.677568
_cell_angle_alpha 66.894597
_cell_angle_beta 100.625205
_cell_angle_gamma 139.950328
_cell_volume 718.887327
_symmetry_space_group_name_H-M "P -1"
_symmetry_group_IT_number 2
_symmetry_cell_setting 'triclinic'
loop_
_space_group_symop_operation_xyz
x,y,z
-x,-y,-z
loop_
_atom_site_type_symbol
_atom_site_label
_atom_site_fract_x
_atom_site_fract_y
_atom_site_fract_z
Si Si1 0.851508 0.313528 0.457728
Si Si2 0.608061 0.960170 0.740783
Si Si3 0.624429 0.486158 0.337055
Si Si4 0.106405 0.759589 0.837028
Si Si5 0.080637 0.216571 0.167324
Si Si6 0.118610 0.298497 0.786858
Si Si7 0.407337 0.208463 0.878055
Si Si8 0.354801 0.638680 0.277643
O O1 0.854772 0.244654 0.318343
O O2 0.826876 0.466378 0.366678
O O3 0.000000 0.500000 0.500000
O O4 0.738582 0.092282 0.628087
O O5 0.480711 0.784435 0.656458
O O6 0.635467 0.166129 0.745780
O O7 0.575076 0.790947 0.934849
O O8 0.763041 0.667306 0.208729
O O9 0.561991 0.573623 0.263041
O O10 0.657588 0.485924 0.522351
O O11 0.029155 0.820035 0.774545
O O12 0.248191 0.959425 0.892434
O O13 0.000000 0.500000 0.000000
O O14 0.224180 0.429865 0.211989
O O15 0.091811 0.286283 0.963437
O O16 0.015243 0.952113 0.239420
O O17 0.507207 0.223409 0.820515
#
# Coordination Sequence:
#
# PCOD9066265 Si02
#       8
#     2   2   2   2   2   2   2   2
#     4  12  26  43  69 106 143 192 240 293 357 424
#     4  12  27  46  74 104 146 190 241 295 358 426
#     4  12  26  48  72 106 145 187 239 301 359 424
#     4  12  24  44  72 106 146 183 240 294 353 424
#     4  11  25  47  74 106 144 189 235 294 362 428
#     4  11  25  45  73 102 147 188 235 294 363 426
#     4  12  27  47  72 106 142 192 241 294 360 425
#     4  12  26  47  76 108 141 189 243 297 359 423
#
# _framework density 22.256616999999999
#
# number of rings (size 3 to 8) (size 9 to 14) (size 15 to 20)
#    0.000    0.250    3.750    5.250    1.750    2.500 
#    0.000    0.000    0.000    0.000    0.000    0.000 
#    0.000    0.000    0.000    0.000    0.000    0.000 
#
# Total GULP energy -89601.696155 kJ/mol
# GULP energy per Si atom -5600.106010 kJ/mol
# Density = 2.220596 g / cm^3
# Si number density = 22.256617 Si / 1000 Ang^3
#
#
#
# Elastic Constant Matrix: (Units=GPa)
#
#
# Indices 1 2 3 4 5 6 
#
# 1 96.1946 31.3969 32.2790 5.4206 -12.5171 10.0820
# 2 31.3969 130.2188 17.3376 19.3505 -4.6360 12.7371
# 3 32.2790 17.3376 75.3738 1.2610 -8.8555 -15.2487
# 4 5.4206 19.3505 1.2610 26.6190 8.7641 -1.2571
# 5 -12.5171 -4.6360 -8.8555 8.7641 33.3583 -3.0268
# 6 10.0820 12.7371 -15.2487 -1.2571 -3.0268 33.9156
#
#
#
# Elastic Compliance Matrix: (Units=1/GPa)
#
#
# Indices 1 2 3 4 5 6 
#
# 1 0.014439 -0.001337 -0.006726 -0.003173 0.003681 -0.006603
# 2 -0.001337 0.009952 -0.002271 -0.007689 0.001892 -0.004477
# 3 -0.006726 -0.002271 0.019395 0.001695 0.002943 0.011898
# 4 -0.003173 -0.007689 0.001695 0.048612 -0.014115 0.005135
# 5 0.003681 0.001892 0.002943 -0.014115 0.036314 0.002236
# 6 -0.006603 -0.004477 0.011898 0.005135 0.002236 0.038869
#
#
# Mechanical properties :
#
#
# Convention : Reuss Voigt Hill
#
# Bulk Modulus (GPa) = 43.26003 51.53493 47.39748
# Shear Modulus (GPa) = 25.51582 33.49683 29.50633
#
# Velocity S-wave (km/s) = 3.38958 3.88368 3.64501
# Velocity P-wave (km/s) = 5.89900 6.58147 6.24956
#
# Compressibility (1/GPa) = 0.02311603
#
# Stress axis : x y z
#
# Youngs Moduli (GPa) = 69.25664 100.48065 51.56042
#
# Poissons Ratio (x) = 0.13438 0.34681
# Poissons Ratio (y) = 0.09262 0.11711
# Poissons Ratio (z) = 0.46584 0.22823
#
# Static dielectric constant tensor:
#      x y z
#    x 1.830070 -0.044690 -0.012570 
#    y -0.044690 1.838670 0.015450 
#    z -0.012570 0.015450 1.886690 
# 
# From -- ./inp_files/207103.got.cif
#   From: 2010.05.17/outbox.cif.g08.bks.cpg/sg2_104_cif.got.tgz:207103.got - 2010.06.03 11:33:40.
