data_PCOD9066703
_publ_section_title
;
Structure prediction by ZEFSAII (Michael W. Deem and Ramdas Pophale) SiO2 
 PCOD9066703
Probable space group: P -1
;
_chemical_formula_sum "Si O2"
_cell_formula_units_Z 14
_cell_length_a 8.946576
_cell_length_b 9.777366
_cell_length_c 8.031291
_cell_angle_alpha 67.348427
_cell_angle_beta 119.020623
_cell_angle_gamma 101.551068
_cell_volume 566.858145
_symmetry_space_group_name_H-M "P -1"
_symmetry_group_IT_number 2
_symmetry_cell_setting 'triclinic'
loop_
_space_group_symop_operation_xyz
x,y,z
-x,-y,-z
loop_
_atom_site_type_symbol
_atom_site_label
_atom_site_fract_x
_atom_site_fract_y
_atom_site_fract_z
Si Si1 0.602102 0.155053 0.993993
Si Si2 0.388222 0.796391 0.625759
Si Si3 0.258089 0.099957 0.401543
Si Si4 0.314507 0.497735 0.808993
Si Si5 0.952273 0.153337 0.992581
Si Si6 0.958714 0.483825 0.791101
Si Si7 0.303449 0.296883 0.618499
O O1 0.492864 0.725675 0.233347
O O2 0.598503 0.198876 0.166619
O O3 0.786328 0.132121 0.026957
O O4 0.500000 0.000000 0.000000
O O5 0.562801 0.842899 0.606236
O O6 0.343785 0.629789 0.631790
O O7 0.254586 0.924083 0.455062
O O8 0.247434 0.145619 0.567323
O O9 0.112400 0.179394 0.187467
O O10 0.139978 0.538901 0.786361
O O11 0.266407 0.342582 0.766902
O O12 0.500000 0.500000 0.000000
O O13 0.931382 0.309829 0.815148
O O14 0.000000 0.000000 0.000000
O O15 0.797967 0.581395 0.600503
O O16 0.000000 0.500000 0.000000
#
# Coordination Sequence:
#
# PCOD9066703 Si02
#       7
#     2   2   2   2   2   2   2
#     4  12  26  48  76 109 149 191 248 307 369 444
#     4  11  25  46  74 107 149 193 247 300 371 434
#     4  11  26  48  75 107 149 194 250 304 367 444
#     4  12  27  47  76 110 152 197 244 307 371 438
#     4  12  29  47  77 108 147 196 247 309 372 438
#     4  12  28  52  72 110 156 192 250 309 370 445
#     4  12  28  46  78 108 151 199 248 304 373 437
#
# _framework density 24.697537000000001
#
# number of rings (size 3 to 8) (size 9 to 14) (size 15 to 20)
#    0.000    0.286    4.286    3.000    6.000    2.857 
#    0.000    0.000    0.000    0.000    0.000    0.000 
#    0.000    0.000    0.000    0.000    0.000    0.000 
#
# Total GULP energy -78153.728278 kJ/mol
# GULP energy per Si atom -5582.409163 kJ/mol
# Density = 2.464132 g / cm^3
# Si number density = 24.697537 Si / 1000 Ang^3
#
#
#
# Elastic Constant Matrix: (Units=GPa)
#
#
# Indices 1 2 3 4 5 6 
#
# 1 65.7975 28.6433 27.5954 -18.5894 2.7251 -14.4647
# 2 28.6433 106.2536 21.3396 -9.9931 8.1211 -12.2036
# 3 27.5954 21.3396 140.3955 -16.4481 37.0730 -16.5765
# 4 -18.5894 -9.9931 -16.4481 51.2000 -8.8771 -2.9139
# 5 2.7251 8.1211 37.0730 -8.8771 24.5673 -15.6478
# 6 -14.4647 -12.2036 -16.5765 -2.9139 -15.6478 32.3863
#
#
#
# Elastic Compliance Matrix: (Units=1/GPa)
#
#
# Indices 1 2 3 4 5 6 
#
# 1 0.028110 -0.004353 -0.008736 0.013105 0.030472 0.022344
# 2 -0.004353 0.010908 -0.000042 0.000190 -0.002331 0.001035
# 3 -0.008736 -0.000042 0.015065 -0.004277 -0.030516 -0.011336
# 4 0.013105 0.000190 -0.004277 0.028954 0.028079 0.019907
# 5 0.030472 -0.002331 -0.030516 0.028079 0.135875 0.065288
# 6 0.022344 0.001035 -0.011336 0.019907 0.065288 0.068780
#
#
# Mechanical properties :
#
#
# Convention : Reuss Voigt Hill
#
# Bulk Modulus (GPa) = 35.94621 51.95590 43.95106
# Shear Modulus (GPa) = 15.46888 37.28860 26.37874
#
# Velocity S-wave (km/s) = 2.50538 3.88984 3.27168
# Velocity P-wave (km/s) = 4.79118 6.42317 5.66624
#
# Compressibility (1/GPa) = 0.02781934
#
# Stress axis : x y z
#
# Youngs Moduli (GPa) = 35.57487 91.67255 66.37894
#
# Poissons Ratio (x) = 0.39908 0.57991
# Poissons Ratio (y) = 0.15487 0.00281
# Poissons Ratio (z) = 0.31079 0.00388
#
# Static dielectric constant tensor:
#      x y z
#    x 2.074770 -0.017160 -0.045170 
#    y -0.017160 2.059880 0.032990 
#    z -0.045170 0.032990 2.027510 
# 
# From -- ./inp_files/157591.got.cif
#   From: 2010.05.17/outbox.cif.g08.bks.cpg/sg2_79_cif.got.tgz:157591.got - 2010.06.03 11:33:40.
