data_PCOD9066287
_publ_section_title
;
Structure prediction by ZEFSAII (Michael W. Deem and Ramdas Pophale) SiO2 
 PCOD9066287
Probable space group: P -1
;
_chemical_formula_sum "Si O2"
_cell_formula_units_Z 16
_cell_length_a 11.812111
_cell_length_b 8.850565
_cell_length_c 11.656009
_cell_angle_alpha 118.720840
_cell_angle_beta 138.696944
_cell_angle_gamma 51.184269
_cell_volume 626.575075
_symmetry_space_group_name_H-M "P -1"
_symmetry_group_IT_number 2
_symmetry_cell_setting 'triclinic'
loop_
_space_group_symop_operation_xyz
x,y,z
-x,-y,-z
loop_
_atom_site_type_symbol
_atom_site_label
_atom_site_fract_x
_atom_site_fract_y
_atom_site_fract_z
Si Si1 0.193531 0.417266 0.198819
Si Si2 0.104326 0.928905 0.287482
Si Si3 0.392921 0.210763 0.942094
Si Si4 0.481094 0.955817 0.600932
Si Si5 0.278975 0.600364 0.142292
Si Si6 0.023178 0.725254 0.365521
Si Si7 0.098270 0.644685 0.642394
Si Si8 0.512844 0.693534 0.163497
O O1 0.322994 0.191394 0.239118
O O2 0.326781 0.499245 0.267792
O O3 0.124313 0.515701 0.305224
O O4 0.000000 0.500000 0.000000
O O5 0.327794 0.873949 0.459470
O O6 0.102339 0.806822 0.128499
O O7 0.030445 0.862745 0.320029
O O8 0.005058 0.162286 0.289458
O O9 0.195626 0.217007 0.747394
O O10 0.551357 0.216445 0.977892
O O11 0.305293 0.405400 0.023947
O O12 0.500000 0.000000 0.000000
O O13 0.500000 0.000000 0.500000
O O14 0.405741 0.163452 0.675975
O O15 0.391242 0.672422 0.166681
O O16 0.124735 0.710051 0.558209
O O17 0.306748 0.509372 0.802470
O O18 0.000000 0.500000 0.500000
#
# Coordination Sequence:
#
# PCOD9066287 Si02
#       8
#     2   2   2   2   2   2   2   2
#     4  11  25  47  75 106 152 197 247 308 372 443
#     4  11  26  45  74 113 143 193 242 313 368 442
#     4  12  26  49  72 101 149 200 246 300 372 449
#     4  12  24  46  74 112 151 193 245 308 377 441
#     4  11  26  48  71 110 144 193 254 302 374 443
#     4  11  25  45  73 107 145 191 250 301 372 443
#     4  12  24  45  74 108 149 186 241 306 377 433
#     4  12  26  45  76 107 145 193 244 308 369 448
#
# _framework density 25.535644999999999
#
# number of rings (size 3 to 8) (size 9 to 14) (size 15 to 20)
#    0.000    0.500    5.000    2.250    3.500    1.000 
#    0.000    1.250    0.000    0.000    0.000    0.000 
#    0.000    0.000    0.000    0.000    0.000    0.000 
#
# Total GULP energy -89239.614538 kJ/mol
# GULP energy per Si atom -5577.475909 kJ/mol
# Density = 2.547753 g / cm^3
# Si number density = 25.535645 Si / 1000 Ang^3
#
#
#
# Elastic Constant Matrix: (Units=GPa)
#
#
# Indices 1 2 3 4 5 6 
#
# 1 183.4219 61.0688 27.6103 -3.4404 -17.1987 17.3211
# 2 61.0688 186.4318 40.1095 2.8771 -12.2785 3.4333
# 3 27.6103 40.1095 56.2977 -10.0009 -7.7096 3.5926
# 4 -3.4404 2.8771 -10.0009 46.0625 -0.8095 -2.0889
# 5 -17.1987 -12.2785 -7.7096 -0.8095 29.9021 15.8982
# 6 17.3211 3.4333 3.5926 -2.0889 15.8982 38.6395
#
#
#
# Elastic Compliance Matrix: (Units=1/GPa)
#
#
# Indices 1 2 3 4 5 6 
#
# 1 0.007274 -0.001628 -0.001167 0.000249 0.006161 -0.005529
# 2 -0.001628 0.006882 -0.004285 -0.001463 0.000656 0.000168
# 3 -0.001167 -0.004285 0.023253 0.005179 0.005408 -0.003203
# 4 0.000249 -0.001463 0.005179 0.022978 0.001390 0.000207
# 5 0.006161 0.000656 0.005408 0.001390 0.051730 -0.024532
# 6 -0.005529 0.000168 -0.003203 0.000207 -0.024532 0.038747
#
#
# Mechanical properties :
#
#
# Convention : Reuss Voigt Hill
#
# Bulk Modulus (GPa) = 43.01317 75.96985 59.49151
# Shear Modulus (GPa) = 28.93972 42.74501 35.84236
#
# Velocity S-wave (km/s) = 3.37011 4.09581 3.75056
# Velocity P-wave (km/s) = 5.65902 7.22376 6.48873
#
# Compressibility (1/GPa) = 0.02324869
#
# Stress axis : x y z
#
# Youngs Moduli (GPa) = 137.47513 145.31123 43.00525
#
# Poissons Ratio (x) = 0.23656 0.05018
# Poissons Ratio (y) = 0.22381 0.18429
# Poissons Ratio (z) = 0.16041 0.62270
#
# Static dielectric constant tensor:
#      x y z
#    x 2.003910 0.001210 0.034030 
#    y 0.001210 2.174410 0.024010 
#    z 0.034030 0.024010 2.116980 
# 
# From -- ./inp_files/419620.got.cif
#   From: 2010.05.17/outbox.cif.g08.bks.cpg/sg2_210_cif.got.tgz:419620.got - 2010.06.03 11:33:40.
