data_PCOD9066214
_publ_section_title
;
Structure prediction by ZEFSAII (Michael W. Deem and Ramdas Pophale) SiO2 
 PCOD9066214
Probable space group: P -1
;
_chemical_formula_sum "Si O2"
_cell_formula_units_Z 14
_cell_length_a 10.959576
_cell_length_b 11.485748
_cell_length_c 6.585484
_cell_angle_alpha 90.492595
_cell_angle_beta 74.874861
_cell_angle_gamma 128.376681
_cell_volume 614.335844
_symmetry_space_group_name_H-M "P -1"
_symmetry_group_IT_number 2
_symmetry_cell_setting 'triclinic'
loop_
_space_group_symop_operation_xyz
x,y,z
-x,-y,-z
loop_
_atom_site_type_symbol
_atom_site_label
_atom_site_fract_x
_atom_site_fract_y
_atom_site_fract_z
Si Si1 0.669206 0.079594 0.315399
Si Si2 0.035277 0.102340 0.676159
Si Si3 0.927301 0.275255 0.540235
Si Si4 0.877675 0.453762 0.861385
Si Si5 0.421212 0.731261 0.786147
Si Si6 0.422426 0.333237 0.611136
Si Si7 0.686743 0.873486 0.004448
O O1 0.800115 0.142486 0.437350
O O2 0.679544 0.208486 0.197900
O O3 0.500000 0.000000 0.500000
O O4 0.667050 0.971439 0.163434
O O5 0.228292 0.205188 0.641949
O O6 0.009959 0.222590 0.632496
O O7 0.000000 0.000000 0.500000
O O8 0.882720 0.977529 0.887830
O O9 0.850237 0.321903 0.732937
O O10 0.045064 0.413841 0.336881
O O11 0.713550 0.415201 0.023278
O O12 0.000000 0.500000 0.000000
O O13 0.468802 0.698693 0.555311
O O14 0.589333 0.844312 0.839903
O O15 0.500000 0.500000 0.500000
O O16 0.408634 0.291675 0.853674
#
# Coordination Sequence:
#
# PCOD9066214 Si02
#       7
#     2   2   2   2   2   2   2
#     4  12  22  43  76 106 140 177 237 308 364 421
#     4  12  26  51  73 103 145 196 252 290 359 435
#     4  11  26  44  73 106 145 187 239 301 359 434
#     4  11  25  45  71 108 146 191 232 299 376 430
#     4  12  25  45  72 109 143 184 246 293 372 430
#     4  12  30  47  72 105 147 196 244 299 354 440
#     4  12  26  48  77 104 144 193 240 308 364 423
#
# _framework density 22.788837000000001
#
# number of rings (size 3 to 8) (size 9 to 14) (size 15 to 20)
#    0.000    0.286    4.286    4.286    4.000    1.714 
#    0.000    0.000    0.000    0.000    0.000    0.000 
#    0.000    0.000    0.000    0.000    0.000    0.000 
#
# Total GULP energy -78210.228192 kJ/mol
# GULP energy per Si atom -5586.444871 kJ/mol
# Density = 2.273697 g / cm^3
# Si number density = 22.788837 Si / 1000 Ang^3
#
#
#
# Elastic Constant Matrix: (Units=GPa)
#
#
# Indices 1 2 3 4 5 6 
#
# 1 59.8603 6.1909 9.4078 -18.8966 -5.2665 8.8873
# 2 6.1909 64.9817 26.6945 -20.0620 -6.0580 -5.2978
# 3 9.4078 26.6945 115.7219 -35.0986 -22.6985 -4.6060
# 4 -18.8966 -20.0620 -35.0986 41.3200 8.5809 -0.6753
# 5 -5.2665 -6.0580 -22.6985 8.5809 45.3392 -3.5940
# 6 8.8873 -5.2978 -4.6060 -0.6753 -3.5940 39.9890
#
#
#
# Elastic Compliance Matrix: (Units=1/GPa)
#
#
# Indices 1 2 3 4 5 6 
#
# 1 0.020440 0.000469 0.001433 0.010552 0.000835 -0.004062
# 2 0.000469 0.018702 -0.001862 0.007677 0.000352 0.002320
# 3 0.001433 -0.001862 0.012883 0.009756 0.004640 0.001501
# 4 0.010552 0.007677 0.009756 0.041178 -0.000623 0.000435
# 5 0.000835 0.000352 0.004640 -0.000623 0.024849 0.002618
# 6 -0.004062 0.002320 0.001501 0.000435 0.002618 0.026633
#
#
# Mechanical properties :
#
#
# Convention : Reuss Voigt Hill
#
# Bulk Modulus (GPa) = 19.19276 36.12781 27.66029
# Shear Modulus (GPa) = 30.86944 38.54769 34.70856
#
# Velocity S-wave (km/s) = 3.68446 4.11727 3.90686
# Velocity P-wave (km/s) = 5.15176 6.20405 5.70223
#
# Compressibility (1/GPa) = 0.05210297
#
# Stress axis : x y z
#
# Youngs Moduli (GPa) = 48.92460 53.47152 77.62047
#
# Poissons Ratio (x) = -0.02506 -0.11122
# Poissons Ratio (y) = -0.02293 0.14454
# Poissons Ratio (z) = -0.07010 0.09957
#
# Static dielectric constant tensor:
#      x y z
#    x 1.845710 -0.058120 -0.009450 
#    y -0.058120 2.008180 -0.109360 
#    z -0.009450 -0.109360 1.720420 
# 
# From -- ./inp_files/71148.got.cif
#   From: 2010.05.17/outbox.cif.g08.bks.cpg/sg2_36_cif.got.tgz:71148.got - 2010.06.03 11:33:40.
