data_PCOD9066722
_publ_section_title
;
Structure prediction by ZEFSAII (Michael W. Deem and Ramdas Pophale) SiO2 
 PCOD9066722
Probable space group: P -1
;
_chemical_formula_sum "Si O2"
_cell_formula_units_Z 13
_cell_length_a 10.638619
_cell_length_b 13.672770
_cell_length_c 6.952100
_cell_angle_alpha 129.135418
_cell_angle_beta 45.777457
_cell_angle_gamma 118.684423
_cell_volume 560.674160
_symmetry_space_group_name_H-M "P -1"
_symmetry_group_IT_number 2
_symmetry_cell_setting 'triclinic'
loop_
_space_group_symop_operation_xyz
x,y,z
-x,-y,-z
loop_
_atom_site_type_symbol
_atom_site_label
_atom_site_fract_x
_atom_site_fract_y
_atom_site_fract_z
Si Si1 0.466656 0.820214 0.764110
Si Si2 0.325864 0.039505 0.618896
Si Si3 0.384835 0.615105 0.309123
Si Si4 0.935956 0.623275 0.331714
Si Si5 0.894365 0.103545 0.626147
Si Si6 0.388135 0.248026 0.076387
Si Si7 0.000000 0.500000 0.500000
O O1 0.439654 0.681122 0.531760
O O2 0.449643 0.709640 0.184159
O O3 0.599632 0.894646 0.573051
O O4 0.279362 0.877474 0.038938
O O5 0.175613 0.942556 0.569607
O O6 0.539739 0.817179 0.895288
O O7 0.263376 0.148718 0.961718
O O8 0.273286 0.360510 0.409952
O O9 0.184288 0.566660 0.467766
O O10 0.500000 0.500000 0.000000
O O11 0.009023 0.756007 0.321991
O O12 0.003389 0.605407 0.452322
O O13 0.000000 0.500000 0.000000
O O14 0.000000 0.000000 0.500000
O O15 0.500000 0.000000 0.500000
#
# Coordination Sequence:
#
# PCOD9066722 Si02
#       7
#     2   2   2   2   2   2   1
#     4  11  25  47  75 107 155 201 266 325 395 475
#     4  11  25  46  75 108 150 202 265 317 395 473
#     4  11  25  46  74 110 148 210 255 322 396 472
#     4  12  29  48  77 116 159 205 262 329 397 473
#     4  12  27  49  80 118 155 209 264 333 397 468
#     4  11  25  48  77 110 153 213 258 326 400 472
#     4  12  26  48  72 108 162 196 262 318 396 466
#
# _framework density 23.186371999999999
#
# number of rings (size 3 to 8) (size 9 to 14) (size 15 to 20)
#    0.000    0.615    3.077    3.231    6.462    3.692 
#    0.000    0.000    0.000    0.000    0.000    0.000 
#    0.000    0.000    0.000    0.000    0.000    0.000 
#
# Total GULP energy -72403.743725 kJ/mol
# GULP energy per Si atom -5569.518748 kJ/mol
# Density = 2.313360 g / cm^3
# Si number density = 23.186372 Si / 1000 Ang^3
#
#
#
# Elastic Constant Matrix: (Units=GPa)
#
#
# Indices 1 2 3 4 5 6 
#
# 1 102.4139 51.7038 26.8983 5.5974 16.8921 -13.5295
# 2 51.7038 123.5145 25.2470 15.3902 12.9425 7.4477
# 3 26.8983 25.2470 113.0033 23.5121 11.3275 6.2570
# 4 5.5974 15.3902 23.5121 36.4949 -3.0753 -5.0040
# 5 16.8921 12.9425 11.3275 -3.0753 22.7086 8.2167
# 6 -13.5295 7.4477 6.2570 -5.0040 8.2167 54.0750
#
#
#
# Elastic Compliance Matrix: (Units=1/GPa)
#
#
# Indices 1 2 3 4 5 6 
#
# 1 0.015497 -0.005639 -0.002156 0.001487 -0.009376 0.006466
# 2 -0.005639 0.011388 0.000112 -0.004595 -0.001839 -0.003138
# 3 -0.002156 0.000112 0.011522 -0.007787 -0.004569 -0.001914
# 4 0.001487 -0.004595 -0.007787 0.035396 0.008800 0.003844
# 5 -0.009376 -0.001839 -0.004569 0.008800 0.059047 -0.009722
# 6 0.006466 -0.003138 -0.001914 0.003844 -0.009722 0.022597
#
#
# Mechanical properties :
#
#
# Convention : Reuss Voigt Hill
#
# Bulk Modulus (GPa) = 43.40217 60.73666 52.06942
# Shear Modulus (GPa) = 28.01206 38.32787 33.16997
#
# Velocity S-wave (km/s) = 3.47958 4.07016 3.78640
# Velocity P-wave (km/s) = 5.90786 6.95271 6.45147
#
# Compressibility (1/GPa) = 0.02304032
#
# Stress axis : x y z
#
# Youngs Moduli (GPa) = 64.52895 87.80975 86.79236
#
# Poissons Ratio (x) = 0.49516 0.18716
# Poissons Ratio (y) = 0.36388 -0.00973
# Poissons Ratio (z) = 0.13915 -0.00984
#
# Static dielectric constant tensor:
#      x y z
#    x 1.831060 0.025640 0.003320 
#    y 0.025640 1.973990 0.035700 
#    z 0.003320 0.035700 1.922560 
# 
# From -- ./inp_files/265762.got.cif
#   From: 2010.05.17/outbox.cif.g08.bks.cpg/sg2_133_cif.got.tgz:265762.got - 2010.06.03 11:33:40.
