data_PCOD9066484
_publ_section_title
;
Structure prediction by ZEFSAII (Michael W. Deem and Ramdas Pophale) SiO2 
 PCOD9066484
Probable space group: P -1
;
_chemical_formula_sum "Si O2"
_cell_formula_units_Z 12
_cell_length_a 11.678716
_cell_length_b 4.746291
_cell_length_c 9.291248
_cell_angle_alpha 73.905673
_cell_angle_beta 75.422471
_cell_angle_gamma 73.155896
_cell_volume 465.308464
_symmetry_space_group_name_H-M "P -1"
_symmetry_group_IT_number 2
_symmetry_cell_setting 'triclinic'
loop_
_space_group_symop_operation_xyz
x,y,z
-x,-y,-z
loop_
_atom_site_type_symbol
_atom_site_label
_atom_site_fract_x
_atom_site_fract_y
_atom_site_fract_z
Si Si1 0.120542 0.789967 0.923865
Si Si2 0.554956 0.588043 0.119778
Si Si3 0.430565 0.060515 0.665359
Si Si4 0.073373 0.221845 0.371581
Si Si5 0.778479 0.864208 0.946021
Si Si6 0.161198 0.266205 0.638072
O O1 0.218081 0.845590 0.002997
O O2 0.136027 0.435497 0.964781
O O3 0.143513 0.944495 0.746345
O O4 0.000000 0.000000 0.000000
O O5 0.502179 0.797438 0.248281
O O6 0.587688 0.263329 0.233679
O O7 0.500000 0.500000 0.000000
O O8 0.650192 0.780234 0.008048
O O9 0.293919 0.276877 0.654135
O O10 0.500000 0.000000 0.500000
O O11 0.161096 0.100345 0.229733
O O12 0.156676 0.298056 0.462778
O O13 0.966630 0.502663 0.314391
O O14 0.000000 0.000000 0.500000
#
# Coordination Sequence:
#
# PCOD9066484 Si02
#       6
#     2   2   2   2   2   2
#     4  12  23  42  74 103 143 192 248 306 380 465
#     4  12  27  52  79 114 153 201 268 330 391 458
#     4  12  28  52  79 113 153 209 262 328 391 463
#     4  11  27  44  72 111 158 201 247 316 389 472
#     4  12  25  45  73 107 146 200 250 314 387 455
#     4  11  25  46  69 107 154 194 258 304 393 459
#
# _framework density 25.789342999999999
#
# number of rings (size 3 to 8) (size 9 to 14) (size 15 to 20)
#    0.000    0.333    5.000    2.500    9.333    0.000 
#    0.000    0.000    0.000    0.000    0.000    0.000 
#    0.000    0.000    0.000    0.000    0.000    0.000 
#
# Total GULP energy -67074.092273 kJ/mol
# GULP energy per Si atom -5589.507689 kJ/mol
# Density = 2.573065 g / cm^3
# Si number density = 25.789343 Si / 1000 Ang^3
#
#
#
# Elastic Constant Matrix: (Units=GPa)
#
#
# Indices 1 2 3 4 5 6 
#
# 1 94.9919 14.0558 51.6032 12.6363 13.0544 12.1928
# 2 14.0558 95.9420 35.5824 11.4897 7.6088 15.4242
# 3 51.6032 35.5824 199.4036 31.8570 -3.0207 -1.5413
# 4 12.6363 11.4897 31.8570 51.3338 -2.4644 5.5846
# 5 13.0544 7.6088 -3.0207 -2.4644 49.6443 6.4130
# 6 12.1928 15.4242 -1.5413 5.5846 6.4130 42.1251
#
#
#
# Elastic Compliance Matrix: (Units=1/GPa)
#
#
# Indices 1 2 3 4 5 6 
#
# 1 0.013392 0.000252 -0.003426 -0.001014 -0.003374 -0.003446
# 2 0.000252 0.012095 -0.002107 -0.001080 -0.001559 -0.004198
# 3 -0.003426 -0.002107 0.006808 -0.003096 0.001195 0.002241
# 4 -0.001014 -0.001080 -0.003096 0.022260 0.001689 -0.002633
# 5 -0.003374 -0.001559 0.001195 0.001689 0.021676 -0.001932
# 6 -0.003446 -0.004198 0.002241 -0.002633 -0.001932 0.026999
#
#
# Mechanical properties :
#
#
# Convention : Reuss Voigt Hill
#
# Bulk Modulus (GPa) = 46.01572 65.86892 55.94232
# Shear Modulus (GPa) = 41.30953 47.89372 44.60163
#
# Velocity S-wave (km/s) = 4.00660 4.31410 4.16319
# Velocity P-wave (km/s) = 6.26781 7.10013 6.69691
#
# Compressibility (1/GPa) = 0.02173170
#
# Stress axis : x y z
#
# Youngs Moduli (GPa) = 74.67082 82.67569 146.89177
#
# Poissons Ratio (x) = -0.02081 0.50331
# Poissons Ratio (y) = -0.01880 0.30951
# Poissons Ratio (z) = 0.25585 0.17420
#
# Static dielectric constant tensor:
#      x y z
#    x 2.179860 -0.069840 0.050470 
#    y -0.069840 2.029620 0.040190 
#    z 0.050470 0.040190 1.990630 
# 
# From -- ./inp_files/228878.got.cif
#   From: 2010.05.17/outbox.cif.g08.bks.cpg/sg2_115_cif.got.tgz:228878.got - 2010.06.03 11:33:40.
