data_PCOD9066859
_publ_section_title
;
Structure prediction by ZEFSAII (Michael W. Deem and Ramdas Pophale) SiO2 
 PCOD9066859
Probable space group: P -1
;
_chemical_formula_sum "Si O2"
_cell_formula_units_Z 13
_cell_length_a 8.699683
_cell_length_b 11.268619
_cell_length_c 8.414032
_cell_angle_alpha 74.832055
_cell_angle_beta 90.258435
_cell_angle_gamma 43.143775
_cell_volume 520.001425
_symmetry_space_group_name_H-M "P -1"
_symmetry_group_IT_number 2
_symmetry_cell_setting 'triclinic'
loop_
_space_group_symop_operation_xyz
x,y,z
-x,-y,-z
loop_
_atom_site_type_symbol
_atom_site_label
_atom_site_fract_x
_atom_site_fract_y
_atom_site_fract_z
Si Si1 0.945233 0.397339 0.964743
Si Si2 0.249929 0.839737 0.973713
Si Si3 0.302209 0.090561 0.839886
Si Si4 0.567818 0.808893 0.474242
Si Si5 0.600055 0.542223 0.367181
Si Si6 0.880138 0.787469 0.655309
Si Si7 0.500000 0.500000 0.000000
O O1 0.058850 0.295741 0.831657
O O2 0.681883 0.505360 0.937171
O O3 0.000000 0.500000 0.000000
O O4 0.092545 0.226806 0.151181
O O5 0.441118 0.655685 0.162621
O O6 0.273028 0.725799 0.877664
O O7 0.301673 0.944577 0.882676
O O8 0.000000 0.000000 0.000000
O O9 0.371268 0.118959 0.673324
O O10 0.500000 0.000000 0.000000
O O11 0.589730 0.672655 0.422918
O O12 0.758431 0.728102 0.635925
O O13 0.302684 0.994112 0.464389
O O14 0.500000 0.500000 0.500000
O O15 0.867931 0.359286 0.377536
#
# Coordination Sequence:
#
# PCOD9066859 Si02
#       7
#     2   2   2   2   2   2   1
#     4  12  24  44  75 108 148 193 247 309 371 440
#     4  12  26  46  70 107 143 189 244 306 373 432
#     4  12  22  45  78 100 143 193 247 307 364 442
#     4  11  26  48  73 106 144 195 245 302 371 449
#     4  12  27  47  71 105 149 191 239 306 373 444
#     4  11  25  47  70 106 144 189 247 302 369 445
#     4  12  26  44  70 110 146 182 252 306 364 444
#
# _framework density 24.999932999999999
#
# number of rings (size 3 to 8) (size 9 to 14) (size 15 to 20)
#    0.000    0.308    6.154    2.308    2.154    1.846 
#    2.769    0.000    0.000    0.000    0.000    0.000 
#    0.000    0.000    0.000    0.000    0.000    0.000 
#
# Total GULP energy -72513.935507 kJ/mol
# GULP energy per Si atom -5577.995039 kJ/mol
# Density = 2.494303 g / cm^3
# Si number density = 24.999933 Si / 1000 Ang^3
#
#
#
# Elastic Constant Matrix: (Units=GPa)
#
#
# Indices 1 2 3 4 5 6 
#
# 1 163.4833 65.1000 9.1065 -20.8195 -20.1920 4.1387
# 2 65.1000 182.5813 0.8095 -25.3406 -19.0196 -21.5589
# 3 9.1065 0.8095 72.7604 -7.3671 -0.1944 -16.2675
# 4 -20.8195 -25.3406 -7.3671 21.1011 3.3216 3.8462
# 5 -20.1920 -19.0196 -0.1944 3.3216 34.7904 -13.2495
# 6 4.1387 -21.5589 -16.2675 3.8462 -13.2495 58.4532
#
#
#
# Elastic Compliance Matrix: (Units=1/GPa)
#
#
# Indices 1 2 3 4 5 6 
#
# 1 0.007944 -0.002023 -0.000744 0.004980 0.002543 -0.001267
# 2 -0.002023 0.008067 0.001792 0.006917 0.004148 0.004102
# 3 -0.000744 0.001792 0.015536 0.005582 0.002058 0.005136
# 4 0.004980 0.006917 0.005582 0.062495 0.000656 -0.000212
# 5 0.002543 0.004148 0.002058 0.000656 0.036284 0.010104
# 6 -0.001267 0.004102 0.005136 -0.000212 0.010104 0.022444
#
#
# Mechanical properties :
#
#
# Convention : Reuss Voigt Hill
#
# Bulk Modulus (GPa) = 33.78691 63.20634 48.49663
# Shear Modulus (GPa) = 30.37954 45.78955 38.08454
#
# Velocity S-wave (km/s) = 3.48973 4.28435 3.90729
# Velocity P-wave (km/s) = 5.45727 7.05774 6.30846
#
# Compressibility (1/GPa) = 0.02959726
#
# Stress axis : x y z
#
# Youngs Moduli (GPa) = 125.88045 123.96594 64.36675
#
# Poissons Ratio (x) = 0.25075 0.04789
# Poissons Ratio (y) = 0.25462 -0.11534
# Poissons Ratio (z) = 0.09365 -0.22214
#
# Static dielectric constant tensor:
#      x y z
#    x 2.001440 -0.139470 -0.046490 
#    y -0.139470 1.728000 -0.116060 
#    z -0.046490 -0.116060 1.928360 
# 
# From -- ./inp_files/183583.got.cif
#   From: 2010.05.17/outbox.cif.g08.bks.cpg/sg2_92_cif.got.tgz:183583.got - 2010.06.03 11:33:40.
