data_PCOD9066485
_publ_section_title
;
Structure prediction by ZEFSAII (Michael W. Deem and Ramdas Pophale) SiO2 
 PCOD9066485
Probable space group: P -1
;
_chemical_formula_sum "Si O2"
_cell_formula_units_Z 15
_cell_length_a 8.927951
_cell_length_b 15.416369
_cell_length_c 7.991158
_cell_angle_alpha 49.148443
_cell_angle_beta 112.480032
_cell_angle_gamma 135.347914
_cell_volume 577.533614
_symmetry_space_group_name_H-M "P -1"
_symmetry_group_IT_number 2
_symmetry_cell_setting 'triclinic'
loop_
_space_group_symop_operation_xyz
x,y,z
-x,-y,-z
loop_
_atom_site_type_symbol
_atom_site_label
_atom_site_fract_x
_atom_site_fract_y
_atom_site_fract_z
Si Si1 0.312458 0.725198 0.813611
Si Si2 0.323453 0.319598 0.354749
Si Si3 0.000000 0.000000 0.000000
Si Si4 0.617230 0.882960 0.187637
Si Si5 0.220219 0.828005 0.938048
Si Si6 0.788419 0.622222 0.205603
Si Si7 0.880242 0.567392 0.675830
Si Si8 0.782512 0.860973 0.792228
O O1 0.551921 0.812698 0.746990
O O2 0.129733 0.645698 0.694983
O O3 0.277181 0.823311 0.780351
O O4 0.249783 0.595906 0.083251
O O5 0.405709 0.256478 0.588250
O O6 0.554837 0.487446 0.201423
O O7 0.182278 0.350785 0.343893
O O8 0.207538 0.205783 0.290480
O O9 0.028834 0.978242 0.246431
O O10 0.229713 0.043139 0.002020
O O11 0.389294 0.834915 0.112582
O O12 0.733171 0.017773 0.202478
O O13 0.982495 0.685537 0.081760
O O14 0.822812 0.573346 0.455381
O O15 0.798876 0.765966 0.063978
#
# Coordination Sequence:
#
# PCOD9066485 Si02
#       8
#     2   2   1   2   2   2   2   2
#     4  11  25  46  69 110 152 195 237 314 367 443
#     4  12  27  47  77 113 148 195 257 305 370 444
#     4  12  24  50  74 102 138 206 246 298 362 442
#     4  11  26  47  75 106 150 198 250 306 366 446
#     4  11  25  47  72 110 153 197 243 306 375 439
#     4  12  25  46  79 112 146 197 249 310 370 444
#     4  11  26  43  74 111 153 189 246 307 376 436
#     4  12  26  47  75 107 149 196 250 307 374 438
#
# _framework density 25.972517
#
# number of rings (size 3 to 8) (size 9 to 14) (size 15 to 20)
#    0.000    0.533    4.000    3.200    5.600    1.600 
#    2.400    0.667    0.000    0.000    0.000    0.000 
#    0.000    0.000    0.000    0.000    0.000    0.000 
#
# Total GULP energy -83836.623589 kJ/mol
# GULP energy per Si atom -5589.108239 kJ/mol
# Density = 2.591340 g / cm^3
# Si number density = 25.972517 Si / 1000 Ang^3
#
#
#
# Elastic Constant Matrix: (Units=GPa)
#
#
# Indices 1 2 3 4 5 6 
#
# 1 147.8204 29.4668 23.6251 2.1901 4.3808 9.2521
# 2 29.4668 58.5582 14.0135 15.8999 -9.2627 10.1113
# 3 23.6251 14.0135 81.8350 10.3052 10.6834 8.7316
# 4 2.1901 15.8999 10.3052 45.5530 -8.0996 4.7824
# 5 4.3808 -9.2627 10.6834 -8.0996 26.5979 4.3159
# 6 9.2521 10.1113 8.7316 4.7824 4.3159 55.5201
#
#
#
# Elastic Compliance Matrix: (Units=1/GPa)
#
#
# Indices 1 2 3 4 5 6 
#
# 1 0.007877 -0.004153 -0.001440 0.001110 -0.001781 -0.000287
# 2 -0.004153 0.023295 -0.002923 -0.005342 0.008883 -0.003321
# 3 -0.001440 -0.002923 0.014642 -0.003513 -0.007628 -0.000635
# 4 0.001110 -0.005342 -0.003513 0.026056 0.007544 -0.001491
# 5 -0.001781 0.008883 -0.007628 0.007544 0.047064 -0.004430
# 6 -0.000287 -0.003321 -0.000635 -0.001491 -0.004430 0.019237
#
#
# Mechanical properties :
#
#
# Convention : Reuss Voigt Hill
#
# Bulk Modulus (GPa) = 34.74174 46.93604 40.83889
# Shear Modulus (GPa) = 30.34058 40.27474 35.30766
#
# Velocity S-wave (km/s) = 3.42157 3.94212 3.69104
# Velocity P-wave (km/s) = 5.38655 6.23146 5.82435
#
# Compressibility (1/GPa) = 0.02878382
#
# Stress axis : x y z
#
# Youngs Moduli (GPa) = 126.94891 42.92730 68.29778
#
# Poissons Ratio (x) = 0.17827 0.09832
# Poissons Ratio (y) = 0.52720 0.19962
# Poissons Ratio (z) = 0.18276 0.12547
#
# Static dielectric constant tensor:
#      x y z
#    x 1.994800 -0.054810 -0.016260 
#    y -0.054810 1.561740 0.170120 
#    z -0.016260 0.170120 2.034720 
# 
# From -- ./inp_files/199817.got.cif
#   From: 2010.05.17/outbox.cif.g08.bks.cpg/sg2_100_cif.got.tgz:199817.got - 2010.06.03 11:33:40.
