data_PCOD9066395
_publ_section_title
;
Structure prediction by ZEFSAII (Michael W. Deem and Ramdas Pophale) SiO2 
 PCOD9066395
Probable space group: P -1
;
_chemical_formula_sum "Si O2"
_cell_formula_units_Z 15
_cell_length_a 8.224434
_cell_length_b 11.654407
_cell_length_c 12.654815
_cell_angle_alpha 44.764355
_cell_angle_beta 79.702543
_cell_angle_gamma 52.325589
_cell_volume 601.053477
_symmetry_space_group_name_H-M "P -1"
_symmetry_group_IT_number 2
_symmetry_cell_setting 'triclinic'
loop_
_space_group_symop_operation_xyz
x,y,z
-x,-y,-z
loop_
_atom_site_type_symbol
_atom_site_label
_atom_site_fract_x
_atom_site_fract_y
_atom_site_fract_z
Si Si1 0.500000 0.000000 0.500000
Si Si2 0.776192 0.784208 0.246300
Si Si3 0.264811 0.052416 0.196104
Si Si4 0.766746 0.516613 0.919329
Si Si5 0.958659 0.737999 0.469654
Si Si6 0.202980 0.955319 0.061500
Si Si7 0.476722 0.591238 0.102083
Si Si8 0.215363 0.828105 0.513164
O O1 0.655059 0.745651 0.718614
O O2 0.730202 0.874716 0.479680
O O3 0.881435 0.823659 0.301777
O O4 0.900410 0.526332 0.389389
O O5 0.510504 0.950699 0.199787
O O6 0.820440 0.838575 0.094682
O O7 0.229953 0.925743 0.201216
O O8 0.286383 0.951126 0.373763
O O9 0.041711 0.322307 0.039912
O O10 0.723610 0.372979 0.956590
O O11 0.628719 0.575925 0.005971
O O12 0.129477 0.752582 0.489911
O O13 0.416729 0.755178 0.095796
O O14 0.000000 0.000000 0.000000
O O15 0.595531 0.366357 0.301972
O O16 0.000000 0.000000 0.500000
#
# Coordination Sequence:
#
# PCOD9066395 Si02
#       8
#     1   2   2   2   2   2   2   2
#     4  12  26  44  78 108 152 204 256 322 390 456
#     4  11  27  49  73 115 164 203 259 325 395 467
#     4  12  26  47  79 113 153 207 260 323 392 469
#     4  11  25  47  75 112 152 200 260 319 395 464
#     4  11  27  47  75 112 157 207 260 321 392 468
#     4  12  24  44  75 107 151 204 260 316 385 463
#     4  11  25  45  76 109 151 201 258 323 381 464
#     4  12  26  49  78 114 153 203 269 320 388 473
#
# _framework density 24.956182999999999
#
# number of rings (size 3 to 8) (size 9 to 14) (size 15 to 20)
#    0.000    0.533    2.667    4.400    5.600    4.267 
#    0.000    2.000    0.000    0.000    0.000    0.000 
#    0.000    0.000    0.000    0.000    0.000    0.000 
#
# Total GULP energy -83654.043786 kJ/mol
# GULP energy per Si atom -5576.936252 kJ/mol
# Density = 2.489938 g / cm^3
# Si number density = 24.956183 Si / 1000 Ang^3
#
#
#
# Elastic Constant Matrix: (Units=GPa)
#
#
# Indices 1 2 3 4 5 6 
#
# 1 56.3347 -1.4042 2.4931 -9.2104 -8.7180 -5.7160
# 2 -1.4042 85.8661 23.7157 -2.5585 -14.7420 -2.8905
# 3 2.4931 23.7157 131.2007 1.2423 -23.0466 -23.4188
# 4 -9.2104 -2.5585 1.2423 38.4696 -10.1423 2.2843
# 5 -8.7180 -14.7420 -23.0466 -10.1423 33.4334 6.6164
# 6 -5.7160 -2.8905 -23.4188 2.2843 6.6164 49.1772
#
#
#
# Elastic Compliance Matrix: (Units=1/GPa)
#
#
# Indices 1 2 3 4 5 6 
#
# 1 0.020423 0.001815 0.001006 0.007188 0.008712 0.001453
# 2 0.001815 0.013244 -0.001463 0.003087 0.006381 -0.000709
# 3 0.001006 -0.001463 0.009544 0.001143 0.005802 0.003742
# 4 0.007188 0.003087 0.001143 0.031678 0.013988 -0.001792
# 5 0.008712 0.006381 0.005802 0.013988 0.043709 -0.002380
# 6 0.001453 -0.000709 0.003742 -0.001792 -0.002380 0.022647
#
#
# Mechanical properties :
#
#
# Convention : Reuss Voigt Hill
#
# Bulk Modulus (GPa) = 21.77499 35.89006 28.83253
# Shear Modulus (GPa) = 32.50175 40.78919 36.64547
#
# Velocity S-wave (km/s) = 3.61273 4.04720 3.83612
# Velocity P-wave (km/s) = 5.11338 6.02098 5.58564
#
# Compressibility (1/GPa) = 0.04592424
#
# Stress axis : x y z
#
# Youngs Moduli (GPa) = 48.96511 75.50872 104.78282
#
# Poissons Ratio (x) = -0.13705 -0.10536
# Poissons Ratio (y) = -0.08888 0.15333
# Poissons Ratio (z) = -0.04923 0.11050
#
# Static dielectric constant tensor:
#      x y z
#    x 2.022650 0.086790 0.066190 
#    y 0.086790 2.005790 -0.014780 
#    z 0.066190 -0.014780 2.063940 
# 
# From -- ./inp_files/389048.got.cif
#   From: 2010.05.17/outbox.cif.g08.bks.cpg/sg2_195_cif.got.tgz:389048.got - 2010.06.03 11:33:40.
