data_PCOD9066509
_publ_section_title
;
Structure prediction by ZEFSAII (Michael W. Deem and Ramdas Pophale) SiO2 
 PCOD9066509
Probable space group: P -1
;
_chemical_formula_sum "Si O2"
_cell_formula_units_Z 16
_cell_length_a 9.007825
_cell_length_b 11.722515
_cell_length_c 19.398818
_cell_angle_alpha 135.745214
_cell_angle_beta 150.128797
_cell_angle_gamma 52.962967
_cell_volume 710.918066
_symmetry_space_group_name_H-M "P -1"
_symmetry_group_IT_number 2
_symmetry_cell_setting 'triclinic'
loop_
_space_group_symop_operation_xyz
x,y,z
-x,-y,-z
loop_
_atom_site_type_symbol
_atom_site_label
_atom_site_fract_x
_atom_site_fract_y
_atom_site_fract_z
Si Si1 0.098787 0.694752 0.847791
Si Si2 0.424997 0.727873 0.605259
Si Si3 0.752735 0.001069 0.691596
Si Si4 0.658774 0.452649 0.362843
Si Si5 0.364340 0.913235 0.165669
Si Si6 0.134368 0.332889 0.746264
Si Si7 0.748080 0.237485 0.670307
Si Si8 0.678138 0.173610 0.149135
O O1 0.272559 0.750320 0.873553
O O2 0.744404 0.677296 0.682931
O O3 0.206066 0.524053 0.845518
O O4 0.148626 0.829403 0.985810
O O5 0.352822 0.620452 0.596834
O O6 0.162957 0.706678 0.435509
O O7 0.472270 0.920340 0.724803
O O8 0.785178 0.040982 0.802538
O O9 0.797572 0.161653 0.732356
O O10 0.432518 0.910430 0.507486
O O11 0.995594 0.872880 0.713160
O O12 0.454826 0.606807 0.341978
O O13 0.546416 0.306575 0.203436
O O14 0.000000 0.500000 0.500000
O O15 0.608786 0.781823 0.223025
O O16 0.044084 0.290157 0.769919
O O17 0.500000 0.000000 0.000000
#
# Coordination Sequence:
#
# PCOD9066509 Si02
#       8
#     2   2   2   2   2   2   2   2
#     4  12  26  49  71 101 146 184 238 296 348 415
#     4  12  25  45  77 100 136 188 243 290 342 417
#     4  11  26  45  70 103 147 181 230 292 356 419
#     4  12  26  44  73 107 137 181 238 294 345 410
#     4  12  27  45  72 105 142 188 231 290 360 418
#     4  12  26  45  73 105 137 188 238 293 347 416
#     4  11  25  46  70 106 143 180 233 296 349 416
#     4  12  27  46  71 103 142 189 230 282 353 426
#
# _framework density 22.506108999999999
#
# number of rings (size 3 to 8) (size 9 to 14) (size 15 to 20)
#    0.000    0.250    5.000    3.000    8.750    0.000 
#    0.000    1.250    0.000    0.000    0.000    0.000 
#    0.000    0.000    0.000    0.000    0.000    0.000 
#
# Total GULP energy -89667.359060 kJ/mol
# GULP energy per Si atom -5604.209941 kJ/mol
# Density = 2.245488 g / cm^3
# Si number density = 22.506109 Si / 1000 Ang^3
#
#
#
# Elastic Constant Matrix: (Units=GPa)
#
#
# Indices 1 2 3 4 5 6 
#
# 1 114.8005 28.0437 16.9141 16.0962 -0.1670 29.1881
# 2 28.0437 126.1086 6.4932 23.5935 0.3744 13.1701
# 3 16.9141 6.4932 70.5386 14.7121 -8.0105 8.7500
# 4 16.0962 23.5935 14.7121 41.7690 5.0358 3.8092
# 5 -0.1670 0.3744 -8.0105 5.0358 32.5705 8.0202
# 6 29.1881 13.1701 8.7500 3.8092 8.0202 50.7019
#
#
#
# Elastic Compliance Matrix: (Units=1/GPa)
#
#
# Indices 1 2 3 4 5 6 
#
# 1 0.011081 -0.001261 -0.001010 -0.002870 0.001728 -0.005935
# 2 -0.001261 0.009282 0.000856 -0.005063 0.001288 -0.001656
# 3 -0.001010 0.000856 0.016704 -0.006408 0.005813 -0.002962
# 4 -0.002870 -0.005063 -0.006408 0.030745 -0.006993 0.002869
# 5 0.001728 0.001288 0.005813 -0.006993 0.035017 -0.007346
# 6 -0.005935 -0.001656 -0.002962 0.002869 -0.007346 0.025028
#
#
# Mechanical properties :
#
#
# Convention : Reuss Voigt Hill
#
# Bulk Modulus (GPa) = 29.20771 46.03884 37.62327
# Shear Modulus (GPa) = 35.18623 42.34138 38.76381
#
# Velocity S-wave (km/s) = 3.95828 4.34213 4.15464
# Velocity P-wave (km/s) = 5.82207 6.75569 6.30619
#
# Compressibility (1/GPa) = 0.03423754
#
# Stress axis : x y z
#
# Youngs Moduli (GPa) = 90.24074 107.73127 59.86506
#
# Poissons Ratio (x) = 0.13581 0.06047
# Poissons Ratio (y) = 0.11376 -0.05122
# Poissons Ratio (z) = 0.09115 -0.09217
#
# Static dielectric constant tensor:
#      x y z
#    x 1.791660 0.000110 0.009250 
#    y 0.000110 1.806560 -0.002460 
#    z 0.009250 -0.002460 1.881560 
# 
# From -- ./inp_files/316043.got.cif
#   From: 2010.05.17/outbox.cif.g08.bks.cpg/sg2_159_cif.got.tgz:316043.got - 2010.06.03 11:33:40.
