data_PCOD9066228
_publ_section_title
;
Structure prediction by ZEFSAII (Michael W. Deem and Ramdas Pophale) SiO2 
 PCOD9066228
Probable space group: P -1
;
_chemical_formula_sum "Si O2"
_cell_formula_units_Z 14
_cell_length_a 22.615003
_cell_length_b 12.980800
_cell_length_c 15.816204
_cell_angle_alpha 152.847269
_cell_angle_beta 19.380768
_cell_angle_gamma 152.307678
_cell_volume 669.801676
_symmetry_space_group_name_H-M "P -1"
_symmetry_group_IT_number 2
_symmetry_cell_setting 'triclinic'
loop_
_space_group_symop_operation_xyz
x,y,z
-x,-y,-z
loop_
_atom_site_type_symbol
_atom_site_label
_atom_site_fract_x
_atom_site_fract_y
_atom_site_fract_z
Si Si1 0.719279 0.571842 0.785657
Si Si2 0.391699 0.787186 0.924934
Si Si3 0.029629 0.226975 0.565355
Si Si4 0.188306 0.591154 0.761730
Si Si5 0.290684 0.996709 0.800342
Si Si6 0.832464 0.109441 0.289114
Si Si7 0.460388 0.308900 0.525950
O O1 0.800665 0.356265 0.541038
O O2 0.849262 0.726654 0.649671
O O3 0.500000 0.500000 0.000000
O O4 0.726611 0.742923 0.979652
O O5 0.372203 0.523405 0.793084
O O6 0.502538 0.790395 0.688556
O O7 0.181868 0.785461 0.184032
O O8 0.500000 0.000000 0.000000
O O9 0.152723 0.437061 0.612698
O O10 0.000000 0.000000 0.500000
O O11 0.348019 0.574229 0.597076
O O12 0.233965 0.858121 0.862625
O O13 0.000000 0.500000 0.000000
O O14 0.500000 0.000000 0.500000
O O15 0.168172 0.865629 0.792728
O O16 0.657254 0.905854 0.414615
O O17 0.000000 0.000000 0.000000
#
# Coordination Sequence:
#
# PCOD9066228 Si02
#       7
#     2   2   2   2   2   2   2
#     4  12  25  44  73 105 143 187 241 295 354 429
#     4  11  26  47  69 104 145 186 236 295 360 438
#     4  12  25  42  72 107 138 183 245 297 356 427
#     4  12  22  42  72 104 141 186 239 300 354 417
#     4  12  24  46  71 104 143 190 241 296 352 429
#     4  12  27  46  73 106 149 190 240 298 362 431
#     4  11  25  45  72 101 144 191 235 294 365 423
#
# _framework density 20.901709
#
# number of rings (size 3 to 8) (size 9 to 14) (size 15 to 20)
#    0.000    0.286    5.714    2.571    2.000    2.857 
#    0.000    0.000    0.000    0.000    0.000    0.000 
#    0.000    0.000    0.000    0.000    0.000    0.000 
#
# Total GULP energy -78115.611576 kJ/mol
# GULP energy per Si atom -5579.686541 kJ/mol
# Density = 2.085414 g / cm^3
# Si number density = 20.901709 Si / 1000 Ang^3
#
#
#
# Elastic Constant Matrix: (Units=GPa)
#
#
# Indices 1 2 3 4 5 6 
#
# 1 88.6393 24.2571 45.4410 16.8296 -15.1165 1.2641
# 2 24.2571 103.1443 64.4521 14.3720 -7.4378 -15.9796
# 3 45.4410 64.4521 147.2217 19.5930 -19.3250 -3.0401
# 4 16.8296 14.3720 19.5930 45.5667 1.1291 10.7924
# 5 -15.1165 -7.4378 -19.3250 1.1291 44.1511 7.7420
# 6 1.2641 -15.9796 -3.0401 10.7924 7.7420 49.0967
#
#
#
# Elastic Compliance Matrix: (Units=1/GPa)
#
#
# Indices 1 2 3 4 5 6 
#
# 1 0.014438 -0.000714 -0.003189 -0.003693 0.003620 -0.000561
# 2 -0.000714 0.014677 -0.005841 -0.003079 -0.001178 0.005297
# 3 -0.003189 -0.005841 0.010884 -0.001426 0.002952 -0.001297
# 4 -0.003693 -0.003079 -0.001426 0.026485 -0.001943 -0.006511
# 5 0.003620 -0.001178 0.002952 -0.001943 0.025720 -0.003923
# 6 -0.000561 0.005297 -0.001297 -0.006511 -0.003923 0.024076
#
#
# Mechanical properties :
#
#
# Convention : Reuss Voigt Hill
#
# Bulk Modulus (GPa) = 48.74981 67.47839 58.11410
# Shear Modulus (GPa) = 35.06174 41.41990 38.24082
#
# Velocity S-wave (km/s) = 4.10012 4.45640 4.28197
# Velocity P-wave (km/s) = 6.76673 7.67028 7.23263
#
# Compressibility (1/GPa) = 0.02051290
#
# Stress axis : x y z
#
# Youngs Moduli (GPa) = 69.25968 68.13152 91.87622
#
# Poissons Ratio (x) = 0.04866 0.29296
# Poissons Ratio (y) = 0.04947 0.53662
# Poissons Ratio (z) = 0.22085 0.39793
#
# Static dielectric constant tensor:
#      x y z
#    x 1.696960 0.007470 0.037870 
#    y 0.007470 1.771890 -0.003020 
#    z 0.037870 -0.003020 1.736850 
# 
# From -- ./inp_files/283415.got.cif
#   From: 2010.05.17/outbox.cif.g08.bks.cpg/sg2_142_cif.got.tgz:283415.got - 2010.06.03 11:33:40.
