data_PCOD9066188
_publ_section_title
;
Structure prediction by ZEFSAII (Michael W. Deem and Ramdas Pophale) SiO2 
 PCOD9066188
Probable space group: P -1
;
_chemical_formula_sum "Si O2"
_cell_formula_units_Z 16
_cell_length_a 13.012390
_cell_length_b 9.422414
_cell_length_c 17.960534
_cell_angle_alpha 33.629429
_cell_angle_beta 141.569690
_cell_angle_gamma 146.782479
_cell_volume 640.187970
_symmetry_space_group_name_H-M "P -1"
_symmetry_group_IT_number 2
_symmetry_cell_setting 'triclinic'
loop_
_space_group_symop_operation_xyz
x,y,z
-x,-y,-z
loop_
_atom_site_type_symbol
_atom_site_label
_atom_site_fract_x
_atom_site_fract_y
_atom_site_fract_z
Si Si1 0.378947 0.662542 0.360772
Si Si2 0.857966 0.461960 0.002771
Si Si3 0.103192 0.105291 0.851465
Si Si4 0.294664 0.705145 0.798610
Si Si5 0.497644 0.011649 0.405291
Si Si6 0.476292 0.589169 0.097580
Si Si7 0.920008 0.163439 0.576818
Si Si8 0.950331 0.148275 0.308813
O O1 0.500000 0.500000 0.500000
O O2 0.172191 0.434886 0.305679
O O3 0.507962 0.996862 0.251005
O O4 0.336931 0.721505 0.395442
O O5 0.637423 0.385661 0.907108
O O6 0.983897 0.798795 0.965195
O O7 0.000000 0.500000 0.000000
O O8 0.838221 0.202697 0.156901
O O9 0.176898 0.416803 0.802230
O O10 0.301409 0.154473 0.907294
O O11 0.955618 0.035333 0.729175
O O12 0.158521 0.834294 0.688441
O O13 0.359308 0.583024 0.959508
O O14 0.485669 0.294298 0.248662
O O15 0.697463 0.032329 0.486626
O O16 0.500000 0.000000 0.500000
O O17 0.000000 0.500000 0.500000
O O18 0.035372 0.129776 0.589254
#
# Coordination Sequence:
#
# PCOD9066188 Si02
#       8
#     2   2   2   2   2   2   2   2
#     4  12  26  50  74 107 152 193 249 310 371 447
#     4  11  25  45  70 110 151 191 244 309 377 442
#     4  12  24  45  78 107 151 194 248 309 372 453
#     4  11  27  48  78 114 145 197 249 312 380 441
#     4  12  27  46  73 110 146 197 252 301 367 445
#     4  11  25  47  77 108 147 194 252 302 372 444
#     4  12  24  48  69 106 152 196 249 300 363 450
#     4  11  27  47  72 109 152 193 246 309 377 438
#
# _framework density 24.992660000000001
#
# number of rings (size 3 to 8) (size 9 to 14) (size 15 to 20)
#    0.000    0.500    5.000    1.875    5.250    3.000 
#    2.250    0.000    0.000    0.000    0.000    0.000 
#    0.000    0.000    0.000    0.000    0.000    0.000 
#
# Total GULP energy -89437.853963 kJ/mol
# GULP energy per Si atom -5589.865873 kJ/mol
# Density = 2.493578 g / cm^3
# Si number density = 24.992660 Si / 1000 Ang^3
#
#
#
# Elastic Constant Matrix: (Units=GPa)
#
#
# Indices 1 2 3 4 5 6 
#
# 1 139.7653 39.4765 40.7264 -11.2726 23.4313 -1.0169
# 2 39.4765 104.3418 20.7215 -12.7772 9.1681 -7.5938
# 3 40.7264 20.7215 125.6957 2.9807 9.4668 -6.8631
# 4 -11.2726 -12.7772 2.9807 35.8658 3.9058 0.7601
# 5 23.4313 9.1681 9.4668 3.9058 46.9685 5.0589
# 6 -1.0169 -7.5938 -6.8631 0.7601 5.0589 39.9472
#
#
#
# Elastic Compliance Matrix: (Units=1/GPa)
#
#
# Indices 1 2 3 4 5 6 
#
# 1 0.009428 -0.002415 -0.002435 0.002739 -0.003949 -0.000189
# 2 -0.002415 0.011380 -0.000965 0.003477 -0.001331 0.002039
# 3 -0.002435 -0.000965 0.009055 -0.001845 -0.000420 0.001399
# 4 0.002739 0.003477 -0.001845 0.030590 -0.004257 0.000371
# 5 -0.003949 -0.001331 -0.000420 -0.004257 0.024328 -0.003426
# 6 -0.000189 0.002039 0.001399 0.000371 -0.003426 0.026083
#
#
# Mechanical properties :
#
#
# Convention : Reuss Voigt Hill
#
# Bulk Modulus (GPa) = 54.83818 63.51686 59.17752
# Shear Modulus (GPa) = 38.88906 42.48152 40.68529
#
# Velocity S-wave (km/s) = 3.94892 4.12729 4.03909
# Velocity P-wave (km/s) = 6.54074 6.94133 6.74401
#
# Compressibility (1/GPa) = 0.01823547
#
# Stress axis : x y z
#
# Youngs Moduli (GPa) = 106.06890 87.87220 110.43315
#
# Poissons Ratio (x) = 0.21220 0.26885
# Poissons Ratio (y) = 0.25614 0.10652
# Poissons Ratio (z) = 0.25823 0.08476
#
# Static dielectric constant tensor:
#      x y z
#    x 2.080280 0.016620 -0.006920 
#    y 0.016620 2.195060 0.116370 
#    z -0.006920 0.116370 2.166630 
# 
# From -- ./inp_files/566461.got.cif
#   From: 2010.05.17/outbox.cif.g08.bks.cpg/sg2_284_cif.got.tgz:566461.got - 2010.06.03 11:33:40.
