data_PCOD9066173
_publ_section_title
;
Structure prediction by ZEFSAII (Michael W. Deem and Ramdas Pophale) SiO2 
 PCOD9066173
Probable space group: P -1
;
_chemical_formula_sum "Si O2"
_cell_formula_units_Z 14
_cell_length_a 8.653410
_cell_length_b 19.604077
_cell_length_c 8.842022
_cell_angle_alpha 50.680752
_cell_angle_beta 96.395911
_cell_angle_gamma 136.181494
_cell_volume 613.592280
_symmetry_space_group_name_H-M "P -1"
_symmetry_group_IT_number 2
_symmetry_cell_setting 'triclinic'
loop_
_space_group_symop_operation_xyz
x,y,z
-x,-y,-z
loop_
_atom_site_type_symbol
_atom_site_label
_atom_site_fract_x
_atom_site_fract_y
_atom_site_fract_z
Si Si1 0.186139 0.665176 0.365515
Si Si2 0.911479 0.052496 0.271346
Si Si3 0.711878 0.535063 0.054277
Si Si4 0.168712 0.032219 0.117757
Si Si5 0.184379 0.352514 0.751575
Si Si6 0.299867 0.666343 0.711385
Si Si7 0.808324 0.117740 0.449614
O O1 0.206703 0.660067 0.551092
O O2 0.000000 0.500000 0.500000
O O3 0.032274 0.683700 0.298239
O O4 0.499792 0.806738 0.125552
O O5 0.963188 0.128325 0.327463
O O6 0.096204 0.059080 0.217499
O O7 0.577990 0.857772 0.522546
O O8 0.008775 0.176359 0.991529
O O9 0.755072 0.578348 0.173054
O O10 0.585513 0.377619 0.244198
O O11 0.500000 0.500000 0.000000
O O12 0.020488 0.707318 0.766977
O O13 0.156526 0.924398 0.334216
O O14 0.000000 0.000000 0.000000
O O15 0.500000 0.500000 0.500000
O O16 0.000000 0.500000 0.000000
O O17 0.500000 0.000000 0.500000
#
# Coordination Sequence:
#
# PCOD9066173 Si02
#       7
#     2   2   2   2   2   2   2
#     4  12  26  47  75 103 151 197 245 306 386 438
#     4  11  25  46  74 111 144 200 248 300 380 447
#     4  11  25  45  70 101 144 187 242 294 369 437
#     4  12  25  47  74 109 154 189 252 319 371 445
#     4  11  26  49  74 110 147 195 248 309 376 448
#     4  12  27  46  71 109 147 191 250 304 368 443
#     4  11  25  48  74 103 146 200 249 302 368 446
#
# _framework density 22.816455000000001
#
# number of rings (size 3 to 8) (size 9 to 14) (size 15 to 20)
#    0.000    0.571    2.857    4.714    4.000    1.714 
#    2.571    0.000    0.000    0.000    0.000    0.000 
#    0.000    0.000    0.000    0.000    0.000    0.000 
#
# Total GULP energy -78084.969628 kJ/mol
# GULP energy per Si atom -5577.497831 kJ/mol
# Density = 2.276452 g / cm^3
# Si number density = 22.816455 Si / 1000 Ang^3
#
#
#
# Elastic Constant Matrix: (Units=GPa)
#
#
# Indices 1 2 3 4 5 6 
#
# 1 126.0005 21.4738 56.2110 -3.1695 13.5895 25.1185
# 2 21.4738 58.2627 35.1348 -7.1158 10.8125 13.9193
# 3 56.2110 35.1348 172.1083 -20.3984 1.9608 9.0337
# 4 -3.1695 -7.1158 -20.3984 48.1350 -0.8194 4.5696
# 5 13.5895 10.8125 1.9608 -0.8194 60.7560 -0.9567
# 6 25.1185 13.9193 9.0337 4.5696 -0.9567 47.6267
#
#
#
# Elastic Compliance Matrix: (Units=1/GPa)
#
#
# Indices 1 2 3 4 5 6 
#
# 1 0.010624 -0.000475 -0.003122 -0.000268 -0.002271 -0.004892
# 2 -0.000475 0.021901 -0.003723 0.002108 -0.003733 -0.005721
# 3 -0.003122 -0.003723 0.007816 0.002477 0.001158 0.001038
# 4 -0.000268 0.002108 0.002477 0.022410 -0.000142 -0.003098
# 5 -0.002271 -0.003733 0.001158 -0.000142 0.017631 0.002437
# 6 -0.004892 -0.005721 0.001038 -0.003098 0.002437 0.025398
#
#
# Mechanical properties :
#
#
# Convention : Reuss Voigt Hill
#
# Bulk Modulus (GPa) = 38.91041 64.66783 51.78912
# Shear Modulus (GPa) = 38.76367 47.54033 43.15200
#
# Velocity S-wave (km/s) = 4.12629 4.56960 4.35359
# Velocity P-wave (km/s) = 6.30812 7.49972 6.92958
#
# Compressibility (1/GPa) = 0.02570007
#
# Stress axis : x y z
#
# Youngs Moduli (GPa) = 94.12998 45.65998 127.94505
#
# Poissons Ratio (x) = 0.02171 0.39941
# Poissons Ratio (y) = 0.04476 0.47634
# Poissons Ratio (z) = 0.29385 0.16999
#
# Static dielectric constant tensor:
#      x y z
#    x 1.904940 0.035640 0.001660 
#    y 0.035640 1.748380 0.041050 
#    z 0.001660 0.041050 1.877700 
# 
# From -- ./inp_files/223249.got.cif
#   From: 2010.05.17/outbox.cif.g08.bks.cpg/sg2_112_cif.got.tgz:223249.got - 2010.06.03 11:33:40.
