data_PCOD9066193
_publ_section_title
;
Structure prediction by ZEFSAII (Michael W. Deem and Ramdas Pophale) SiO2 
 PCOD9066193
Probable space group: P -1
;
_chemical_formula_sum "Si O2"
_cell_formula_units_Z 16
_cell_length_a 10.541029
_cell_length_b 15.988643
_cell_length_c 9.437520
_cell_angle_alpha 100.328437
_cell_angle_beta 81.969207
_cell_angle_gamma 31.736514
_cell_volume 679.347342
_symmetry_space_group_name_H-M "P -1"
_symmetry_group_IT_number 2
_symmetry_cell_setting 'triclinic'
loop_
_space_group_symop_operation_xyz
x,y,z
-x,-y,-z
loop_
_atom_site_type_symbol
_atom_site_label
_atom_site_fract_x
_atom_site_fract_y
_atom_site_fract_z
Si Si1 0.294100 0.737682 0.400044
Si Si2 0.380532 0.285884 0.698290
Si Si3 0.888999 0.666069 0.469241
Si Si4 0.097374 0.718288 0.769342
Si Si5 0.956525 0.059099 0.201146
Si Si6 0.167802 0.294919 0.167628
Si Si7 0.521340 0.234338 0.126820
Si Si8 0.839972 0.884957 0.548948
O O1 0.421087 0.749407 0.323617
O O2 0.580588 0.511010 0.321642
O O3 0.138957 0.865160 0.603950
O O4 0.045036 0.823999 0.401589
O O5 0.333154 0.269860 0.545032
O O6 0.057634 0.517135 0.837832
O O7 0.542451 0.112713 0.699805
O O8 0.904160 0.653115 0.634603
O O9 0.793239 0.817522 0.484848
O O10 0.209055 0.459242 0.288106
O O11 0.090628 0.821979 0.837453
O O12 0.879128 0.775716 0.882086
O O13 0.024834 0.761664 0.626480
O O14 0.735543 0.123461 0.190319
O O15 0.292747 0.835910 0.051450
O O16 0.464031 0.170766 0.075399
#
# Coordination Sequence:
#
# PCOD9066193 Si02
#       8
#     2   2   2   2   2   2   2   2
#     4  10  18  32  49  68  95 122 151 189 233 269
#     4  10  18  28  47  73  93 115 152 194 229 268
#     4  10  18  32  49  68  95 122 151 189 233 269
#     4   9  18  32  50  68  93 122 151 190 232 269
#     4  10  18  28  46  71  94 118 152 190 227 270
#     4   9  18  32  50  68  93 122 151 190 232 269
#     4  10  18  28  46  71  94 118 152 190 227 270
#     4  10  18  28  47  73  93 115 152 194 229 268
#
# _framework density 23.552018
#
# number of rings (size 3 to 8) (size 9 to 14) (size 15 to 20)
#    0.000    2.250    0.000    7.500    0.000    0.500 
#    0.000    0.000    0.000   12.750    0.000   35.000 
#    0.000    0.000    0.000    0.000    0.000    0.000 
#
# Total GULP energy -89118.385605 kJ/mol
# GULP energy per Si atom -5569.899100 kJ/mol
# Density = 2.349841 g / cm^3
# Si number density = 23.552018 Si / 1000 Ang^3
#
#
#
# Elastic Constant Matrix: (Units=GPa)
#
#
# Indices 1 2 3 4 5 6 
#
# 1 120.6207 41.2712 1.9418 12.5467 -16.3753 -3.2963
# 2 41.2712 89.6063 21.6934 28.4983 2.1591 5.5636
# 3 1.9418 21.6934 53.7811 10.5423 -6.0012 -7.3349
# 4 12.5467 28.4983 10.5423 23.5102 -2.0176 8.5129
# 5 -16.3753 2.1591 -6.0012 -2.0176 31.0859 10.3058
# 6 -3.2963 5.5636 -7.3349 8.5129 10.3058 24.4862
#
#
#
# Elastic Compliance Matrix: (Units=1/GPa)
#
#
# Indices 1 2 3 4 5 6 
#
# 1 0.011262 -0.006290 0.002858 0.000634 0.006712 0.000756
# 2 -0.006290 0.023072 -0.004426 -0.025306 -0.009148 0.005233
# 3 0.002858 -0.004426 0.024269 -0.011131 0.001885 0.011737
# 4 0.000634 -0.025306 -0.011131 0.093070 0.018457 -0.037624
# 5 0.006712 -0.009148 0.001885 0.018457 0.045154 -0.021875
# 6 0.000756 0.005233 0.011737 -0.037624 -0.021875 0.065555
#
#
# Mechanical properties :
#
#
# Convention : Reuss Voigt Hill
#
# Bulk Modulus (GPa) = 23.31629 43.75786 33.53708
# Shear Modulus (GPa) = 17.10028 29.08989 23.09509
#
# Velocity S-wave (km/s) = 2.69748 3.51826 3.13485
# Velocity P-wave (km/s) = 4.42982 5.92653 5.23197
#
# Compressibility (1/GPa) = 0.04288847
#
# Stress axis : x y z
#
# Youngs Moduli (GPa) = 88.79156 43.34246 41.20506
#
# Poissons Ratio (x) = 0.27261 -0.11777
# Poissons Ratio (y) = 0.55846 0.18237
# Poissons Ratio (z) = -0.25377 0.19183
#
# Static dielectric constant tensor:
#      x y z
#    x 1.972330 0.031340 -0.020200 
#    y 0.031340 1.954500 -0.010650 
#    z -0.020200 -0.010650 1.913480 
# 
# From -- ./inp_files/436780.got.cif
#   From: 2010.05.17/outbox.cif.g08.bks.cpg/sg2_219_cif.got.tgz:436780.got - 2010.06.03 11:33:40.
