data_PCOD9066512
_publ_section_title
;
Structure prediction by ZEFSAII (Michael W. Deem and Ramdas Pophale) SiO2 
 PCOD9066512
Probable space group: P -1
;
_chemical_formula_sum "Si O2"
_cell_formula_units_Z 13
_cell_length_a 10.894480
_cell_length_b 8.165031
_cell_length_c 10.271663
_cell_angle_alpha 83.990359
_cell_angle_beta 114.106142
_cell_angle_gamma 135.738328
_cell_volume 556.224835
_symmetry_space_group_name_H-M "P -1"
_symmetry_group_IT_number 2
_symmetry_cell_setting 'triclinic'
loop_
_space_group_symop_operation_xyz
x,y,z
-x,-y,-z
loop_
_atom_site_type_symbol
_atom_site_label
_atom_site_fract_x
_atom_site_fract_y
_atom_site_fract_z
Si Si1 0.766726 0.652428 0.391921
Si Si2 0.223341 0.899288 0.001582
Si Si3 0.000000 0.000000 0.000000
Si Si4 0.490064 0.352168 0.897844
Si Si5 0.485469 0.792519 0.512006
Si Si6 0.234504 0.573384 0.167602
Si Si7 0.099882 0.020259 0.335891
O O1 0.638637 0.684562 0.270756
O O2 0.628720 0.378203 0.397495
O O3 0.870080 0.812458 0.554999
O O4 0.926467 0.749275 0.344191
O O5 0.171802 0.007234 0.061858
O O6 0.000178 0.636669 0.882961
O O7 0.372759 0.094058 0.936150
O O8 0.299841 0.811879 0.123931
O O9 0.973308 0.973230 0.831333
O O10 0.708725 0.502798 0.919510
O O11 0.500000 0.500000 0.000000
O O12 0.361667 0.636223 0.341242
O O13 0.696207 0.893398 0.591041
O O14 0.500000 0.000000 0.500000
#
# Coordination Sequence:
#
# PCOD9066512 Si02
#       7
#     2   2   1   2   2   2   2
#     4  11  26  45  71 105 142 189 238 299 361 420
#     4  11  25  46  70 106 148 181 244 298 358 422
#     4  12  22  42  78 104 136 188 242 290 358 432
#     4  12  26  44  75 107 141 189 249 295 355 436
#     4  12  27  45  71 103 147 190 240 292 365 436
#     4  11  26  46  70 102 148 195 232 301 363 422
#     4  11  25  46  73 105 142 186 239 300 354 431
#
# _framework density 23.371842999999998
#
# number of rings (size 3 to 8) (size 9 to 14) (size 15 to 20)
#    0.000    0.615    3.077    3.692    8.615    0.615 
#    0.000    0.000    0.000    0.000    0.000    0.000 
#    0.000    0.000    0.000    0.000    0.000    0.000 
#
# Total GULP energy -72587.463371 kJ/mol
# GULP energy per Si atom -5583.651029 kJ/mol
# Density = 2.331865 g / cm^3
# Si number density = 23.371843 Si / 1000 Ang^3
#
#
#
# Elastic Constant Matrix: (Units=GPa)
#
#
# Indices 1 2 3 4 5 6 
#
# 1 40.5653 20.7380 30.6637 -6.2591 1.7790 9.9166
# 2 20.7380 129.6757 30.8715 -49.8907 7.3293 22.9022
# 3 30.6637 30.8715 153.0619 -24.6800 8.3703 11.0421
# 4 -6.2591 -49.8907 -24.6800 39.5364 -5.1700 1.8919
# 5 1.7790 7.3293 8.3703 -5.1700 36.7989 3.5286
# 6 9.9166 22.9022 11.0421 1.8919 3.5286 45.6960
#
#
#
# Elastic Compliance Matrix: (Units=1/GPa)
#
#
# Indices 1 2 3 4 5 6 
#
# 1 0.031618 -0.005089 -0.005931 -0.004936 0.000400 -0.002705
# 2 -0.005089 0.019942 0.001940 0.026138 0.000510 -0.010481
# 3 -0.005931 0.001940 0.008631 0.006874 -0.000907 -0.001986
# 4 -0.004936 0.026138 0.006874 0.063094 0.003926 -0.016605
# 5 0.000400 0.000510 -0.000907 0.003926 0.028047 -0.002452
# 6 -0.002705 -0.010481 -0.001986 -0.016605 -0.002452 0.029080
#
#
# Mechanical properties :
#
#
# Convention : Reuss Voigt Hill
#
# Bulk Modulus (GPa) = 23.79075 54.20545 38.99810
# Shear Modulus (GPa) = 23.52044 40.47491 31.99767
#
# Velocity S-wave (km/s) = 3.17576 4.16598 3.70411
# Velocity P-wave (km/s) = 4.86298 6.81054 5.91744
#
# Compressibility (1/GPa) = 0.04203315
#
# Stress axis : x y z
#
# Youngs Moduli (GPa) = 31.62759 50.14557 115.85806
#
# Poissons Ratio (x) = 0.25517 0.68710
# Poissons Ratio (y) = 0.16094 -0.22477
# Poissons Ratio (z) = 0.18757 -0.09728
#
# Static dielectric constant tensor:
#      x y z
#    x 1.892620 -0.073960 -0.036040 
#    y -0.073960 2.238910 0.203930 
#    z -0.036040 0.203930 1.956380 
# 
# From -- ./inp_files/174391.got.cif
#   From: 2010.05.17/outbox.cif.g08.bks.cpg/sg2_88_cif.got.tgz:174391.got - 2010.06.03 11:33:40.
