data_PCOD9066990
_publ_section_title
;
Structure prediction by ZEFSAII (Michael W. Deem and Ramdas Pophale) SiO2 
 PCOD9066990
Probable space group: P -1
;
_chemical_formula_sum "Si O2"
_cell_formula_units_Z 12
_cell_length_a 15.447530
_cell_length_b 5.084153
_cell_length_c 15.004241
_cell_angle_alpha 113.194704
_cell_angle_beta 29.353960
_cell_angle_gamma 103.167450
_cell_volume 513.225790
_symmetry_space_group_name_H-M "P -1"
_symmetry_group_IT_number 2
_symmetry_cell_setting 'triclinic'
loop_
_space_group_symop_operation_xyz
x,y,z
-x,-y,-z
loop_
_atom_site_type_symbol
_atom_site_label
_atom_site_fract_x
_atom_site_fract_y
_atom_site_fract_z
Si Si1 0.569927 0.136835 0.229806
Si Si2 0.727443 0.418601 0.546709
Si Si3 0.428332 0.389537 0.958519
Si Si4 0.710106 0.936068 0.391079
Si Si5 0.190643 0.765096 0.821806
Si Si6 0.976898 0.335329 0.592102
O O1 0.409057 0.414830 0.384061
O O2 0.474517 0.000262 0.376713
O O3 0.742087 0.204589 0.133589
O O4 0.595747 0.934667 0.091187
O O5 0.590603 0.414363 0.750181
O O6 0.869190 0.600354 0.473014
O O7 0.825971 0.098365 0.374533
O O8 0.500000 0.500000 0.000000
O O9 0.217727 0.570364 0.171021
O O10 0.793518 0.584039 0.254940
O O11 0.685221 0.114888 0.345015
O O12 0.000000 0.000000 0.000000
O O13 0.000000 0.500000 0.500000
O O14 0.000000 0.000000 0.500000
#
# Coordination Sequence:
#
# PCOD9066990 Si02
#       6
#     2   2   2   2   2   2
#     4  11  26  45  76 105 142 199 245 306 370 436
#     4  11  26  48  78 110 149 199 251 303 377 437
#     4  11  25  47  74 109 150 193 250 304 368 442
#     4  11  25  48  74 100 150 190 242 303 373 439
#     4  12  27  47  72 109 147 190 245 307 371 442
#     4  12  28  48  75 107 149 201 247 307 373 435
#
# _framework density 23.381520999999999
#
# number of rings (size 3 to 8) (size 9 to 14) (size 15 to 20)
#    0.000    0.667    3.333    2.500   11.667    1.333 
#    3.000    0.000    0.000    0.000    0.000    0.000 
#    0.000    0.000    0.000    0.000    0.000    0.000 
#
# Total GULP energy -66903.372898 kJ/mol
# GULP energy per Si atom -5575.281075 kJ/mol
# Density = 2.332830 g / cm^3
# Si number density = 23.381521 Si / 1000 Ang^3
#
#
#
# Elastic Constant Matrix: (Units=GPa)
#
#
# Indices 1 2 3 4 5 6 
#
# 1 172.8353 77.3783 43.5879 17.1228 -0.8683 39.0857
# 2 77.3783 179.9647 41.7693 38.8411 1.6650 35.2534
# 3 43.5879 41.7693 85.0625 21.7922 -5.0516 34.2911
# 4 17.1228 38.8411 21.7922 41.5520 0.4737 14.3718
# 5 -0.8683 1.6650 -5.0516 0.4737 41.8942 -5.1271
# 6 39.0857 35.2534 34.2911 14.3718 -5.1271 43.2295
#
#
#
# Elastic Compliance Matrix: (Units=1/GPa)
#
#
# Indices 1 2 3 4 5 6 
#
# 1 0.008229 -0.002580 -0.001437 0.001414 -0.000494 -0.004726
# 2 -0.002580 0.008498 -0.000433 -0.005815 -0.000671 -0.002400
# 3 -0.001437 -0.000433 0.018580 -0.004822 0.000890 -0.011377
# 4 0.001414 -0.005815 -0.004822 0.032754 -0.001149 -0.003736
# 5 -0.000494 -0.000671 0.000890 -0.001149 0.024443 0.003570
# 6 -0.004726 -0.002400 -0.011377 -0.003736 0.003570 0.040053
#
#
# Mechanical properties :
#
#
# Convention : Reuss Voigt Hill
#
# Bulk Modulus (GPa) = 37.86817 84.81483 61.34150
# Shear Modulus (GPa) = 33.27603 43.67695 38.47649
#
# Velocity S-wave (km/s) = 3.77659 4.32674 4.06099
# Velocity P-wave (km/s) = 5.93699 7.83032 6.94844
#
# Compressibility (1/GPa) = 0.02640740
#
# Stress axis : x y z
#
# Youngs Moduli (GPa) = 121.51796 117.67658 53.82221
#
# Poissons Ratio (x) = 0.30357 0.07732
# Poissons Ratio (y) = 0.31348 0.02333
# Poissons Ratio (z) = 0.17457 0.05101
#
# Static dielectric constant tensor:
#      x y z
#    x 1.941550 0.049730 0.018930 
#    y 0.049730 1.989730 0.004970 
#    z 0.018930 0.004970 1.967180 
# 
# From -- ./inp_files/478531.got.cif
#   From: 2010.05.17/outbox.cif.g08.bks.cpg/sg2_240_cif.got.tgz:478531.got - 2010.06.03 11:33:40.
