data_PCOD9066019
_publ_section_title
;
Structure prediction by ZEFSAII (Michael W. Deem and Ramdas Pophale) SiO2 
 PCOD9066019
Probable space group: P -1
;
_chemical_formula_sum "Si O2"
_cell_formula_units_Z 14
_cell_length_a 13.574599
_cell_length_b 6.322363
_cell_length_c 23.897814
_cell_angle_alpha 126.470488
_cell_angle_beta 158.426166
_cell_angle_gamma 54.314339
_cell_volume 603.210212
_symmetry_space_group_name_H-M "P -1"
_symmetry_group_IT_number 2
_symmetry_cell_setting 'triclinic'
loop_
_space_group_symop_operation_xyz
x,y,z
-x,-y,-z
loop_
_atom_site_type_symbol
_atom_site_label
_atom_site_fract_x
_atom_site_fract_y
_atom_site_fract_z
Si Si1 0.405329 0.607082 0.905702
Si Si2 0.070781 0.188454 0.486325
Si Si3 0.469165 0.147043 0.365762
Si Si4 0.393270 0.075359 0.752503
Si Si5 0.970434 0.813636 0.047283
Si Si6 0.893315 0.868482 0.148672
Si Si7 0.468238 0.703635 0.457391
O O1 0.356863 0.368168 0.802938
O O2 0.150163 0.820706 0.812295
O O3 0.500000 0.500000 0.000000
O O4 0.635669 0.746649 0.017742
O O5 0.257605 0.083746 0.621360
O O6 0.000000 0.500000 0.500000
O O7 0.262527 0.058660 0.518601
O O8 0.783936 0.080854 0.323660
O O9 0.546233 0.424235 0.421716
O O10 0.393134 0.275648 0.406094
O O11 0.226004 0.976694 0.192822
O O12 0.701513 0.952714 0.897772
O O13 0.926707 0.834896 0.094464
O O14 0.000000 0.500000 0.000000
O O15 0.145676 0.718179 0.288812
O O16 0.500000 0.000000 0.500000
#
# Coordination Sequence:
#
# PCOD9066019 Si02
#       7
#     2   2   2   2   2   2   2
#     4  11  25  44  72 102 138 182 240 299 350 425
#     4  11  28  47  70 101 142 191 242 293 361 429
#     4  11  27  45  73 107 141 188 242 301 363 430
#     4  11  27  46  71 100 142 187 244 295 356 430
#     4  12  26  47  74 108 152 192 242 297 366 443
#     4  11  26  43  71 105 140 184 237 295 363 420
#     4  11  25  44  72 102 141 180 236 300 361 431
#
# _framework density 23.209157999999999
#
# number of rings (size 3 to 8) (size 9 to 14) (size 15 to 20)
#    0.000    0.857    2.857    1.714   12.000    1.714 
#    0.000    0.000    0.000    0.000    0.000    0.000 
#    0.000    0.000    0.000    0.000    0.000    0.000 
#
# Total GULP energy -78167.258505 kJ/mol
# GULP energy per Si atom -5583.375608 kJ/mol
# Density = 2.315633 g / cm^3
# Si number density = 23.209158 Si / 1000 Ang^3
#
#
#
# Elastic Constant Matrix: (Units=GPa)
#
#
# Indices 1 2 3 4 5 6 
#
# 1 59.3092 17.7461 6.0384 -0.2156 5.1341 -5.0715
# 2 17.7461 197.7035 38.8449 10.5719 11.7182 -29.8431
# 3 6.0384 38.8449 72.0785 5.5534 11.2340 -4.3574
# 4 -0.2156 10.5719 5.5534 53.8889 6.0290 -2.0493
# 5 5.1341 11.7182 11.2340 6.0290 35.0891 2.4256
# 6 -5.0715 -29.8431 -4.3574 -2.0493 2.4256 36.9988
#
#
#
# Elastic Compliance Matrix: (Units=1/GPa)
#
#
# Indices 1 2 3 4 5 6 
#
# 1 0.017587 -0.001146 -0.000455 0.000657 -0.002270 0.001618
# 2 -0.001146 0.006577 -0.002898 -0.000664 -0.001323 0.004857
# 3 -0.000455 -0.002898 0.016131 -0.000659 -0.003998 -0.000274
# 4 0.000657 -0.000664 -0.000659 0.019121 -0.003000 0.000733
# 5 -0.002270 -0.001323 -0.003998 -0.003000 0.031350 -0.004070
# 6 0.001618 0.004857 -0.000274 0.000733 -0.004070 0.031442
#
#
# Mechanical properties :
#
#
# Convention : Reuss Voigt Hill
#
# Bulk Modulus (GPa) = 31.95038 50.48331 41.21685
# Shear Modulus (GPa) = 35.30132 42.95947 39.13040
#
# Velocity S-wave (km/s) = 3.90424 4.30696 4.11053
# Velocity P-wave (km/s) = 5.84126 6.82143 6.35028
#
# Compressibility (1/GPa) = 0.03129853
#
# Stress axis : x y z
#
# Youngs Moduli (GPa) = 56.85964 152.03808 61.99307
#
# Poissons Ratio (x) = 0.17417 0.02821
# Poissons Ratio (y) = 0.06514 0.17964
# Poissons Ratio (z) = 0.02587 0.44057
#
# Static dielectric constant tensor:
#      x y z
#    x 2.222890 0.223500 -0.017770 
#    y 0.223500 2.233220 -0.003190 
#    z -0.017770 -0.003190 1.852100 
# 
# From -- ./inp_files/67633.got.cif
#   From: 2010.05.17/outbox.cif.g08.bks.cpg/sg2_34_cif.got.tgz:67633.got - 2010.06.03 11:33:40.
