data_PCOD9066372
_publ_section_title
;
Structure prediction by ZEFSAII (Michael W. Deem and Ramdas Pophale) SiO2 
 PCOD9066372
Probable space group: P -1
;
_chemical_formula_sum "Si O2"
_cell_formula_units_Z 14
_cell_length_a 14.911520
_cell_length_b 11.468217
_cell_length_c 6.424016
_cell_angle_alpha 94.900577
_cell_angle_beta 54.199411
_cell_angle_gamma 130.525656
_cell_volume 594.883269
_symmetry_space_group_name_H-M "P -1"
_symmetry_group_IT_number 2
_symmetry_cell_setting 'triclinic'
loop_
_space_group_symop_operation_xyz
x,y,z
-x,-y,-z
loop_
_atom_site_type_symbol
_atom_site_label
_atom_site_fract_x
_atom_site_fract_y
_atom_site_fract_z
Si Si1 0.346239 0.449851 0.587848
Si Si2 0.312510 0.857102 0.653479
Si Si3 0.250441 0.441921 0.141675
Si Si4 0.285209 0.993884 0.342203
Si Si5 0.948066 0.338455 0.650231
Si Si6 0.587095 0.276595 0.746100
Si Si7 0.171149 0.162865 0.428474
O O1 0.500000 0.500000 0.500000
O O2 0.419180 0.614809 0.377155
O O3 0.218025 0.270193 0.597975
O O4 0.237940 0.426111 0.911407
O O5 0.292211 0.725498 0.514802
O O6 0.500000 0.000000 0.500000
O O7 0.311775 0.975306 0.537946
O O8 0.172024 0.744300 0.003033
O O9 0.385546 0.642660 0.051885
O O10 0.275481 0.328023 0.158414
O O11 0.104844 0.377210 0.476823
O O12 0.238764 0.090007 0.379942
O O13 0.137599 0.797882 0.439187
O O14 0.425194 0.076813 0.993850
O O15 0.000000 0.500000 0.500000
O O16 0.000000 0.000000 0.500000
#
# Coordination Sequence:
#
# PCOD9066372 Si02
#       7
#     2   2   2   2   2   2   2
#     4  11  25  45  80 111 151 208 255 309 388 462
#     4  12  28  46  76 109 145 203 259 311 384 455
#     4  11  25  47  73 109 155 197 251 321 378 456
#     4  12  26  46  76 107 151 196 249 318 379 457
#     4  12  27  47  74 108 151 193 255 318 388 449
#     4  11  25  45  75 110 151 195 260 314 375 457
#     4  11  25  48  72 112 153 194 254 316 383 454
#
# _framework density 23.534029
#
# number of rings (size 3 to 8) (size 9 to 14) (size 15 to 20)
#    0.000    0.571    2.857    3.857    6.000    8.571 
#    0.000    0.000    0.000    0.000    0.000    0.000 
#    0.000    0.000    0.000    0.000    0.000    0.000 
#
# Total GULP energy -78001.130403 kJ/mol
# GULP energy per Si atom -5571.509315 kJ/mol
# Density = 2.348046 g / cm^3
# Si number density = 23.534029 Si / 1000 Ang^3
#
#
#
# Elastic Constant Matrix: (Units=GPa)
#
#
# Indices 1 2 3 4 5 6 
#
# 1 119.3977 16.2991 54.7770 3.3207 2.1711 -16.5962
# 2 16.2991 102.3514 30.2615 14.9435 0.1643 -1.8787
# 3 54.7770 30.2615 152.1080 12.4426 5.7225 -21.6904
# 4 3.3207 14.9435 12.4426 31.4172 1.9000 10.4650
# 5 2.1711 0.1643 5.7225 1.9000 26.8299 -4.2984
# 6 -16.5962 -1.8787 -21.6904 10.4650 -4.2984 37.3217
#
#
#
# Elastic Compliance Matrix: (Units=1/GPa)
#
#
# Indices 1 2 3 4 5 6 
#
# 1 0.010315 -0.000576 -0.003150 -0.000565 0.000349 0.002926
# 2 -0.000576 0.011040 -0.001482 -0.004957 0.000794 0.000920
# 3 -0.003150 -0.001482 0.009061 -0.004142 -0.000593 0.004884
# 4 -0.000565 -0.004957 -0.004142 0.041127 -0.004347 -0.014940
# 5 0.000349 0.000794 -0.000593 -0.004347 0.038556 0.005510
# 6 0.002926 0.000920 0.004884 -0.014940 0.005510 0.035804
#
#
# Mechanical properties :
#
#
# Convention : Reuss Voigt Hill
#
# Bulk Modulus (GPa) = 49.99958 64.05914 57.02936
# Shear Modulus (GPa) = 30.67786 37.28174 33.97980
#
# Velocity S-wave (km/s) = 3.61439 3.98447 3.80394
# Velocity P-wave (km/s) = 6.22175 6.96038 6.60141
#
# Compressibility (1/GPa) = 0.02000017
#
# Stress axis : x y z
#
# Youngs Moduli (GPa) = 96.94534 90.58322 110.36367
#
# Poissons Ratio (x) = 0.05215 0.34763
# Poissons Ratio (y) = 0.05582 0.16357
# Poissons Ratio (z) = 0.30536 0.13426
#
# Static dielectric constant tensor:
#      x y z
#    x 2.046550 0.164400 -0.057300 
#    y 0.164400 2.140690 -0.013850 
#    z -0.057300 -0.013850 1.901860 
# 
# From -- ./inp_files/94914.got.cif
#   From: 2010.05.17/outbox.cif.g08.bks.cpg/sg2_48_cif.got.tgz:94914.got - 2010.06.03 11:33:40.
