data_PCOD9066778
_publ_section_title
;
Structure prediction by ZEFSAII (Michael W. Deem and Ramdas Pophale) SiO2 
 PCOD9066778
Probable space group: P -1
;
_chemical_formula_sum "Si O2"
_cell_formula_units_Z 12
_cell_length_a 8.106219
_cell_length_b 8.629564
_cell_length_c 8.886048
_cell_angle_alpha 103.615146
_cell_angle_beta 73.924553
_cell_angle_gamma 125.261451
_cell_volume 485.445997
_symmetry_space_group_name_H-M "P -1"
_symmetry_group_IT_number 2
_symmetry_cell_setting 'triclinic'
loop_
_space_group_symop_operation_xyz
x,y,z
-x,-y,-z
loop_
_atom_site_type_symbol
_atom_site_label
_atom_site_fract_x
_atom_site_fract_y
_atom_site_fract_z
Si Si1 0.592557 0.161930 0.175659
Si Si2 0.158155 0.900152 0.109703
Si Si3 0.052718 0.132142 0.371487
Si Si4 0.699480 0.210815 0.480807
Si Si5 0.748735 0.547471 0.069762
Si Si6 0.644492 0.493279 0.742479
O O1 0.672688 0.270396 0.335798
O O2 0.640841 0.323598 0.078973
O O3 0.352366 0.994586 0.196423
O O4 0.725150 0.076427 0.070738
O O5 0.974054 0.679728 0.113240
O O6 0.053553 0.014899 0.200500
O O7 0.273257 0.330524 0.352791
O O8 0.894245 0.196060 0.425849
O O9 0.000000 0.000000 0.500000
O O10 0.699787 0.349350 0.633575
O O11 0.500000 0.000000 0.500000
O O12 0.595619 0.600944 0.190065
O O13 0.752401 0.573380 0.895408
#
# Coordination Sequence:
#
# PCOD9066778 Si02
#       6
#     2   2   2   2   2   2
#     4  11  26  47  78 110 153 201 253 314 376 453
#     4  11  25  46  76 107 151 198 257 297 386 442
#     4  12  27  47  76 113 154 203 249 316 381 453
#     4  12  28  47  75 111 153 201 251 316 379 450
#     4  11  25  48  80 112 154 202 247 323 373 453
#     4  11  27  49  76 116 154 194 264 307 384 454
#
# _framework density 24.719538
#
# number of rings (size 3 to 8) (size 9 to 14) (size 15 to 20)
#    0.000    0.667    1.667    4.000    9.333    3.333 
#    0.000    0.000    0.000    0.000    0.000    0.000 
#    0.000    0.000    0.000    0.000    0.000    0.000 
#
# Total GULP energy -67190.741354 kJ/mol
# GULP energy per Si atom -5599.228446 kJ/mol
# Density = 2.466327 g / cm^3
# Si number density = 24.719538 Si / 1000 Ang^3
#
#
#
# Elastic Constant Matrix: (Units=GPa)
#
#
# Indices 1 2 3 4 5 6 
#
# 1 123.8567 44.2453 64.1997 6.2691 -25.5558 18.4689
# 2 44.2453 129.0993 39.4181 -0.3836 -5.9581 12.0829
# 3 64.1997 39.4181 112.4772 3.1313 -37.7308 -2.2177
# 4 6.2691 -0.3836 3.1313 32.5355 -17.5929 0.4662
# 5 -25.5558 -5.9581 -37.7308 -17.5929 47.7641 -1.1546
# 6 18.4689 12.0829 -2.2177 0.4662 -1.1546 41.3252
#
#
#
# Elastic Compliance Matrix: (Units=1/GPa)
#
#
# Indices 1 2 3 4 5 6 
#
# 1 0.013363 -0.001963 -0.006680 -0.001333 0.000999 -0.005714
# 2 -0.001963 0.009434 -0.003070 -0.000568 -0.002559 -0.002111
# 3 -0.006680 -0.003070 0.017956 0.006301 0.012672 0.005129
# 4 -0.001333 -0.000568 0.006301 0.040764 0.019237 0.001178
# 5 0.000999 -0.002559 0.012672 0.019237 0.038292 0.001834
# 6 -0.005714 -0.002111 0.005129 0.001178 0.001834 0.027682
#
#
# Mechanical properties :
#
#
# Convention : Reuss Voigt Hill
#
# Bulk Modulus (GPa) = 57.71258 73.46217 65.58738
# Shear Modulus (GPa) = 28.29775 38.82963 33.56369
#
# Velocity S-wave (km/s) = 3.38709 3.96764 3.68880
# Velocity P-wave (km/s) = 6.22046 7.12547 6.68829
#
# Compressibility (1/GPa) = 0.01732724
#
# Stress axis : x y z
#
# Youngs Moduli (GPa) = 74.83208 106.00048 55.69259
#
# Poissons Ratio (x) = 0.20813 0.37201
# Poissons Ratio (y) = 0.14693 0.17096
# Poissons Ratio (z) = 0.49986 0.32539
#
# Static dielectric constant tensor:
#      x y z
#    x 1.983800 -0.002460 -0.003850 
#    y -0.002460 1.934220 -0.028070 
#    z -0.003850 -0.028070 1.993010 
# 
# From -- ./inp_files/151898.got.cif
#   From: 2010.05.17/outbox.cif.g08.bks.cpg/sg2_76_cif.got.tgz:151898.got - 2010.06.03 11:33:40.
