data_PCOD9066579
_publ_section_title
;
Structure prediction by ZEFSAII (Michael W. Deem and Ramdas Pophale) SiO2 
 PCOD9066579
Probable space group: P -1
;
_chemical_formula_sum "Si O2"
_cell_formula_units_Z 12
_cell_length_a 6.912202
_cell_length_b 9.841755
_cell_length_c 16.875255
_cell_angle_alpha 54.098459
_cell_angle_beta 51.841922
_cell_angle_gamma 44.621369
_cell_volume 611.301021
_symmetry_space_group_name_H-M "P -1"
_symmetry_group_IT_number 2
_symmetry_cell_setting 'triclinic'
loop_
_space_group_symop_operation_xyz
x,y,z
-x,-y,-z
loop_
_atom_site_type_symbol
_atom_site_label
_atom_site_fract_x
_atom_site_fract_y
_atom_site_fract_z
Si Si1 0.759009 0.659939 0.068259
Si Si2 0.251338 0.456258 0.707737
Si Si3 0.216638 0.134631 0.719571
Si Si4 0.120067 0.991991 0.058846
Si Si5 0.096281 0.655981 0.426390
Si Si6 0.855821 0.871962 0.574663
O O1 0.769569 0.566655 0.184158
O O2 0.428002 0.782974 0.073407
O O3 0.000000 0.500000 0.000000
O O4 0.829747 0.829903 0.004711
O O5 0.221359 0.287466 0.728441
O O6 0.564797 0.423556 0.616884
O O7 0.012961 0.674293 0.658025
O O8 0.134873 0.989179 0.828713
O O9 0.973766 0.250630 0.674374
O O10 0.524488 0.012862 0.638790
O O11 0.000000 0.000000 0.000000
O O12 0.000000 0.500000 0.500000
O O13 0.901160 0.803363 0.495826
O O14 0.000000 0.000000 0.500000
#
# Coordination Sequence:
#
# PCOD9066579 Si02
#       6
#     2   2   2   2   2   2
#     4  11  27  45  72 104 138 176 230 288 344 410
#     4  12  25  46  68 102 142 178 226 292 343 397
#     4  12  25  45  71 102 138 182 231 281 341 411
#     4  11  25  46  72 101 136 180 228 285 344 405
#     4  12  24  45  69  98 140 180 229 281 342 399
#     4  12  26  43  72 103 137 185 232 279 336 411
#
# _framework density 19.630264
#
# number of rings (size 3 to 8) (size 9 to 14) (size 15 to 20)
#    0.000    0.333    6.667    2.000    2.333    4.667 
#    0.000    0.000    0.000    0.000    0.000    0.000 
#    0.000    0.000    0.000    0.000    0.000    0.000 
#
# Total GULP energy -67045.433050 kJ/mol
# GULP energy per Si atom -5587.119421 kJ/mol
# Density = 1.958558 g / cm^3
# Si number density = 19.630264 Si / 1000 Ang^3
#
#
#
# Elastic Constant Matrix: (Units=GPa)
#
#
# Indices 1 2 3 4 5 6 
#
# 1 92.9899 18.5543 9.2094 3.9487 6.7074 16.0951
# 2 18.5543 62.3653 -2.2472 15.2164 4.3378 19.7168
# 3 9.2094 -2.2472 90.3949 1.3055 4.9955 26.9307
# 4 3.9487 15.2164 1.3055 35.4076 1.6197 3.0583
# 5 6.7074 4.3378 4.9955 1.6197 48.8050 2.8628
# 6 16.0951 19.7168 26.9307 3.0583 2.8628 22.5957
#
#
#
# Elastic Compliance Matrix: (Units=1/GPa)
#
#
# Indices 1 2 3 4 5 6 
#
# 1 0.012617 0.000236 0.002277 -0.000526 -0.001286 -0.011673
# 2 0.000236 0.033451 0.014413 -0.010991 -0.001485 -0.044860
# 3 0.002277 0.014413 0.023802 -0.003641 -0.001452 -0.041890
# 4 -0.000526 -0.010991 -0.003641 0.032309 -0.000235 0.009961
# 5 -0.001286 -0.001485 -0.001452 -0.000235 0.020877 0.001329
# 6 -0.011673 -0.044860 -0.041890 0.009961 0.001329 0.140125
#
#
# Mechanical properties :
#
#
# Convention : Reuss Voigt Hill
#
# Bulk Modulus (GPa) = 9.64118 32.97590 21.30854
# Shear Modulus (GPa) = 18.94647 36.04391 27.49519
#
# Velocity S-wave (km/s) = 3.11008 4.28967 3.74659
# Velocity P-wave (km/s) = 4.22124 6.43195 5.44008
#
# Compressibility (1/GPa) = 0.10372176
#
# Stress axis : x y z
#
# Youngs Moduli (GPa) = 79.26054 29.89454 42.01391
#
# Poissons Ratio (x) = -0.00707 -0.09565
# Poissons Ratio (y) = -0.01874 -0.60555
# Poissons Ratio (z) = -0.18045 -0.43087
#
# Static dielectric constant tensor:
#      x y z
#    x 1.671310 -0.041410 0.006170 
#    y -0.041410 1.665120 -0.007650 
#    z 0.006170 -0.007650 1.621170 
# 
# From -- ./inp_files/3248.got.cif
#   From: 2010.05.17/outbox.cif.g08.bks.cpg/sg2_2_cif.got.tgz:3248.got - 2010.06.03 11:33:40.
