data_PCOD9066110
_publ_section_title
;
Structure prediction by ZEFSAII (Michael W. Deem and Ramdas Pophale) SiO2 
 PCOD9066110
Probable space group: P -1
;
_chemical_formula_sum "Si O2"
_cell_formula_units_Z 15
_cell_length_a 11.808361
_cell_length_b 13.116548
_cell_length_c 4.945508
_cell_angle_alpha 120.248804
_cell_angle_beta 58.613224
_cell_angle_gamma 113.727927
_cell_volume 554.590564
_symmetry_space_group_name_H-M "P -1"
_symmetry_group_IT_number 2
_symmetry_cell_setting 'triclinic'
loop_
_space_group_symop_operation_xyz
x,y,z
-x,-y,-z
loop_
_atom_site_type_symbol
_atom_site_label
_atom_site_fract_x
_atom_site_fract_y
_atom_site_fract_z
Si Si1 0.658635 0.556969 0.084044
Si Si2 0.233743 0.118375 0.997979
Si Si3 0.797135 0.274012 0.203077
Si Si4 0.861863 0.031179 0.601183
Si Si5 0.000000 0.500000 0.500000
Si Si6 0.473380 0.858702 0.340561
Si Si7 0.420367 0.663746 0.780859
Si Si8 0.831359 0.629714 0.475302
O O1 0.541861 0.621716 0.421325
O O2 0.605485 0.417619 0.027322
O O3 0.792263 0.598844 0.167519
O O4 0.699212 0.580255 0.757934
O O5 0.384681 0.172316 0.778157
O O6 0.164873 0.020956 0.735175
O O7 0.154811 0.227140 0.297925
O O8 0.244783 0.049513 0.172818
O O9 0.668787 0.199885 0.428526
O O10 0.723972 0.351458 0.195921
O O11 0.903922 0.369307 0.360366
O O12 0.858216 0.170730 0.835916
O O13 0.000000 0.000000 0.500000
O O14 0.057018 0.432330 0.606930
O O15 0.500000 0.000000 0.500000
O O16 0.459389 0.803282 0.985098
#
# Coordination Sequence:
#
# PCOD9066110 Si02
#       8
#     2   2   2   2   1   2   2   2
#     4  11  25  46  76 110 155 201 262 321 397 467
#     4  12  26  49  82 115 158 208 269 331 398 470
#     4  12  27  49  78 115 164 207 271 333 396 485
#     4  12  28  52  77 116 162 217 265 319 394 484
#     4  12  28  52  74 116 158 220 262 326 398 476
#     4  12  25  45  77 115 156 199 264 332 403 456
#     4  11  25  44  76 113 154 205 254 339 396 469
#     4  12  25  49  75 111 156 206 260 322 385 481
#
# _framework density 27.046980000000001
#
# number of rings (size 3 to 8) (size 9 to 14) (size 15 to 20)
#    0.000    0.267    4.000    4.400    1.867    2.667 
#    4.800    0.000    0.000    0.000    0.000    0.000 
#    0.000    0.000    0.000    0.000    0.000    0.000 
#
# Total GULP energy -83881.965167 kJ/mol
# GULP energy per Si atom -5592.131011 kJ/mol
# Density = 2.698542 g / cm^3
# Si number density = 27.046980 Si / 1000 Ang^3
#
#
#
# Elastic Constant Matrix: (Units=GPa)
#
#
# Indices 1 2 3 4 5 6 
#
# 1 148.6882 13.7455 34.3054 26.2237 3.6010 27.7772
# 2 13.7455 141.7935 61.9999 27.0921 -2.3631 6.5000
# 3 34.3054 61.9999 107.5136 35.5131 5.9914 7.3560
# 4 26.2237 27.0921 35.5131 68.4853 3.5955 1.8875
# 5 3.6010 -2.3631 5.9914 3.5955 51.0692 9.4064
# 6 27.7772 6.5000 7.3560 1.8875 9.4064 56.5102
#
#
#
# Elastic Compliance Matrix: (Units=1/GPa)
#
#
# Indices 1 2 3 4 5 6 
#
# 1 0.008252 0.000728 -0.002058 -0.002304 0.000572 -0.003890
# 2 0.000728 0.009648 -0.005354 -0.001361 0.001292 -0.000940
# 3 -0.002058 -0.005354 0.014644 -0.004612 -0.001520 0.000128
# 4 -0.002304 -0.001361 -0.004612 0.018422 -0.000919 0.001427
# 5 0.000572 0.001292 -0.001520 -0.000919 0.020510 -0.003615
# 6 -0.003890 -0.000940 0.000128 0.001427 -0.003615 0.020254
#
#
# Mechanical properties :
#
#
# Convention : Reuss Voigt Hill
#
# Bulk Modulus (GPa) = 52.14664 68.67743 60.41204
# Shear Modulus (GPa) = 44.84722 54.40925 49.62823
#
# Velocity S-wave (km/s) = 4.07642 4.49002 4.28821
# Velocity P-wave (km/s) = 6.44036 7.23376 6.84856
#
# Compressibility (1/GPa) = 0.01917669
#
# Stress axis : x y z
#
# Youngs Moduli (GPa) = 121.18073 103.65250 68.28566
#
# Poissons Ratio (x) = -0.07543 0.14050
# Poissons Ratio (y) = -0.08819 0.36559
# Poissons Ratio (z) = 0.24933 0.55494
#
# Static dielectric constant tensor:
#      x y z
#    x 2.161900 0.015430 -0.022010 
#    y 0.015430 2.147810 -0.073080 
#    z -0.022010 -0.073080 2.249770 
# 
# From -- ./inp_files/76865.got.cif
#   From: 2010.05.17/outbox.cif.g08.bks.cpg/sg2_39_cif.got.tgz:76865.got - 2010.06.03 11:33:40.
