data_PCOD9066997
_publ_section_title
;
Structure prediction by ZEFSAII (Michael W. Deem and Ramdas Pophale) SiO2 
 PCOD9066997
Probable space group: P -1
;
_chemical_formula_sum "Si O2"
_cell_formula_units_Z 15
_cell_length_a 11.857473
_cell_length_b 9.344906
_cell_length_c 9.553544
_cell_angle_alpha 74.511173
_cell_angle_beta 127.473464
_cell_angle_gamma 68.362439
_cell_volume 582.478129
_symmetry_space_group_name_H-M "P -1"
_symmetry_group_IT_number 2
_symmetry_cell_setting 'triclinic'
loop_
_space_group_symop_operation_xyz
x,y,z
-x,-y,-z
loop_
_atom_site_type_symbol
_atom_site_label
_atom_site_fract_x
_atom_site_fract_y
_atom_site_fract_z
Si Si1 0.180635 0.529239 0.148300
Si Si2 0.557424 0.768885 0.833439
Si Si3 0.392465 0.827988 0.106204
Si Si4 0.500000 0.000000 0.000000
Si Si5 0.769913 0.197245 0.755337
Si Si6 0.633969 0.385433 0.302856
Si Si7 0.033851 0.145319 0.539051
Si Si8 0.814005 0.785703 0.632247
O O1 0.282257 0.397966 0.115797
O O2 0.275284 0.607040 0.264858
O O3 0.181003 0.394503 0.293256
O O4 0.959957 0.731826 0.881166
O O5 0.603415 0.827303 0.992025
O O6 0.452528 0.691731 0.825843
O O7 0.398453 0.985169 0.575228
O O8 0.556778 0.829578 0.199184
O O9 0.337017 0.846983 0.219055
O O10 0.461359 0.620668 0.154711
O O11 0.211946 0.018707 0.820826
O O12 0.715894 0.247519 0.540766
O O13 0.000000 0.000000 0.000000
O O14 0.819774 0.335284 0.390469
O O15 0.098429 0.206638 0.446956
O O16 0.000000 0.000000 0.500000
#
# Coordination Sequence:
#
# PCOD9066997 Si02
#       8
#     2   2   2   1   2   2   2   2
#     4  11  27  48  77 112 151 204 255 311 387 459
#     4  12  26  50  76 109 156 198 250 320 376 456
#     4  12  27  50  73 111 155 195 256 312 381 454
#     4  12  30  48  74 116 152 198 252 320 380 452
#     4  12  25  49  79 111 152 199 261 318 372 457
#     4  12  27  46  82 110 146 209 256 307 384 456
#     4  12  24  46  75 105 149 197 251 315 371 446
#     4  11  25  47  74 111 152 201 253 312 384 450
#
# _framework density 25.752039
#
# number of rings (size 3 to 8) (size 9 to 14) (size 15 to 20)
#    0.000    0.267    5.333    2.400    3.733    4.267 
#    0.000    2.000    0.000    0.000    0.000    0.000 
#    0.000    0.000    0.000    0.000    0.000    0.000 
#
# Total GULP energy -83836.484923 kJ/mol
# GULP energy per Si atom -5589.098995 kJ/mol
# Density = 2.569343 g / cm^3
# Si number density = 25.752039 Si / 1000 Ang^3
#
#
#
# Elastic Constant Matrix: (Units=GPa)
#
#
# Indices 1 2 3 4 5 6 
#
# 1 132.1103 31.6134 29.5947 -4.6817 -47.7821 -1.0749
# 2 31.6134 113.8086 15.2607 9.2781 -5.1337 0.3138
# 3 29.5947 15.2607 105.4395 -6.6308 -1.1530 -4.5300
# 4 -4.6817 9.2781 -6.6308 36.1987 -4.5326 -6.4752
# 5 -47.7821 -5.1337 -1.1530 -4.5326 35.3981 -11.5238
# 6 -1.0749 0.3138 -4.5300 -6.4752 -11.5238 37.5918
#
#
#
# Elastic Compliance Matrix: (Units=1/GPa)
#
#
# Indices 1 2 3 4 5 6 
#
# 1 0.023296 -0.005167 -0.004176 0.010441 0.036159 0.013089
# 2 -0.005167 0.010388 -0.000588 -0.004945 -0.007218 -0.003370
# 3 -0.004176 -0.000588 0.010722 0.000844 -0.005371 -0.000324
# 4 0.010441 -0.004945 0.000844 0.035594 0.022331 0.013418
# 5 0.036159 -0.007218 -0.005371 0.022331 0.088974 0.031569
# 6 0.013089 -0.003370 -0.000324 0.013418 0.031569 0.038954
#
#
# Mechanical properties :
#
#
# Convention : Reuss Voigt Hill
#
# Bulk Modulus (GPa) = 40.74556 56.03289 48.38922
# Shear Modulus (GPa) = 21.18895 40.16369 30.67632
#
# Velocity S-wave (km/s) = 2.87157 3.95350 3.45515
# Velocity P-wave (km/s) = 5.18181 6.53040 5.89480
#
# Compressibility (1/GPa) = 0.02454255
#
# Stress axis : x y z
#
# Youngs Moduli (GPa) = 42.92541 96.26756 93.26716
#
# Poissons Ratio (x) = 0.49745 0.38953
# Poissons Ratio (y) = 0.22181 0.05482
# Poissons Ratio (z) = 0.17928 0.05658
#
# Static dielectric constant tensor:
#      x y z
#    x 1.422770 -0.477450 -0.302230 
#    y -0.477450 1.669570 -0.246550 
#    z -0.302230 -0.246550 1.816840 
# 
# From -- ./inp_files/243165.got.cif
#   From: 2010.05.17/outbox.cif.g08.bks.cpg/sg2_122_cif.got.tgz:243165.got - 2010.06.03 11:33:40.
