data_PCOD9066522
_publ_section_title
;
Structure prediction by ZEFSAII (Michael W. Deem and Ramdas Pophale) SiO2 
 PCOD9066522
Probable space group: P -1
;
_chemical_formula_sum "Si O2"
_cell_formula_units_Z 14
_cell_length_a 16.383642
_cell_length_b 8.677264
_cell_length_c 10.587330
_cell_angle_alpha 138.571697
_cell_angle_beta 38.965853
_cell_angle_gamma 126.550597
_cell_volume 626.012931
_symmetry_space_group_name_H-M "P -1"
_symmetry_group_IT_number 2
_symmetry_cell_setting 'triclinic'
loop_
_space_group_symop_operation_xyz
x,y,z
-x,-y,-z
loop_
_atom_site_type_symbol
_atom_site_label
_atom_site_fract_x
_atom_site_fract_y
_atom_site_fract_z
Si Si1 0.775591 0.262357 0.960476
Si Si2 0.669781 0.058075 0.720412
Si Si3 0.044488 0.870297 0.681818
Si Si4 0.442902 0.350894 0.090839
Si Si5 0.143817 0.226937 0.377919
Si Si6 0.607381 0.520120 0.493670
Si Si7 0.992315 0.633320 0.870069
O O1 0.672307 0.185359 0.931031
O O2 0.862869 0.035589 0.723356
O O3 0.709712 0.328653 0.211617
O O4 0.098495 0.438935 0.650229
O O5 0.668707 0.781958 0.570915
O O6 0.803293 0.139658 0.541668
O O7 0.539518 0.137725 0.859672
O O8 0.951471 0.762666 0.620518
O O9 0.016946 0.743509 0.769716
O O10 0.010260 0.142380 0.900187
O O11 0.294988 0.271630 0.192874
O O12 0.441787 0.494543 0.312588
O O13 0.500000 0.500000 0.000000
O O14 0.142809 0.512051 0.045799
O O15 0.500000 0.500000 0.500000
#
# Coordination Sequence:
#
# PCOD9066522 Si02
#       7
#     2   2   2   2   2   2   2
#     4  12  25  43  76 107 142 190 244 299 362 433
#     4  12  24  50  73 104 146 196 241 295 368 437
#     4  11  26  44  76 104 145 193 242 298 367 433
#     4  12  28  48  74 107 148 190 241 307 364 427
#     4  12  26  44  72 108 145 184 241 307 359 426
#     4  12  25  47  75 105 145 200 244 290 364 448
#     4  11  25  46  70 109 145 190 244 296 367 435
#
# _framework density 22.363757
#
# number of rings (size 3 to 8) (size 9 to 14) (size 15 to 20)
#    0.000    0.286    5.714    3.000    4.000    0.571 
#    0.000    1.429    0.000    0.000    0.000    0.000 
#    0.000    0.000    0.000    0.000    0.000    0.000 
#
# Total GULP energy -78354.696757 kJ/mol
# GULP energy per Si atom -5596.764054 kJ/mol
# Density = 2.231286 g / cm^3
# Si number density = 22.363757 Si / 1000 Ang^3
#
#
#
# Elastic Constant Matrix: (Units=GPa)
#
#
# Indices 1 2 3 4 5 6 
#
# 1 67.0231 32.0313 33.2324 -13.1937 3.2648 18.7221
# 2 32.0313 106.8110 46.3673 -0.8161 10.4626 5.3470
# 3 33.2324 46.3673 155.9596 12.3555 -2.8620 1.9315
# 4 -13.1937 -0.8161 12.3555 50.6747 -2.2904 1.9690
# 5 3.2648 10.4626 -2.8620 -2.2904 41.3141 -3.1401
# 6 18.7221 5.3470 1.9315 1.9690 -3.1401 36.6987
#
#
#
# Elastic Compliance Matrix: (Units=1/GPa)
#
#
# Indices 1 2 3 4 5 6 
#
# 1 0.024152 -0.004581 -0.004270 0.007651 -0.001530 -0.011970
# 2 -0.004581 0.012143 -0.002653 -0.000500 -0.002887 0.000488
# 3 -0.004270 -0.002653 0.008365 -0.003216 0.001595 0.002434
# 4 0.007651 -0.000500 -0.003216 0.022699 0.000188 -0.004863
# 5 -0.001530 -0.002887 0.001595 0.000188 0.025427 0.003283
# 6 -0.011970 0.000488 0.002434 -0.004863 0.003283 0.033698
#
#
# Mechanical properties :
#
#
# Convention : Reuss Voigt Hill
#
# Bulk Modulus (GPa) = 46.19162 61.45063 53.82112
# Shear Modulus (GPa) = 31.90604 40.28168 36.09386
#
# Velocity S-wave (km/s) = 3.78125 4.24866 4.02175
# Velocity P-wave (km/s) = 6.30581 7.18370 6.75903
#
# Compressibility (1/GPa) = 0.02164895
#
# Stress axis : x y z
#
# Youngs Moduli (GPa) = 41.40519 82.35424 119.55153
#
# Poissons Ratio (x) = 0.37731 0.51051
# Poissons Ratio (y) = 0.18970 0.31720
# Poissons Ratio (z) = 0.17681 0.21851
#
# Static dielectric constant tensor:
#      x y z
#    x 1.853330 0.007890 -0.021050 
#    y 0.007890 1.809010 -0.009010 
#    z -0.021050 -0.009010 1.862830 
# 
# From -- ./inp_files/460851.got.cif
#   From: 2010.05.17/outbox.cif.g08.bks.cpg/sg2_231_cif.got.tgz:460851.got - 2010.06.03 11:33:40.
