data_PCOD9066023
_publ_section_title
;
Structure prediction by ZEFSAII (Michael W. Deem and Ramdas Pophale) SiO2 
 PCOD9066023
Probable space group: P -1
;
_chemical_formula_sum "Si O2"
_cell_formula_units_Z 16
_cell_length_a 13.201036
_cell_length_b 10.642396
_cell_length_c 9.102015
_cell_angle_alpha 114.180858
_cell_angle_beta 104.927306
_cell_angle_gamma 128.896557
_cell_volume 625.241869
_symmetry_space_group_name_H-M "P -1"
_symmetry_group_IT_number 2
_symmetry_cell_setting 'triclinic'
loop_
_space_group_symop_operation_xyz
x,y,z
-x,-y,-z
loop_
_atom_site_type_symbol
_atom_site_label
_atom_site_fract_x
_atom_site_fract_y
_atom_site_fract_z
Si Si1 0.096585 0.041010 0.909604
Si Si2 0.188001 0.840631 0.873992
Si Si3 0.481660 0.839686 0.669648
Si Si4 0.336180 0.515558 0.032441
Si Si5 0.988679 0.637717 0.134152
Si Si6 0.715574 0.571365 0.376816
Si Si7 0.188942 0.728554 0.508621
Si Si8 0.361571 0.202597 0.509769
O O1 0.232368 0.288566 0.986759
O O2 0.207623 0.024567 0.988474
O O3 0.931890 0.815264 0.627383
O O4 0.000000 0.000000 0.000000
O O5 0.252130 0.861554 0.748651
O O6 0.968960 0.562410 0.667872
O O7 0.311327 0.897038 0.067819
O O8 0.378401 0.660557 0.687210
O O9 0.366914 0.842285 0.563995
O O10 0.504870 0.740936 0.517931
O O11 0.309265 0.461763 0.823472
O O12 0.216634 0.521468 0.027364
O O13 0.554130 0.745376 0.273339
O O14 0.069994 0.706762 0.360818
O O15 0.147848 0.916220 0.264245
O O16 0.000000 0.500000 0.000000
O O17 0.632258 0.627531 0.424603
#
# Coordination Sequence:
#
# PCOD9066023 Si02
#       8
#     2   2   2   2   2   2   2   2
#     4  12  24  45  78 104 143 186 234 295 360 421
#     4  11  25  44  72 103 141 184 237 294 348 419
#     4  12  25  46  73 106 143 185 240 288 355 425
#     4  12  28  47  76 107 145 186 238 297 361 420
#     4  12  28  47  73 102 147 191 239 290 356 423
#     4  12  25  47  75 109 145 185 237 299 361 418
#     4  11  26  45  70 102 142 189 240 286 351 420
#     4  12  27  47  74 106 146 186 239 295 358 424
#
# _framework density 25.590095000000002
#
# number of rings (size 3 to 8) (size 9 to 14) (size 15 to 20)
#    0.000    0.250    2.500    6.000    7.000    3.000 
#    0.000    0.000    0.000    0.000    0.000    0.000 
#    0.000    0.000    0.000    0.000    0.000    0.000 
#
# Total GULP energy -89710.263716 kJ/mol
# GULP energy per Si atom -5606.891482 kJ/mol
# Density = 2.553185 g / cm^3
# Si number density = 25.590095 Si / 1000 Ang^3
#
#
#
# Elastic Constant Matrix: (Units=GPa)
#
#
# Indices 1 2 3 4 5 6 
#
# 1 95.6117 -1.6794 -3.3913 12.8634 15.0021 -11.9741
# 2 -1.6794 81.8576 -1.0376 2.3600 -13.6901 -10.0398
# 3 -3.3913 -1.0376 115.9456 2.3428 6.9991 7.2408
# 4 12.8634 2.3600 2.3428 38.2805 0.3224 -0.9243
# 5 15.0021 -13.6901 6.9991 0.3224 43.3905 -9.8972
# 6 -11.9741 -10.0398 7.2408 -0.9243 -9.8972 33.6474
#
#
#
# Elastic Compliance Matrix: (Units=1/GPa)
#
#
# Indices 1 2 3 4 5 6 
#
# 1 0.011930 0.000173 0.000443 -0.003943 -0.003407 0.003092
# 2 0.000173 0.013949 -0.000583 -0.000786 0.005818 0.006039
# 3 0.000443 -0.000583 0.008957 -0.000705 -0.002384 -0.002664
# 4 -0.003943 -0.000786 -0.000705 0.027521 0.000920 -0.000459
# 5 -0.003407 0.005818 -0.002384 0.000920 0.028599 0.009474
# 6 0.003092 0.006039 -0.002664 -0.000459 0.009474 0.035970
#
#
# Mechanical properties :
#
#
# Convention : Reuss Voigt Hill
#
# Bulk Modulus (GPa) = 28.65067 31.24426 29.94747
# Shear Modulus (GPa) = 36.10302 43.03190 39.56746
#
# Velocity S-wave (km/s) = 3.76016 4.10516 3.93644
# Velocity P-wave (km/s) = 5.48380 5.89116 5.69113
#
# Compressibility (1/GPa) = 0.03490320
#
# Stress axis : x y z
#
# Youngs Moduli (GPa) = 83.82238 71.69006 111.64392
#
# Poissons Ratio (x) = -0.01243 -0.04943
# Poissons Ratio (y) = -0.01454 0.06504
# Poissons Ratio (z) = -0.03711 0.04177
#
# Static dielectric constant tensor:
#      x y z
#    x 1.965750 0.019080 -0.002250 
#    y 0.019080 2.062750 0.002110 
#    z -0.002250 0.002110 2.000220 
# 
# From -- ./inp_files/308139.got.cif
#   From: 2010.05.17/outbox.cif.g08.bks.cpg/sg2_155_cif.got.tgz:308139.got - 2010.06.03 11:33:40.
