data_PCOD9066815
_publ_section_title
;
Structure prediction by ZEFSAII (Michael W. Deem and Ramdas Pophale) SiO2 
 PCOD9066815
Probable space group: P -1
;
_chemical_formula_sum "Si O2"
_cell_formula_units_Z 10
_cell_length_a 10.362641
_cell_length_b 9.385404
_cell_length_c 4.910002
_cell_angle_alpha 83.709035
_cell_angle_beta 67.865932
_cell_angle_gamma 103.276676
_cell_volume 420.211565
_symmetry_space_group_name_H-M "P -1"
_symmetry_group_IT_number 2
_symmetry_cell_setting 'triclinic'
loop_
_space_group_symop_operation_xyz
x,y,z
-x,-y,-z
loop_
_atom_site_type_symbol
_atom_site_label
_atom_site_fract_x
_atom_site_fract_y
_atom_site_fract_z
Si Si1 0.417739 0.050030 0.806180
Si Si2 0.929543 0.064538 0.797655
Si Si3 0.733346 0.546766 0.858338
Si Si4 0.078257 0.397779 0.795417
Si Si5 0.526207 0.649930 0.620893
O O1 0.376699 0.610533 0.919869
O O2 0.500000 0.000000 0.500000
O O3 0.442022 0.219728 0.649746
O O4 0.500000 0.000000 0.000000
O O5 0.832418 0.512534 0.548247
O O6 0.984633 0.244117 0.763573
O O7 0.000000 0.000000 0.500000
O O8 0.000000 0.000000 0.000000
O O9 0.650293 0.650356 0.743606
O O10 0.754487 0.014278 0.977515
O O11 0.817348 0.629766 0.039615
O O12 0.000000 0.500000 0.000000
O O13 0.500000 0.500000 0.500000
#
# Coordination Sequence:
#
# PCOD9066815 Si02
#       5
#     2   2   2   2   2
#     4  12  31  51  79 117 163 208 269 343 412 469
#     4  12  28  52  82 111 163 218 271 324 408 499
#     4  11  25  46  78 118 155 206 275 324 398 480
#     4  12  27  46  79 117 164 205 269 337 402 476
#     4  11  26  47  84 110 159 209 272 328 400 494
#
# _framework density 23.797536000000001
#
# number of rings (size 3 to 8) (size 9 to 14) (size 15 to 20)
#    0.000    0.400    2.000    4.200   11.200    0.000 
#    0.000    0.000    0.000    0.000    0.000    0.000 
#    0.000    0.000    0.000    0.000    0.000    0.000 
#
# Total GULP energy -55899.923079 kJ/mol
# GULP energy per Si atom -5589.992308 kJ/mol
# Density = 2.374337 g / cm^3
# Si number density = 23.797536 Si / 1000 Ang^3
#
#
#
# Elastic Constant Matrix: (Units=GPa)
#
#
# Indices 1 2 3 4 5 6 
#
# 1 218.7352 86.6094 111.6183 2.5696 -21.4977 -1.4837
# 2 86.6094 136.5586 63.6976 9.9017 -3.1908 -4.4575
# 3 111.6183 63.6976 230.9217 10.8055 -7.0900 2.9192
# 4 2.5696 9.9017 10.8055 49.1406 -19.8217 -8.1111
# 5 -21.4977 -3.1908 -7.0900 -19.8217 62.3372 4.5597
# 6 -1.4837 -4.4575 2.9192 -8.1111 4.5597 28.5927
#
#
#
# Elastic Compliance Matrix: (Units=1/GPa)
#
#
# Indices 1 2 3 4 5 6 
#
# 1 0.007658 -0.003675 -0.002704 0.002104 0.002796 0.000251
# 2 -0.003675 0.010286 -0.001027 -0.002112 -0.001615 0.001176
# 3 -0.002704 -0.001027 0.005983 -0.001439 -0.000673 -0.001212
# 4 0.002104 -0.002112 -0.001439 0.025179 0.008037 0.005788
# 5 0.002796 -0.001615 -0.000673 0.008037 0.019465 -0.000862
# 6 0.000251 0.001176 -0.001212 0.005788 -0.000862 0.037073
#
#
# Mechanical properties :
#
#
# Convention : Reuss Voigt Hill
#
# Bulk Modulus (GPa) = 109.69346 123.34067 116.51707
# Shear Modulus (GPa) = 40.48755 49.63344 45.06050
#
# Velocity S-wave (km/s) = 4.12920 4.57185 4.35615
# Velocity P-wave (km/s) = 8.30230 8.93369 8.62378
#
# Compressibility (1/GPa) = 0.00911631
#
# Stress axis : x y z
#
# Youngs Moduli (GPa) = 130.57553 97.21630 167.15216
#
# Poissons Ratio (x) = 0.35727 0.45195
# Poissons Ratio (y) = 0.47986 0.17161
# Poissons Ratio (z) = 0.35305 0.09981
#
# Static dielectric constant tensor:
#      x y z
#    x 2.066770 -0.301930 0.079840 
#    y -0.301930 3.115630 -0.265030 
#    z 0.079840 -0.265030 1.918190 
# 
# From -- ./inp_files/85820.got.cif
#   From: 2010.05.17/outbox.cif.g08.bks.cpg/sg2_43_cif.got.tgz:85820.got - 2010.06.03 11:33:40.
