data_PCOD9066533
_publ_section_title
;
Structure prediction by ZEFSAII (Michael W. Deem and Ramdas Pophale) SiO2 
 PCOD9066533
Probable space group: P -1
;
_chemical_formula_sum "Si O2"
_cell_formula_units_Z 15
_cell_length_a 19.092707
_cell_length_b 9.970716
_cell_length_c 11.005912
_cell_angle_alpha 125.058514
_cell_angle_beta 154.459266
_cell_angle_gamma 42.445223
_cell_volume 578.793545
_symmetry_space_group_name_H-M "P -1"
_symmetry_group_IT_number 2
_symmetry_cell_setting 'triclinic'
loop_
_space_group_symop_operation_xyz
x,y,z
-x,-y,-z
loop_
_atom_site_type_symbol
_atom_site_label
_atom_site_fract_x
_atom_site_fract_y
_atom_site_fract_z
Si Si1 0.439766 0.158309 0.596470
Si Si2 0.865037 0.248685 0.430223
Si Si3 0.507029 0.502967 0.187301
Si Si4 0.071469 0.329653 0.644028
Si Si5 0.488792 0.878036 0.731303
Si Si6 0.703017 0.464024 0.698603
Si Si7 0.959386 0.773359 0.700793
Si Si8 0.000000 0.500000 0.000000
O O1 0.535151 0.276344 0.785447
O O2 0.194244 0.326555 0.295797
O O3 0.500000 0.000000 0.500000
O O4 0.495079 0.040812 0.747484
O O5 0.719730 0.322560 0.357943
O O6 0.043727 0.274357 0.708563
O O7 0.692287 0.437165 0.165048
O O8 0.000000 0.000000 0.500000
O O9 0.554516 0.443654 0.371712
O O10 0.004925 0.232089 0.391277
O O11 0.959870 0.574224 0.601627
O O12 0.307832 0.226165 0.922792
O O13 0.552158 0.688918 0.644446
O O14 0.260178 0.012012 0.496966
O O15 0.858703 0.292504 0.954311
O O16 0.841392 0.477951 0.824764
#
# Coordination Sequence:
#
# PCOD9066533 Si02
#       8
#     2   2   2   2   2   2   2   1
#     4  11  19  31  55  90 120 148 182 250 307 348
#     4  11  24  42  60  83 122 168 202 240 286 360
#     4  10  23  38  57  89 122 153 203 243 296 364
#     4  10  23  39  60  86 118 162 206 238 298 355
#     4  11  19  32  57  90 119 152 190 247 306 355
#     4  10  21  33  57  90 118 148 192 247 310 353
#     4  10  21  39  60  89 123 150 193 262 301 350
#     4  10  18  28  46  84 122 146 176 228 302 350
#
# _framework density 25.915976000000001
#
# number of rings (size 3 to 8) (size 9 to 14) (size 15 to 20)
#    0.000    1.600    4.000    2.000    5.600    4.267 
#    0.000    0.667    0.000    1.600    0.000    0.000 
#    0.000    0.000    0.000    0.000    0.000    0.000 
#
# Total GULP energy -83541.208693 kJ/mol
# GULP energy per Si atom -5569.413913 kJ/mol
# Density = 2.585699 g / cm^3
# Si number density = 25.915976 Si / 1000 Ang^3
#
#
#
# Elastic Constant Matrix: (Units=GPa)
#
#
# Indices 1 2 3 4 5 6 
#
# 1 69.9207 8.3792 23.6374 -16.8998 13.6458 -15.0787
# 2 8.3792 72.3807 30.0725 -27.8909 2.0027 -6.9310
# 3 23.6374 30.0725 140.3884 -23.3420 -18.6180 -20.4803
# 4 -16.8998 -27.8909 -23.3420 38.4154 -7.3476 3.6718
# 5 13.6458 2.0027 -18.6180 -7.3476 42.9411 -1.0954
# 6 -15.0787 -6.9310 -20.4803 3.6718 -1.0954 36.9435
#
#
#
# Elastic Compliance Matrix: (Units=1/GPa)
#
#
# Indices 1 2 3 4 5 6 
#
# 1 0.018915 0.002136 -0.002443 0.006698 -0.005872 0.005927
# 2 0.002136 0.020019 -0.002006 0.014048 -0.000025 0.002118
# 3 -0.002443 -0.002006 0.010077 0.004378 0.006089 0.003958
# 4 0.006698 0.014048 0.004378 0.042727 0.006521 0.003743
# 5 -0.005872 -0.000025 0.006089 0.006521 0.028941 0.001184
# 6 0.005927 0.002118 0.003958 0.003743 0.001184 0.031742
#
#
# Mechanical properties :
#
#
# Convention : Reuss Voigt Hill
#
# Bulk Modulus (GPa) = 22.53017 45.20753 33.86885
# Shear Modulus (GPa) = 29.09659 38.36671 33.73165
#
# Velocity S-wave (km/s) = 3.35435 3.85181 3.61165
# Velocity P-wave (km/s) = 4.86977 6.10439 5.52170
#
# Compressibility (1/GPa) = 0.04438494
#
# Stress axis : x y z
#
# Youngs Moduli (GPa) = 52.86857 49.95300 99.23511
#
# Poissons Ratio (x) = -0.10672 0.24241
# Poissons Ratio (y) = -0.11294 0.19911
# Poissons Ratio (z) = 0.12914 0.10023
#
# Static dielectric constant tensor:
#      x y z
#    x 2.071130 -0.043840 -0.068510 
#    y -0.043840 2.077840 0.092210 
#    z -0.068510 0.092210 2.264770 
# 
# From -- ./inp_files/470828.got.cif
#   From: 2010.05.17/outbox.cif.g08.bks.cpg/sg2_236_cif.got.tgz:470828.got - 2010.06.03 11:33:40.
