data_PCOD9066149
_publ_section_title
;
Structure prediction by ZEFSAII (Michael W. Deem and Ramdas Pophale) SiO2 
 PCOD9066149
Probable space group: P -1
;
_chemical_formula_sum "Si O2"
_cell_formula_units_Z 16
_cell_length_a 8.626818
_cell_length_b 16.466048
_cell_length_c 9.020255
_cell_angle_alpha 95.677930
_cell_angle_beta 120.306970
_cell_angle_gamma 44.057566
_cell_volume 691.048670
_symmetry_space_group_name_H-M "P -1"
_symmetry_group_IT_number 2
_symmetry_cell_setting 'triclinic'
loop_
_space_group_symop_operation_xyz
x,y,z
-x,-y,-z
loop_
_atom_site_type_symbol
_atom_site_label
_atom_site_fract_x
_atom_site_fract_y
_atom_site_fract_z
Si Si1 0.280449 0.016727 0.325327
Si Si2 0.245608 0.046149 0.974485
Si Si3 0.736008 0.351896 0.839717
Si Si4 0.136823 0.913109 0.406512
Si Si5 0.443378 0.339882 0.250556
Si Si6 0.076739 0.568471 0.521857
Si Si7 0.078879 0.377203 0.862215
Si Si8 0.192999 0.682319 0.788056
O O1 0.990504 0.169400 0.250061
O O2 0.500000 0.000000 0.500000
O O3 0.305541 0.921533 0.399319
O O4 0.332413 0.991165 0.171336
O O5 0.957252 0.201071 0.886528
O O6 0.127760 0.016593 0.811372
O O7 0.500000 0.000000 0.000000
O O8 0.421091 0.450184 0.638357
O O9 0.913386 0.364045 0.862201
O O10 0.699638 0.372866 0.003583
O O11 0.337887 0.770923 0.542034
O O12 0.000000 0.000000 0.500000
O O13 0.144660 0.468309 0.208032
O O14 0.577448 0.369210 0.232564
O O15 0.356485 0.305253 0.075259
O O16 0.896932 0.654215 0.303482
O O17 0.042246 0.653505 0.643584
O O18 0.000000 0.500000 0.500000
#
# Coordination Sequence:
#
# PCOD9066149 Si02
#       8
#     2   2   2   2   2   2   2   2
#     4  11  26  47  71 105 139 191 243 297 357 425
#     4  11  27  46  72 106 146 190 244 300 358 426
#     4  11  25  45  73 102 144 187 238 292 358 430
#     4  12  25  45  74 104 143 188 242 297 359 425
#     4  11  25  45  71 101 144 187 235 288 361 420
#     4  12  26  44  72 109 142 185 238 293 365 425
#     4  11  26  42  71 104 142 184 234 289 352 432
#     4  11  25  45  69 100 145 184 230 296 357 427
#
# _framework density 23.153217999999999
#
# number of rings (size 3 to 8) (size 9 to 14) (size 15 to 20)
#    0.000    0.750    2.500    3.375   10.500    1.000 
#    0.000    0.000    0.000    0.000    0.000    0.000 
#    0.000    0.000    0.000    0.000    0.000    0.000 
#
# Total GULP energy -89430.815883 kJ/mol
# GULP energy per Si atom -5589.425993 kJ/mol
# Density = 2.310052 g / cm^3
# Si number density = 23.153218 Si / 1000 Ang^3
#
#
#
# Elastic Constant Matrix: (Units=GPa)
#
#
# Indices 1 2 3 4 5 6 
#
# 1 150.6539 -4.9074 56.5495 15.8270 2.1444 14.5923
# 2 -4.9074 66.1560 5.7703 18.4989 -8.9197 -9.7044
# 3 56.5495 5.7703 156.9419 38.3471 -2.7692 4.5447
# 4 15.8270 18.4989 38.3471 37.8497 1.7644 1.1851
# 5 2.1444 -8.9197 -2.7692 1.7644 46.3277 2.7791
# 6 14.5923 -9.7044 4.5447 1.1851 2.7791 29.0447
#
#
#
# Elastic Compliance Matrix: (Units=1/GPa)
#
#
# Indices 1 2 3 4 5 6 
#
# 1 0.008062 0.000545 -0.002617 -0.000871 -0.000187 -0.003405
# 2 0.000545 0.019879 0.001977 -0.012327 0.004019 0.006177
# 3 -0.002617 0.001977 0.009616 -0.009703 0.001402 0.000732
# 4 -0.000871 -0.012327 -0.009703 0.042952 -0.004339 -0.003500
# 5 -0.000187 0.004019 0.001402 -0.004339 0.022663 -0.000774
# 6 -0.003405 0.006177 0.000732 -0.003500 -0.000774 0.038307
#
#
# Mechanical properties :
#
#
# Convention : Reuss Voigt Hill
#
# Bulk Modulus (GPa) = 26.76160 54.28629 40.52395
# Shear Modulus (GPa) = 32.44139 43.73369 38.08754
#
# Velocity S-wave (km/s) = 3.74727 4.35084 4.06029
# Velocity P-wave (km/s) = 5.50511 6.98120 6.28663
#
# Compressibility (1/GPa) = 0.03736697
#
# Stress axis : x y z
#
# Youngs Moduli (GPa) = 124.04339 50.30477 103.98999
#
# Poissons Ratio (x) = -0.02742 0.27211
# Poissons Ratio (y) = -0.06761 -0.20556
# Poissons Ratio (z) = 0.32459 -0.09944
#
# Static dielectric constant tensor:
#      x y z
#    x 1.835930 -0.028760 0.027060 
#    y -0.028760 1.861250 0.119730 
#    z 0.027060 0.119730 1.782920 
# 
# From -- ./inp_files/217913.got.cif
#   From: 2010.05.17/outbox.cif.g08.bks.cpg/sg2_109_cif.got.tgz:217913.got - 2010.06.03 11:33:40.
