data_PCOD9066324
_publ_section_title
;
Structure prediction by ZEFSAII (Michael W. Deem and Ramdas Pophale) SiO2 
 PCOD9066324
Probable space group: P -1
;
_chemical_formula_sum "Si O2"
_cell_formula_units_Z 14
_cell_length_a 15.873647
_cell_length_b 5.273577
_cell_length_c 15.189366
_cell_angle_alpha 65.204034
_cell_angle_beta 150.546633
_cell_angle_gamma 107.109759
_cell_volume 560.360190
_symmetry_space_group_name_H-M "P -1"
_symmetry_group_IT_number 2
_symmetry_cell_setting 'triclinic'
loop_
_space_group_symop_operation_xyz
x,y,z
-x,-y,-z
loop_
_atom_site_type_symbol
_atom_site_label
_atom_site_fract_x
_atom_site_fract_y
_atom_site_fract_z
Si Si1 0.101385 0.674256 0.632478
Si Si2 0.421529 0.865706 0.110984
Si Si3 0.595862 0.412740 0.211427
Si Si4 0.206420 0.959491 0.417867
Si Si5 0.092647 0.096071 0.985299
Si Si6 0.925133 0.332439 0.193819
Si Si7 0.476977 0.747746 0.370964
O O1 0.293345 0.625919 0.771466
O O2 0.102418 0.556575 0.748828
O O3 0.000000 0.500000 0.500000
O O4 0.000000 0.000000 0.500000
O O5 0.502504 0.713961 0.118038
O O6 0.483770 0.678377 0.282304
O O7 0.475096 0.169066 0.133666
O O8 0.216158 0.874825 0.914778
O O9 0.728848 0.314550 0.426504
O O10 0.367388 0.069294 0.501198
O O11 0.121018 0.186183 0.379449
O O12 0.047017 0.939563 0.212053
O O13 0.112479 0.423489 0.948547
O O14 0.284596 0.922555 0.179700
O O15 0.000000 0.000000 0.000000
O O16 0.500000 0.500000 0.500000
#
# Coordination Sequence:
#
# PCOD9066324 Si02
#       7
#     2   2   2   2   2   2   2
#     4  12  26  45  77 114 152 202 263 314 389 462
#     4  11  26  47  74 109 155 193 257 320 386 452
#     4  11  25  47  73 112 149 202 254 315 384 460
#     4  11  25  45  74 103 151 199 249 313 387 447
#     4  12  28  47  75 114 152 202 263 317 389 465
#     4  12  26  47  75 107 155 198 257 323 382 463
#     4  11  26  47  73 107 149 202 256 318 382 457
#
# _framework density 24.983929
#
# number of rings (size 3 to 8) (size 9 to 14) (size 15 to 20)
#    0.000    0.571    2.857    4.286   10.000    2.857 
#    0.000    0.000    0.000    0.000    0.000    0.000 
#    0.000    0.000    0.000    0.000    0.000    0.000 
#
# Total GULP energy -78431.789417 kJ/mol
# GULP energy per Si atom -5602.270673 kJ/mol
# Density = 2.492706 g / cm^3
# Si number density = 24.983929 Si / 1000 Ang^3
#
#
#
# Elastic Constant Matrix: (Units=GPa)
#
#
# Indices 1 2 3 4 5 6 
#
# 1 136.2355 26.2711 33.4295 -4.1241 20.8750 5.1227
# 2 26.2711 94.9949 32.2005 12.2570 12.2421 -7.8620
# 3 33.4295 32.2005 120.8177 12.2947 25.2555 2.0150
# 4 -4.1241 12.2570 12.2947 52.8087 1.7058 5.6761
# 5 20.8750 12.2421 25.2555 1.7058 50.4588 -1.0173
# 6 5.1227 -7.8620 2.0150 5.6761 -1.0173 39.4016
#
#
#
# Elastic Compliance Matrix: (Units=1/GPa)
#
#
# Indices 1 2 3 4 5 6 
#
# 1 0.008566 -0.001914 -0.001501 0.001727 -0.002422 -0.001730
# 2 -0.001914 0.012628 -0.002413 -0.002842 -0.000902 0.003278
# 3 -0.001501 -0.002413 0.010347 -0.001768 -0.003926 -0.000662
# 4 0.001727 -0.002842 -0.001768 0.020532 0.000092 -0.003657
# 5 -0.002422 -0.000902 -0.003926 0.000092 0.023019 0.000917
# 6 -0.001730 0.003278 -0.000662 -0.003657 0.000917 0.026843
#
#
# Mechanical properties :
#
#
# Convention : Reuss Voigt Hill
#
# Bulk Modulus (GPa) = 50.28754 59.53891 54.91323
# Shear Modulus (GPa) = 41.59028 45.87695 43.73361
#
# Velocity S-wave (km/s) = 4.08448 4.28981 4.18840
# Velocity P-wave (km/s) = 6.51272 6.95839 6.73924
#
# Compressibility (1/GPa) = 0.01988564
#
# Stress axis : x y z
#
# Youngs Moduli (GPa) = 116.74115 79.18630 96.64680
#
# Poissons Ratio (x) = 0.15158 0.14503
# Poissons Ratio (y) = 0.22347 0.23321
# Poissons Ratio (z) = 0.17519 0.19108
#
# Static dielectric constant tensor:
#      x y z
#    x 1.989580 -0.001320 -0.009570 
#    y -0.001320 2.069020 0.029540 
#    z -0.009570 0.029540 2.014410 
# 
# From -- ./inp_files/89613.got.cif
#   From: 2010.05.17/outbox.cif.g08.bks.cpg/sg2_45_cif.got.tgz:89613.got - 2010.06.03 11:33:40.
