data_PCOD9066266
_publ_section_title
;
Structure prediction by ZEFSAII (Michael W. Deem and Ramdas Pophale) SiO2 
 PCOD9066266
Probable space group: P -1
;
_chemical_formula_sum "Si O2"
_cell_formula_units_Z 16
_cell_length_a 9.364344
_cell_length_b 15.685921
_cell_length_c 8.765534
_cell_angle_alpha 104.495588
_cell_angle_beta 76.665435
_cell_angle_gamma 47.342344
_cell_volume 758.186012
_symmetry_space_group_name_H-M "P -1"
_symmetry_group_IT_number 2
_symmetry_cell_setting 'triclinic'
loop_
_space_group_symop_operation_xyz
x,y,z
-x,-y,-z
loop_
_atom_site_type_symbol
_atom_site_label
_atom_site_fract_x
_atom_site_fract_y
_atom_site_fract_z
Si Si1 0.228328 0.423709 0.319205
Si Si2 0.884971 0.868212 0.753975
Si Si3 0.484528 0.105287 0.479176
Si Si4 0.739977 0.358070 0.956138
Si Si5 0.990283 0.593780 0.146164
Si Si6 0.048669 0.078000 0.566000
Si Si7 0.404341 0.155484 0.160560
Si Si8 0.615452 0.361735 0.328340
O O1 0.357054 0.275127 0.170690
O O2 0.406603 0.389420 0.373015
O O3 0.000000 0.500000 0.500000
O O4 0.140172 0.514295 0.230385
O O5 0.886757 0.895685 0.589227
O O6 0.837198 0.787820 0.769312
O O7 0.139133 0.778255 0.713471
O O8 0.643002 0.016773 0.953867
O O9 0.274907 0.258259 0.675585
O O10 0.451580 0.122435 0.314039
O O11 0.500000 0.000000 0.500000
O O12 0.732058 0.030634 0.424509
O O13 0.906597 0.365585 0.935268
O O14 0.853867 0.227082 0.768083
O O15 0.500000 0.500000 0.000000
O O16 0.685658 0.349563 0.132979
O O17 0.000000 0.500000 0.000000
O O18 0.000000 0.000000 0.500000
O O19 0.500000 0.500000 0.500000
#
# Coordination Sequence:
#
# PCOD9066266 Si02
#       8
#     2   2   2   2   2   2   2   2
#     4  12  27  48  72 104 149 188 246 304 364 443
#     4  11  26  45  72 108 142 188 244 294 372 437
#     4  12  24  48  72 102 144 196 243 300 361 432
#     4  12  26  50  73 103 151 192 242 305 369 434
#     4  12  29  45  77 109 146 195 252 300 370 436
#     4  12  29  46  74 106 149 190 248 305 369 438
#     4  11  25  45  73 102 148 188 240 301 361 434
#     4  12  28  45  74 104 148 193 240 300 374 436
#
# _framework density 21.103000999999999
#
# number of rings (size 3 to 8) (size 9 to 14) (size 15 to 20)
#    0.000    0.250    5.000    2.250   10.500    0.500 
#    0.000    0.000    0.000    0.000    0.000    0.000 
#    0.000    0.000    0.000    0.000    0.000    0.000 
#
# Total GULP energy -89404.583650 kJ/mol
# GULP energy per Si atom -5587.786478 kJ/mol
# Density = 2.105497 g / cm^3
# Si number density = 21.103001 Si / 1000 Ang^3
#
#
#
# Elastic Constant Matrix: (Units=GPa)
#
#
# Indices 1 2 3 4 5 6 
#
# 1 125.0823 11.5538 23.1406 27.1028 -6.7284 -1.9482
# 2 11.5538 75.8425 25.8310 20.1031 -1.3711 -9.6938
# 3 23.1406 25.8310 147.3376 16.8948 0.5341 4.6248
# 4 27.1028 20.1031 16.8948 34.3124 4.2163 2.8932
# 5 -6.7284 -1.3711 0.5341 4.2163 28.7850 7.7553
# 6 -1.9482 -9.6938 4.6248 2.8932 7.7553 44.6075
#
#
#
# Elastic Compliance Matrix: (Units=1/GPa)
#
#
# Indices 1 2 3 4 5 6 
#
# 1 0.010150 0.001240 -0.000836 -0.008831 0.003537 0.000757
# 2 0.001240 0.017097 -0.002132 -0.010502 0.001493 0.004412
# 3 -0.000836 -0.002132 0.007525 -0.001713 0.000136 -0.001192
# 4 -0.008831 -0.010502 -0.001713 0.044431 -0.007966 -0.003987
# 5 0.003537 0.001493 0.000136 -0.007966 0.038334 -0.005683
# 6 0.000757 0.004412 -0.001192 -0.003987 -0.005683 0.024780
#
#
# Mechanical properties :
#
#
# Convention : Reuss Voigt Hill
#
# Bulk Modulus (GPa) = 31.93090 52.14592 42.03841
# Shear Modulus (GPa) = 32.00795 40.72345 36.36570
#
# Velocity S-wave (km/s) = 3.89877 4.39765 4.15571
# Velocity P-wave (km/s) = 5.95240 7.10983 6.55670
#
# Compressibility (1/GPa) = 0.03131763
#
# Stress axis : x y z
#
# Youngs Moduli (GPa) = 98.51910 58.48968 132.88303
#
# Poissons Ratio (x) = -0.07251 0.11103
# Poissons Ratio (y) = -0.12214 0.28328
# Poissons Ratio (z) = 0.08231 0.12469
#
# Static dielectric constant tensor:
#      x y z
#    x 2.113400 -0.021050 0.058420 
#    y -0.021050 1.792700 0.011020 
#    z 0.058420 0.011020 1.738880 
# 
# From -- ./inp_files/207641.got.cif
#   From: 2010.05.17/outbox.cif.g08.bks.cpg/sg2_104_cif.got.tgz:207641.got - 2010.06.03 11:33:40.
