data_PCOD9066498
_publ_section_title
;
Structure prediction by ZEFSAII (Michael W. Deem and Ramdas Pophale) SiO2 
 PCOD9066498
Probable space group: P -1
;
_chemical_formula_sum "Si O2"
_cell_formula_units_Z 14
_cell_length_a 8.216333
_cell_length_b 12.688933
_cell_length_c 9.086308
_cell_angle_alpha 144.246500
_cell_angle_beta 93.641526
_cell_angle_gamma 83.060021
_cell_volume 548.479819
_symmetry_space_group_name_H-M "P -1"
_symmetry_group_IT_number 2
_symmetry_cell_setting 'triclinic'
loop_
_space_group_symop_operation_xyz
x,y,z
-x,-y,-z
loop_
_atom_site_type_symbol
_atom_site_label
_atom_site_fract_x
_atom_site_fract_y
_atom_site_fract_z
Si Si1 0.271754 0.048850 0.629487
Si Si2 0.432233 0.388837 0.002766
Si Si3 0.660510 0.045763 0.140767
Si Si4 0.718991 0.498950 0.331955
Si Si5 0.126135 0.173872 0.326494
Si Si6 0.219065 0.581553 0.435617
Si Si7 0.094898 0.846677 0.179229
O O1 0.083053 0.142698 0.745020
O O2 0.238397 0.872399 0.334437
O O3 0.389470 0.188724 0.732575
O O4 0.334744 0.999843 0.740129
O O5 0.559258 0.410946 0.169616
O O6 0.263154 0.482561 0.172927
O O7 0.500000 0.500000 0.000000
O O8 0.813826 0.934944 0.940020
O O9 0.500000 0.000000 0.000000
O O10 0.667782 0.257470 0.362051
O O11 0.740225 0.689483 0.471161
O O12 0.740486 0.535125 0.547545
O O13 0.862870 0.340152 0.116148
O O14 0.962049 0.310951 0.451708
O O15 0.101486 0.021852 0.273327
#
# Coordination Sequence:
#
# PCOD9066498 Si02
#       7
#     2   2   2   2   2   2   2
#     4  11  25  46  70 103 149 189 240 296 366 426
#     4  12  28  47  70 107 144 193 246 302 370 430
#     4  12  24  43  74 110 147 186 239 300 362 430
#     4  12  25  45  74 106 148 187 239 302 368 426
#     4  12  24  47  76 110 144 190 248 296 358 434
#     4  12  24  46  73 104 148 189 246 300 357 435
#     4  11  25  47  73 110 143 194 243 294 359 443
#
# _framework density 25.525095
#
# number of rings (size 3 to 8) (size 9 to 14) (size 15 to 20)
#    0.000    0.286    2.857    6.429    2.000    0.571 
#    0.000    3.571    0.000    0.000    0.000    0.000 
#    0.000    0.000    0.000    0.000    0.000    0.000 
#
# Total GULP energy -78509.462238 kJ/mol
# GULP energy per Si atom -5607.818731 kJ/mol
# Density = 2.546700 g / cm^3
# Si number density = 25.525095 Si / 1000 Ang^3
#
#
#
# Elastic Constant Matrix: (Units=GPa)
#
#
# Indices 1 2 3 4 5 6 
#
# 1 82.6460 24.4048 18.1865 -4.9805 12.9829 4.4917
# 2 24.4048 115.9188 36.4702 -15.9254 9.8898 12.3747
# 3 18.1865 36.4702 115.3785 6.0667 7.5074 14.6420
# 4 -4.9805 -15.9254 6.0667 48.4345 7.9457 11.5107
# 5 12.9829 9.8898 7.5074 7.9457 58.2246 2.2997
# 6 4.4917 12.3747 14.6420 11.5107 2.2997 39.3981
#
#
#
# Elastic Compliance Matrix: (Units=1/GPa)
#
#
# Indices 1 2 3 4 5 6 
#
# 1 0.013514 -0.001901 -0.001341 0.001552 -0.002700 -0.000741
# 2 -0.001901 0.011144 -0.002927 0.004945 -0.001627 -0.003546
# 3 -0.001341 -0.002927 0.010187 -0.001831 -0.000182 -0.002168
# 4 0.001552 0.004945 -0.001831 0.025278 -0.004076 -0.008197
# 5 -0.002700 -0.001627 -0.000182 -0.004076 0.018594 0.000992
# 6 -0.000741 -0.003546 -0.002168 -0.008197 0.000992 0.029723
#
#
# Mechanical properties :
#
#
# Convention : Reuss Voigt Hill
#
# Bulk Modulus (GPa) = 44.42979 52.45182 48.44081
# Shear Modulus (GPa) = 38.97699 44.87022 41.92360
#
# Velocity S-wave (km/s) = 3.91193 4.19726 4.05711
# Velocity P-wave (km/s) = 6.15210 6.63951 6.40045
#
# Compressibility (1/GPa) = 0.02250742
#
# Stress axis : x y z
#
# Youngs Moduli (GPa) = 73.99671 89.73038 98.16347
#
# Poissons Ratio (x) = 0.17053 0.13167
# Poissons Ratio (y) = 0.14063 0.28736
# Poissons Ratio (z) = 0.09925 0.26267
#
# Static dielectric constant tensor:
#      x y z
#    x 2.110630 -0.015780 -0.024020 
#    y -0.015780 1.981210 -0.028550 
#    z -0.024020 -0.028550 2.032010 
# 
# From -- ./inp_files/191105.got.cif
#   From: 2010.05.17/outbox.cif.g08.bks.cpg/sg2_96_cif.got.tgz:191105.got - 2010.06.03 11:33:40.
