data_PCOD9066482
_publ_section_title
;
Structure prediction by ZEFSAII (Michael W. Deem and Ramdas Pophale) SiO2 
 PCOD9066482
Probable space group: P -1
;
_chemical_formula_sum "Si O2"
_cell_formula_units_Z 16
_cell_length_a 8.692044
_cell_length_b 9.897429
_cell_length_c 12.048091
_cell_angle_alpha 48.330993
_cell_angle_beta 78.510908
_cell_angle_gamma 77.041328
_cell_volume 752.744067
_symmetry_space_group_name_H-M "P -1"
_symmetry_group_IT_number 2
_symmetry_cell_setting 'triclinic'
loop_
_space_group_symop_operation_xyz
x,y,z
-x,-y,-z
loop_
_atom_site_type_symbol
_atom_site_label
_atom_site_fract_x
_atom_site_fract_y
_atom_site_fract_z
Si Si1 0.548964 0.286920 0.871016
Si Si2 0.359894 0.134803 0.303805
Si Si3 0.119177 0.564807 0.289510
Si Si4 0.870819 0.523746 0.909694
Si Si5 0.143831 0.954192 0.588362
Si Si6 0.352921 0.629981 0.820945
Si Si7 0.878142 0.785968 0.360470
Si Si8 0.553707 0.922279 0.211635
O O1 0.706301 0.379638 0.778073
O O2 0.419925 0.439431 0.859797
O O3 0.494569 0.212283 0.802270
O O4 0.577478 0.111704 0.043223
O O5 0.216485 0.271377 0.198798
O O6 0.504049 0.250237 0.246180
O O7 0.289379 0.054495 0.467600
O O8 0.421325 0.977878 0.293804
O O9 0.063388 0.534070 0.189045
O O10 0.122726 0.379852 0.461272
O O11 0.008617 0.719795 0.286437
O O12 0.730627 0.408182 0.030453
O O13 0.000000 0.500000 0.000000
O O14 0.217686 0.745684 0.703968
O O15 0.091989 0.038015 0.669024
O O16 0.000000 0.000000 0.500000
O O17 0.710782 0.834397 0.298506
#
# Coordination Sequence:
#
# PCOD9066482 Si02
#       8
#     2   2   2   2   2   2   2   2
#     4  11  25  46  69 105 137 181 235 292 346 421
#     4  12  23  46  70 100 139 182 242 287 341 417
#     4  11  26  46  69 100 145 184 231 284 355 423
#     4  12  25  43  73 104 139 186 235 290 349 412
#     4  12  27  44  69 106 143 185 236 290 350 419
#     4  12  24  44  76  99 136 187 238 289 345 412
#     4  11  26  46  68 101 145 185 228 288 354 419
#     4  11  26  44  71 103 139 179 236 291 351 411
#
# _framework density 21.255565000000001
#
# number of rings (size 3 to 8) (size 9 to 14) (size 15 to 20)
#    0.000    0.500    5.000    2.250    5.250    2.000 
#    0.000    0.000    0.000    0.000    0.000    0.000 
#    0.000    0.000    0.000    0.000    0.000    0.000 
#
# Total GULP energy -89581.002491 kJ/mol
# GULP energy per Si atom -5598.812656 kJ/mol
# Density = 2.120719 g / cm^3
# Si number density = 21.255565 Si / 1000 Ang^3
#
#
#
# Elastic Constant Matrix: (Units=GPa)
#
#
# Indices 1 2 3 4 5 6 
#
# 1 73.4118 46.9469 34.0796 12.0368 16.8283 -3.0142
# 2 46.9469 140.5971 41.2241 29.4756 8.6124 -7.9427
# 3 34.0796 41.2241 80.2533 7.2177 11.5728 -12.9630
# 4 12.0368 29.4756 7.2177 34.3400 0.8577 -1.8693
# 5 16.8283 8.6124 11.5728 0.8577 41.4876 3.8560
# 6 -3.0142 -7.9427 -12.9630 -1.8693 3.8560 38.7347
#
#
#
# Elastic Compliance Matrix: (Units=1/GPa)
#
#
# Indices 1 2 3 4 5 6 
#
# 1 0.020760 -0.004542 -0.005568 -0.002100 -0.005816 -0.000702
# 2 -0.004542 0.011046 -0.003093 -0.007226 0.000517 0.000476
# 3 -0.005568 -0.003093 0.017478 0.001272 -0.002474 0.005089
# 4 -0.002100 -0.007226 0.001272 0.035783 0.001222 0.000386
# 5 -0.005816 0.000517 -0.002474 0.001222 0.027377 -0.003841
# 6 -0.000702 0.000476 0.005089 0.000386 -0.003841 0.027964
#
#
# Mechanical properties :
#
#
# Convention : Reuss Voigt Hill
#
# Bulk Modulus (GPa) = 43.71107 59.86261 51.78684
# Shear Modulus (GPa) = 28.66273 34.37991 31.52132
#
# Velocity S-wave (km/s) = 3.67615 4.02612 3.85511
# Velocity P-wave (km/s) = 6.21514 7.05955 6.65076
#
# Compressibility (1/GPa) = 0.02287750
#
# Stress axis : x y z
#
# Youngs Moduli (GPa) = 48.16849 90.52732 57.21331
#
# Poissons Ratio (x) = 0.41122 0.31858
# Poissons Ratio (y) = 0.21881 0.17696
# Poissons Ratio (z) = 0.26822 0.28000
#
# Static dielectric constant tensor:
#      x y z
#    x 1.758200 0.009180 -0.013940 
#    y 0.009180 1.743820 -0.010380 
#    z -0.013940 -0.010380 1.783290 
# 
# From -- ./inp_files/184309.got.cif
#   From: 2010.05.17/outbox.cif.g08.bks.cpg/sg2_93_cif.got.tgz:184309.got - 2010.06.03 11:33:40.
