data_PCOD9066780
_publ_section_title
;
Structure prediction by ZEFSAII (Michael W. Deem and Ramdas Pophale) SiO2 
 PCOD9066780
Probable space group: P -1
;
_chemical_formula_sum "Si O2"
_cell_formula_units_Z 16
_cell_length_a 13.902581
_cell_length_b 15.396481
_cell_length_c 9.108061
_cell_angle_alpha 36.184072
_cell_angle_beta 141.695977
_cell_angle_gamma 144.582516
_cell_volume 619.410499
_symmetry_space_group_name_H-M "P -1"
_symmetry_group_IT_number 2
_symmetry_cell_setting 'triclinic'
loop_
_space_group_symop_operation_xyz
x,y,z
-x,-y,-z
loop_
_atom_site_type_symbol
_atom_site_label
_atom_site_fract_x
_atom_site_fract_y
_atom_site_fract_z
Si Si1 0.423195 0.213416 0.599660
Si Si2 0.574150 0.219073 0.470484
Si Si3 0.457023 0.119323 0.083333
Si Si4 0.825378 0.663999 0.797179
Si Si5 0.944728 0.109624 0.498861
Si Si6 0.844162 0.597118 0.235950
Si Si7 0.754394 0.822546 0.028892
Si Si8 0.848987 0.339766 0.262745
O O1 0.559962 0.260678 0.567193
O O2 0.368277 0.352656 0.388846
O O3 0.237251 0.054458 0.539426
O O4 0.482147 0.154154 0.893924
O O5 0.695416 0.402839 0.296068
O O6 0.639078 0.081487 0.731697
O O7 0.371363 0.130395 0.283931
O O8 0.653935 0.201099 0.272295
O O9 0.358188 0.211773 0.908821
O O10 0.938477 0.812558 0.614537
O O11 0.898340 0.688737 0.018358
O O12 0.828412 0.498176 0.971405
O O13 0.907071 0.252798 0.325889
O O14 0.047734 0.071517 0.806587
O O15 0.761473 0.680999 0.131062
O O16 0.007355 0.606121 0.509595
#
# Coordination Sequence:
#
# PCOD9066780 Si02
#       8
#     2   2   2   2   2   2   2   2
#     4  12  27  47  75 111 150 199 240 309 376 436
#     4  12  26  48  77 106 154 193 246 307 368 445
#     4  12  27  49  74 112 152 193 251 301 375 436
#     4  12  25  47  78 105 151 193 249 299 367 448
#     4  11  26  50  72 112 151 195 245 304 375 439
#     4  11  27  50  76 111 148 198 244 303 379 432
#     4  11  25  46  76 109 146 195 248 301 366 437
#     4  11  27  47  75 114 144 195 248 305 370 434
#
# _framework density 25.831012999999999
#
# number of rings (size 3 to 8) (size 9 to 14) (size 15 to 20)
#    0.000    0.500    3.750    3.000    3.500    4.000 
#    0.000    0.000    0.000    0.000    0.000    0.000 
#    0.000    0.000    0.000    0.000    0.000    0.000 
#
# Total GULP energy -89604.457313 kJ/mol
# GULP energy per Si atom -5600.278582 kJ/mol
# Density = 2.577222 g / cm^3
# Si number density = 25.831013 Si / 1000 Ang^3
#
#
#
# Elastic Constant Matrix: (Units=GPa)
#
#
# Indices 1 2 3 4 5 6 
#
# 1 129.2157 35.5419 22.2855 -3.2242 -7.6920 -27.1417
# 2 35.5419 104.8027 51.3189 2.0807 9.8644 -17.0215
# 3 22.2855 51.3189 116.5023 3.3770 -7.1154 -7.9458
# 4 -3.2242 2.0807 3.3770 33.5676 -3.2274 0.5311
# 5 -7.6920 9.8644 -7.1154 -3.2274 48.7733 2.8440
# 6 -27.1417 -17.0215 -7.9458 0.5311 2.8440 32.3633
#
#
#
# Elastic Compliance Matrix: (Units=1/GPa)
#
#
# Indices 1 2 3 4 5 6 
#
# 1 0.010015 -0.002261 -0.000379 0.001189 0.001655 0.006952
# 2 -0.002261 0.014345 -0.005813 -0.001022 -0.004443 0.004629
# 3 -0.000379 -0.005813 0.011346 -0.000537 0.002784 -0.000825
# 4 0.001189 -0.001022 -0.000537 0.030253 0.002340 -0.000374
# 5 0.001655 -0.004443 0.002784 0.002340 0.022356 -0.002269
# 6 0.006952 0.004629 -0.000825 -0.000374 -0.002269 0.039167
#
#
# Mechanical properties :
#
#
# Convention : Reuss Voigt Hill
#
# Bulk Modulus (GPa) = 53.19045 63.20148 58.19596
# Shear Modulus (GPa) = 33.18888 39.03247 36.11067
#
# Velocity S-wave (km/s) = 3.58836 3.89147 3.74298
# Velocity P-wave (km/s) = 6.14857 6.68668 6.42326
#
# Compressibility (1/GPa) = 0.01880037
#
# Stress axis : x y z
#
# Youngs Moduli (GPa) = 99.85371 69.71053 88.13909
#
# Poissons Ratio (x) = 0.15762 0.03341
# Poissons Ratio (y) = 0.22577 0.51231
# Poissons Ratio (z) = 0.03785 0.40519
#
# Static dielectric constant tensor:
#      x y z
#    x 2.067980 -0.020600 0.005020 
#    y -0.020600 1.985270 0.000510 
#    z 0.005020 0.000510 2.016130 
# 
# From -- ./inp_files/314504.got.cif
#   From: 2010.05.17/outbox.cif.g08.bks.cpg/sg2_158_cif.got.tgz:314504.got - 2010.06.03 11:33:40.
