data_PCOD9066605
_publ_section_title
;
Structure prediction by ZEFSAII (Michael W. Deem and Ramdas Pophale) SiO2 
 PCOD9066605
Probable space group: P -1
;
_chemical_formula_sum "Si O2"
_cell_formula_units_Z 16
_cell_length_a 8.811020
_cell_length_b 17.335163
_cell_length_c 18.020726
_cell_angle_alpha 148.038794
_cell_angle_beta 30.354536
_cell_angle_gamma 138.037195
_cell_volume 735.625414
_symmetry_space_group_name_H-M "P -1"
_symmetry_group_IT_number 2
_symmetry_cell_setting 'triclinic'
loop_
_space_group_symop_operation_xyz
x,y,z
-x,-y,-z
loop_
_atom_site_type_symbol
_atom_site_label
_atom_site_fract_x
_atom_site_fract_y
_atom_site_fract_z
Si Si1 0.472588 0.370119 0.018335
Si Si2 0.459843 0.574899 0.656828
Si Si3 0.333332 0.117522 0.118955
Si Si4 0.718418 0.093960 0.296206
Si Si5 0.088719 0.610211 0.617534
Si Si6 0.205759 0.345747 0.956668
Si Si7 0.670851 0.113958 0.818707
Si Si8 0.714398 0.912414 0.394945
O O1 0.623114 0.523559 0.053687
O O2 0.168382 0.394235 0.214053
O O3 0.381998 0.300177 0.919490
O O4 0.687145 0.267948 0.892448
O O5 0.500000 0.500000 0.500000
O O6 0.652639 0.726520 0.716431
O O7 0.586369 0.447488 0.548404
O O8 0.117164 0.605442 0.841236
O O9 0.007517 0.043436 0.177828
O O10 0.499825 0.142261 0.990687
O O11 0.500000 0.000000 0.000000
O O12 0.861354 0.226451 0.297004
O O13 0.495679 0.142629 0.493970
O O14 0.541567 0.985400 0.226770
O O15 0.000000 0.500000 0.500000
O O16 0.169945 0.214452 0.808397
O O17 0.977030 0.035011 0.648907
O O18 0.500000 0.000000 0.500000
#
# Coordination Sequence:
#
# PCOD9066605 Si02
#       8
#     2   2   2   2   2   2   2   2
#     4  11  25  46  72 106 146 189 251 301 376 441
#     4  12  26  46  74 109 145 192 247 301 368 442
#     4  12  27  46  74 109 150 196 249 307 376 438
#     4  12  27  45  75 108 143 201 247 310 369 443
#     4  12  24  46  69 106 145 185 250 305 362 436
#     4  11  26  47  74 105 147 199 238 317 372 439
#     4  12  26  48  73 108 148 197 250 306 373 446
#     4  12  27  50  72 106 154 194 251 305 374 449
#
# _framework density 21.7502
#
# number of rings (size 3 to 8) (size 9 to 14) (size 15 to 20)
#    0.000    0.250    5.000    3.000    5.250    0.500 
#    2.250    0.000    0.000    0.000    0.000    0.000 
#    0.000    0.000    0.000    0.000    0.000    0.000 
#
# Total GULP energy -89332.928254 kJ/mol
# GULP energy per Si atom -5583.308016 kJ/mol
# Density = 2.170070 g / cm^3
# Si number density = 21.750200 Si / 1000 Ang^3
#
#
#
# Elastic Constant Matrix: (Units=GPa)
#
#
# Indices 1 2 3 4 5 6 
#
# 1 148.7111 46.1737 54.8800 -1.2865 -10.0511 -0.4148
# 2 46.1737 85.2554 33.0234 -8.4213 8.7533 -1.2428
# 3 54.8800 33.0234 103.7309 -12.4391 6.0825 0.6825
# 4 -1.2865 -8.4213 -12.4391 29.1865 -4.8830 -6.2165
# 5 -10.0511 8.7533 6.0825 -4.8830 51.2903 -5.7406
# 6 -0.4148 -1.2428 0.6825 -6.2165 -5.7406 33.2426
#
#
#
# Elastic Compliance Matrix: (Units=1/GPa)
#
#
# Indices 1 2 3 4 5 6 
#
# 1 0.009768 -0.004139 -0.004270 -0.002051 0.002952 0.000181
# 2 -0.004139 0.015418 -0.002198 0.002993 -0.002825 0.000642
# 3 -0.004270 -0.002198 0.013242 0.004596 -0.001574 0.000180
# 4 -0.002051 0.002993 0.004596 0.039198 0.003154 0.007867
# 5 0.002952 -0.002825 -0.001574 0.003154 0.021522 0.004270
# 6 0.000181 0.000642 0.000180 0.007867 0.004270 0.032313
#
#
# Mechanical properties :
#
#
# Convention : Reuss Voigt Hill
#
# Bulk Modulus (GPa) = 58.09888 67.31684 62.70786
# Shear Modulus (GPa) = 31.56314 36.31857 33.94085
#
# Velocity S-wave (km/s) = 3.81355 4.09076 3.95458
# Velocity P-wave (km/s) = 6.79417 7.30271 7.05302
#
# Compressibility (1/GPa) = 0.01721203
#
# Stress axis : x y z
#
# Youngs Moduli (GPa) = 102.37725 64.86059 75.51946
#
# Poissons Ratio (x) = 0.26847 0.32249
# Poissons Ratio (y) = 0.42375 0.16600
# Poissons Ratio (z) = 0.43718 0.14257
#
# Static dielectric constant tensor:
#      x y z
#    x 1.727840 -0.000940 -0.018260 
#    y -0.000940 1.783720 0.013210 
#    z -0.018260 0.013210 1.774680 
# 
# From -- ./inp_files/562079.got.cif
#   From: 2010.05.17/outbox.cif.g08.bks.cpg/sg2_282_cif.got.tgz:562079.got - 2010.06.03 11:33:40.
