data_PCOD9066306
_publ_section_title
;
Structure prediction by ZEFSAII (Michael W. Deem and Ramdas Pophale) SiO2 
 PCOD9066306
Probable space group: P -1
;
_chemical_formula_sum "Si O2"
_cell_formula_units_Z 12
_cell_length_a 20.981513
_cell_length_b 23.041892
_cell_length_c 4.986372
_cell_angle_alpha 67.122576
_cell_angle_beta 66.526146
_cell_angle_gamma 11.296035
_cell_volume 433.098524
_symmetry_space_group_name_H-M "P -1"
_symmetry_group_IT_number 2
_symmetry_cell_setting 'triclinic'
loop_
_space_group_symop_operation_xyz
x,y,z
-x,-y,-z
loop_
_atom_site_type_symbol
_atom_site_label
_atom_site_fract_x
_atom_site_fract_y
_atom_site_fract_z
Si Si1 0.570254 0.510735 0.976813
Si Si2 0.951488 0.497885 0.834400
Si Si3 0.550430 0.672723 0.119840
Si Si4 0.912006 0.010025 0.530697
Si Si5 0.237314 0.110376 0.065258
Si Si6 0.816820 0.948455 0.419535
O O1 0.244776 0.836381 0.785395
O O2 0.500000 0.500000 0.000000
O O3 0.849134 0.309420 0.731322
O O4 0.785693 0.298825 0.279945
O O5 0.000000 0.500000 0.500000
O O6 0.183813 0.231883 0.924143
O O7 0.593835 0.784692 0.940175
O O8 0.000000 0.500000 0.000000
O O9 0.417124 0.830397 0.823531
O O10 0.934197 0.339023 0.050182
O O11 0.400798 0.736399 0.227262
O O12 0.372070 0.854628 0.360964
O O13 0.000000 0.000000 0.500000
O O14 0.196499 0.115769 0.417332
#
# Coordination Sequence:
#
# PCOD9066306 Si02
#       6
#     2   2   2   2   2   2
#     4   9  18  38  63  98 147 198 258 318 384 450
#     4  12  30  52  80 114 151 198 247 316 402 482
#     4  11  25  45  73 110 150 200 260 318 385 459
#     4   9  18  38  63  98 147 198 258 318 384 450
#     4  12  26  52  82 112 159 196 259 320 388 480
#     4  11  25  45  73 110 150 200 260 318 385 459
#
# _framework density 27.707322000000001
#
# number of rings (size 3 to 8) (size 9 to 14) (size 15 to 20)
#    0.000    1.333    3.333    1.000    2.333    4.000 
#    0.000   15.000    0.000    0.000    0.000    0.000 
#    0.000    0.000    0.000    0.000    0.000    0.000 
#
# Total GULP energy -66857.509537 kJ/mol
# GULP energy per Si atom -5571.459128 kJ/mol
# Density = 2.764426 g / cm^3
# Si number density = 27.707322 Si / 1000 Ang^3
#
#
#
# Elastic Constant Matrix: (Units=GPa)
#
#
# Indices 1 2 3 4 5 6 
#
# 1 21.9690 41.4388 52.0480 -57.2434 -34.0672 -25.0024
# 2 41.4388 136.2827 49.2915 -8.7146 16.9009 -15.1875
# 3 52.0480 49.2915 212.0986 -19.6333 -18.1679 -6.8197
# 4 -57.2434 -8.7146 -19.6333 35.8109 -16.7179 -26.8341
# 5 -34.0672 16.9009 -18.1679 -16.7179 67.1758 -9.6876
# 6 -25.0024 -15.1875 -6.8197 -26.8341 -9.6876 61.8960
#
#
#
# Elastic Compliance Matrix: (Units=1/GPa)
#
#
# Indices 1 2 3 4 5 6 
#
# 1 -0.002304 0.000301 -0.001420 -0.012694 -0.005859 -0.007433
# 2 0.000301 0.008627 -0.001692 0.003859 -0.001001 0.003568
# 3 -0.001420 -0.001692 0.005835 0.002034 0.001910 0.000835
# 4 -0.012694 0.003859 0.002034 0.004670 -0.006112 -0.002888
# 5 -0.005859 -0.001001 0.001910 -0.006112 0.010675 -0.003381
# 6 -0.007433 0.003568 0.000835 -0.002888 -0.003381 0.012340
#
#
# Mechanical properties :
#
#
# Convention : Reuss Voigt Hill
#
# Bulk Modulus (GPa) = 153.04051 72.87855 112.95953
# Shear Modulus (GPa) = 104.94179 48.14800 76.54489
#
# Velocity S-wave (km/s) = 6.16095 4.17314 5.26177
# Velocity P-wave (km/s) = 10.29390 7.04132 8.81886
#
# Compressibility (1/GPa) = 0.00653422
#
# Stress axis : x y z
#
# Youngs Moduli (GPa) = -434.06718 115.91704 171.36637
#
# Poissons Ratio (x) = -0.03487 0.24342
# Poissons Ratio (y) = 0.13057 0.29004
# Poissons Ratio (z) = -0.61658 0.19619
#
# Static dielectric constant tensor:
#      x y z
#    x 1.824430 -0.273740 0.260010 
#    y -0.273740 2.127270 -0.067620 
#    z 0.260010 -0.067620 2.411140 
# 
# From -- ./inp_files/102656.got.cif
#   From: 2010.05.17/outbox.cif.g08.bks.cpg/sg2_52_cif.got.tgz:102656.got - 2010.06.03 11:33:40.
