data_PCOD9066634
_publ_section_title
;
Structure prediction by ZEFSAII (Michael W. Deem and Ramdas Pophale) SiO2 
 PCOD9066634
Probable space group: P -1
;
_chemical_formula_sum "Si O2"
_cell_formula_units_Z 16
_cell_length_a 9.870434
_cell_length_b 9.696713
_cell_length_c 23.229194
_cell_angle_alpha 123.067210
_cell_angle_beta 154.945237
_cell_angle_gamma 59.179678
_cell_volume 788.004951
_symmetry_space_group_name_H-M "P -1"
_symmetry_group_IT_number 2
_symmetry_cell_setting 'triclinic'
loop_
_space_group_symop_operation_xyz
x,y,z
-x,-y,-z
loop_
_atom_site_type_symbol
_atom_site_label
_atom_site_fract_x
_atom_site_fract_y
_atom_site_fract_z
Si Si1 0.318387 0.885817 0.947322
Si Si2 0.138892 0.931434 0.096781
Si Si3 0.832276 0.315478 0.614432
Si Si4 0.822514 0.347696 0.368803
Si Si5 0.142575 0.979271 0.613930
Si Si6 0.935759 0.571099 0.928365
Si Si7 0.229474 0.381835 0.890713
Si Si8 0.072056 0.358735 0.337690
O O1 0.134303 0.747477 0.809655
O O2 0.584523 0.793552 0.068782
O O3 0.073873 0.997821 0.916545
O O4 0.500000 0.000000 0.000000
O O5 0.487847 0.995406 0.248960
O O6 0.125584 0.737107 0.040659
O O7 0.000000 0.000000 0.000000
O O8 0.449116 0.313194 0.463929
O O9 0.957106 0.446937 0.645949
O O10 0.949743 0.378888 0.735609
O O11 0.986901 0.134076 0.623841
O O12 0.884763 0.189168 0.398518
O O13 0.439107 0.386529 0.221329
O O14 0.000000 0.500000 0.500000
O O15 0.963681 0.324284 0.353243
O O16 0.000000 0.000000 0.500000
O O17 0.084332 0.448001 0.909730
O O18 0.000000 0.500000 0.000000
O O19 0.500000 0.500000 0.000000
#
# Coordination Sequence:
#
# PCOD9066634 Si02
#       8
#     2   2   2   2   2   2   2   2
#     4  12  26  45  68 103 142 184 230 291 351 415
#     4  12  25  46  73 102 142 183 237 290 353 417
#     4  11  25  46  73 101 138 187 239 289 353 425
#     4  12  27  47  71 103 146 186 235 295 358 422
#     4  12  27  46  73 104 140 189 240 291 355 426
#     4  12  27  46  71 106 141 188 235 293 353 418
#     4  12  24  43  72 102 136 180 238 283 345 419
#     4  11  25  47  71 100 143 186 234 292 356 421
#
# _framework density 20.304442000000002
#
# number of rings (size 3 to 8) (size 9 to 14) (size 15 to 20)
#    0.000    0.250    2.500    6.750    5.250    2.500 
#    4.500    0.000    0.000    0.000    0.000    0.000 
#    0.000    0.000    0.000    0.000    0.000    0.000 
#
# Total GULP energy -89526.217430 kJ/mol
# GULP energy per Si atom -5595.388589 kJ/mol
# Density = 2.025823 g / cm^3
# Si number density = 20.304442 Si / 1000 Ang^3
#
#
#
# Elastic Constant Matrix: (Units=GPa)
#
#
# Indices 1 2 3 4 5 6 
#
# 1 3.6555 -47.8874 70.6316 -3.1299 -5.3413 -23.4744
# 2 -47.8874 48.7782 52.3979 -6.4357 4.2032 -1.2244
# 3 70.6316 52.3979 113.9336 -4.1113 -2.8322 26.8161
# 4 -3.1299 -6.4357 -4.1113 32.6593 2.1649 -4.1257
# 5 -5.3413 4.2032 -2.8322 2.1649 40.0517 -1.1782
# 6 -23.4744 -1.2244 26.8161 -4.1257 -1.1782 38.3475
#
#
#
# Elastic Compliance Matrix: (Units=1/GPa)
#
#
# Indices 1 2 3 4 5 6 
#
# 1 -0.001539 -0.008804 0.006333 -0.001893 0.001098 -0.005822
# 2 -0.008804 0.008240 0.003404 0.000393 -0.002041 -0.007527
# 3 0.006333 0.003404 0.002848 0.001873 0.000653 0.002215
# 4 -0.001893 0.000393 0.001873 0.030975 -0.001811 0.000821
# 5 0.001098 -0.002041 0.000653 -0.001811 0.025494 0.000739
# 6 -0.005822 -0.007527 0.002215 0.000821 0.000739 0.020835
#
#
# Mechanical properties :
#
#
# Convention : Reuss Voigt Hill
#
# Bulk Modulus (GPa) = 87.62096 35.18352 61.40224
# Shear Modulus (GPa) = 56.31060 28.29339 42.30200
#
# Velocity S-wave (km/s) = 5.27194 3.73696 4.56936
# Velocity P-wave (km/s) = 8.96131 5.99878 7.62530
#
# Compressibility (1/GPa) = 0.01141279
#
# Stress axis : x y z
#
# Youngs Moduli (GPa) = -649.61361 121.36065 351.07901
#
# Poissons Ratio (x) = 1.06850 -2.22325
# Poissons Ratio (y) = -5.71942 -1.19496
# Poissons Ratio (z) = 4.11376 -0.41307
#
# Static dielectric constant tensor:
#      x y z
#    x 1.485010 -0.183550 0.132400 
#    y -0.183550 1.529660 0.120130 
#    z 0.132400 0.120130 1.590690 
# 
# From -- ./inp_files/208246.got.cif
#   From: 2010.05.17/outbox.cif.g08.bks.cpg/sg2_105_cif.got.tgz:208246.got - 2010.06.03 11:33:40.
