data_PCOD9066720
_publ_section_title
;
Structure prediction by ZEFSAII (Michael W. Deem and Ramdas Pophale) SiO2 
 PCOD9066720
Probable space group: P -1
;
_chemical_formula_sum "Si O2"
_cell_formula_units_Z 16
_cell_length_a 19.084559
_cell_length_b 5.115243
_cell_length_c 23.991297
_cell_angle_alpha 72.490913
_cell_angle_beta 16.627193
_cell_angle_gamma 78.904817
_cell_volume 598.409308
_symmetry_space_group_name_H-M "P -1"
_symmetry_group_IT_number 2
_symmetry_cell_setting 'triclinic'
loop_
_space_group_symop_operation_xyz
x,y,z
-x,-y,-z
loop_
_atom_site_type_symbol
_atom_site_label
_atom_site_fract_x
_atom_site_fract_y
_atom_site_fract_z
Si Si1 0.776861 0.297477 0.441172
Si Si2 0.190171 0.290123 0.306649
Si Si3 0.093710 0.728650 0.963024
Si Si4 0.897772 0.848229 0.893099
Si Si5 0.244016 0.331624 0.670171
Si Si6 0.293420 0.753312 0.053266
Si Si7 0.900219 0.133043 0.696694
Si Si8 0.493117 0.238783 0.276306
O O1 0.700350 0.491689 0.441372
O O2 0.016438 0.496447 0.281572
O O3 0.552686 0.112452 0.666581
O O4 0.919018 0.137093 0.301079
O O5 0.112319 0.576583 0.343457
O O6 0.192967 0.155197 0.251864
O O7 0.463356 0.350710 0.125812
O O8 0.000000 0.000000 0.500000
O O9 0.388922 0.740780 0.751275
O O10 0.000000 0.500000 0.000000
O O11 0.966106 0.643974 0.126599
O O12 0.000000 0.000000 0.000000
O O13 0.684658 0.524552 0.081639
O O14 0.732210 0.056641 0.992217
O O15 0.102597 0.996324 0.777796
O O16 0.500000 0.500000 0.500000
O O17 0.293844 0.921919 0.099327
O O18 0.198914 0.207637 0.485410
#
# Coordination Sequence:
#
# PCOD9066720 Si02
#       8
#     2   2   2   2   2   2   2   2
#     4  11  25  46  74 110 146 207 247 323 386 459
#     4  12  28  47  76 114 157 205 263 323 390 464
#     4  12  28  47  76 113 150 203 255 319 382 461
#     4  11  25  47  75 111 147 207 251 319 384 463
#     4  11  26  48  74 109 158 199 259 320 394 462
#     4  11  26  48  75 110 158 196 268 312 393 468
#     4  12  27  46  77 114 151 213 251 325 393 460
#     4  12  26  49  79 108 160 191 270 307 398 456
#
# _framework density 26.737552000000001
#
# number of rings (size 3 to 8) (size 9 to 14) (size 15 to 20)
#    0.000    0.500    2.500    4.125    5.250    4.500 
#    0.000    0.000    0.000    0.000    0.000    0.000 
#    0.000    0.000    0.000    0.000    0.000    0.000 
#
# Total GULP energy -89308.676403 kJ/mol
# GULP energy per Si atom -5581.792275 kJ/mol
# Density = 2.667670 g / cm^3
# Si number density = 26.737552 Si / 1000 Ang^3
#
#
#
# Elastic Constant Matrix: (Units=GPa)
#
#
# Indices 1 2 3 4 5 6 
#
# 1 88.9413 39.4025 35.1267 -4.7973 -17.2887 1.2047
# 2 39.4025 127.2522 23.1766 -19.5262 -5.3072 -7.0777
# 3 35.1267 23.1766 115.6844 -38.0459 -6.0790 -25.2469
# 4 -4.7973 -19.5262 -38.0459 48.0203 -12.7894 2.2238
# 5 -17.2887 -5.3072 -6.0790 -12.7894 61.8479 7.2925
# 6 1.2047 -7.0777 -25.2469 2.2238 7.2925 56.0761
#
#
#
# Elastic Compliance Matrix: (Units=1/GPa)
#
#
# Indices 1 2 3 4 5 6 
#
# 1 0.016068 -0.004582 -0.005930 -0.003938 0.003155 -0.003847
# 2 -0.004582 0.009861 0.001345 0.004661 0.000461 0.001704
# 3 -0.005930 0.001345 0.015942 0.012772 0.001873 0.006724
# 4 -0.003938 0.004661 0.012772 0.034153 0.007129 0.004142
# 5 0.003155 0.000461 0.001873 0.007129 0.018974 -0.001917
# 6 -0.003847 0.001704 0.006724 0.004142 -0.001917 0.021243
#
#
# Mechanical properties :
#
#
# Convention : Reuss Voigt Hill
#
# Bulk Modulus (GPa) = 42.48621 58.58773 50.53697
# Shear Modulus (GPa) = 35.10691 48.80033 41.95362
#
# Velocity S-wave (km/s) = 3.62749 4.27682 3.96547
# Velocity P-wave (km/s) = 5.78528 6.80794 6.31734
#
# Compressibility (1/GPa) = 0.02353705
#
# Stress axis : x y z
#
# Youngs Moduli (GPa) = 62.23451 101.40450 62.72782
#
# Poissons Ratio (x) = 0.46463 0.37197
# Poissons Ratio (y) = 0.28516 -0.08434
# Poissons Ratio (z) = 0.36904 -0.13635
#
# Static dielectric constant tensor:
#      x y z
#    x 2.165610 -0.005760 0.003400 
#    y -0.005760 2.272160 0.039510 
#    z 0.003400 0.039510 2.378220 
# 
# From -- ./inp_files/612620.got.cif
#   From: 2010.05.17/outbox.cif.g08.bks.cpg/sg2_307_cif.got.tgz:612620.got - 2010.06.03 11:33:40.
