data_PCOD9066977
_publ_section_title
;
Structure prediction by ZEFSAII (Michael W. Deem and Ramdas Pophale) SiO2 
 PCOD9066977
Probable space group: P -1
;
_chemical_formula_sum "Si O2"
_cell_formula_units_Z 16
_cell_length_a 21.016104
_cell_length_b 17.658420
_cell_length_c 9.842499
_cell_angle_alpha 141.680732
_cell_angle_beta 35.345865
_cell_angle_gamma 161.686182
_cell_volume 662.934928
_symmetry_space_group_name_H-M "P -1"
_symmetry_group_IT_number 2
_symmetry_cell_setting 'triclinic'
loop_
_space_group_symop_operation_xyz
x,y,z
-x,-y,-z
loop_
_atom_site_type_symbol
_atom_site_label
_atom_site_fract_x
_atom_site_fract_y
_atom_site_fract_z
Si Si1 0.707125 0.191719 0.186330
Si Si2 0.620762 0.311940 0.030196
Si Si3 0.722528 0.925490 0.182085
Si Si4 0.060373 0.200382 0.186119
Si Si5 0.898948 0.313772 0.304618
Si Si6 0.485371 0.373556 0.118831
Si Si7 0.433712 0.596097 0.487918
Si Si8 0.944645 0.656138 0.338850
O O1 0.790971 0.278040 0.315713
O O2 0.762279 0.376564 0.289983
O O3 0.475001 0.909811 0.162984
O O4 0.864013 0.237791 0.911503
O O5 0.882389 0.552177 0.930516
O O6 0.531109 0.325083 0.094271
O O7 0.529100 0.263863 0.268703
O O8 0.571863 0.740356 0.310396
O O9 0.705024 0.044304 0.321776
O O10 0.712858 0.837546 0.937546
O O11 0.957334 0.154086 0.164633
O O12 0.983830 0.203399 0.452978
O O13 0.316807 0.459284 0.095244
O O14 0.000000 0.000000 0.000000
O O15 0.000000 0.500000 0.500000
O O16 0.486034 0.516540 0.354310
O O17 0.180746 0.364521 0.561695
#
# Coordination Sequence:
#
# PCOD9066977 Si02
#       8
#     2   2   2   2   2   2   2   2
#     4  11  26  49  71 103 149 190 236 301 360 427
#     4  12  27  48  72 106 147 189 235 293 370 423
#     4  12  24  44  71 104 142 187 240 288 352 424
#     4  12  23  42  71 106 145 188 237 295 355 421
#     4  12  27  45  72 106 142 184 243 294 359 429
#     4  12  25  45  70 106 146 188 239 297 356 426
#     4  12  25  46  73 106 141 190 244 289 356 435
#     4  11  25  47  74 107 146 189 242 297 359 429
#
# _framework density 24.135099
#
# number of rings (size 3 to 8) (size 9 to 14) (size 15 to 20)
#    0.000    0.250    6.250    3.000    1.750    2.000 
#    0.000    1.250    0.000    0.000    0.000    0.000 
#    0.000    0.000    0.000    0.000    0.000    0.000 
#
# Total GULP energy -89415.110884 kJ/mol
# GULP energy per Si atom -5588.444430 kJ/mol
# Density = 2.408017 g / cm^3
# Si number density = 24.135099 Si / 1000 Ang^3
#
#
#
# Elastic Constant Matrix: (Units=GPa)
#
#
# Indices 1 2 3 4 5 6 
#
# 1 65.5173 -3.0862 5.7321 -4.4301 8.7438 6.5660
# 2 -3.0862 54.5645 3.2089 6.1158 7.3269 1.6540
# 3 5.7321 3.2089 77.5707 14.1952 5.4539 2.1302
# 4 -4.4301 6.1158 14.1952 29.0046 12.2223 1.5384
# 5 8.7438 7.3269 5.4539 12.2223 41.5886 8.4685
# 6 6.5660 1.6540 2.1302 1.5384 8.4685 38.3904
#
#
#
# Elastic Compliance Matrix: (Units=1/GPa)
#
#
# Indices 1 2 3 4 5 6 
#
# 1 0.016648 0.001139 -0.001861 0.005256 -0.004596 -0.001990
# 2 0.001139 0.019071 -0.000201 -0.002571 -0.002757 -0.000294
# 3 -0.001861 -0.000201 0.014382 -0.007621 0.000852 -0.000354
# 4 0.005256 -0.002571 -0.007621 0.045002 -0.013021 0.000704
# 5 -0.004596 -0.002757 0.000852 -0.013021 0.030292 -0.005303
# 6 -0.001990 -0.000294 -0.000354 0.000704 -0.005303 0.027562
#
#
# Mechanical properties :
#
#
# Convention : Reuss Voigt Hill
#
# Bulk Modulus (GPa) = 20.72316 23.26248 21.99282
# Shear Modulus (GPa) = 29.25921 34.58321 31.92121
#
# Velocity S-wave (km/s) = 3.48560 3.78947 3.64071
# Velocity P-wave (km/s) = 4.98038 5.36714 5.17737
#
# Compressibility (1/GPa) = 0.04825518
#
# Stress axis : x y z
#
# Youngs Moduli (GPa) = 60.06773 52.43684 69.53274
#
# Poissons Ratio (x) = -0.05975 0.12942
# Poissons Ratio (y) = -0.06845 0.01395
# Poissons Ratio (z) = 0.11181 0.01052
#
# Static dielectric constant tensor:
#      x y z
#    x 2.223200 0.025730 -0.097940 
#    y 0.025730 1.956650 -0.060400 
#    z -0.097940 -0.060400 1.980850 
# 
# From -- ./inp_files/348929.got.cif
#   From: 2010.05.17/outbox.cif.g08.bks.cpg/sg2_175_cif.got.tgz:348929.got - 2010.06.03 11:33:40.
