data_PCOD9066781
_publ_section_title
;
Structure prediction by ZEFSAII (Michael W. Deem and Ramdas Pophale) SiO2 
 PCOD9066781
Probable space group: P -1
;
_chemical_formula_sum "Si O2"
_cell_formula_units_Z 13
_cell_length_a 9.889089
_cell_length_b 12.785211
_cell_length_c 10.462604
_cell_angle_alpha 135.260576
_cell_angle_beta 135.528472
_cell_angle_gamma 41.069761
_cell_volume 564.544012
_symmetry_space_group_name_H-M "P -1"
_symmetry_group_IT_number 2
_symmetry_cell_setting 'triclinic'
loop_
_space_group_symop_operation_xyz
x,y,z
-x,-y,-z
loop_
_atom_site_type_symbol
_atom_site_label
_atom_site_fract_x
_atom_site_fract_y
_atom_site_fract_z
Si Si1 0.500000 0.500000 0.500000
Si Si2 0.872573 0.128920 0.142574
Si Si3 0.172178 0.068139 0.816702
Si Si4 0.573892 0.623559 0.091549
Si Si5 0.169714 0.298382 0.463651
Si Si6 0.581570 0.797624 0.716732
Si Si7 0.160483 0.566890 0.120095
O O1 0.583319 0.621054 0.585101
O O2 0.385620 0.480803 0.276918
O O3 0.012618 0.225284 0.340946
O O4 0.862221 0.042740 0.193693
O O5 0.624996 0.247294 0.022187
O O6 0.000000 0.000000 0.000000
O O7 0.946656 0.229905 0.756044
O O8 0.328598 0.950639 0.706124
O O9 0.288006 0.161395 0.049976
O O10 0.649461 0.718094 0.324975
O O11 0.500000 0.500000 0.000000
O O12 0.788010 0.491619 0.040980
O O13 0.303515 0.208886 0.346152
O O14 0.000000 0.500000 0.500000
O O15 0.000000 0.500000 0.000000
#
# Coordination Sequence:
#
# PCOD9066781 Si02
#       7
#     1   2   2   2   2   2   2
#     4  12  26  46  80 108 142 192 256 298 374 450
#     4  12  26  48  76 111 153 196 246 317 375 437
#     4  11  25  50  74 108 156 191 242 321 375 429
#     4  12  26  47  76 111 148 197 249 305 370 448
#     4  12  26  48  78 109 148 200 251 299 375 450
#     4  11  25  46  76 110 148 192 251 305 369 452
#     4  12  27  48  77 108 147 196 246 311 374 441
#
# _framework density 23.027435000000001
#
# number of rings (size 3 to 8) (size 9 to 14) (size 15 to 20)
#    0.000    0.308    4.615    3.692    4.308    1.231 
#    2.769    1.538    0.000    0.000    0.000    0.000 
#    0.000    0.000    0.000    0.000    0.000    0.000 
#
# Total GULP energy -72522.061439 kJ/mol
# GULP energy per Si atom -5578.620111 kJ/mol
# Density = 2.297502 g / cm^3
# Si number density = 23.027435 Si / 1000 Ang^3
#
#
#
# Elastic Constant Matrix: (Units=GPa)
#
#
# Indices 1 2 3 4 5 6 
#
# 1 134.6071 48.8884 35.1308 20.4877 3.0046 1.2883
# 2 48.8884 77.9638 5.4554 4.3572 -3.6243 2.0215
# 3 35.1308 5.4554 133.9023 2.6756 28.3150 3.9828
# 4 20.4877 4.3572 2.6756 24.7277 9.6815 2.2059
# 5 3.0046 -3.6243 28.3150 9.6815 49.8736 25.4575
# 6 1.2883 2.0215 3.9828 2.2059 25.4575 40.8394
#
#
#
# Elastic Compliance Matrix: (Units=1/GPa)
#
#
# Indices 1 2 3 4 5 6 
#
# 1 0.012130 -0.006655 -0.003352 -0.009648 0.003162 -0.001176
# 2 -0.006655 0.016987 0.000674 0.001881 0.001900 -0.001982
# 3 -0.003352 0.000674 0.009860 0.004470 -0.008268 0.004023
# 4 -0.009648 0.001881 0.004470 0.053091 -0.015470 0.006551
# 5 0.003162 0.001900 -0.008268 -0.015470 0.039536 -0.023197
# 6 -0.001176 -0.001982 0.004023 0.006551 -0.023197 0.038335
#
#
# Mechanical properties :
#
#
# Convention : Reuss Voigt Hill
#
# Bulk Modulus (GPa) = 49.23826 58.38026 53.80926
# Shear Modulus (GPa) = 25.59159 40.22139 32.90649
#
# Velocity S-wave (km/s) = 3.33731 4.18386 3.78433
# Velocity P-wave (km/s) = 6.02321 6.98191 6.52020
#
# Compressibility (1/GPa) = 0.02030941
#
# Stress axis : x y z
#
# Youngs Moduli (GPa) = 82.43935 58.86816 101.42415
#
# Poissons Ratio (x) = 0.39177 0.34000
# Poissons Ratio (y) = 0.54864 -0.06832
# Poissons Ratio (z) = 0.27635 -0.03965
#
# Static dielectric constant tensor:
#      x y z
#    x 1.750230 -0.044010 -0.106760 
#    y -0.044010 1.927200 0.009060 
#    z -0.106760 0.009060 1.713110 
# 
# From -- ./inp_files/157837.got.cif
#   From: 2010.05.17/outbox.cif.g08.bks.cpg/sg2_79_cif.got.tgz:157837.got - 2010.06.03 11:33:40.
