data_PCOD9066099
_publ_section_title
;
Structure prediction by ZEFSAII (Michael W. Deem and Ramdas Pophale) SiO2 
 PCOD9066099
Probable space group: P -1
;
_chemical_formula_sum "Si O2"
_cell_formula_units_Z 12
_cell_length_a 12.524854
_cell_length_b 9.174308
_cell_length_c 9.619720
_cell_angle_alpha 127.958997
_cell_angle_beta 142.700072
_cell_angle_gamma 43.895262
_cell_volume 462.117327
_symmetry_space_group_name_H-M "P -1"
_symmetry_group_IT_number 2
_symmetry_cell_setting 'triclinic'
loop_
_space_group_symop_operation_xyz
x,y,z
-x,-y,-z
loop_
_atom_site_type_symbol
_atom_site_label
_atom_site_fract_x
_atom_site_fract_y
_atom_site_fract_z
Si Si1 0.358027 0.722894 0.413446
Si Si2 0.184556 0.790347 0.001654
Si Si3 0.705176 0.140217 0.153868
Si Si4 0.070653 0.711916 0.305452
Si Si5 0.060534 0.449796 0.349500
Si Si6 0.296674 0.180702 0.679164
O O1 0.500000 0.500000 0.500000
O O2 0.368890 0.719555 0.257042
O O3 0.145670 0.742602 0.252433
O O4 0.361572 0.933737 0.589496
O O5 0.246373 0.810889 0.922377
O O6 0.099089 0.629182 0.833965
O O7 0.000000 0.000000 0.000000
O O8 0.789145 0.239578 0.414082
O O9 0.471956 0.202723 0.951721
O O10 0.839416 0.890361 0.173487
O O11 0.103990 0.485843 0.258005
O O12 0.252373 0.294291 0.548096
O O13 0.926071 0.690194 0.408243
#
# Coordination Sequence:
#
# PCOD9066099 Si02
#       6
#     2   2   2   2   2   2
#     4  12  29  48  70 107 149 183 234 300 356 413
#     4  12  25  50  70 103 149 187 229 297 361 412
#     4  11  25  45  76 102 144 190 238 288 350 429
#     4  11  25  46  71 108 140 187 242 290 347 422
#     4  11  25  44  76 105 141 187 240 290 348 428
#     4  11  25  47  73 106 141 191 239 285 355 428
#
# _framework density 25.967434000000001
#
# number of rings (size 3 to 8) (size 9 to 14) (size 15 to 20)
#    0.000    0.667    3.333    4.000    7.000    5.333 
#    0.000    0.000    0.000    0.000    0.000    0.000 
#    0.000    0.000    0.000    0.000    0.000    0.000 
#
# Total GULP energy -67145.327000 kJ/mol
# GULP energy per Si atom -5595.443917 kJ/mol
# Density = 2.590833 g / cm^3
# Si number density = 25.967434 Si / 1000 Ang^3
#
#
#
# Elastic Constant Matrix: (Units=GPa)
#
#
# Indices 1 2 3 4 5 6 
#
# 1 104.1671 27.0377 21.4464 -9.1704 -18.9545 38.3193
# 2 27.0377 147.4230 51.7198 -25.5336 -3.0619 18.6281
# 3 21.4464 51.7198 124.6320 -17.9947 4.1252 5.8088
# 4 -9.1704 -25.5336 -17.9947 42.0503 4.5003 -0.7049
# 5 -18.9545 -3.0619 4.1252 4.5003 44.8436 -9.9147
# 6 38.3193 18.6281 5.8088 -0.7049 -9.9147 47.1405
#
#
#
# Elastic Compliance Matrix: (Units=1/GPa)
#
#
# Indices 1 2 3 4 5 6 
#
# 1 0.014940 -0.000356 -0.001799 0.001675 0.003868 -0.010943
# 2 -0.000356 0.008937 -0.002912 0.004089 -0.000322 -0.002890
# 3 -0.001799 -0.002912 0.009885 0.002287 -0.001869 0.001036
# 4 0.001675 0.004089 0.002287 0.027848 -0.002776 -0.003426
# 5 0.003868 -0.000322 -0.001869 -0.002776 0.024896 0.002407
# 6 -0.010943 -0.002890 0.001036 -0.003426 0.002407 0.031578
#
#
# Mechanical properties :
#
#
# Convention : Reuss Voigt Hill
#
# Bulk Modulus (GPa) = 42.32190 64.06997 53.19594
# Shear Modulus (GPa) = 36.73981 45.20809 40.97395
#
# Velocity S-wave (km/s) = 3.76552 4.17700 3.97659
# Velocity P-wave (km/s) = 5.93624 6.92747 6.45092
#
# Compressibility (1/GPa) = 0.02362843
#
# Stress axis : x y z
#
# Youngs Moduli (GPa) = 66.93593 111.89962 101.15988
#
# Poissons Ratio (x) = 0.03978 0.18203
# Poissons Ratio (y) = 0.02380 0.29454
# Poissons Ratio (z) = 0.12045 0.32581
#
# Static dielectric constant tensor:
#      x y z
#    x 2.128710 -0.098850 -0.049400 
#    y -0.098850 2.196790 0.014800 
#    z -0.049400 0.014800 2.048870 
# 
# From -- ./inp_files/382525.got.cif
#   From: 2010.05.17/outbox.cif.g08.bks.cpg/sg2_192_cif.got.tgz:382525.got - 2010.06.03 11:33:40.
