data_PCOD9066433
_publ_section_title
;
Structure prediction by ZEFSAII (Michael W. Deem and Ramdas Pophale) SiO2 
 PCOD9066433
Probable space group: P -1
;
_chemical_formula_sum "Si O2"
_cell_formula_units_Z 13
_cell_length_a 9.658814
_cell_length_b 10.872191
_cell_length_c 8.998317
_cell_angle_alpha 90.934800
_cell_angle_beta 39.293540
_cell_angle_gamma 106.820870
_cell_volume 538.166323
_symmetry_space_group_name_H-M "P -1"
_symmetry_group_IT_number 2
_symmetry_cell_setting 'triclinic'
loop_
_space_group_symop_operation_xyz
x,y,z
-x,-y,-z
loop_
_atom_site_type_symbol
_atom_site_label
_atom_site_fract_x
_atom_site_fract_y
_atom_site_fract_z
Si Si1 0.241171 0.399640 0.271792
Si Si2 0.060046 0.504057 0.690385
Si Si3 0.349278 0.778016 0.847161
Si Si4 0.864582 0.893208 0.738968
Si Si5 0.469778 0.345632 0.537069
Si Si6 0.500000 0.000000 0.000000
Si Si7 0.017931 0.866839 0.921620
O O1 0.194578 0.437299 0.474726
O O2 0.222259 0.251474 0.268232
O O3 0.052310 0.422261 0.322761
O O4 0.500000 0.500000 0.000000
O O5 0.264430 0.621013 0.618656
O O6 0.851319 0.375264 0.943400
O O7 0.552391 0.747178 0.590973
O O8 0.223478 0.842069 0.837545
O O9 0.432109 0.875851 0.924916
O O10 0.037145 0.890799 0.729261
O O11 0.651393 0.931859 0.967193
O O12 0.000000 0.000000 0.500000
O O13 0.500000 0.500000 0.500000
O O14 0.241022 0.262934 0.831100
O O15 0.000000 0.000000 0.000000
#
# Coordination Sequence:
#
# PCOD9066433 Si02
#       7
#     2   2   2   2   2   1   2
#     4  11  25  45  78 111 157 202 261 330 393 466
#     4  11  25  47  77 121 149 205 271 325 404 474
#     4  12  27  49  80 115 161 208 271 328 401 483
#     4  12  28  48  77 106 158 206 257 324 388 469
#     4  12  28  46  83 113 157 206 261 334 403 468
#     4  12  28  46  74 112 154 212 266 310 398 472
#     4  12  28  52  75 119 158 212 270 322 404 480
#
# _framework density 24.156099999999999
#
# number of rings (size 3 to 8) (size 9 to 14) (size 15 to 20)
#    0.000    0.308    3.077    4.154    8.615    5.538 
#    0.000    0.000    0.000    0.000    0.000    0.000 
#    0.000    0.000    0.000    0.000    0.000    0.000 
#
# Total GULP energy -72547.767177 kJ/mol
# GULP energy per Si atom -5580.597475 kJ/mol
# Density = 2.410112 g / cm^3
# Si number density = 24.156100 Si / 1000 Ang^3
#
#
#
# Elastic Constant Matrix: (Units=GPa)
#
#
# Indices 1 2 3 4 5 6 
#
# 1 141.2785 40.6603 5.4048 2.4072 4.9644 5.0001
# 2 40.6603 178.5762 17.0130 4.7808 2.8142 -14.7225
# 3 5.4048 17.0130 63.9735 -9.2907 17.6935 -3.2669
# 4 2.4072 4.7808 -9.2907 45.0769 -7.6708 0.1791
# 5 4.9644 2.8142 17.6935 -7.6708 32.4350 0.2573
# 6 5.0001 -14.7225 -3.2669 0.1791 0.2573 48.4048
#
#
#
# Elastic Compliance Matrix: (Units=1/GPa)
#
#
# Indices 1 2 3 4 5 6 
#
# 1 0.007700 -0.001838 0.000020 -0.000396 -0.001113 -0.001346
# 2 -0.001838 0.006360 -0.001675 -0.000857 0.000425 0.002012
# 3 0.000020 -0.001675 0.019169 0.002467 -0.009737 0.000825
# 4 -0.000396 -0.000857 0.002467 0.023547 0.004359 -0.000164
# 5 -0.001113 0.000425 -0.009737 0.004359 0.037312 -0.000628
# 6 -0.001346 0.002012 0.000825 -0.000164 -0.000628 0.021470
#
#
# Mechanical properties :
#
#
# Convention : Reuss Voigt Hill
#
# Bulk Modulus (GPa) = 38.10684 56.66492 47.38588
# Shear Modulus (GPa) = 38.08294 46.56668 42.32481
#
# Velocity S-wave (km/s) = 3.97487 4.39537 4.19040
# Velocity P-wave (km/s) = 6.07253 7.01910 6.56290
#
# Compressibility (1/GPa) = 0.02624201
#
# Stress axis : x y z
#
# Youngs Moduli (GPa) = 129.87198 157.23077 52.16782
#
# Poissons Ratio (x) = 0.28897 -0.00103
# Poissons Ratio (y) = 0.23869 0.08740
# Poissons Ratio (z) = -0.00257 0.26341
#
# Static dielectric constant tensor:
#      x y z
#    x 1.858560 0.046690 -0.035320 
#    y 0.046690 1.875960 0.031500 
#    z -0.035320 0.031500 1.983950 
# 
# From -- ./inp_files/187194.got.cif
#   From: 2010.05.17/outbox.cif.g08.bks.cpg/sg2_94_cif.got.tgz:187194.got - 2010.06.03 11:33:40.
