data_PCOD9066960
_publ_section_title
;
Structure prediction by ZEFSAII (Michael W. Deem and Ramdas Pophale) SiO2 
 PCOD9066960
Probable space group: P -1
;
_chemical_formula_sum "Si O2"
_cell_formula_units_Z 12
_cell_length_a 12.436536
_cell_length_b 17.370162
_cell_length_c 14.248140
_cell_angle_alpha 152.420177
_cell_angle_beta 30.574150
_cell_angle_gamma 157.030847
_cell_volume 538.670973
_symmetry_space_group_name_H-M "P -1"
_symmetry_group_IT_number 2
_symmetry_cell_setting 'triclinic'
loop_
_space_group_symop_operation_xyz
x,y,z
-x,-y,-z
loop_
_atom_site_type_symbol
_atom_site_label
_atom_site_fract_x
_atom_site_fract_y
_atom_site_fract_z
Si Si1 0.868392 0.561339 0.091399
Si Si2 0.387646 0.475777 0.453793
Si Si3 0.699880 0.467099 0.765680
Si Si4 0.653559 0.140054 0.329651
Si Si5 0.209387 0.708185 0.312654
Si Si6 0.601113 0.959710 0.786461
O O1 0.547156 0.432261 0.219812
O O2 0.882554 0.488210 0.900168
O O3 0.063063 0.827123 0.239772
O O4 0.000000 0.500000 0.000000
O O5 0.500000 0.500000 0.500000
O O6 0.497329 0.717408 0.608826
O O7 0.049082 0.297162 0.504859
O O8 0.586825 0.297264 0.579842
O O9 0.757803 0.356099 0.680585
O O10 0.006102 0.700132 0.756881
O O11 0.500000 0.500000 0.000000
O O12 0.532772 0.041386 0.210284
O O13 0.491985 0.937914 0.306201
O O14 0.500000 0.000000 0.000000
#
# Coordination Sequence:
#
# PCOD9066960 Si02
#       6
#     2   2   2   2   2   2
#     4  12  23  41  66 103 142 180 226 275 350 422
#     4  12  24  41  66 103 143 183 224 277 345 418
#     4  11  27  49  71 100 132 181 245 291 341 402
#     4  11  25  47  73  97 140 180 232 291 345 408
#     4  12  25  46  70 101 142 180 229 286 344 418
#     4  12  22  44  69 102 147 184 222 285 346 419
#
# _framework density 22.277049000000002
#
# number of rings (size 3 to 8) (size 9 to 14) (size 15 to 20)
#    0.000    0.333    6.667    1.000    2.333    2.000 
#    3.000    0.000    0.000    0.000    0.000    0.000 
#    0.000    0.000    0.000    0.000    0.000    0.000 
#
# Total GULP energy -67152.957301 kJ/mol
# GULP energy per Si atom -5596.079775 kJ/mol
# Density = 2.222635 g / cm^3
# Si number density = 22.277049 Si / 1000 Ang^3
#
#
#
# Elastic Constant Matrix: (Units=GPa)
#
#
# Indices 1 2 3 4 5 6 
#
# 1 87.4283 24.5012 7.8835 -7.9621 8.0048 -6.0326
# 2 24.5012 150.7758 26.4377 -11.8827 -6.5519 -18.2252
# 3 7.8835 26.4377 107.1276 -28.8104 11.7632 11.9808
# 4 -7.9621 -11.8827 -28.8104 46.2593 2.7653 3.0337
# 5 8.0048 -6.5519 11.7632 2.7653 34.9250 10.5017
# 6 -6.0326 -18.2252 11.9808 3.0337 10.5017 31.6381
#
#
#
# Elastic Compliance Matrix: (Units=1/GPa)
#
#
# Indices 1 2 3 4 5 6 
#
# 1 0.012665 -0.001827 0.000226 0.001940 -0.004225 0.002493
# 2 -0.001827 0.008007 -0.002607 -0.000279 0.001371 0.004823
# 3 0.000226 -0.002607 0.013279 0.008264 -0.003864 -0.005997
# 4 0.001940 -0.000279 0.008264 0.027551 -0.004209 -0.004165
# 5 -0.004225 0.001371 -0.003864 -0.004209 0.034367 -0.009557
# 6 0.002493 0.004823 -0.005997 -0.004165 -0.009557 0.040703
#
#
# Mechanical properties :
#
#
# Convention : Reuss Voigt Hill
#
# Bulk Modulus (GPa) = 39.16189 51.44183 45.30186
# Shear Modulus (GPa) = 32.57359 41.66511 37.11935
#
# Velocity S-wave (km/s) = 3.82803 4.32941 4.08641
# Velocity P-wave (km/s) = 6.09557 6.93784 6.53030
#
# Compressibility (1/GPa) = 0.02553503
#
# Stress axis : x y z
#
# Youngs Moduli (GPa) = 78.95678 124.89392 75.30914
#
# Poissons Ratio (x) = 0.22818 -0.01700
# Poissons Ratio (y) = 0.14425 0.19629
# Poissons Ratio (z) = -0.01782 0.32554
#
# Static dielectric constant tensor:
#      x y z
#    x 1.709630 -0.153410 0.106320 
#    y -0.153410 1.641510 0.105810 
#    z 0.106320 0.105810 1.788750 
# 
# From -- ./inp_files/270338.got.cif
#   From: 2010.05.17/outbox.cif.g08.bks.cpg/sg2_136_cif.got.tgz:270338.got - 2010.06.03 11:33:40.
