data_PCOD9066573
_publ_section_title
;
Structure prediction by ZEFSAII (Michael W. Deem and Ramdas Pophale) SiO2 
 PCOD9066573
Probable space group: P -1
;
_chemical_formula_sum "Si O2"
_cell_formula_units_Z 16
_cell_length_a 19.837882
_cell_length_b 11.204958
_cell_length_c 16.024206
_cell_angle_alpha 145.146368
_cell_angle_beta 159.999433
_cell_angle_gamma 33.281444
_cell_volume 656.771892
_symmetry_space_group_name_H-M "P -1"
_symmetry_group_IT_number 2
_symmetry_cell_setting 'triclinic'
loop_
_space_group_symop_operation_xyz
x,y,z
-x,-y,-z
loop_
_atom_site_type_symbol
_atom_site_label
_atom_site_fract_x
_atom_site_fract_y
_atom_site_fract_z
Si Si1 0.306740 0.598415 0.128799
Si Si2 0.641143 0.960018 0.486810
Si Si3 0.349807 0.864351 0.689068
Si Si4 0.088696 0.839426 0.854527
Si Si5 0.951231 0.362780 0.790837
Si Si6 0.302948 0.999229 0.892848
Si Si7 0.145650 0.278744 0.243677
Si Si8 0.662098 0.260774 0.067736
O O1 0.465270 0.355868 0.191376
O O2 0.247486 0.663320 0.000889
O O3 0.381065 0.790452 0.368253
O O4 0.083480 0.623714 0.925579
O O5 0.689502 0.815314 0.545022
O O6 0.450426 0.915382 0.193667
O O7 0.853643 0.874551 0.630543
O O8 0.246868 0.992243 0.726613
O O9 0.177133 0.780438 0.400056
O O10 0.462292 0.992366 0.835797
O O11 0.141691 0.770099 0.781417
O O12 0.133159 0.068124 0.056144
O O13 0.819667 0.536292 0.668441
O O14 0.151336 0.205987 0.884974
O O15 0.000000 0.500000 0.000000
O O16 0.291073 0.788933 0.809418
O O17 0.500000 0.500000 0.000000
#
# Coordination Sequence:
#
# PCOD9066573 Si02
#       8
#     2   2   2   2   2   2   2   2
#     4   9  18  39  69  97 127 170 220 265 330 390
#     4   9  22  39  65  98 130 170 211 278 327 385
#     4  11  25  46  71  92 136 188 219 272 331 403
#     4   9  20  39  61  97 133 162 210 275 326 384
#     4  12  26  42  69 102 133 176 225 281 333 390
#     4  11  27  48  63 100 139 178 225 267 335 408
#     4   9  19  39  65  97 133 162 215 268 329 394
#     4  12  26  41  64  96 130 168 225 269 324 396
#
# _framework density 24.361578999999999
#
# number of rings (size 3 to 8) (size 9 to 14) (size 15 to 20)
#    0.000    1.750    1.250    3.375    7.000    5.000 
#    0.000    0.000    0.000    0.000    0.000    0.000 
#    0.000    0.000    0.000    0.000    0.000    0.000 
#
# Total GULP energy -89622.986598 kJ/mol
# GULP energy per Si atom -5601.436662 kJ/mol
# Density = 2.430613 g / cm^3
# Si number density = 24.361579 Si / 1000 Ang^3
#
#
#
# Elastic Constant Matrix: (Units=GPa)
#
#
# Indices 1 2 3 4 5 6 
#
# 1 115.4378 44.6401 11.4596 -9.3898 23.9606 -5.6029
# 2 44.6401 89.8835 -17.4320 -9.3566 2.2795 -3.3305
# 3 11.4596 -17.4320 66.3290 3.4881 0.9009 -14.3525
# 4 -9.3898 -9.3566 3.4881 22.7953 -2.4914 7.6413
# 5 23.9606 2.2795 0.9009 -2.4914 25.7791 -0.9177
# 6 -5.6029 -3.3305 -14.3525 7.6413 -0.9177 39.6067
#
#
#
# Elastic Compliance Matrix: (Units=1/GPa)
#
#
# Indices 1 2 3 4 5 6 
#
# 1 0.015008 -0.007832 -0.004858 0.002677 -0.012868 -0.001110
# 2 -0.007832 0.016345 0.005876 0.002549 0.005948 0.002042
# 3 -0.004858 0.005876 0.019366 -0.004835 0.003130 0.007830
# 4 0.002677 0.002549 -0.004835 0.050619 0.001960 -0.010880
# 5 -0.012868 0.005948 0.003130 0.001960 0.050327 0.000602
# 6 -0.001110 0.002042 0.007830 -0.010880 0.000602 0.030213
#
#
# Mechanical properties :
#
#
# Convention : Reuss Voigt Hill
#
# Bulk Modulus (GPa) = 26.96043 38.77617 32.86830
# Shear Modulus (GPa) = 24.05351 33.16838 28.61095
#
# Velocity S-wave (km/s) = 3.14563 3.69386 3.43071
# Velocity P-wave (km/s) = 4.92789 5.84331 5.40502
#
# Compressibility (1/GPa) = 0.03709139
#
# Stress axis : x y z
#
# Youngs Moduli (GPa) = 66.62964 61.18093 51.63733
#
# Poissons Ratio (x) = 0.47917 0.25083
# Poissons Ratio (y) = 0.52185 -0.30341
# Poissons Ratio (z) = 0.32366 -0.35948
#
# Static dielectric constant tensor:
#      x y z
#    x 1.925920 0.012080 -0.010440 
#    y 0.012080 1.929540 -0.008330 
#    z -0.010440 -0.008330 1.935900 
# 
# From -- ./inp_files/522505.got.cif
#   From: 2010.05.17/outbox.cif.g08.bks.cpg/sg2_262_cif.got.tgz:522505.got - 2010.06.03 11:33:40.
