data_PCOD9066754
_publ_section_title
;
Structure prediction by ZEFSAII (Michael W. Deem and Ramdas Pophale) SiO2 
 PCOD9066754
Probable space group: P -1
;
_chemical_formula_sum "Si O2"
_cell_formula_units_Z 12
_cell_length_a 8.968103
_cell_length_b 15.851227
_cell_length_c 15.695451
_cell_angle_alpha 18.417880
_cell_angle_beta 43.861654
_cell_angle_gamma 47.847995
_cell_volume 487.603316
_symmetry_space_group_name_H-M "P -1"
_symmetry_group_IT_number 2
_symmetry_cell_setting 'triclinic'
loop_
_space_group_symop_operation_xyz
x,y,z
-x,-y,-z
loop_
_atom_site_type_symbol
_atom_site_label
_atom_site_fract_x
_atom_site_fract_y
_atom_site_fract_z
Si Si1 0.478471 0.378664 0.486890
Si Si2 0.216290 0.925184 0.931331
Si Si3 0.196474 0.500852 0.623854
Si Si4 0.052097 0.017668 0.725331
Si Si5 0.805896 0.032373 0.478790
Si Si6 0.556303 0.552584 0.125215
O O1 0.271789 0.508764 0.487668
O O2 0.621890 0.341150 0.546210
O O3 0.625853 0.562107 0.187042
O O4 0.399220 0.112816 0.724275
O O5 0.192959 0.994215 0.775139
O O6 0.306788 0.626338 0.174527
O O7 0.000000 0.000000 0.000000
O O8 0.994032 0.671802 0.556827
O O9 0.146854 0.195714 0.964742
O O10 0.123969 0.952532 0.662923
O O11 0.661933 0.284440 0.310155
O O12 0.000000 0.000000 0.500000
O O13 0.652756 0.772460 0.811025
#
# Coordination Sequence:
#
# PCOD9066754 Si02
#       6
#     2   2   2   2   2   2
#     4  11  25  46  75 108 148 191 252 311 379 430
#     4  12  27  49  76 112 155 197 243 310 379 447
#     4  11  26  44  76 108 146 193 249 314 369 441
#     4  12  27  47  74 109 150 195 252 297 375 440
#     4  12  26  49  76 107 148 200 252 307 364 439
#     4  12  26  47  75 106 151 196 247 303 372 442
#
# _framework density 24.610168999999999
#
# number of rings (size 3 to 8) (size 9 to 14) (size 15 to 20)
#    0.000    0.333    3.333    4.500    4.667    4.000 
#    0.000    0.000    0.000    0.000    0.000    0.000 
#    0.000    0.000    0.000    0.000    0.000    0.000 
#
# Total GULP energy -66923.067628 kJ/mol
# GULP energy per Si atom -5576.922302 kJ/mol
# Density = 2.455415 g / cm^3
# Si number density = 24.610169 Si / 1000 Ang^3
#
#
#
# Elastic Constant Matrix: (Units=GPa)
#
#
# Indices 1 2 3 4 5 6 
#
# 1 115.9174 52.1134 29.8518 -13.1509 -10.6776 27.9821
# 2 52.1134 172.6059 54.0878 2.8340 25.4716 28.4086
# 3 29.8518 54.0878 106.5698 -2.5571 12.0189 2.3652
# 4 -13.1509 2.8340 -2.5571 58.5569 -3.1156 17.7824
# 5 -10.6776 25.4716 12.0189 -3.1156 37.0088 -0.7765
# 6 27.9821 28.4086 2.3652 17.7824 -0.7765 45.8351
#
#
#
# Elastic Compliance Matrix: (Units=1/GPa)
#
#
# Indices 1 2 3 4 5 6 
#
# 1 0.014433 -0.003184 -0.002936 0.006423 0.007660 -0.009048
# 2 -0.003184 0.009231 -0.003005 -0.000569 -0.006417 -0.003510
# 3 -0.002936 -0.003005 0.011928 -0.001184 -0.002680 0.003453
# 4 0.006423 -0.000569 -0.001184 0.022405 0.004261 -0.012128
# 5 0.007660 -0.006417 -0.002680 0.004261 0.034842 -0.001623
# 6 -0.009048 -0.003510 0.003453 -0.012128 -0.001623 0.034016
#
#
# Mechanical properties :
#
#
# Convention : Reuss Voigt Hill
#
# Bulk Modulus (GPa) = 57.66395 74.13324 65.89859
# Shear Modulus (GPa) = 33.13767 45.54948 39.34357
#
# Velocity S-wave (km/s) = 3.67345 4.30681 4.00268
# Velocity P-wave (km/s) = 6.44004 7.41079 6.94241
#
# Compressibility (1/GPa) = 0.01734186
#
# Stress axis : x y z
#
# Youngs Moduli (GPa) = 69.28662 108.33438 83.83567
#
# Poissons Ratio (x) = 0.34497 0.24611
# Poissons Ratio (y) = 0.22063 0.25192
# Poissons Ratio (z) = 0.20340 0.32553
#
# Static dielectric constant tensor:
#      x y z
#    x 2.033800 -0.039480 -0.015560 
#    y -0.039480 2.059640 -0.017370 
#    z -0.015560 -0.017370 2.006070 
# 
# From -- ./inp_files/27717.got.cif
#   From: 2010.05.17/outbox.cif.g08.bks.cpg/sg2_14_cif.got.tgz:27717.got - 2010.06.03 11:33:40.
