data_PCOD9066507
_publ_section_title
;
Structure prediction by ZEFSAII (Michael W. Deem and Ramdas Pophale) SiO2 
 PCOD9066507
Probable space group: P -1
;
_chemical_formula_sum "Si O2"
_cell_formula_units_Z 16
_cell_length_a 9.118304
_cell_length_b 8.058128
_cell_length_c 15.341920
_cell_angle_alpha 137.698396
_cell_angle_beta 114.409528
_cell_angle_gamma 85.203254
_cell_volume 643.944835
_symmetry_space_group_name_H-M "P -1"
_symmetry_group_IT_number 2
_symmetry_cell_setting 'triclinic'
loop_
_space_group_symop_operation_xyz
x,y,z
-x,-y,-z
loop_
_atom_site_type_symbol
_atom_site_label
_atom_site_fract_x
_atom_site_fract_y
_atom_site_fract_z
Si Si1 0.423949 0.731813 0.074910
Si Si2 0.815015 0.287991 0.844550
Si Si3 0.099561 0.200511 0.369688
Si Si4 0.744130 0.854688 0.427995
Si Si5 0.714166 0.022802 0.132577
Si Si6 0.358355 0.455256 0.213587
Si Si7 0.781025 0.443985 0.616702
Si Si8 0.160280 0.539854 0.795699
O O1 0.362966 0.758480 0.165795
O O2 0.561658 0.954193 0.138522
O O3 0.500000 0.500000 0.000000
O O4 0.240043 0.641906 0.946952
O O5 0.770734 0.391125 0.782614
O O6 0.837841 0.012220 0.743703
O O7 0.000000 0.500000 0.000000
O O8 0.145049 0.169746 0.469286
O O9 0.201319 0.474220 0.449666
O O10 0.895133 0.104359 0.260949
O O11 0.552307 0.653055 0.323505
O O12 0.829270 0.744513 0.327997
O O13 0.731574 0.132266 0.502929
O O14 0.716506 0.269511 0.172019
O O15 0.689647 0.788238 0.962977
O O16 0.324920 0.421000 0.296479
O O17 0.979546 0.564272 0.743609
#
# Coordination Sequence:
#
# PCOD9066507 Si02
#       8
#     2   2   2   2   2   2   2   2
#     4  12  23  41  70 108 136 182 235 294 361 410
#     4  12  23  44  74 107 144 185 239 299 356 418
#     4  11  27  47  73 107 139 197 236 291 358 425
#     4  12  26  50  69 100 156 185 237 293 356 431
#     4  11  25  46  70 106 140 181 245 298 352 415
#     4  12  24  47  70 105 148 182 237 306 349 421
#     4  11  27  45  71 105 143 194 238 285 360 428
#     4  11  26  46  71 104 140 192 235 297 357 420
#
# _framework density 24.846848999999999
#
# number of rings (size 3 to 8) (size 9 to 14) (size 15 to 20)
#    0.000    0.500    5.000    1.875    3.500    3.500 
#    6.750    0.000    0.000    0.000    0.000    0.000 
#    0.000    0.000    0.000    0.000    0.000    0.000 
#
# Total GULP energy -89465.558620 kJ/mol
# GULP energy per Si atom -5591.597414 kJ/mol
# Density = 2.479030 g / cm^3
# Si number density = 24.846849 Si / 1000 Ang^3
#
#
#
# Elastic Constant Matrix: (Units=GPa)
#
#
# Indices 1 2 3 4 5 6 
#
# 1 96.6470 21.0776 13.3613 4.6312 2.3326 22.4263
# 2 21.0776 80.4955 43.5312 11.7367 6.9150 11.2244
# 3 13.3613 43.5312 81.8874 5.0004 13.0788 10.7234
# 4 4.6312 11.7367 5.0004 31.8545 -9.9677 5.7258
# 5 2.3326 6.9150 13.0788 -9.9677 31.2437 -1.9856
# 6 22.4263 11.2244 10.7234 5.7258 -1.9856 47.7646
#
#
#
# Elastic Compliance Matrix: (Units=1/GPa)
#
#
# Indices 1 2 3 4 5 6 
#
# 1 0.012079 -0.002414 0.000130 -0.000219 -0.000818 -0.005141
# 2 -0.002414 0.019012 -0.008912 -0.005812 -0.002198 -0.000728
# 3 0.000130 -0.008912 0.018274 -0.001148 -0.006192 -0.002189
# 4 -0.000219 -0.005812 -0.001148 0.038519 0.013925 -0.002312
# 5 -0.000818 -0.002198 -0.006192 0.013925 0.039733 0.002273
# 6 -0.005141 -0.000728 -0.002189 -0.002312 0.002273 0.024384
#
#
# Mechanical properties :
#
#
# Convention : Reuss Voigt Hill
#
# Bulk Modulus (GPa) = 37.07411 46.10780 41.59095
# Shear Modulus (GPa) = 27.26523 34.24322 30.75422
#
# Velocity S-wave (km/s) = 3.31619 3.71640 3.52199
# Velocity P-wave (km/s) = 5.44209 6.08380 5.77187
#
# Compressibility (1/GPa) = 0.02697300
#
# Stress axis : x y z
#
# Youngs Moduli (GPa) = 82.79139 52.59765 54.72251
#
# Poissons Ratio (x) = 0.12696 -0.00709
# Poissons Ratio (y) = 0.19984 0.48767
# Poissons Ratio (z) = -0.01073 0.46874
#
# Static dielectric constant tensor:
#      x y z
#    x 1.958920 0.069760 -0.023070 
#    y 0.069760 2.140280 -0.070090 
#    z -0.023070 -0.070090 2.086720 
# 
# From -- ./inp_files/317988.got.cif
#   From: 2010.05.17/outbox.cif.g08.bks.cpg/sg2_159_cif.got.tgz:317988.got - 2010.06.03 11:33:40.
