data_PCOD9066195
_publ_section_title
;
Structure prediction by ZEFSAII (Michael W. Deem and Ramdas Pophale) SiO2 
 PCOD9066195
Probable space group: P -1
;
_chemical_formula_sum "Si O2"
_cell_formula_units_Z 16
_cell_length_a 9.576250
_cell_length_b 14.582211
_cell_length_c 5.371893
_cell_angle_alpha 93.477662
_cell_angle_beta 104.520152
_cell_angle_gamma 75.702677
_cell_volume 703.694044
_symmetry_space_group_name_H-M "P -1"
_symmetry_group_IT_number 2
_symmetry_cell_setting 'triclinic'
loop_
_space_group_symop_operation_xyz
x,y,z
-x,-y,-z
loop_
_atom_site_type_symbol
_atom_site_label
_atom_site_fract_x
_atom_site_fract_y
_atom_site_fract_z
Si Si1 0.309753 0.050330 0.721465
Si Si2 0.973232 0.833615 0.193744
Si Si3 0.375191 0.492615 0.251569
Si Si4 0.952117 0.275393 0.303321
Si Si5 0.620133 0.341170 0.063054
Si Si6 0.422467 0.868548 0.049898
Si Si7 0.075381 0.450948 0.275037
Si Si8 0.139388 0.971205 0.244254
O O1 0.195142 0.102768 0.890157
O O2 0.391601 0.941920 0.812482
O O3 0.200999 0.045559 0.443640
O O4 0.431661 0.110246 0.754620
O O5 0.978170 0.758246 0.401943
O O6 0.077688 0.897320 0.371939
O O7 0.033853 0.794743 0.942994
O O8 0.500000 0.500000 0.500000
O O9 0.466754 0.412314 0.094166
O O10 0.243670 0.458906 0.322671
O O11 0.328744 0.596553 0.123836
O O12 0.043252 0.348508 0.256706
O O13 0.775389 0.317250 0.282376
O O14 0.577018 0.240737 0.999124
O O15 0.280790 0.910753 0.159246
O O16 0.000000 0.500000 0.500000
O O17 0.000000 0.500000 0.000000
O O18 0.000000 0.000000 0.000000
#
# Coordination Sequence:
#
# PCOD9066195 Si02
#       8
#     2   2   2   2   2   2   2   2
#     4  11  26  44  68 106 151 195 247 308 377 443
#     4  12  26  44  74 108 150 194 255 304 369 444
#     4  11  27  47  75 107 149 194 247 315 381 452
#     4  12  26  46  74 112 148 197 253 310 369 461
#     4  11  25  46  73 106 147 194 253 304 383 451
#     4  11  25  45  71 102 150 193 248 303 382 444
#     4  12  26  48  78 110 150 193 248 313 383 446
#     4  12  23  44  72 103 143 199 253 310 368 443
#
# _framework density 22.737155000000001
#
# number of rings (size 3 to 8) (size 9 to 14) (size 15 to 20)
#    0.000    0.500    3.750    3.750    5.250    2.000 
#    0.000    0.000    0.000    0.000    0.000    0.000 
#    0.000    0.000    0.000    0.000    0.000    0.000 
#
# Total GULP energy -89299.228397 kJ/mol
# GULP energy per Si atom -5581.201775 kJ/mol
# Density = 2.268540 g / cm^3
# Si number density = 22.737155 Si / 1000 Ang^3
#
#
#
# Elastic Constant Matrix: (Units=GPa)
#
#
# Indices 1 2 3 4 5 6 
#
# 1 183.3691 47.3104 32.8337 16.7726 22.3233 27.6081
# 2 47.3104 87.8241 13.3327 -2.0674 3.2000 23.3443
# 3 32.8337 13.3327 85.5983 -0.2255 1.7256 0.5217
# 4 16.7726 -2.0674 -0.2255 26.8359 7.6432 4.8880
# 5 22.3233 3.2000 1.7256 7.6432 37.0202 6.8485
# 6 27.6081 23.3443 0.5217 4.8880 6.8485 42.7244
#
#
#
# Elastic Compliance Matrix: (Units=1/GPa)
#
#
# Indices 1 2 3 4 5 6 
#
# 1 0.007786 -0.003185 -0.002424 -0.003829 -0.003085 -0.002329
# 2 -0.003185 0.015146 -0.001107 0.004086 0.001086 -0.006846
# 3 -0.002424 -0.001107 0.012768 0.001091 0.000399 0.001827
# 4 -0.003829 0.004086 0.001091 0.042402 -0.006177 -0.003632
# 5 -0.003085 0.001086 0.000399 -0.006177 0.030553 -0.002795
# 6 -0.002329 -0.006846 0.001827 -0.003632 -0.002795 0.029492
#
#
# Mechanical properties :
#
#
# Convention : Reuss Voigt Hill
#
# Bulk Modulus (GPa) = 44.90592 60.41612 52.66102
# Shear Modulus (GPa) = 31.44620 38.87041 35.15830
#
# Velocity S-wave (km/s) = 3.72295 4.13916 3.93656
# Velocity P-wave (km/s) = 6.18655 7.03369 6.62367
#
# Compressibility (1/GPa) = 0.02226878
#
# Stress axis : x y z
#
# Youngs Moduli (GPa) = 128.44127 66.02235 78.31834
#
# Poissons Ratio (x) = 0.21027 0.18985
# Poissons Ratio (y) = 0.40907 0.08669
# Poissons Ratio (z) = 0.31135 0.07308
#
# Static dielectric constant tensor:
#      x y z
#    x 1.586540 0.346960 0.092430 
#    y 0.346960 1.508370 -0.163980 
#    z 0.092430 -0.163980 1.888680 
# 
# From -- ./inp_files/39485.got.cif
#   From: 2010.05.17/outbox.cif.g08.bks.cpg/sg2_20_cif.got.tgz:39485.got - 2010.06.03 11:33:40.
