data_PCOD9066596
_publ_section_title
;
Structure prediction by ZEFSAII (Michael W. Deem and Ramdas Pophale) SiO2 
 PCOD9066596
Probable space group: P -1
;
_chemical_formula_sum "Si O2"
_cell_formula_units_Z 14
_cell_length_a 15.917172
_cell_length_b 21.136329
_cell_length_c 11.640031
_cell_angle_alpha 149.578719
_cell_angle_beta 138.631374
_cell_angle_gamma 19.395179
_cell_volume 610.658515
_symmetry_space_group_name_H-M "P -1"
_symmetry_group_IT_number 2
_symmetry_cell_setting 'triclinic'
loop_
_space_group_symop_operation_xyz
x,y,z
-x,-y,-z
loop_
_atom_site_type_symbol
_atom_site_label
_atom_site_fract_x
_atom_site_fract_y
_atom_site_fract_z
Si Si1 0.523857 0.835847 0.237711
Si Si2 0.436526 0.233223 0.406667
Si Si3 0.247487 0.993491 0.977209
Si Si4 0.722562 0.070392 0.659181
Si Si5 0.246045 0.680082 0.872783
Si Si6 0.331042 0.565784 0.520380
Si Si7 0.907230 0.698059 0.898322
O O1 0.444199 0.886834 0.104617
O O2 0.312492 0.945758 0.272701
O O3 0.818958 0.534704 0.111378
O O4 0.500000 0.000000 0.500000
O O5 0.540244 0.143714 0.504231
O O6 0.389194 0.420775 0.627730
O O7 0.177388 0.370524 0.328451
O O8 0.672618 0.965788 0.153594
O O9 0.086606 0.227950 0.097119
O O10 0.457251 0.730486 0.705186
O O11 0.034594 0.097068 0.995384
O O12 0.638595 0.289631 0.911966
O O13 0.042234 0.780440 0.503901
O O14 0.251914 0.694069 0.762495
O O15 0.500000 0.500000 0.500000
#
# Coordination Sequence:
#
# PCOD9066596 Si02
#       7
#     2   2   2   2   2   2   2
#     4  12  26  45  75 110 146 196 249 300 369 437
#     4  11  25  46  72 104 149 193 248 306 363 437
#     4  12  24  46  77 106 147 198 241 303 373 427
#     4  12  25  44  71 109 146 189 247 303 366 445
#     4  12  24  46  71 108 146 189 244 301 371 441
#     4  12  24  45  71 106 147 190 240 301 368 434
#     4  11  26  49  71 108 150 194 252 307 358 434
#
# _framework density 22.926071
#
# number of rings (size 3 to 8) (size 9 to 14) (size 15 to 20)
#    0.000    0.286    4.286    5.143    0.000    1.714 
#    0.000    5.714    0.000    0.000    0.000    0.000 
#    0.000    0.000    0.000    0.000    0.000    0.000 
#
# Total GULP energy -78295.783753 kJ/mol
# GULP energy per Si atom -5592.555982 kJ/mol
# Density = 2.287389 g / cm^3
# Si number density = 22.926071 Si / 1000 Ang^3
#
#
#
# Elastic Constant Matrix: (Units=GPa)
#
#
# Indices 1 2 3 4 5 6 
#
# 1 78.0763 8.5078 31.9548 -0.3999 1.1844 5.4248
# 2 8.5078 79.8860 22.8115 2.1080 -8.7168 -2.0689
# 3 31.9548 22.8115 120.9804 -0.4407 -2.2865 -5.7620
# 4 -0.3999 2.1080 -0.4407 44.9893 3.8384 -3.1456
# 5 1.1844 -8.7168 -2.2865 3.8384 45.2476 -0.3215
# 6 5.4248 -2.0689 -5.7620 -3.1456 -0.3215 38.0764
#
#
#
# Elastic Compliance Matrix: (Units=1/GPa)
#
#
# Indices 1 2 3 4 5 6 
#
# 1 0.014671 -0.000595 -0.003906 -0.000009 -0.000715 -0.002720
# 2 -0.000595 0.013563 -0.002334 -0.000855 0.002586 0.000420
# 3 -0.003906 -0.002334 0.009834 0.000295 0.000138 0.001943
# 4 -0.000009 -0.000855 0.000295 0.022575 -0.002051 0.001847
# 5 -0.000715 0.002586 0.000138 -0.002051 0.022801 0.000286
# 6 -0.002720 0.000420 0.001943 0.001847 0.000286 0.027123
#
#
# Mechanical properties :
#
#
# Convention : Reuss Voigt Hill
#
# Bulk Modulus (GPa) = 40.98851 45.05456 43.02154
# Shear Modulus (GPa) = 37.77282 40.04056 38.90669
#
# Velocity S-wave (km/s) = 4.06346 4.18366 4.12400
# Velocity P-wave (km/s) = 6.31925 6.55989 6.44069
#
# Compressibility (1/GPa) = 0.02439708
#
# Stress axis : x y z
#
# Youngs Moduli (GPa) = 68.16024 73.72752 101.68877
#
# Poissons Ratio (x) = 0.04389 0.39720
# Poissons Ratio (y) = 0.04058 0.23739
# Poissons Ratio (z) = 0.26624 0.17211
#
# Static dielectric constant tensor:
#      x y z
#    x 1.878710 0.032360 0.021070 
#    y 0.032360 1.884790 0.024510 
#    z 0.021070 0.024510 1.870700 
# 
# From -- ./inp_files/457642.got.cif
#   From: 2010.05.17/outbox.cif.g08.bks.cpg/sg2_229_cif.got.tgz:457642.got - 2010.06.03 11:33:40.
