data_PCOD9066037
_publ_section_title
;
Structure prediction by ZEFSAII (Michael W. Deem and Ramdas Pophale) SiO2 
 PCOD9066037
Probable space group: P -1
;
_chemical_formula_sum "Si O2"
_cell_formula_units_Z 16
_cell_length_a 10.488102
_cell_length_b 8.906273
_cell_length_c 10.338514
_cell_angle_alpha 86.621323
_cell_angle_beta 41.477779
_cell_angle_gamma 77.262281
_cell_volume 615.386315
_symmetry_space_group_name_H-M "P -1"
_symmetry_group_IT_number 2
_symmetry_cell_setting 'triclinic'
loop_
_space_group_symop_operation_xyz
x,y,z
-x,-y,-z
loop_
_atom_site_type_symbol
_atom_site_label
_atom_site_fract_x
_atom_site_fract_y
_atom_site_fract_z
Si Si1 0.734922 0.897800 0.941495
Si Si2 0.859359 0.600875 0.900097
Si Si3 0.016975 0.319988 0.470670
Si Si4 0.849637 0.120403 0.015861
Si Si5 0.211834 0.108529 0.557530
Si Si6 0.595979 0.458957 0.239196
Si Si7 0.706808 0.118224 0.715656
Si Si8 0.281294 0.369490 0.622484
O O1 0.836859 0.762592 0.983416
O O2 0.691323 0.047677 0.065993
O O3 0.801940 0.983185 0.756967
O O4 0.525930 0.853581 0.076177
O O5 0.890182 0.694626 0.742646
O O6 0.048346 0.461436 0.796673
O O7 0.673581 0.527217 0.049756
O O8 0.170942 0.227629 0.463041
O O9 0.000000 0.500000 0.500000
O O10 0.820810 0.254342 0.630796
O O11 0.999850 0.137342 0.787237
O O12 0.736405 0.283885 0.158118
O O13 0.000000 0.000000 0.000000
O O14 0.332076 0.185647 0.564740
O O15 0.272904 0.944162 0.445788
O O16 0.374863 0.447894 0.429893
O O17 0.632966 0.575960 0.315584
#
# Coordination Sequence:
#
# PCOD9066037 Si02
#       8
#     2   2   2   2   2   2   2   2
#     4  11  25  44  72 107 148 191 239 301 359 427
#     4  12  24  43  73 104 139 187 235 293 359 427
#     4  12  23  43  70 104 142 186 237 289 368 431
#     4  12  25  46  74 104 141 193 244 299 359 428
#     4  12  23  46  69 102 146 185 237 298 363 429
#     4  11  26  48  70 106 144 186 248 296 355 431
#     4  11  25  46  68 107 153 188 238 299 359 435
#     4  11  25  46  75  98 146 193 234 306 354 420
#
# _framework density 25.999929000000002
#
# number of rings (size 3 to 8) (size 9 to 14) (size 15 to 20)
#    0.000    0.500    5.000    3.000    3.500    0.000 
#    2.250    2.500    0.000    0.000    0.000    0.000 
#    0.000    0.000    0.000    0.000    0.000    0.000 
#
# Total GULP energy -89207.748251 kJ/mol
# GULP energy per Si atom -5575.484266 kJ/mol
# Density = 2.594075 g / cm^3
# Si number density = 25.999929 Si / 1000 Ang^3
#
#
#
# Elastic Constant Matrix: (Units=GPa)
#
#
# Indices 1 2 3 4 5 6 
#
# 1 52.2881 31.1466 5.4094 -5.5372 0.7511 19.7557
# 2 31.1466 149.2548 29.7432 -14.9423 -3.3910 24.8418
# 3 5.4094 29.7432 94.9700 -24.8592 -21.3671 23.4297
# 4 -5.5372 -14.9423 -24.8592 34.7310 8.0980 -3.9649
# 5 0.7511 -3.3910 -21.3671 8.0980 26.7051 -5.5419
# 6 19.7557 24.8418 23.4297 -3.9649 -5.5419 39.4551
#
#
#
# Elastic Compliance Matrix: (Units=1/GPa)
#
#
# Indices 1 2 3 4 5 6 
#
# 1 0.026244 -0.003664 0.003320 0.004097 -0.002433 -0.012735
# 2 -0.003664 0.008349 -0.001571 0.001876 -0.001174 -0.002466
# 3 0.003320 -0.001571 0.017469 0.009237 0.009047 -0.008848
# 4 0.004097 0.001876 0.009237 0.037383 -0.004997 -0.005663
# 5 -0.002433 -0.001174 0.009047 -0.004997 0.046667 0.002638
# 6 -0.012735 -0.002466 -0.008848 -0.005663 0.002638 0.038330
#
#
# Mechanical properties :
#
#
# Convention : Reuss Voigt Hill
#
# Bulk Modulus (GPa) = 20.73304 47.67905 34.20604
# Shear Modulus (GPa) = 25.72686 35.52582 30.62634
#
# Velocity S-wave (km/s) = 3.14904 3.70047 3.43584
# Velocity P-wave (km/s) = 4.60581 6.05276 5.37817
#
# Compressibility (1/GPa) = 0.04823219
#
# Stress axis : x y z
#
# Youngs Moduli (GPa) = 38.10347 119.77384 57.24525
#
# Poissons Ratio (x) = 0.43881 -0.19003
# Poissons Ratio (y) = 0.13960 0.08993
# Poissons Ratio (z) = -0.12649 0.18816
#
# Static dielectric constant tensor:
#      x y z
#    x 2.191190 -0.212660 0.172350 
#    y -0.212660 1.939760 -0.431450 
#    z 0.172350 -0.431450 2.132710 
# 
# From -- ./inp_files/417284.got.cif
#   From: 2010.05.17/outbox.cif.g08.bks.cpg/sg2_209_cif.got.tgz:417284.got - 2010.06.03 11:33:40.
