data_PCOD9066349
_publ_section_title
;
Structure prediction by ZEFSAII (Michael W. Deem and Ramdas Pophale) SiO2 
 PCOD9066349
Probable space group: P -1
;
_chemical_formula_sum "Si O2"
_cell_formula_units_Z 14
_cell_length_a 5.782280
_cell_length_b 11.665872
_cell_length_c 8.983356
_cell_angle_alpha 99.262015
_cell_angle_beta 88.760275
_cell_angle_gamma 83.800533
_cell_volume 594.107174
_symmetry_space_group_name_H-M "P -1"
_symmetry_group_IT_number 2
_symmetry_cell_setting 'triclinic'
loop_
_space_group_symop_operation_xyz
x,y,z
-x,-y,-z
loop_
_atom_site_type_symbol
_atom_site_label
_atom_site_fract_x
_atom_site_fract_y
_atom_site_fract_z
Si Si1 0.646445 0.576791 0.124869
Si Si2 0.709345 0.994930 0.613497
Si Si3 0.278876 0.741465 0.360560
Si Si4 0.086393 0.817849 0.670914
Si Si5 0.445562 0.901670 0.868096
Si Si6 0.029074 0.527663 0.333119
Si Si7 0.239039 0.323113 0.145829
O O1 0.487039 0.669287 0.250020
O O2 0.818648 0.503557 0.222675
O O3 0.500000 0.500000 0.000000
O O4 0.805094 0.641564 0.018323
O O5 0.604893 0.932212 0.738522
O O6 0.937586 0.902303 0.571885
O O7 0.500000 0.000000 0.500000
O O8 0.749143 0.127722 0.675421
O O9 0.288593 0.754498 0.545722
O O10 0.068001 0.661984 0.335820
O O11 0.189719 0.902414 0.806115
O O12 0.945654 0.734589 0.757152
O O13 0.533349 0.769955 0.886765
O O14 0.500000 0.000000 0.000000
O O15 0.254604 0.443997 0.257315
O O16 0.000000 0.500000 0.500000
#
# Coordination Sequence:
#
# PCOD9066349 Si02
#       7
#     2   2   2   2   2   2   2
#     4  12  29  48  74 111 153 197 251 310 374 447
#     4  11  25  45  74 113 148 189 256 306 373 443
#     4  12  26  44  79 106 151 198 247 310 375 443
#     4  11  26  46  79 111 152 195 247 316 375 445
#     4  11  26  47  74 109 152 198 244 308 377 450
#     4  12  28  48  78 113 149 199 254 309 379 450
#     4  11  26  48  73 109 153 190 253 307 377 448
#
# _framework density 23.564768999999998
#
# number of rings (size 3 to 8) (size 9 to 14) (size 15 to 20)
#    0.000    0.571    4.286    1.714    6.000    5.143 
#    0.000    0.000    0.000    0.000    0.000    0.000 
#    0.000    0.000    0.000    0.000    0.000    0.000 
#
# Total GULP energy -78047.921060 kJ/mol
# GULP energy per Si atom -5574.851504 kJ/mol
# Density = 2.351113 g / cm^3
# Si number density = 23.564769 Si / 1000 Ang^3
#
#
#
# Elastic Constant Matrix: (Units=GPa)
#
#
# Indices 1 2 3 4 5 6 
#
# 1 55.6860 44.7401 41.2050 7.9060 6.1094 -1.8127
# 2 44.7401 144.0335 42.8839 0.3119 10.7566 0.2126
# 3 41.2050 42.8839 148.2497 -1.7941 -0.6440 -18.9514
# 4 7.9060 0.3119 -1.7941 45.5197 6.8828 -0.5973
# 5 6.1094 10.7566 -0.6440 6.8828 44.4649 -0.0578
# 6 -1.8127 0.2126 -18.9514 -0.5973 -0.0578 39.5115
#
#
#
# Elastic Compliance Matrix: (Units=1/GPa)
#
#
# Indices 1 2 3 4 5 6 
#
# 1 0.029145 -0.007025 -0.006361 -0.005043 -0.001619 -0.001755
# 2 -0.007025 0.009503 -0.000887 0.001345 -0.001556 -0.000781
# 3 -0.006361 -0.000887 0.009329 0.001380 0.001015 0.004210
# 4 -0.005043 0.001345 0.001380 0.023388 -0.003232 0.000772
# 5 -0.001619 -0.001556 0.001015 -0.003232 0.023604 0.000407
# 6 -0.001755 -0.000781 0.004210 0.000772 0.000407 0.027264
#
#
# Mechanical properties :
#
#
# Convention : Reuss Voigt Hill
#
# Bulk Modulus (GPa) = 51.46042 67.29192 59.37617
# Shear Modulus (GPa) = 31.79511 40.50860 36.15185
#
# Velocity S-wave (km/s) = 3.67722 4.15062 3.92107
# Velocity P-wave (km/s) = 6.31779 7.18250 6.76398
#
# Compressibility (1/GPa) = 0.01943241
#
# Stress axis : x y z
#
# Youngs Moduli (GPa) = 34.31110 105.22588 107.19057
#
# Poissons Ratio (x) = 0.73919 0.68184
# Poissons Ratio (y) = 0.24103 0.09506
# Poissons Ratio (z) = 0.21825 0.09331
#
# Static dielectric constant tensor:
#      x y z
#    x 2.295180 -0.198180 -0.069240 
#    y -0.198180 2.022880 0.024990 
#    z -0.069240 0.024990 1.869130 
# 
# From -- ./inp_files/131790.got.cif
#   From: 2010.05.17/outbox.cif.g08.bks.cpg/sg2_66_cif.got.tgz:131790.got - 2010.06.03 11:33:40.
