data_PCOD9066770
_publ_section_title
;
Structure prediction by ZEFSAII (Michael W. Deem and Ramdas Pophale) SiO2 
 PCOD9066770
Probable space group: P -1
;
_chemical_formula_sum "Si O2"
_cell_formula_units_Z 13
_cell_length_a 8.911722
_cell_length_b 15.128861
_cell_length_c 11.441544
_cell_angle_alpha 28.741107
_cell_angle_beta 40.028368
_cell_angle_gamma 49.774245
_cell_volume 475.440858
_symmetry_space_group_name_H-M "P -1"
_symmetry_group_IT_number 2
_symmetry_cell_setting 'triclinic'
loop_
_space_group_symop_operation_xyz
x,y,z
-x,-y,-z
loop_
_atom_site_type_symbol
_atom_site_label
_atom_site_fract_x
_atom_site_fract_y
_atom_site_fract_z
Si Si1 0.576971 0.695567 0.781261
Si Si2 0.544442 0.943790 0.301790
Si Si3 0.941918 0.323284 0.821987
Si Si4 0.371805 0.757787 0.382745
Si Si5 0.198473 0.348423 0.884444
Si Si6 0.000000 0.000000 0.000000
Si Si7 0.105207 0.151782 0.396650
O O1 0.668448 0.835320 0.461684
O O2 0.765986 0.699461 0.764903
O O3 0.500000 0.500000 0.000000
O O4 0.330469 0.741677 0.924825
O O5 0.474893 0.813916 0.383930
O O6 0.757253 0.100263 0.980666
O O7 0.305530 0.011110 0.421541
O O8 0.000000 0.500000 0.500000
O O9 0.051050 0.369651 0.830735
O O10 0.042522 0.148303 0.907888
O O11 0.276609 0.543649 0.672101
O O12 0.579461 0.762133 0.158960
O O13 0.153240 0.882951 0.356600
O O14 0.066058 0.230543 0.200477
#
# Coordination Sequence:
#
# PCOD9066770 Si02
#       7
#     2   2   2   2   2   1   2
#     4  12  26  47  80 105 152 201 257 319 382 459
#     4  12  26  50  73 114 151 202 257 314 386 460
#     4  12  27  51  78 111 150 202 260 319 386 460
#     4  11  25  46  76 103 156 198 253 307 387 457
#     4  11  26  48  74 110 151 201 253 314 386 462
#     4  12  26  48  80 108 160 190 268 318 378 458
#     4  12  26  46  72 114 154 195 252 317 387 457
#
# _framework density 27.343042000000001
#
# number of rings (size 3 to 8) (size 9 to 14) (size 15 to 20)
#    0.000    0.308    3.077    5.077    4.308    1.846 
#    2.769    0.000    0.000    0.000    0.000    0.000 
#    0.000    0.000    0.000    0.000    0.000    0.000 
#
# Total GULP energy -72641.176451 kJ/mol
# GULP energy per Si atom -5587.782804 kJ/mol
# Density = 2.728081 g / cm^3
# Si number density = 27.343042 Si / 1000 Ang^3
#
#
#
# Elastic Constant Matrix: (Units=GPa)
#
#
# Indices 1 2 3 4 5 6 
#
# 1 222.0980 56.5984 46.6310 5.6510 -24.3359 14.9929
# 2 56.5984 185.1561 9.6203 3.7543 -19.8267 20.5168
# 3 46.6310 9.6203 53.8447 -1.6013 3.1728 5.9474
# 4 5.6510 3.7543 -1.6013 51.3634 7.6473 -17.9090
# 5 -24.3359 -19.8267 3.1728 7.6473 63.4395 9.6951
# 6 14.9929 20.5168 5.9474 -17.9090 9.6951 47.3054
#
#
#
# Elastic Compliance Matrix: (Units=1/GPa)
#
#
# Indices 1 2 3 4 5 6 
#
# 1 0.006438 -0.001073 -0.005369 -0.002041 0.002998 -0.002287
# 2 -0.001073 0.006438 -0.000014 -0.002002 0.002408 -0.003702
# 3 -0.005369 -0.000014 0.023465 0.001913 -0.003498 0.000199
# 4 -0.002041 -0.002002 0.001913 0.025055 -0.006369 0.012065
# 5 0.002998 0.002408 -0.003498 -0.006369 0.019836 -0.008031
# 6 -0.002287 -0.003702 0.000199 0.012065 -0.008031 0.029659
#
#
# Mechanical properties :
#
#
# Convention : Reuss Voigt Hill
#
# Bulk Modulus (GPa) = 42.67892 76.31092 59.49492
# Shear Modulus (GPa) = 37.99071 55.63826 46.81449
#
# Velocity S-wave (km/s) = 3.73152 4.51580 4.14226
# Velocity P-wave (km/s) = 5.84878 7.42692 6.68459
#
# Compressibility (1/GPa) = 0.02343077
#
# Stress axis : x y z
#
# Youngs Moduli (GPa) = 155.32677 155.32047 42.61715
#
# Poissons Ratio (x) = 0.16668 0.22879
# Poissons Ratio (y) = 0.16668 0.00058
# Poissons Ratio (z) = 0.83388 0.00210
#
# Static dielectric constant tensor:
#      x y z
#    x 2.150990 -0.253340 -0.049650 
#    y -0.253340 3.029060 0.309180 
#    z -0.049650 0.309180 2.011680 
# 
# From -- ./inp_files/306125.got.cif
#   From: 2010.05.17/outbox.cif.g08.bks.cpg/sg2_154_cif.got.tgz:306125.got - 2010.06.03 11:33:40.
