data_PCOD9066083
_publ_section_title
;
Structure prediction by ZEFSAII (Michael W. Deem and Ramdas Pophale) SiO2 
 PCOD9066083
Probable space group: P -1
;
_chemical_formula_sum "Si O2"
_cell_formula_units_Z 16
_cell_length_a 8.433281
_cell_length_b 12.883196
_cell_length_c 9.723230
_cell_angle_alpha 45.653153
_cell_angle_beta 93.825194
_cell_angle_gamma 79.675121
_cell_volume 715.015172
_symmetry_space_group_name_H-M "P -1"
_symmetry_group_IT_number 2
_symmetry_cell_setting 'triclinic'
loop_
_space_group_symop_operation_xyz
x,y,z
-x,-y,-z
loop_
_atom_site_type_symbol
_atom_site_label
_atom_site_fract_x
_atom_site_fract_y
_atom_site_fract_z
Si Si1 0.669618 0.533384 0.518791
Si Si2 0.385881 0.109935 0.778046
Si Si3 0.562700 0.921306 0.719463
Si Si4 0.934850 0.917255 0.367228
Si Si5 0.161458 0.489737 0.177042
Si Si6 0.939543 0.819162 0.774079
Si Si7 0.606502 0.600916 0.972343
Si Si8 0.133769 0.600782 0.609177
O O1 0.500000 0.500000 0.500000
O O2 0.643512 0.714661 0.348293
O O3 0.721097 0.478065 0.728043
O O4 0.814958 0.451716 0.494115
O O5 0.210921 0.083986 0.747066
O O6 0.494740 0.055054 0.699470
O O7 0.500000 0.000000 0.000000
O O8 0.762137 0.851149 0.807557
O O9 0.504672 0.769790 0.864273
O O10 0.500000 0.000000 0.500000
O O11 0.903487 0.873221 0.563699
O O12 0.100716 0.781331 0.457177
O O13 0.965928 0.077857 0.238477
O O14 0.275521 0.384547 0.163387
O O15 0.035231 0.423950 0.316864
O O16 0.052569 0.643919 0.953020
O O17 0.500000 0.500000 0.000000
O O18 0.720101 0.503420 0.189829
#
# Coordination Sequence:
#
# PCOD9066083 Si02
#       8
#     2   2   2   2   2   2   2   2
#     4  12  29  48  69 102 146 190 237 292 354 420
#     4  12  28  46  69 100 147 187 229 286 359 423
#     4  12  25  43  68 100 142 182 227 287 352 416
#     4  11  25  45  72 106 141 180 234 296 353 416
#     4  12  24  46  74 102 136 184 242 291 346 418
#     4  11  25  44  74 108 137 181 235 298 352 416
#     4  12  26  41  73 106 137 181 235 289 352 415
#     4  12  24  47  71  98 140 186 237 291 346 416
#
# _framework density 22.377146
#
# number of rings (size 3 to 8) (size 9 to 14) (size 15 to 20)
#    0.000    0.250    5.000    3.750    7.000    0.000 
#    0.000    1.250    0.000    0.000    0.000    0.000 
#    0.000    0.000    0.000    0.000    0.000    0.000 
#
# Total GULP energy -89546.798746 kJ/mol
# GULP energy per Si atom -5596.674922 kJ/mol
# Density = 2.232621 g / cm^3
# Si number density = 22.377146 Si / 1000 Ang^3
#
#
#
# Elastic Constant Matrix: (Units=GPa)
#
#
# Indices 1 2 3 4 5 6 
#
# 1 57.4771 11.5563 4.5409 -7.1042 2.4449 25.2157
# 2 11.5563 112.1834 0.5188 -6.5504 -13.5310 -2.8258
# 3 4.5409 0.5188 64.4209 5.3758 18.9998 10.6200
# 4 -7.1042 -6.5504 5.3758 47.2154 5.9937 0.6294
# 5 2.4449 -13.5310 18.9998 5.9937 34.5985 7.3909
# 6 25.2157 -2.8258 10.6200 0.6294 7.3909 49.9794
#
#
#
# Elastic Compliance Matrix: (Units=1/GPa)
#
#
# Indices 1 2 3 4 5 6 
#
# 1 0.023662 -0.002651 0.000323 0.003431 -0.000903 -0.012066
# 2 -0.002651 0.009798 -0.001495 0.000550 0.004414 0.001550
# 3 0.000323 -0.001495 0.019098 -0.000985 -0.010334 -0.002765
# 4 0.003431 0.000550 -0.000985 0.022291 -0.003067 -0.001318
# 5 -0.000903 0.004414 -0.010334 -0.003067 0.037454 -0.002599
# 6 -0.012066 0.001550 -0.002765 -0.001318 -0.002599 0.027172
#
#
# Mechanical properties :
#
#
# Convention : Reuss Voigt Hill
#
# Bulk Modulus (GPa) = 22.26706 29.70149 25.98428
# Shear Modulus (GPa) = 30.84657 40.85633 35.85145
#
# Velocity S-wave (km/s) = 3.71682 4.27758 4.00702
# Velocity P-wave (km/s) = 5.32842 6.13994 5.74852
#
# Compressibility (1/GPa) = 0.04490939
#
# Stress axis : x y z
#
# Youngs Moduli (GPa) = 42.26217 102.06650 52.36147
#
# Poissons Ratio (x) = 0.27063 -0.01689
# Poissons Ratio (y) = 0.11206 0.07829
# Poissons Ratio (z) = -0.01364 0.15260
#
# Static dielectric constant tensor:
#      x y z
#    x 1.881790 0.008400 -0.031180 
#    y 0.008400 1.813850 -0.013620 
#    z -0.031180 -0.013620 1.792450 
# 
# From -- ./inp_files/184221.got.cif
#   From: 2010.05.17/outbox.cif.g08.bks.cpg/sg2_93_cif.got.tgz:184221.got - 2010.06.03 11:33:40.
