data_PCOD9066271
_publ_section_title
;
Structure prediction by ZEFSAII (Michael W. Deem and Ramdas Pophale) SiO2 
 PCOD9066271
Probable space group: P -1
;
_chemical_formula_sum "Si O2"
_cell_formula_units_Z 16
_cell_length_a 13.525486
_cell_length_b 9.182278
_cell_length_c 12.761817
_cell_angle_alpha 118.803545
_cell_angle_beta 44.446349
_cell_angle_gamma 86.148644
_cell_volume 721.944737
_symmetry_space_group_name_H-M "P -1"
_symmetry_group_IT_number 2
_symmetry_cell_setting 'triclinic'
loop_
_space_group_symop_operation_xyz
x,y,z
-x,-y,-z
loop_
_atom_site_type_symbol
_atom_site_label
_atom_site_fract_x
_atom_site_fract_y
_atom_site_fract_z
Si Si1 0.647632 0.006059 0.336780
Si Si2 0.743548 0.753528 0.952409
Si Si3 0.868139 0.701842 0.427119
Si Si4 0.585919 0.479465 0.316681
Si Si5 0.386713 0.438763 0.151919
Si Si6 0.006500 0.687081 0.090429
Si Si7 0.786084 0.135519 0.675357
Si Si8 0.475243 0.220023 0.219839
O O1 0.837145 0.888265 0.218243
O O2 0.500000 0.000000 0.500000
O O3 0.539208 0.262744 0.520550
O O4 0.694793 0.884294 0.145671
O O5 0.650196 0.650278 0.952997
O O6 0.966015 0.525595 0.714328
O O7 0.653831 0.954449 0.006245
O O8 0.690066 0.717118 0.554516
O O9 0.964141 0.705706 0.252115
O O10 0.774318 0.944336 0.625598
O O11 0.500000 0.500000 0.500000
O O12 0.549550 0.343661 0.231681
O O13 0.802224 0.368482 0.102181
O O14 0.254336 0.708026 0.338875
O O15 0.371649 0.328000 0.224145
O O16 0.604402 0.330104 0.949320
O O17 0.000000 0.500000 0.000000
O O18 0.000000 0.000000 0.500000
#
# Coordination Sequence:
#
# PCOD9066271 Si02
#       8
#     2   2   2   2   2   2   2   2
#     4  12  25  44  76 104 142 190 241 298 364 422
#     4  12  24  45  71 102 144 188 242 292 355 433
#     4  12  26  46  75 104 145 190 239 300 364 429
#     4  12  27  47  71 106 147 187 240 298 361 425
#     4  11  27  46  72 107 142 192 240 298 358 424
#     4  12  25  44  75 107 138 185 245 293 363 431
#     4  11  25  45  73 104 143 182 248 295 356 423
#     4  12  28  48  70 106 152 190 237 297 362 433
#
# _framework density 22.16236
#
# number of rings (size 3 to 8) (size 9 to 14) (size 15 to 20)
#    0.000    0.250    6.250    1.875    3.500    4.000 
#    0.000    0.000    0.000    0.000    0.000    0.000 
#    0.000    0.000    0.000    0.000    0.000    0.000 
#
# Total GULP energy -89136.455748 kJ/mol
# GULP energy per Si atom -5571.028484 kJ/mol
# Density = 2.211192 g / cm^3
# Si number density = 22.162360 Si / 1000 Ang^3
#
#
#
# Elastic Constant Matrix: (Units=GPa)
#
#
# Indices 1 2 3 4 5 6 
#
# 1 86.0514 56.5831 65.2601 6.6135 -28.5465 16.8107
# 2 56.5831 152.3466 72.0941 28.6956 -21.3678 14.2742
# 3 65.2601 72.0941 127.1946 17.4510 -48.4268 3.3939
# 4 6.6135 28.6956 17.4510 54.6586 1.0654 -2.0583
# 5 -28.5465 -21.3678 -48.4268 1.0654 39.6652 2.1626
# 6 16.8107 14.2742 3.3939 -2.0583 2.1626 48.1667
#
#
#
# Elastic Compliance Matrix: (Units=1/GPa)
#
#
# Indices 1 2 3 4 5 6 
#
# 1 0.022755 -0.003796 -0.007363 0.001236 0.005663 -0.006499
# 2 -0.003796 0.010554 -0.004269 -0.003737 -0.002072 -0.001569
# 3 -0.007363 -0.004269 0.021908 -0.004190 0.019193 0.001250
# 4 0.001236 -0.003737 -0.004190 0.021664 -0.006942 0.002209
# 5 0.005663 -0.002072 0.019193 -0.006942 0.052081 -0.005349
# 6 -0.006499 -0.001569 0.001250 0.002209 -0.005349 0.023741
#
#
# Mechanical properties :
#
#
# Convention : Reuss Voigt Hill
#
# Bulk Modulus (GPa) = 41.05010 83.71857 62.38434
# Shear Modulus (GPa) = 26.08519 39.94179 33.01349
#
# Velocity S-wave (km/s) = 3.43447 4.24988 3.86375
# Velocity P-wave (km/s) = 5.85578 7.87014 6.93647
#
# Compressibility (1/GPa) = 0.02436048
#
# Stress axis : x y z
#
# Youngs Moduli (GPa) = 43.94720 94.74725 45.64502
#
# Poissons Ratio (x) = 0.35970 0.33609
# Poissons Ratio (y) = 0.16684 0.19485
# Poissons Ratio (z) = 0.32359 0.40445
#
# Static dielectric constant tensor:
#      x y z
#    x 1.945680 -0.164220 0.044930 
#    y -0.164220 1.854620 -0.062520 
#    z 0.044930 -0.062520 1.819140 
# 
# From -- ./inp_files/528912.got.cif
#   From: 2010.05.17/outbox.cif.g08.bks.cpg/sg2_265_cif.got.tgz:528912.got - 2010.06.03 11:33:40.
