data_PCOD9066514
_publ_section_title
;
Structure prediction by ZEFSAII (Michael W. Deem and Ramdas Pophale) SiO2 
 PCOD9066514
Probable space group: P -1
;
_chemical_formula_sum "Si O2"
_cell_formula_units_Z 14
_cell_length_a 15.684251
_cell_length_b 15.683551
_cell_length_c 6.603611
_cell_angle_alpha 80.489501
_cell_angle_beta 70.064407
_cell_angle_gamma 27.086309
_cell_volume 658.000575
_symmetry_space_group_name_H-M "P -1"
_symmetry_group_IT_number 2
_symmetry_cell_setting 'triclinic'
loop_
_space_group_symop_operation_xyz
x,y,z
-x,-y,-z
loop_
_atom_site_type_symbol
_atom_site_label
_atom_site_fract_x
_atom_site_fract_y
_atom_site_fract_z
Si Si1 0.546181 0.058755 0.377766
Si Si2 0.114657 0.921399 0.653920
Si Si3 0.904387 0.489503 0.531238
Si Si4 0.361214 0.882663 0.391233
Si Si5 0.857553 0.824967 0.867494
Si Si6 0.296852 0.654751 0.961251
Si Si7 0.782799 0.471740 0.005275
O O1 0.328731 0.293349 0.435936
O O2 0.659193 0.022393 0.466459
O O3 0.500000 0.000000 0.500000
O O4 0.674550 0.946248 0.109835
O O5 0.273303 0.866570 0.540058
O O6 0.254100 0.728691 0.735809
O O7 0.000000 0.000000 0.500000
O O8 0.910920 0.128107 0.857301
O O9 0.877003 0.452381 0.763664
O O10 0.000000 0.500000 0.500000
O O11 0.044206 0.327562 0.307292
O O12 0.225955 0.024724 0.252874
O O13 0.595153 0.676327 0.199847
O O14 0.036455 0.702730 0.916644
O O15 0.500000 0.500000 0.000000
O O16 0.292368 0.555008 0.006852
#
# Coordination Sequence:
#
# PCOD9066514 Si02
#       7
#     2   2   2   2   2   2   2
#     4  12  27  46  72 107 144 191 248 302 367 439
#     4  11  25  46  70 107 148 193 251 303 375 442
#     4  12  27  46  73 106 144 193 246 302 369 437
#     4  12  26  45  74 105 146 196 243 305 366 439
#     4  12  25  47  73 100 150 188 242 305 362 429
#     4  11  26  44  72 106 149 192 248 310 367 445
#     4  12  26  46  72 107 144 195 245 300 374 437
#
# _framework density 21.276575999999999
#
# number of rings (size 3 to 8) (size 9 to 14) (size 15 to 20)
#    0.000    0.286    2.857    6.000    4.000    8.000 
#    0.000    0.000    0.000    0.000    0.000    0.000 
#    0.000    0.000    0.000    0.000    0.000    0.000 
#
# Total GULP energy -78194.483541 kJ/mol
# GULP energy per Si atom -5585.320253 kJ/mol
# Density = 2.122815 g / cm^3
# Si number density = 21.276576 Si / 1000 Ang^3
#
#
#
# Elastic Constant Matrix: (Units=GPa)
#
#
# Indices 1 2 3 4 5 6 
#
# 1 132.7387 12.5559 50.8926 -22.6211 -11.1181 10.2638
# 2 12.5559 113.3554 49.2426 -6.5220 -5.5471 -6.6400
# 3 50.8926 49.2426 120.4486 4.2786 -7.2329 3.7776
# 4 -22.6211 -6.5220 4.2786 55.4768 -1.1361 -3.1199
# 5 -11.1181 -5.5471 -7.2329 -1.1361 29.6414 5.4960
# 6 10.2638 -6.6400 3.7776 -3.1199 5.4960 56.1276
#
#
#
# Elastic Compliance Matrix: (Units=1/GPa)
#
#
# Indices 1 2 3 4 5 6 
#
# 1 0.010511 0.001320 -0.004897 0.004805 0.003459 -0.001508
# 2 0.001320 0.011213 -0.005203 0.002363 0.001145 0.001454
# 3 -0.004897 -0.005203 0.012670 -0.003625 0.000291 -0.000803
# 4 0.004805 0.002363 -0.003625 0.020617 0.002041 0.000591
# 5 0.003459 0.001145 0.000291 0.002041 0.036128 -0.003941
# 6 -0.001508 0.001454 -0.000803 0.000591 -0.003941 0.018737
#
#
# Mechanical properties :
#
#
# Convention : Reuss Voigt Hill
#
# Bulk Modulus (GPa) = 59.39860 65.76944 62.58402
# Shear Modulus (GPa) = 37.58080 45.17261 41.37671
#
# Velocity S-wave (km/s) = 4.20730 4.61273 4.41467
# Velocity P-wave (km/s) = 7.18190 7.70379 7.44742
#
# Compressibility (1/GPa) = 0.01683541
#
# Stress axis : x y z
#
# Youngs Moduli (GPa) = 95.13570 89.18312 78.92815
#
# Poissons Ratio (x) = -0.11775 0.38649
# Poissons Ratio (y) = -0.12560 0.41065
# Poissons Ratio (z) = 0.46586 0.46400
#
# Static dielectric constant tensor:
#      x y z
#    x 1.658800 -0.069420 0.060430 
#    y -0.069420 1.783090 -0.006710 
#    z 0.060430 -0.006710 1.801740 
# 
# From -- ./inp_files/97870.got.cif
#   From: 2010.05.17/outbox.cif.g08.bks.cpg/sg2_49_cif.got.tgz:97870.got - 2010.06.03 11:33:40.
