data_PCOD9066895
_publ_section_title
;
Structure prediction by ZEFSAII (Michael W. Deem and Ramdas Pophale) SiO2 
 PCOD9066895
Probable space group: P -1
;
_chemical_formula_sum "Si O2"
_cell_formula_units_Z 16
_cell_length_a 7.973241
_cell_length_b 9.538922
_cell_length_c 11.024830
_cell_angle_alpha 88.922721
_cell_angle_beta 99.453580
_cell_angle_gamma 47.535647
_cell_volume 600.394150
_symmetry_space_group_name_H-M "P -1"
_symmetry_group_IT_number 2
_symmetry_cell_setting 'triclinic'
loop_
_space_group_symop_operation_xyz
x,y,z
-x,-y,-z
loop_
_atom_site_type_symbol
_atom_site_label
_atom_site_fract_x
_atom_site_fract_y
_atom_site_fract_z
Si Si1 0.741405 0.447386 0.547454
Si Si2 0.423842 0.699186 0.114386
Si Si3 0.423082 0.883127 0.500696
Si Si4 0.254551 0.490304 0.063692
Si Si5 0.670768 0.107925 0.240620
Si Si6 0.140548 0.568220 0.692916
Si Si7 0.104717 0.052429 0.228112
Si Si8 0.094130 0.289317 0.789330
O O1 0.500000 0.500000 0.500000
O O2 0.655219 0.656888 0.534904
O O3 0.901044 0.348168 0.447308
O O4 0.885242 0.330368 0.687409
O O5 0.285646 0.641426 0.054364
O O6 0.588712 0.550370 0.244677
O O7 0.254184 0.918007 0.133520
O O8 0.617142 0.635453 0.040415
O O9 0.295622 0.924635 0.611327
O O10 0.500000 0.000000 0.500000
O O11 0.267208 0.931846 0.366253
O O12 0.422828 0.320942 0.184853
O O13 0.998649 0.621389 0.089236
O O14 0.869821 0.093699 0.207635
O O15 0.694950 0.939779 0.188531
O O16 0.976159 0.741283 0.766947
O O17 0.131603 0.407634 0.713735
#
# Coordination Sequence:
#
# PCOD9066895 Si02
#       8
#     2   2   2   2   2   2   2   2
#     4  12  22  42  70  95 138 182 218 271 338 398
#     4  11  25  47  71  98 132 176 231 285 329 392
#     4  12  24  40  68 101 141 175 213 273 339 401
#     4  11  25  47  71  98 132 176 231 285 329 392
#     4  12  24  43  70 101 132 180 225 270 335 402
#     4  12  25  43  68 101 139 175 219 279 341 398
#     4  12  24  43  70 101 132 180 225 270 335 402
#     4  12  25  43  68 101 139 175 219 279 341 398
#
# _framework density 26.649159000000001
#
# number of rings (size 3 to 8) (size 9 to 14) (size 15 to 20)
#    0.000    0.250    5.000    5.250    0.000    2.000 
#    0.000    1.250    0.000    0.000    0.000    0.000 
#    0.000    0.000    0.000    0.000    0.000    0.000 
#
# Total GULP energy -89719.399946 kJ/mol
# GULP energy per Si atom -5607.462497 kJ/mol
# Density = 2.658850 g / cm^3
# Si number density = 26.649159 Si / 1000 Ang^3
#
#
#
# Elastic Constant Matrix: (Units=GPa)
#
#
# Indices 1 2 3 4 5 6 
#
# 1 88.5136 25.8688 13.2613 17.1602 -24.1161 3.8052
# 2 25.8688 169.3431 12.1448 24.1567 -6.6099 3.8026
# 3 13.2613 12.1448 63.4407 19.4530 -28.0643 -0.2199
# 4 17.1602 24.1567 19.4530 50.8511 -13.7816 -11.1855
# 5 -24.1161 -6.6099 -28.0643 -13.7816 30.1276 0.5528
# 6 3.8052 3.8026 -0.2199 -11.1855 0.5528 33.4517
#
#
#
# Elastic Compliance Matrix: (Units=1/GPa)
#
#
# Indices 1 2 3 4 5 6 
#
# 1 0.016006 -0.001717 0.004739 -0.002774 0.015632 -0.002780
# 2 -0.001717 0.006635 -0.000915 -0.003165 -0.002189 -0.001587
# 3 0.004739 -0.000915 0.029056 -0.005129 0.028357 -0.002428
# 4 -0.002774 -0.003165 -0.005129 0.027487 0.004703 0.009755
# 5 0.015632 -0.002189 0.028357 0.004703 0.073809 -0.000990
# 6 -0.002780 -0.001587 -0.002428 0.009755 -0.000990 0.033653
#
#
# Mechanical properties :
#
#
# Convention : Reuss Voigt Hill
#
# Bulk Modulus (GPa) = 17.88560 47.09413 32.48987
# Shear Modulus (GPa) = 24.86738 40.88759 32.87749
#
# Velocity S-wave (km/s) = 3.05805 3.92125 3.51624
# Velocity P-wave (km/s) = 4.38120 6.18158 5.35756
#
# Compressibility (1/GPa) = 0.05591089
#
# Stress axis : x y z
#
# Youngs Moduli (GPa) = 62.47785 150.72328 34.41667
#
# Poissons Ratio (x) = 0.25874 -0.16309
# Poissons Ratio (y) = 0.10725 0.03148
# Poissons Ratio (z) = -0.29607 0.13788
#
# Static dielectric constant tensor:
#      x y z
#    x 2.073150 0.023830 0.066960 
#    y 0.023830 2.042430 0.053160 
#    z 0.066960 0.053160 2.192190 
# 
# From -- ./inp_files/242105.got.cif
#   From: 2010.05.17/outbox.cif.g08.bks.cpg/sg2_122_cif.got.tgz:242105.got - 2010.06.03 11:33:40.
