data_PCOD9066814
_publ_section_title
;
Structure prediction by ZEFSAII (Michael W. Deem and Ramdas Pophale) SiO2 
 PCOD9066814
Probable space group: P -1
;
_chemical_formula_sum "Si O2"
_cell_formula_units_Z 12
_cell_length_a 11.693917
_cell_length_b 11.312205
_cell_length_c 7.719752
_cell_angle_alpha 86.741102
_cell_angle_beta 58.687569
_cell_angle_gamma 134.183082
_cell_volume 456.408649
_symmetry_space_group_name_H-M "P -1"
_symmetry_group_IT_number 2
_symmetry_cell_setting 'triclinic'
loop_
_space_group_symop_operation_xyz
x,y,z
-x,-y,-z
loop_
_atom_site_type_symbol
_atom_site_label
_atom_site_fract_x
_atom_site_fract_y
_atom_site_fract_z
Si Si1 0.747216 0.966329 0.692009
Si Si2 0.280359 0.531890 0.945994
Si Si3 0.174610 0.200563 0.112738
Si Si4 0.989478 0.608121 0.378533
Si Si5 0.233586 0.843121 0.803501
Si Si6 0.460062 0.266364 0.646768
O O1 0.451929 0.753723 0.895105
O O2 0.780715 0.884519 0.806920
O O3 0.872828 0.179526 0.647688
O O4 0.889352 0.023885 0.403360
O O5 0.399409 0.610801 0.655337
O O6 0.313851 0.429941 0.021061
O O7 0.984799 0.334187 0.155767
O O8 0.279206 0.239578 0.841392
O O9 0.000000 0.500000 0.500000
O O10 0.695976 0.422949 0.581274
O O11 0.125949 0.702379 0.074636
O O12 0.500000 0.000000 0.500000
O O13 0.287682 0.019199 0.798019
#
# Coordination Sequence:
#
# PCOD9066814 Si02
#       6
#     2   2   2   2   2   2
#     4  11  26  47  78 118 156 198 256 320 389 461
#     4  11  26  46  80 113 155 203 250 321 390 460
#     4  11  25  46  78 117 159 197 250 315 393 470
#     4  11  28  53  80 111 157 209 263 324 382 454
#     4  11  27  55  77 111 157 210 268 315 380 465
#     4  11  26  49  74 114 158 201 259 313 385 468
#
# _framework density 26.292227
#
# number of rings (size 3 to 8) (size 9 to 14) (size 15 to 20)
#    0.000    1.000    1.667    2.000    7.000   10.000 
#    6.000    3.333    0.000    0.000    0.000    0.000 
#    0.000    0.000    0.000    0.000    0.000    0.000 
#
# Total GULP energy -67232.908265 kJ/mol
# GULP energy per Si atom -5602.742355 kJ/mol
# Density = 2.623238 g / cm^3
# Si number density = 26.292227 Si / 1000 Ang^3
#
#
#
# Elastic Constant Matrix: (Units=GPa)
#
#
# Indices 1 2 3 4 5 6 
#
# 1 161.4148 88.9762 65.0277 -29.2849 11.0752 -0.1457
# 2 88.9762 176.0651 34.9730 -51.5743 -21.2903 8.8781
# 3 65.0277 34.9730 142.2387 0.6119 0.7368 16.5359
# 4 -29.2849 -51.5743 0.6119 58.2882 4.6313 3.7185
# 5 11.0752 -21.2903 0.7368 4.6313 51.1595 -10.7407
# 6 -0.1457 8.8781 16.5359 3.7185 -10.7407 39.9214
#
#
#
# Elastic Compliance Matrix: (Units=1/GPa)
#
#
# Indices 1 2 3 4 5 6 
#
# 1 0.011117 -0.004982 -0.004021 0.001458 -0.004231 0.001540
# 2 -0.004982 0.010919 -0.000259 0.006904 0.004637 -0.001735
# 3 -0.004021 -0.000259 0.009362 -0.002122 0.000060 -0.003621
# 4 0.001458 0.006904 -0.002122 0.024227 -0.000229 -0.002969
# 5 -0.004231 0.004637 0.000060 -0.000229 0.023520 0.005278
# 6 0.001540 -0.001735 -0.003621 -0.002969 0.005278 0.028637
#
#
# Mechanical properties :
#
#
# Convention : Reuss Voigt Hill
#
# Bulk Modulus (GPa) = 77.67195 95.29694 86.48444
# Shear Modulus (GPa) = 38.28512 49.25661 43.77087
#
# Velocity S-wave (km/s) = 3.82008 4.33301 4.08460
# Velocity P-wave (km/s) = 7.00452 7.83309 7.43036
#
# Compressibility (1/GPa) = 0.01287466
#
# Stress axis : x y z
#
# Youngs Moduli (GPa) = 89.94932 91.58132 106.81100
#
# Poissons Ratio (x) = 0.45624 0.42949
# Poissons Ratio (y) = 0.44811 0.02770
# Poissons Ratio (z) = 0.36169 0.02375
#
# Static dielectric constant tensor:
#      x y z
#    x 2.052880 0.018840 0.034570 
#    y 0.018840 2.048320 0.040000 
#    z 0.034570 0.040000 2.080480 
# 
# From -- ./inp_files/257984.got.cif
#   From: 2010.05.17/outbox.cif.g08.bks.cpg/sg2_129_cif.got.tgz:257984.got - 2010.06.03 11:33:40.
