data_PCOD9066450
_publ_section_title
;
Structure prediction by ZEFSAII (Michael W. Deem and Ramdas Pophale) SiO2 
 PCOD9066450
Probable space group: P -1
;
_chemical_formula_sum "Si O2"
_cell_formula_units_Z 11
_cell_length_a 8.198636
_cell_length_b 8.512120
_cell_length_c 6.454442
_cell_angle_alpha 102.186512
_cell_angle_beta 102.885176
_cell_angle_gamma 73.412663
_cell_volume 415.552628
_symmetry_space_group_name_H-M "P -1"
_symmetry_group_IT_number 2
_symmetry_cell_setting 'triclinic'
loop_
_space_group_symop_operation_xyz
x,y,z
-x,-y,-z
loop_
_atom_site_type_symbol
_atom_site_label
_atom_site_fract_x
_atom_site_fract_y
_atom_site_fract_z
Si Si1 0.236972 0.424262 0.433288
Si Si2 0.134388 0.545275 0.847737
Si Si3 0.500000 0.000000 0.000000
Si Si4 0.931575 0.121993 0.821356
Si Si5 0.556339 0.633820 0.913223
Si Si6 0.751566 0.921279 0.426714
O O1 0.220340 0.556559 0.650210
O O2 0.393436 0.413621 0.320427
O O3 0.248221 0.243775 0.486498
O O4 0.055290 0.467351 0.271504
O O5 0.128390 0.698593 0.038803
O O6 0.251678 0.380311 0.938997
O O7 0.417213 0.022041 0.745758
O O8 0.451256 0.820295 0.955582
O O9 0.086864 0.112458 0.699031
O O10 0.787602 0.057504 0.636319
O O11 0.000000 0.000000 0.000000
O O12 0.500000 0.500000 0.000000
#
# Coordination Sequence:
#
# PCOD9066450 Si02
#       6
#     2   2   1   2   2   2
#     4  11  25  48  84 114 153 214 279 340 406 484
#     4  11  25  47  80 117 154 208 276 339 405 481
#     4  12  28  56  74 114 174 214 270 328 422 498
#     4  11  25  45  79 120 161 203 280 346 399 476
#     4  12  30  50  80 117 165 217 266 340 414 497
#     4  11  26  48  79 122 160 222 265 341 414 488
#
# _framework density 26.470773999999999
#
# number of rings (size 3 to 8) (size 9 to 14) (size 15 to 20)
#    0.000    0.727    3.636    1.636    7.636    1.455 
#    3.273    0.000    0.000    0.000    0.000    0.000 
#    0.000    0.000    0.000    0.000    0.000    0.000 
#
# Total GULP energy -61395.747536 kJ/mol
# GULP energy per Si atom -5581.431594 kJ/mol
# Density = 2.641053 g / cm^3
# Si number density = 26.470774 Si / 1000 Ang^3
#
#
#
# Elastic Constant Matrix: (Units=GPa)
#
#
# Indices 1 2 3 4 5 6 
#
# 1 92.1290 16.1121 67.3186 3.0573 -30.5201 27.1461
# 2 16.1121 129.9805 41.4639 -1.1577 -18.5190 41.7525
# 3 67.3186 41.4639 184.1550 31.2755 0.6460 29.9545
# 4 3.0573 -1.1577 31.2755 73.7218 -3.1754 -1.2483
# 5 -30.5201 -18.5190 0.6460 -3.1754 73.4502 -11.8821
# 6 27.1461 41.7525 29.9545 -1.2483 -11.8821 29.6988
#
#
#
# Elastic Compliance Matrix: (Units=1/GPa)
#
#
# Indices 1 2 3 4 5 6 
#
# 1 0.024096 0.007586 -0.007401 0.002262 0.008578 -0.021698
# 2 0.007586 0.016428 -0.002275 0.000591 0.003055 -0.026488
# 3 -0.007401 -0.002275 0.009594 -0.004004 -0.004156 -0.001545
# 4 0.002262 0.000591 -0.004004 0.015319 0.002219 0.002671
# 5 0.008578 0.003055 -0.004156 0.002219 0.017975 -0.000658
# 6 -0.021698 -0.026488 -0.001545 0.002671 -0.000658 0.092150
#
#
# Mechanical properties :
#
#
# Convention : Reuss Voigt Hill
#
# Bulk Modulus (GPa) = 21.76849 72.89485 47.33167
# Shear Modulus (GPa) = 25.63402 54.13214 39.88308
#
# Velocity S-wave (km/s) = 3.11527 4.52705 3.88581
# Velocity P-wave (km/s) = 4.60232 7.41102 6.16865
#
# Compressibility (1/GPa) = 0.04593796
#
# Stress axis : x y z
#
# Youngs Moduli (GPa) = 41.50143 60.87254 104.23498
#
# Poissons Ratio (x) = -0.46179 0.77146
# Poissons Ratio (y) = -0.31484 0.23710
# Poissons Ratio (z) = 0.30716 0.13846
#
# Static dielectric constant tensor:
#      x y z
#    x 2.201580 -0.063270 -0.026730 
#    y -0.063270 2.298380 0.035810 
#    z -0.026730 0.035810 2.109030 
# 
# From -- ./inp_files/17723.got.cif
#   From: 2010.05.17/outbox.cif.g08.bks.cpg/sg2_9_cif.got.tgz:17723.got - 2010.06.03 11:33:40.
