data_PCOD9066547
_publ_section_title
;
Structure prediction by ZEFSAII (Michael W. Deem and Ramdas Pophale) SiO2 
 PCOD9066547
Probable space group: P -1
;
_chemical_formula_sum "Si O2"
_cell_formula_units_Z 12
_cell_length_a 10.938728
_cell_length_b 7.889603
_cell_length_c 10.267764
_cell_angle_alpha 135.080995
_cell_angle_beta 43.261686
_cell_angle_gamma 116.703034
_cell_volume 424.770342
_symmetry_space_group_name_H-M "P -1"
_symmetry_group_IT_number 2
_symmetry_cell_setting 'triclinic'
loop_
_space_group_symop_operation_xyz
x,y,z
-x,-y,-z
loop_
_atom_site_type_symbol
_atom_site_label
_atom_site_fract_x
_atom_site_fract_y
_atom_site_fract_z
Si Si1 0.185033 0.678801 0.051472
Si Si2 0.612553 0.980212 0.769953
Si Si3 0.744490 0.742402 0.908552
Si Si4 0.176664 0.537906 0.702340
Si Si5 0.312605 0.163007 0.716177
Si Si6 0.136161 0.751337 0.555637
O O1 0.194745 0.718703 0.908815
O O2 0.332759 0.437436 0.818500
O O3 0.224557 0.880695 0.232661
O O4 0.003263 0.577170 0.181311
O O5 0.672531 0.698665 0.540459
O O6 0.456289 0.123043 0.880464
O O7 0.500000 0.000000 0.000000
O O8 0.748995 0.454425 0.731312
O O9 0.923515 0.769306 0.699589
O O10 0.792815 0.818336 0.056198
O O11 0.171279 0.659815 0.629564
O O12 0.500000 0.000000 0.500000
O O13 0.200816 0.011008 0.625156
#
# Coordination Sequence:
#
# PCOD9066547 Si02
#       6
#     2   2   2   2   2   2
#     4  11  27  46  72 103 144 188 236 289 353 421
#     4  12  26  44  71 105 141 184 234 292 353 413
#     4  11  25  46  71 105 140 188 233 286 349 426
#     4  11  25  49  73 104 140 189 236 292 349 421
#     4  12  26  45  73 108 142 184 234 295 352 416
#     4  11  25  47  76 103 140 190 235 288 355 416
#
# _framework density 28.250558999999999
#
# number of rings (size 3 to 8) (size 9 to 14) (size 15 to 20)
#    0.000    0.667    3.333    3.000    2.333    6.000 
#    0.000    0.000    0.000    0.000    0.000    0.000 
#    0.000    0.000    0.000    0.000    0.000    0.000 
#
# Total GULP energy -67227.202047 kJ/mol
# GULP energy per Si atom -5602.266837 kJ/mol
# Density = 2.818626 g / cm^3
# Si number density = 28.250559 Si / 1000 Ang^3
#
#
#
# Elastic Constant Matrix: (Units=GPa)
#
#
# Indices 1 2 3 4 5 6 
#
# 1 88.8524 24.2415 45.6263 18.3023 -0.0018 11.1585
# 2 24.2415 77.3516 14.3660 12.8416 -3.2353 1.1200
# 3 45.6263 14.3660 181.7596 32.8357 -14.0703 -12.7069
# 4 18.3023 12.8416 32.8357 50.8313 5.6843 -1.4573
# 5 -0.0018 -3.2353 -14.0703 5.6843 56.8212 7.7150
# 6 11.1585 1.1200 -12.7069 -1.4573 7.7150 42.3125
#
#
#
# Elastic Compliance Matrix: (Units=1/GPa)
#
#
# Indices 1 2 3 4 5 6 
#
# 1 0.015137 -0.003634 -0.003430 -0.002444 -0.000134 -0.004985
# 2 -0.003634 0.014489 0.000371 -0.002707 0.001135 0.000386
# 3 -0.003430 0.000371 0.007334 -0.003728 0.001853 0.002631
# 4 -0.002444 -0.002707 -0.003728 0.024083 -0.003635 0.001089
# 5 -0.000134 0.001135 0.001853 -0.003635 0.018895 -0.003008
# 6 -0.004985 0.000386 0.002631 0.001089 -0.003008 0.026314
#
#
# Mechanical properties :
#
#
# Convention : Reuss Voigt Hill
#
# Bulk Modulus (GPa) = 42.41894 57.38125 49.90010
# Shear Modulus (GPa) = 39.21644 47.57499 43.39572
#
# Velocity S-wave (km/s) = 3.72985 4.10815 3.92356
# Velocity P-wave (km/s) = 5.79628 6.54662 6.18284
#
# Compressibility (1/GPa) = 0.02357438
#
# Stress axis : x y z
#
# Youngs Moduli (GPa) = 66.06300 69.01576 136.34475
#
# Poissons Ratio (x) = 0.25084 0.46765
# Poissons Ratio (y) = 0.24010 -0.05060
# Poissons Ratio (z) = 0.22659 -0.02561
#
# Static dielectric constant tensor:
#      x y z
#    x -0.974100 -0.084840 0.077300 
#    y -0.084840 2.364140 0.061850 
#    z 0.077300 0.061850 2.136920 
# 
# From -- ./inp_files/168142.got.cif
#   From: 2010.05.17/outbox.cif.g08.bks.cpg/sg2_85_cif.got.tgz:168142.got - 2010.06.03 11:33:40.
