data_PCOD9066033
_publ_section_title
;
Structure prediction by ZEFSAII (Michael W. Deem and Ramdas Pophale) SiO2 
 PCOD9066033
Probable space group: P -1
;
_chemical_formula_sum "Si O2"
_cell_formula_units_Z 14
_cell_length_a 11.841248
_cell_length_b 9.487275
_cell_length_c 11.320083
_cell_angle_alpha 71.082784
_cell_angle_beta 152.475366
_cell_angle_gamma 105.793185
_cell_volume 555.610907
_symmetry_space_group_name_H-M "P -1"
_symmetry_group_IT_number 2
_symmetry_cell_setting 'triclinic'
loop_
_space_group_symop_operation_xyz
x,y,z
-x,-y,-z
loop_
_atom_site_type_symbol
_atom_site_label
_atom_site_fract_x
_atom_site_fract_y
_atom_site_fract_z
Si Si1 0.012963 0.368697 0.308746
Si Si2 0.203348 0.142281 0.172112
Si Si3 0.611236 0.032303 0.405116
Si Si4 0.355964 0.857244 0.006385
Si Si5 0.942988 0.281624 0.691201
Si Si6 0.206039 0.166760 0.750806
Si Si7 0.742067 0.587533 0.707635
O O1 0.040711 0.541659 0.323028
O O2 0.054377 0.269312 0.490655
O O3 0.210716 0.344428 0.395902
O O4 0.768744 0.299702 0.044279
O O5 0.376960 0.051042 0.268844
O O6 0.318240 0.294113 0.278491
O O7 0.183930 0.057420 0.301195
O O8 0.970403 0.203931 0.866378
O O9 0.720460 0.196607 0.445373
O O10 0.520280 0.936291 0.237099
O O11 0.153116 0.991113 0.758856
O O12 0.523419 0.832846 0.053191
O O13 0.167506 0.235060 0.825726
O O14 0.500000 0.500000 0.500000
O O15 0.000000 0.500000 0.000000
#
# Coordination Sequence:
#
# PCOD9066033 Si02
#       7
#     2   2   2   2   2   2   2
#     4  12  28  48  77 105 153 197 251 313 392 454
#     4  11  25  44  72 106 149 198 254 313 387 460
#     4  11  26  45  75 106 149 195 257 319 390 452
#     4  11  27  48  75 109 142 198 253 318 373 466
#     4  12  26  47  71 109 147 198 246 321 378 472
#     4  11  27  47  73 106 149 193 256 308 386 458
#     4  12  28  49  78 114 160 201 258 326 395 467
#
# _framework density 25.197486999999999
#
# number of rings (size 3 to 8) (size 9 to 14) (size 15 to 20)
#    0.000    0.571    2.857    3.000   12.000    2.857 
#    0.000    0.000    0.000    0.000    0.000    0.000 
#    0.000    0.000    0.000    0.000    0.000    0.000 
#
# Total GULP energy -78204.084094 kJ/mol
# GULP energy per Si atom -5586.006007 kJ/mol
# Density = 2.514014 g / cm^3
# Si number density = 25.197487 Si / 1000 Ang^3
#
#
#
# Elastic Constant Matrix: (Units=GPa)
#
#
# Indices 1 2 3 4 5 6 
#
# 1 119.7609 27.8887 37.3537 12.2416 -6.1368 -4.1766
# 2 27.8887 180.1136 83.3259 33.3608 -4.7278 -1.4073
# 3 37.3537 83.3259 110.4088 23.3867 -22.2867 9.7820
# 4 12.2416 33.3608 23.3867 52.3155 6.1166 5.9769
# 5 -6.1368 -4.7278 -22.2867 6.1166 43.1549 0.0786
# 6 -4.1766 -1.4073 9.7820 5.9769 0.0786 42.2784
#
#
#
# Elastic Compliance Matrix: (Units=1/GPa)
#
#
# Indices 1 2 3 4 5 6 
#
# 1 0.009516 0.000338 -0.003465 -0.001082 -0.000249 0.001906
# 2 0.000338 0.009322 -0.007229 -0.002803 -0.002271 0.002417
# 3 -0.003465 -0.007229 0.018574 -0.003407 0.008799 -0.004415
# 4 -0.001082 -0.002803 -0.003407 0.023643 -0.005566 -0.002744
# 5 -0.000249 -0.002271 0.008799 -0.005566 0.028224 -0.001401
# 6 0.001906 0.002417 -0.004415 -0.002744 -0.001401 0.025334
#
#
# Mechanical properties :
#
#
# Convention : Reuss Voigt Hill
#
# Bulk Modulus (GPa) = 59.87387 78.60222 69.23804
# Shear Modulus (GPa) = 35.48854 44.99742 40.24298
#
# Velocity S-wave (km/s) = 3.75696 4.23045 4.00071
# Velocity P-wave (km/s) = 6.52940 7.42458 6.99133
#
# Compressibility (1/GPa) = 0.01670178
#
# Stress axis : x y z
#
# Youngs Moduli (GPa) = 105.08377 107.26834 53.83877
#
# Poissons Ratio (x) = -0.03628 0.18654
# Poissons Ratio (y) = -0.03554 0.38919
# Poissons Ratio (z) = 0.36409 0.77543
#
# Static dielectric constant tensor:
#      x y z
#    x 1.955610 0.067000 -0.059700 
#    y 0.067000 2.105600 -0.010510 
#    z -0.059700 -0.010510 2.175970 
# 
# From -- ./inp_files/419385.got.cif
#   From: 2010.05.17/outbox.cif.g08.bks.cpg/sg2_210_cif.got.tgz:419385.got - 2010.06.03 11:33:40.
