data_PCOD9066438
_publ_section_title
;
Structure prediction by ZEFSAII (Michael W. Deem and Ramdas Pophale) SiO2 
 PCOD9066438
Probable space group: P -1
;
_chemical_formula_sum "Si O2"
_cell_formula_units_Z 13
_cell_length_a 12.303881
_cell_length_b 8.641141
_cell_length_c 12.009609
_cell_angle_alpha 142.590392
_cell_angle_beta 42.756686
_cell_angle_gamma 122.577337
_cell_volume 523.500021
_symmetry_space_group_name_H-M "P -1"
_symmetry_group_IT_number 2
_symmetry_cell_setting 'triclinic'
loop_
_space_group_symop_operation_xyz
x,y,z
-x,-y,-z
loop_
_atom_site_type_symbol
_atom_site_label
_atom_site_fract_x
_atom_site_fract_y
_atom_site_fract_z
Si Si1 0.270425 0.467949 0.085879
Si Si2 0.431884 0.933133 0.290832
Si Si3 0.454648 0.771392 0.826868
Si Si4 0.241170 0.579040 0.559741
Si Si5 0.809912 0.910729 0.241023
Si Si6 0.000000 0.500000 0.500000
Si Si7 0.112935 0.682988 0.958253
O O1 0.329491 0.747228 0.189349
O O2 0.149507 0.479405 0.286448
O O3 0.423601 0.261565 0.879961
O O4 0.191961 0.356333 0.972866
O O5 0.495519 0.147890 0.288906
O O6 0.318267 0.049481 0.541815
O O7 0.572898 0.532071 0.644145
O O8 0.267720 0.738224 0.942388
O O9 0.500000 0.000000 0.000000
O O10 0.132287 0.453818 0.480008
O O11 0.176432 0.564565 0.725357
O O12 0.225514 0.872653 0.700638
O O13 0.989325 0.936554 0.168136
O O14 0.000000 0.500000 0.000000
#
# Coordination Sequence:
#
# PCOD9066438 Si02
#       7
#     2   2   2   2   2   1   2
#     4  11  25  45  78 118 156 214 268 336 401 487
#     4  11  26  48  77 116 163 206 279 328 415 478
#     4  12  30  51  80 115 167 215 271 342 414 486
#     4  12  27  49  80 118 164 213 272 334 414 486
#     4  12  26  49  83 116 162 213 269 338 404 490
#     4  12  24  48  78 120 162 210 274 336 400 486
#     4  12  29  52  79 120 161 214 277 333 411 488
#
# _framework density 24.832854000000001
#
# number of rings (size 3 to 8) (size 9 to 14) (size 15 to 20)
#    0.000    0.308    3.077    4.154    8.615    1.231 
#    0.000    2.308    0.000    0.000    0.000    0.000 
#    0.000    0.000    0.000    0.000    0.000    0.000 
#
# Total GULP energy -72711.573506 kJ/mol
# GULP energy per Si atom -5593.197962 kJ/mol
# Density = 2.477633 g / cm^3
# Si number density = 24.832854 Si / 1000 Ang^3
#
#
#
# Elastic Constant Matrix: (Units=GPa)
#
#
# Indices 1 2 3 4 5 6 
#
# 1 183.0234 55.7200 64.4007 -11.3635 -7.7693 26.0488
# 2 55.7200 114.9019 29.3601 -18.9181 -4.5269 8.8753
# 3 64.4007 29.3601 121.2006 -25.4817 -15.9494 14.4653
# 4 -11.3635 -18.9181 -25.4817 37.4608 -1.2291 -4.4517
# 5 -7.7693 -4.5269 -15.9494 -1.2291 51.0353 -4.0944
# 6 26.0488 8.8753 14.4653 -4.4517 -4.0944 42.2359
#
#
#
# Elastic Compliance Matrix: (Units=1/GPa)
#
#
# Indices 1 2 3 4 5 6 
#
# 1 0.007979 -0.003040 -0.003585 -0.001963 -0.000488 -0.003309
# 2 -0.003040 0.010957 0.000008 0.004652 0.000633 0.000122
# 3 -0.003585 0.000008 0.012226 0.007239 0.003379 -0.000887
# 4 -0.001963 0.004652 0.007239 0.033674 0.003317 0.001625
# 5 -0.000488 0.000633 0.003379 0.003317 0.020823 0.001379
# 6 -0.003309 0.000122 -0.000887 0.001625 0.001379 0.026300
#
#
# Mechanical properties :
#
#
# Convention : Reuss Voigt Hill
#
# Bulk Modulus (GPa) = 55.78071 79.78750 67.78411
# Shear Modulus (GPa) = 38.11842 44.12274 41.12058
#
# Velocity S-wave (km/s) = 3.92216 4.21977 4.07368
# Velocity P-wave (km/s) = 6.55914 7.47941 7.03434
#
# Compressibility (1/GPa) = 0.01792734
#
# Stress axis : x y z
#
# Youngs Moduli (GPa) = 125.32547 91.26801 81.79034
#
# Poissons Ratio (x) = 0.27746 0.29325
# Poissons Ratio (y) = 0.38100 -0.00066
# Poissons Ratio (z) = 0.44934 -0.00073
#
# Static dielectric constant tensor:
#      x y z
#    x 1.969090 0.145480 0.094590 
#    y 0.145480 1.558630 -0.324430 
#    z 0.094590 -0.324430 1.615350 
# 
# From -- ./inp_files/180537.got.cif
#   From: 2010.05.17/outbox.cif.g08.bks.cpg/sg2_91_cif.got.tgz:180537.got - 2010.06.03 11:33:40.
