data_PCOD9066595
_publ_section_title
;
Structure prediction by ZEFSAII (Michael W. Deem and Ramdas Pophale) SiO2 
 PCOD9066595
Probable space group: P -1
;
_chemical_formula_sum "Si O2"
_cell_formula_units_Z 14
_cell_length_a 9.617630
_cell_length_b 11.025485
_cell_length_c 15.707687
_cell_angle_alpha 155.686487
_cell_angle_beta 104.782231
_cell_angle_gamma 77.523756
_cell_volume 662.521532
_symmetry_space_group_name_H-M "P -1"
_symmetry_group_IT_number 2
_symmetry_cell_setting 'triclinic'
loop_
_space_group_symop_operation_xyz
x,y,z
-x,-y,-z
loop_
_atom_site_type_symbol
_atom_site_label
_atom_site_fract_x
_atom_site_fract_y
_atom_site_fract_z
Si Si1 0.072527 0.854785 0.835453
Si Si2 0.638940 0.806483 0.897622
Si Si3 0.624966 0.171737 0.569394
Si Si4 0.598981 0.785484 0.687951
Si Si5 0.843072 0.363773 0.862996
Si Si6 0.404758 0.236608 0.857966
Si Si7 0.149347 0.225583 0.405773
O O1 0.110935 0.512662 0.637578
O O2 0.966390 0.837431 0.727159
O O3 0.216650 0.035312 0.941898
O O4 0.000000 0.000000 0.000000
O O5 0.592730 0.497369 0.736985
O O6 0.679998 0.800704 0.799981
O O7 0.500000 0.000000 0.000000
O O8 0.778032 0.234373 0.680940
O O9 0.500000 0.000000 0.500000
O O10 0.639815 0.977511 0.363309
O O11 0.500000 0.500000 0.500000
O O12 0.701714 0.719982 0.584529
O O13 0.502927 0.061801 0.827347
O O14 0.830929 0.071322 0.730436
O O15 0.731382 0.614358 0.027662
O O16 0.000000 0.500000 0.000000
O O17 0.500000 0.500000 0.000000
#
# Coordination Sequence:
#
# PCOD9066595 Si02
#       7
#     2   2   2   2   2   2   2
#     4  11  25  46  72 108 143 186 239 295 367 437
#     4  12  26  42  74 106 140 188 247 297 358 427
#     4  12  26  47  73 105 144 190 245 299 358 434
#     4  12  23  43  72 106 141 186 241 299 353 415
#     4  12  28  47  74 107 149 192 241 299 367 432
#     4  12  25  46  75 105 145 193 244 292 360 438
#     4  11  25  46  72 104 147 188 236 304 359 428
#
# _framework density 21.13139
#
# number of rings (size 3 to 8) (size 9 to 14) (size 15 to 20)
#    0.000    0.286    5.714    2.571    2.000    5.143 
#    0.000    0.000    0.000    0.000    0.000    0.000 
#    0.000    0.000    0.000    0.000    0.000    0.000 
#
# Total GULP energy -78166.669275 kJ/mol
# GULP energy per Si atom -5583.333520 kJ/mol
# Density = 2.108329 g / cm^3
# Si number density = 21.131390 Si / 1000 Ang^3
#
#
#
# Elastic Constant Matrix: (Units=GPa)
#
#
# Indices 1 2 3 4 5 6 
#
# 1 107.8366 29.6779 55.0270 7.9440 12.5406 -13.9591
# 2 29.6779 109.8417 52.4132 19.5352 9.7807 -3.6137
# 3 55.0270 52.4132 138.8369 7.9868 5.9269 -0.0514
# 4 7.9440 19.5352 7.9868 47.3701 1.0807 3.2820
# 5 12.5406 9.7807 5.9269 1.0807 43.4241 -3.2926
# 6 -13.9591 -3.6137 -0.0514 3.2820 -3.2926 32.1824
#
#
#
# Elastic Compliance Matrix: (Units=1/GPa)
#
#
# Indices 1 2 3 4 5 6 
#
# 1 0.012944 -0.000586 -0.004716 -0.001453 -0.002514 0.005432
# 2 -0.000586 0.012154 -0.004032 -0.004287 -0.001809 0.001356
# 3 -0.004716 -0.004032 0.010518 0.000839 0.000624 -0.002503
# 4 -0.001453 -0.004287 0.000839 0.023208 0.000433 -0.003433
# 5 -0.002514 -0.001809 0.000624 0.000433 0.024152 0.001134
# 6 0.005432 0.001356 -0.002503 -0.003433 0.001134 0.034043
#
#
# Mechanical properties :
#
#
# Convention : Reuss Voigt Hill
#
# Bulk Modulus (GPa) = 59.00248 70.08349 64.54299
# Shear Modulus (GPa) = 35.37641 39.22181 37.29911
#
# Velocity S-wave (km/s) = 4.09604 4.31291 4.20587
# Velocity P-wave (km/s) = 7.09594 7.61835 7.36178
#
# Compressibility (1/GPa) = 0.01694844
#
# Stress axis : x y z
#
# Youngs Moduli (GPa) = 77.25829 82.27526 95.07407
#
# Poissons Ratio (x) = 0.04820 0.44837
# Poissons Ratio (y) = 0.04526 0.38333
# Poissons Ratio (z) = 0.36435 0.33173
#
# Static dielectric constant tensor:
#      x y z
#    x 1.782480 -0.005750 -0.013380 
#    y -0.005750 1.588930 0.129910 
#    z -0.013380 0.129910 1.655800 
# 
# From -- ./inp_files/560232.got.cif
#   From: 2010.05.17/outbox.cif.g08.bks.cpg/sg2_281_cif.got.tgz:560232.got - 2010.06.03 11:33:40.
