data_PCOD9066211
_publ_section_title
;
Structure prediction by ZEFSAII (Michael W. Deem and Ramdas Pophale) SiO2 
 PCOD9066211
Probable space group: P -1
;
_chemical_formula_sum "Si O2"
_cell_formula_units_Z 11
_cell_length_a 7.090109
_cell_length_b 6.856386
_cell_length_c 12.092587
_cell_angle_alpha 69.862279
_cell_angle_beta 131.748751
_cell_angle_gamma 101.050150
_cell_volume 411.175062
_symmetry_space_group_name_H-M "P -1"
_symmetry_group_IT_number 2
_symmetry_cell_setting 'triclinic'
loop_
_space_group_symop_operation_xyz
x,y,z
-x,-y,-z
loop_
_atom_site_type_symbol
_atom_site_label
_atom_site_fract_x
_atom_site_fract_y
_atom_site_fract_z
Si Si1 0.535645 0.081792 0.765164
Si Si2 0.000000 0.000000 0.000000
Si Si3 0.881034 0.873547 0.217795
Si Si4 0.814959 0.446052 0.336223
Si Si5 0.830928 0.840021 0.594707
Si Si6 0.766424 0.498636 0.825049
O O1 0.351219 0.085400 0.796050
O O2 0.385434 0.138140 0.585270
O O3 0.476236 0.532073 0.747948
O O4 0.732120 0.889141 0.871695
O O5 0.120611 0.000817 0.918450
O O6 0.762636 0.250675 0.831000
O O7 0.870205 0.630828 0.237260
O O8 0.122017 0.945048 0.367560
O O9 0.000000 0.500000 0.500000
O O10 0.916148 0.233561 0.361340
O O11 0.787999 0.660650 0.701664
O O12 0.000000 0.500000 0.000000
#
# Coordination Sequence:
#
# PCOD9066211 Si02
#       6
#     2   1   2   2   2   2
#     4  11  25  45  71 106 151 195 250 309 368 447
#     4  12  26  44  70 104 154 192 238 314 372 428
#     4  11  26  47  73 109 144 196 250 305 372 447
#     4  11  25  48  78 103 152 198 240 311 375 436
#     4  12  25  46  79 109 146 196 258 305 367 454
#     4  11  25  45  72 114 151 196 249 307 374 449
#
# _framework density 26.752596
#
# number of rings (size 3 to 8) (size 9 to 14) (size 15 to 20)
#    0.000    0.727    3.636    3.818    2.545    5.818 
#    0.000    0.000    0.000    0.000    0.000    0.000 
#    0.000    0.000    0.000    0.000    0.000    0.000 
#
# Total GULP energy -61481.110645 kJ/mol
# GULP energy per Si atom -5589.191877 kJ/mol
# Density = 2.669171 g / cm^3
# Si number density = 26.752596 Si / 1000 Ang^3
#
#
#
# Elastic Constant Matrix: (Units=GPa)
#
#
# Indices 1 2 3 4 5 6 
#
# 1 190.8631 38.2579 101.1792 -9.8766 -0.7725 12.6707
# 2 38.2579 102.0331 35.5957 13.0786 9.8224 5.8656
# 3 101.1792 35.5957 220.3236 -2.1626 6.6926 14.9330
# 4 -9.8766 13.0786 -2.1626 42.0557 10.5683 0.7072
# 5 -0.7725 9.8224 6.6926 10.5683 53.1697 -18.5796
# 6 12.6707 5.8656 14.9330 0.7072 -18.5796 41.7343
#
#
#
# Elastic Compliance Matrix: (Units=1/GPa)
#
#
# Indices 1 2 3 4 5 6 
#
# 1 0.007396 -0.001965 -0.003001 0.002182 0.000105 -0.000886
# 2 -0.001965 0.011559 -0.000842 -0.003606 -0.001864 -0.001495
# 3 -0.003001 -0.000842 0.006218 0.000246 -0.001349 -0.001800
# 4 0.002182 -0.003606 0.000246 0.026949 -0.005843 -0.003302
# 5 0.000105 -0.001864 -0.001349 -0.005843 0.024594 0.011761
# 6 -0.000886 -0.001495 -0.001800 -0.003302 0.011761 0.030376
#
#
# Mechanical properties :
#
#
# Convention : Reuss Voigt Hill
#
# Bulk Modulus (GPa) = 73.76461 95.92059 84.84260
# Shear Modulus (GPa) = 40.57506 49.93774 45.25640
#
# Velocity S-wave (km/s) = 3.89868 4.32516 4.11745
# Velocity P-wave (km/s) = 6.92091 7.80226 7.37476
#
# Compressibility (1/GPa) = 0.01355664
#
# Stress axis : x y z
#
# Youngs Moduli (GPa) = 135.20432 86.51182 160.81523
#
# Poissons Ratio (x) = 0.17002 0.48257
# Poissons Ratio (y) = 0.26572 0.13548
# Poissons Ratio (z) = 0.40572 0.07288
#
# Static dielectric constant tensor:
#      x y z
#    x 2.308010 -0.663760 0.631400 
#    y -0.663760 3.722550 -1.301970 
#    z 0.631400 -1.301970 3.363950 
# 
# From -- ./inp_files/374177.got.cif
#   From: 2010.05.17/outbox.cif.g08.bks.cpg/sg2_188_cif.got.tgz:374177.got - 2010.06.03 11:33:40.
