data_PCOD9066957
_publ_section_title
;
Structure prediction by ZEFSAII (Michael W. Deem and Ramdas Pophale) SiO2 
 PCOD9066957
Probable space group: P -1
;
_chemical_formula_sum "Si O2"
_cell_formula_units_Z 14
_cell_length_a 5.894637
_cell_length_b 10.878745
_cell_length_c 8.288258
_cell_angle_alpha 94.940562
_cell_angle_beta 80.090954
_cell_angle_gamma 96.394879
_cell_volume 519.090089
_symmetry_space_group_name_H-M "P -1"
_symmetry_group_IT_number 2
_symmetry_cell_setting 'triclinic'
loop_
_space_group_symop_operation_xyz
x,y,z
-x,-y,-z
loop_
_atom_site_type_symbol
_atom_site_label
_atom_site_fract_x
_atom_site_fract_y
_atom_site_fract_z
Si Si1 0.538468 0.148041 0.014860
Si Si2 0.500000 0.500000 0.000000
Si Si3 0.158986 0.922602 0.578350
Si Si4 0.540367 0.833899 0.331158
Si Si5 0.835731 0.720620 0.758878
Si Si6 0.069638 0.664983 0.040349
Si Si7 0.000000 0.500000 0.500000
Si Si8 0.683868 0.584965 0.323976
O O1 0.405287 0.216823 0.179348
O O2 0.808282 0.195979 0.971192
O O3 0.435745 0.191437 0.862972
O O4 0.500000 0.000000 0.000000
O O5 0.714091 0.414996 0.008824
O O6 0.503391 0.543632 0.199323
O O7 0.283991 0.839741 0.427620
O O8 0.019130 0.838113 0.715397
O O9 0.336996 0.028203 0.645798
O O10 0.000000 0.000000 0.500000
O O11 0.630971 0.721259 0.404056
O O12 0.882013 0.653304 0.916839
O O13 0.895113 0.619715 0.610639
O O14 0.936498 0.623367 0.213356
O O15 0.248677 0.521195 0.576777
#
# Coordination Sequence:
#
# PCOD9066957 Si02
#       8
#     2   1   2   2   2   2   1   2
#     4  12  27  46  80 118 154 209 274 330 397 487
#     4  12  24  48  78 108 154 206 270 316 400 484
#     4  11  26  47  75 108 164 207 261 343 407 475
#     4  11  25  47  73 115 148 211 268 325 416 475
#     4  12  27  50  76 117 162 210 270 332 400 482
#     4  12  26  48  80 113 156 212 265 334 399 480
#     4  12  30  48  78 120 164 210 264 334 410 474
#     4  12  27  50  80 115 160 209 268 334 405 478
#
# _framework density 26.970268999999998
#
# number of rings (size 3 to 8) (size 9 to 14) (size 15 to 20)
#    0.000    0.286    4.286    3.000    8.000    4.571 
#    0.000    2.143    0.000    0.000    0.000    0.000 
#    0.000    0.000    0.000    0.000    0.000    0.000 
#
# Total GULP energy -77934.340424 kJ/mol
# GULP energy per Si atom -5566.738602 kJ/mol
# Density = 2.690888 g / cm^3
# Si number density = 26.970269 Si / 1000 Ang^3
#
#
#
# Elastic Constant Matrix: (Units=GPa)
#
#
# Indices 1 2 3 4 5 6 
#
# 1 52.9412 20.2003 3.9614 13.7444 -7.7393 -24.6749
# 2 20.2003 129.2517 20.8321 8.0825 -17.4424 -5.8836
# 3 3.9614 20.8321 63.6938 22.4344 -2.3649 -9.2924
# 4 13.7444 8.0825 22.4344 43.4265 -7.3147 -8.2833
# 5 -7.7393 -17.4424 -2.3649 -7.3147 52.8340 -2.0796
# 6 -24.6749 -5.8836 -9.2924 -8.2833 -2.0796 72.5939
#
#
#
# Elastic Compliance Matrix: (Units=1/GPa)
#
#
# Indices 1 2 3 4 5 6 
#
# 1 0.026034 -0.003497 0.003420 -0.007434 0.002106 0.008216
# 2 -0.003497 0.009023 -0.003224 0.001390 0.002490 -0.000640
# 3 0.003420 -0.003224 0.020676 -0.010909 -0.001059 0.002273
# 4 -0.007434 0.001390 -0.010909 0.031268 0.003205 -0.000151
# 5 0.002106 0.002490 -0.001059 0.003205 0.020522 0.001736
# 6 0.008216 -0.000640 0.002273 -0.000151 0.001736 0.016839
#
#
# Mechanical properties :
#
#
# Convention : Reuss Voigt Hill
#
# Bulk Modulus (GPa) = 20.35391 37.31937 28.83664
# Shear Modulus (GPa) = 33.93443 47.16375 40.54909
#
# Velocity S-wave (km/s) = 3.55098 4.18632 3.88167
# Velocity P-wave (km/s) = 4.93719 6.10199 5.55023
#
# Compressibility (1/GPa) = 0.04913062
#
# Stress axis : x y z
#
# Youngs Moduli (GPa) = 38.41098 110.82913 48.36411
#
# Poissons Ratio (x) = 0.38755 -0.16539
# Poissons Ratio (y) = 0.13432 0.15594
# Poissons Ratio (z) = -0.13135 0.35734
#
# Static dielectric constant tensor:
#      x y z
#    x 3.487830 1.436420 -0.000910 
#    y 1.436420 3.530400 -0.107780 
#    z -0.000910 -0.107780 2.296080 
# 
# From -- ./inp_files/95604.got.cif
#   From: 2010.05.17/outbox.cif.g08.bks.cpg/sg2_48_cif.got.tgz:95604.got - 2010.06.03 11:33:40.
