data_PCOD9066532
_publ_section_title
;
Structure prediction by ZEFSAII (Michael W. Deem and Ramdas Pophale) SiO2 
 PCOD9066532
Probable space group: P -1
;
_chemical_formula_sum "Si O2"
_cell_formula_units_Z 16
_cell_length_a 8.527189
_cell_length_b 9.936008
_cell_length_c 15.376428
_cell_angle_alpha 143.662612
_cell_angle_beta 110.509777
_cell_angle_gamma 80.750392
_cell_volume 705.480188
_symmetry_space_group_name_H-M "P -1"
_symmetry_group_IT_number 2
_symmetry_cell_setting 'triclinic'
loop_
_space_group_symop_operation_xyz
x,y,z
-x,-y,-z
loop_
_atom_site_type_symbol
_atom_site_label
_atom_site_fract_x
_atom_site_fract_y
_atom_site_fract_z
Si Si1 0.063307 0.024058 0.426603
Si Si2 0.446229 0.249509 0.617170
Si Si3 0.519603 0.922041 0.865646
Si Si4 0.133199 0.106467 0.008918
Si Si5 0.403865 0.571498 0.936159
Si Si6 0.999428 0.770854 0.651630
Si Si7 0.612868 0.557516 0.466931
Si Si8 0.010872 0.485297 0.890146
O O1 0.095073 0.772394 0.281827
O O2 0.239905 0.207800 0.554980
O O3 0.955359 0.097281 0.363795
O O4 0.000000 0.000000 0.500000
O O5 0.476625 0.433358 0.798746
O O6 0.490808 0.350762 0.582802
O O7 0.500000 0.000000 0.500000
O O8 0.373376 0.702398 0.695111
O O9 0.695117 0.838316 0.871921
O O10 0.500000 0.000000 0.000000
O O11 0.546143 0.152722 0.932078
O O12 0.107054 0.917093 0.826453
O O13 0.083061 0.329523 0.073350
O O14 0.000000 0.000000 0.000000
O O15 0.199912 0.511387 0.894081
O O16 0.500000 0.500000 0.000000
O O17 0.792448 0.742427 0.613705
O O18 0.000000 0.500000 0.500000
O O19 0.500000 0.500000 0.500000
O O20 0.000000 0.500000 0.000000
#
# Coordination Sequence:
#
# PCOD9066532 Si02
#       8
#     2   2   2   2   2   2   2   2
#     4  11  25  46  71 100 144 189 239 293 359 428
#     4  11  27  47  69 105 145 188 238 297 362 432
#     4  12  26  47  73 106 148 190 247 297 370 435
#     4  12  26  45  74 104 145 193 240 308 360 429
#     4  12  29  48  74 105 150 193 241 307 366 433
#     4  11  26  45  69 102 143 185 239 296 358 426
#     4  11  26  45  69 103 143 187 235 294 357 429
#     4  12  27  47  73 108 145 190 251 294 364 438
#
# _framework density 22.679587999999999
#
# number of rings (size 3 to 8) (size 9 to 14) (size 15 to 20)
#    0.000    0.500    5.000    1.500   10.500    2.000 
#    0.000    0.000    0.000    0.000    0.000    0.000 
#    0.000    0.000    0.000    0.000    0.000    0.000 
#
# Total GULP energy -89260.969095 kJ/mol
# GULP energy per Si atom -5578.810568 kJ/mol
# Density = 2.262797 g / cm^3
# Si number density = 22.679588 Si / 1000 Ang^3
#
#
#
# Elastic Constant Matrix: (Units=GPa)
#
#
# Indices 1 2 3 4 5 6 
#
# 1 47.4163 22.0175 -7.7466 -8.1255 -8.0936 3.3751
# 2 22.0175 205.9903 49.8421 7.4255 -20.4409 8.0010
# 3 -7.7466 49.8421 115.2466 0.0968 -13.5961 -5.1804
# 4 -8.1255 7.4255 0.0968 41.4911 4.8610 -11.2004
# 5 -8.0936 -20.4409 -13.5961 4.8610 43.9232 -1.6370
# 6 3.3751 8.0010 -5.1804 -11.2004 -1.6370 42.8584
#
#
#
# Elastic Compliance Matrix: (Units=1/GPa)
#
#
# Indices 1 2 3 4 5 6 
#
# 1 0.024674 -0.003355 0.003549 0.005172 0.003534 0.000599
# 2 -0.003355 0.006208 -0.002800 -0.002438 0.001607 -0.001809
# 3 0.003549 -0.002800 0.010512 0.001410 0.002522 0.001979
# 4 0.005172 -0.002438 0.001410 0.027843 -0.002551 0.007397
# 5 0.003534 0.001607 0.002522 -0.002551 0.025230 0.000024
# 6 0.000599 -0.001809 0.001979 0.007397 0.000024 0.025796
#
#
# Mechanical properties :
#
#
# Convention : Reuss Voigt Hill
#
# Bulk Modulus (GPa) = 27.63798 55.20881 41.42340
# Shear Modulus (GPa) = 36.35370 45.95724 41.15547
#
# Velocity S-wave (km/s) = 4.00800 4.50641 4.26449
# Velocity P-wave (km/s) = 5.79927 7.17445 6.52320
#
# Compressibility (1/GPa) = 0.03618209
#
# Stress axis : x y z
#
# Youngs Moduli (GPa) = 40.52785 161.07319 95.12935
#
# Poissons Ratio (x) = 0.54042 -0.33762
# Poissons Ratio (y) = 0.13598 0.26639
# Poissons Ratio (z) = -0.14384 0.45105
#
# Static dielectric constant tensor:
#      x y z
#    x 1.799270 0.032670 -0.037770 
#    y 0.032670 1.781540 0.038370 
#    z -0.037770 0.038370 1.784820 
# 
# From -- ./inp_files/495921.got.cif
#   From: 2010.05.17/outbox.cif.g08.bks.cpg/sg2_248_cif.got.tgz:495921.got - 2010.06.03 11:33:40.
