data_PCOD9066737
_publ_section_title
;
Structure prediction by ZEFSAII (Michael W. Deem and Ramdas Pophale) SiO2 
 PCOD9066737
Probable space group: P -1
;
_chemical_formula_sum "Si O2"
_cell_formula_units_Z 16
_cell_length_a 18.818866
_cell_length_b 11.022181
_cell_length_c 9.563975
_cell_angle_alpha 122.967012
_cell_angle_beta 150.726836
_cell_angle_gamma 49.636476
_cell_volume 737.965120
_symmetry_space_group_name_H-M "P -1"
_symmetry_group_IT_number 2
_symmetry_cell_setting 'triclinic'
loop_
_space_group_symop_operation_xyz
x,y,z
-x,-y,-z
loop_
_atom_site_type_symbol
_atom_site_label
_atom_site_fract_x
_atom_site_fract_y
_atom_site_fract_z
Si Si1 0.742174 0.395679 0.266503
Si Si2 0.980907 0.869545 0.283973
Si Si3 0.437447 0.370792 0.665729
Si Si4 0.335647 0.497116 0.268142
Si Si5 0.869227 0.143787 0.773128
Si Si6 0.182182 0.393617 0.699439
Si Si7 0.347666 0.095369 0.391901
Si Si8 0.339530 0.033855 0.660954
O O1 0.920184 0.287446 0.554824
O O2 0.645243 0.467994 0.287155
O O3 0.757089 0.519963 0.261009
O O4 0.630278 0.314359 0.959293
O O5 0.063077 0.858533 0.267017
O O6 0.000000 0.000000 0.500000
O O7 0.805298 0.890647 0.951253
O O8 0.371657 0.409758 0.422658
O O9 0.366634 0.258895 0.546789
O O10 0.500000 0.500000 0.500000
O O11 0.198647 0.679170 0.164845
O O12 0.284945 0.394381 0.010567
O O13 0.722890 0.094531 0.477875
O O14 0.000000 0.000000 0.000000
O O15 0.215418 0.215960 0.597359
O O16 0.000000 0.500000 0.500000
O O17 0.354639 0.022961 0.511892
O O18 0.500000 0.000000 0.500000
O O19 0.500000 0.000000 0.000000
#
# Coordination Sequence:
#
# PCOD9066737 Si02
#       8
#     2   2   2   2   2   2   2   2
#     4  11  25  47  73 104 144 194 245 302 364 439
#     4  12  29  48  76 108 148 196 246 308 378 443
#     4  11  25  46  75 102 146 189 251 300 364 439
#     4  12  26  46  75 108 144 199 246 299 367 443
#     4  12  27  50  74 107 151 200 247 301 372 443
#     4  12  28  46  73 111 147 189 248 304 365 436
#     4  12  29  49  74 110 147 195 248 307 376 447
#     4  12  29  48  76 109 153 193 245 305 369 441
#
# _framework density 21.681242999999998
#
# number of rings (size 3 to 8) (size 9 to 14) (size 15 to 20)
#    0.000    0.250    5.000    2.250   12.250    0.500 
#    0.000    0.000    0.000    0.000    0.000    0.000 
#    0.000    0.000    0.000    0.000    0.000    0.000 
#
# Total GULP energy -89436.589722 kJ/mol
# GULP energy per Si atom -5589.786858 kJ/mol
# Density = 2.163190 g / cm^3
# Si number density = 21.681243 Si / 1000 Ang^3
#
#
#
# Elastic Constant Matrix: (Units=GPa)
#
#
# Indices 1 2 3 4 5 6 
#
# 1 101.5494 12.4041 28.5095 -2.0921 -7.4152 -6.9742
# 2 12.4041 49.8432 9.3942 -0.4889 -3.3404 -12.5923
# 3 28.5095 9.3942 141.3972 -6.2288 -1.6391 -4.5933
# 4 -2.0921 -0.4889 -6.2288 33.4271 3.0753 1.8269
# 5 -7.4152 -3.3404 -1.6391 3.0753 44.1617 3.4152
# 6 -6.9742 -12.5923 -4.5933 1.8269 3.4152 39.1327
#
#
#
# Elastic Compliance Matrix: (Units=1/GPa)
#
#
# Indices 1 2 3 4 5 6 
#
# 1 0.010827 -0.001982 -0.002000 0.000086 0.001517 0.000920
# 2 -0.001982 0.022473 -0.000883 -0.000405 0.000843 0.006720
# 3 -0.002000 -0.000883 0.007595 0.001287 -0.000227 0.000211
# 4 0.000086 -0.000405 0.001287 0.030404 -0.001992 -0.001209
# 5 0.001517 0.000843 -0.000227 -0.001992 0.023202 -0.001417
# 6 0.000920 0.006720 0.000211 -0.001209 -0.001417 0.028085
#
#
# Mechanical properties :
#
#
# Convention : Reuss Voigt Hill
#
# Bulk Modulus (GPa) = 32.08860 43.71174 37.90017
# Shear Modulus (GPa) = 35.03711 39.50976 37.27343
#
# Velocity S-wave (km/s) = 4.02432 4.27347 4.15077
# Velocity P-wave (km/s) = 6.03539 6.67495 6.36321
#
# Compressibility (1/GPa) = 0.03116372
#
# Stress axis : x y z
#
# Youngs Moduli (GPa) = 92.36350 44.49809 131.66404
#
# Poissons Ratio (x) = 0.08821 0.26333
# Poissons Ratio (y) = 0.18310 0.11628
# Poissons Ratio (z) = 0.18473 0.03930
#
# Static dielectric constant tensor:
#      x y z
#    x 2.111550 -0.722240 0.567940 
#    y -0.722240 3.158240 -1.025900 
#    z 0.567940 -1.025900 2.496080 
# 
# From -- ./inp_files/208380.got.cif
#   From: 2010.05.17/outbox.cif.g08.bks.cpg/sg2_105_cif.got.tgz:208380.got - 2010.06.03 11:33:40.
