data_PCOD9066576
_publ_section_title
;
Structure prediction by ZEFSAII (Michael W. Deem and Ramdas Pophale) SiO2 
 PCOD9066576
Probable space group: P -1
;
_chemical_formula_sum "Si O2"
_cell_formula_units_Z 14
_cell_length_a 12.949492
_cell_length_b 6.784450
_cell_length_c 12.694952
_cell_angle_alpha 99.895136
_cell_angle_beta 143.904407
_cell_angle_gamma 68.516925
_cell_volume 595.555239
_symmetry_space_group_name_H-M "P -1"
_symmetry_group_IT_number 2
_symmetry_cell_setting 'triclinic'
loop_
_space_group_symop_operation_xyz
x,y,z
-x,-y,-z
loop_
_atom_site_type_symbol
_atom_site_label
_atom_site_fract_x
_atom_site_fract_y
_atom_site_fract_z
Si Si1 0.590150 0.286661 0.626744
Si Si2 0.953198 0.928132 0.300360
Si Si3 0.401666 0.241841 0.685638
Si Si4 0.895807 0.408609 0.989421
Si Si5 0.716450 0.296188 0.277578
Si Si6 0.169915 0.076544 0.345697
Si Si7 0.360123 0.199143 0.045968
O O1 0.500000 0.500000 0.500000
O O2 0.466930 0.296909 0.630179
O O3 0.792917 0.269533 0.836676
O O4 0.640784 0.082455 0.572062
O O5 0.826536 0.175365 0.253604
O O6 0.047824 0.939625 0.268545
O O7 0.127541 0.811941 0.512193
O O8 0.811064 0.804186 0.168090
O O9 0.349261 0.447035 0.738077
O O10 0.227620 0.173571 0.506326
O O11 0.560411 0.030859 0.849176
O O12 0.729790 0.607573 0.927539
O O13 0.000000 0.500000 0.000000
O O14 0.046921 0.267822 0.185976
O O15 0.534504 0.233117 0.136796
#
# Coordination Sequence:
#
# PCOD9066576 Si02
#       7
#     2   2   2   2   2   2   2
#     4  12  23  41  68  99 138 178 228 284 344 412
#     4  11  25  46  72 100 140 181 230 288 338 408
#     4  12  24  44  71 100 137 180 229 284 341 413
#     4  12  24  42  66 100 140 179 228 285 340 412
#     4  11  25  49  69 102 139 182 232 282 345 405
#     4  12  24  43  67 104 137 182 230 279 349 406
#     4  12  24  47  70 103 138 180 234 280 346 406
#
# _framework density 23.507474999999999
#
# number of rings (size 3 to 8) (size 9 to 14) (size 15 to 20)
#    0.000    0.286    2.857    7.286    0.000    1.143 
#    2.571    0.000    0.000    0.000    0.000    0.000 
#    0.000    0.000    0.000    0.000    0.000    0.000 
#
# Total GULP energy -78450.482556 kJ/mol
# GULP energy per Si atom -5603.605897 kJ/mol
# Density = 2.345397 g / cm^3
# Si number density = 23.507475 Si / 1000 Ang^3
#
#
#
# Elastic Constant Matrix: (Units=GPa)
#
#
# Indices 1 2 3 4 5 6 
#
# 1 67.7760 10.3443 8.6846 -2.4535 22.6600 -20.6250
# 2 10.3443 91.7708 6.4589 -4.5594 4.3987 -17.1767
# 3 8.6846 6.4589 93.3641 11.3417 13.6004 20.7741
# 4 -2.4535 -4.5594 11.3417 53.3649 7.9372 3.0134
# 5 22.6600 4.3987 13.6004 7.9372 33.1331 2.3851
# 6 -20.6250 -17.1767 20.7741 3.0134 2.3851 31.2853
#
#
#
# Elastic Compliance Matrix: (Units=1/GPa)
#
#
# Indices 1 2 3 4 5 6 
#
# 1 0.031390 0.003580 -0.006833 0.004922 -0.022364 0.028427
# 2 0.003580 0.013325 -0.003615 0.001991 -0.004088 0.012196
# 3 -0.006833 -0.003615 0.015559 -0.003098 0.000702 -0.016576
# 4 0.004922 0.001991 -0.003098 0.020652 -0.007665 0.004990
# 5 -0.022364 -0.004088 0.000702 -0.007665 0.049039 -0.020454
# 6 0.028427 0.012196 -0.016576 0.004990 -0.020454 0.069487
#
#
# Mechanical properties :
#
#
# Convention : Reuss Voigt Hill
#
# Bulk Modulus (GPa) = 21.48793 33.76518 27.62655
# Shear Modulus (GPa) = 21.86266 38.71820 30.29043
#
# Velocity S-wave (km/s) = 3.05295 4.06280 3.59352
# Velocity P-wave (km/s) = 4.64630 6.03351 5.38476
#
# Compressibility (1/GPa) = 0.04653776
#
# Stress axis : x y z
#
# Youngs Moduli (GPa) = 31.85760 75.04535 64.27235
#
# Poissons Ratio (x) = -0.26866 0.43917
# Poissons Ratio (y) = -0.11405 0.23234
# Poissons Ratio (z) = 0.21768 0.27128
#
# Static dielectric constant tensor:
#      x y z
#    x 1.833510 -0.012480 0.014730 
#    y -0.012480 1.880520 0.039600 
#    z 0.014730 0.039600 1.895480 
# 
# From -- ./inp_files/36052.got.cif
#   From: 2010.05.17/outbox.cif.g08.bks.cpg/sg2_19_cif.got.tgz:36052.got - 2010.06.03 11:33:40.
