data_PCOD9066158
_publ_section_title
;
Structure prediction by ZEFSAII (Michael W. Deem and Ramdas Pophale) SiO2 
 PCOD9066158
Probable space group: P -1
;
_chemical_formula_sum "Si O2"
_cell_formula_units_Z 12
_cell_length_a 17.020361
_cell_length_b 21.958361
_cell_length_c 4.886655
_cell_angle_alpha 99.041174
_cell_angle_beta 80.898339
_cell_angle_gamma 165.414674
_cell_volume 454.059330
_symmetry_space_group_name_H-M "P -1"
_symmetry_group_IT_number 2
_symmetry_cell_setting 'triclinic'
loop_
_space_group_symop_operation_xyz
x,y,z
-x,-y,-z
loop_
_atom_site_type_symbol
_atom_site_label
_atom_site_fract_x
_atom_site_fract_y
_atom_site_fract_z
Si Si1 0.902147 0.625383 0.514748
Si Si2 0.372555 0.732171 0.176933
Si Si3 0.236183 0.769197 0.161653
Si Si4 0.495765 0.648920 0.942389
Si Si5 0.224901 0.989910 0.361825
Si Si6 0.058200 0.101876 0.337503
O O1 0.780587 0.549717 0.828867
O O2 0.063534 0.806446 0.425091
O O3 0.605842 0.394962 0.312345
O O4 0.124849 0.734488 0.424986
O O5 0.056048 0.467264 0.040654
O O6 0.469063 0.777501 0.446957
O O7 0.339077 0.780975 0.238727
O O8 0.652307 0.926328 0.951773
O O9 0.500000 0.000000 0.000000
O O10 0.607498 0.663512 0.815645
O O11 0.797826 0.903496 0.103677
O O12 0.994556 0.873911 0.463084
O O13 0.000000 0.000000 0.500000
#
# Coordination Sequence:
#
# PCOD9066158 Si02
#       6
#     2   2   2   2   2   2
#     4  12  25  45  71 106 145 187 242 300 354 433
#     4  11  27  49  73 108 150 191 237 305 354 431
#     4  11  25  49  76 110 146 194 247 292 364 429
#     4  11  25  45  69 105 137 191 235 296 363 424
#     4  12  27  47  72 106 147 187 242 299 365 428
#     4  11  25  47  74 103 143 189 246 294 369 433
#
# _framework density 26.428263000000001
#
# number of rings (size 3 to 8) (size 9 to 14) (size 15 to 20)
#    0.000    0.667    3.333    3.000    4.667    6.000 
#    0.000    0.000    0.000    0.000    0.000    0.000 
#    0.000    0.000    0.000    0.000    0.000    0.000 
#
# Total GULP energy -67413.982523 kJ/mol
# GULP energy per Si atom -5617.831877 kJ/mol
# Density = 2.636811 g / cm^3
# Si number density = 26.428263 Si / 1000 Ang^3
#
#
#
# Elastic Constant Matrix: (Units=GPa)
#
#
# Indices 1 2 3 4 5 6 
#
# 1 251.6188 71.7759 56.5985 -28.0599 -23.0104 25.9017
# 2 71.7759 93.5781 41.2902 -18.1035 -18.1145 5.6552
# 3 56.5985 41.2902 143.8521 -10.4552 -0.9025 11.8236
# 4 -28.0599 -18.1035 -10.4552 53.4448 14.6310 -5.1609
# 5 -23.0104 -18.1145 -0.9025 14.6310 46.4438 -9.1853
# 6 25.9017 5.6552 11.8236 -5.1609 -9.1853 43.9346
#
#
#
# Elastic Compliance Matrix: (Units=1/GPa)
#
#
# Indices 1 2 3 4 5 6 
#
# 1 0.005578 -0.003373 -0.000942 0.001216 0.000585 -0.002336
# 2 -0.003373 0.015752 -0.003181 0.001988 0.004164 0.001921
# 3 -0.000942 -0.003181 0.008393 0.000462 -0.002019 -0.001661
# 4 0.001216 0.001988 0.000462 0.021611 -0.005358 0.000321
# 5 0.000585 0.004164 -0.002019 -0.005358 0.025977 0.004464
# 6 -0.002336 0.001921 -0.001661 0.000321 0.004464 0.025309
#
#
# Mechanical properties :
#
#
# Convention : Reuss Voigt Hill
#
# Bulk Modulus (GPa) = 67.89364 92.04201 79.96782
# Shear Modulus (GPa) = 40.80886 50.05696 45.43291
#
# Velocity S-wave (km/s) = 3.93381 4.35681 4.15070
# Velocity P-wave (km/s) = 6.81019 7.75963 7.30036
#
# Compressibility (1/GPa) = 0.01472892
#
# Stress axis : x y z
#
# Youngs Moduli (GPa) = 179.27842 63.48506 119.14656
#
# Poissons Ratio (x) = 0.21413 0.11229
# Poissons Ratio (y) = 0.60469 0.37906
# Poissons Ratio (z) = 0.16897 0.20198
#
# Static dielectric constant tensor:
#      x y z
#    x 2.075980 -0.036310 -0.040900 
#    y -0.036310 2.160840 0.039380 
#    z -0.040900 0.039380 2.011470 
# 
# From -- ./inp_files/100568.got.cif
#   From: 2010.05.17/outbox.cif.g08.bks.cpg/sg2_51_cif.got.tgz:100568.got - 2010.06.03 11:33:40.
