data_PCOD9066864
_publ_section_title
;
Structure prediction by ZEFSAII (Michael W. Deem and Ramdas Pophale) SiO2 
 PCOD9066864
Probable space group: P -1
;
_chemical_formula_sum "Si O2"
_cell_formula_units_Z 16
_cell_length_a 9.820074
_cell_length_b 11.089423
_cell_length_c 17.306081
_cell_angle_alpha 150.553962
_cell_angle_beta 44.184721
_cell_angle_gamma 134.430472
_cell_volume 629.827912
_symmetry_space_group_name_H-M "P -1"
_symmetry_group_IT_number 2
_symmetry_cell_setting 'triclinic'
loop_
_space_group_symop_operation_xyz
x,y,z
-x,-y,-z
loop_
_atom_site_type_symbol
_atom_site_label
_atom_site_fract_x
_atom_site_fract_y
_atom_site_fract_z
Si Si1 0.018397 0.758490 0.549706
Si Si2 0.117875 0.042855 0.826897
Si Si3 0.783046 0.670013 0.823313
Si Si4 0.604031 0.831451 0.756272
Si Si5 0.825265 0.777846 0.357792
Si Si6 0.363566 0.655039 0.909522
Si Si7 0.496286 0.075767 0.320102
Si Si8 0.819643 0.444203 0.849066
O O1 0.119179 0.523517 0.372868
O O2 0.092026 0.918137 0.684499
O O3 0.084413 0.940190 0.550940
O O4 0.778700 0.680456 0.603114
O O5 0.288640 0.939407 0.744432
O O6 0.176346 0.343987 0.969561
O O7 0.907701 0.945234 0.902940
O O8 0.554355 0.630623 0.869296
O O9 0.812836 0.597907 0.858758
O O10 0.502463 0.813599 0.704485
O O11 0.451237 0.757400 0.846787
O O12 0.716289 0.123283 0.892085
O O13 0.775284 0.604403 0.205314
O O14 0.985438 0.669787 0.281619
O O15 0.629645 0.789327 0.494434
O O16 0.368773 0.788294 0.204052
#
# Coordination Sequence:
#
# PCOD9066864 Si02
#       8
#     2   2   2   2   2   2   2   2
#     4  12  25  48  72 101 142 182 235 285 341 415
#     4  12  28  43  73 103 137 189 231 280 355 403
#     4  12  26  48  70 101 146 181 229 291 342 413
#     4  11  25  47  71 100 145 178 231 290 337 411
#     4  12  27  46  73 104 137 189 229 285 349 406
#     4  11  27  45  72 106 138 182 232 286 345 410
#     4  12  26  47  69 105 141 185 230 284 345 412
#     4  12  26  47  70 102 143 182 232 287 344 412
#
# _framework density 25.403762
#
# number of rings (size 3 to 8) (size 9 to 14) (size 15 to 20)
#    0.000    0.250    3.750    4.500    8.750    2.500 
#    0.000    0.000    0.000    0.000    0.000    0.000 
#    0.000    0.000    0.000    0.000    0.000    0.000 
#
# Total GULP energy -89841.856214 kJ/mol
# GULP energy per Si atom -5615.116013 kJ/mol
# Density = 2.534594 g / cm^3
# Si number density = 25.403762 Si / 1000 Ang^3
#
#
#
# Elastic Constant Matrix: (Units=GPa)
#
#
# Indices 1 2 3 4 5 6 
#
# 1 144.6134 27.1053 28.5052 1.0709 3.6278 6.1318
# 2 27.1053 63.8361 6.5009 1.4272 1.9529 -2.6511
# 3 28.5052 6.5009 86.7756 13.8128 -2.1828 -5.1572
# 4 1.0709 1.4272 13.8128 33.2561 -2.8284 6.1505
# 5 3.6278 1.9529 -2.1828 -2.8284 40.2520 -9.1551
# 6 6.1318 -2.6511 -5.1572 6.1505 -9.1551 37.3310
#
#
#
# Elastic Compliance Matrix: (Units=1/GPa)
#
#
# Indices 1 2 3 4 5 6 
#
# 1 0.008224 -0.003300 -0.002861 0.001427 -0.001207 -0.002511
# 2 -0.003300 0.017166 0.000069 -0.001025 -0.000172 0.001897
# 3 -0.002861 0.000069 0.013698 -0.006170 0.001412 0.003730
# 4 0.001427 -0.001025 -0.006170 0.033896 0.000460 -0.006631
# 5 -0.001207 -0.000172 0.001412 0.000460 0.026624 0.006835
# 6 -0.002511 0.001897 0.003730 -0.006631 0.006835 0.030619
#
#
# Mechanical properties :
#
#
# Convention : Reuss Voigt Hill
#
# Bulk Modulus (GPa) = 37.16751 46.60532 41.88641
# Shear Modulus (GPa) = 33.03011 37.70874 35.36943
#
# Velocity S-wave (km/s) = 3.60975 3.85694 3.73539
# Velocity P-wave (km/s) = 5.66005 6.18226 5.92691
#
# Compressibility (1/GPa) = 0.02690522
#
# Stress axis : x y z
#
# Youngs Moduli (GPa) = 121.60120 58.25432 73.00386
#
# Poissons Ratio (x) = 0.19222 0.20886
# Poissons Ratio (y) = 0.40125 -0.00507
# Poissons Ratio (z) = 0.34790 -0.00405
#
# Static dielectric constant tensor:
#      x y z
#    x 1.920080 -0.015270 0.029560 
#    y -0.015270 2.026440 0.019210 
#    z 0.029560 0.019210 2.004230 
# 
# From -- ./inp_files/206461.got.cif
#   From: 2010.05.17/outbox.cif.g08.bks.cpg/sg2_104_cif.got.tgz:206461.got - 2010.06.03 11:33:40.
