data_PCOD9066077
_publ_section_title
;
Structure prediction by ZEFSAII (Michael W. Deem and Ramdas Pophale) SiO2 
 PCOD9066077
Probable space group: P -1
;
_chemical_formula_sum "Si O2"
_cell_formula_units_Z 16
_cell_length_a 14.786025
_cell_length_b 9.230975
_cell_length_c 9.756160
_cell_angle_alpha 63.561515
_cell_angle_beta 99.291006
_cell_angle_gamma 51.932577
_cell_volume 737.661644
_symmetry_space_group_name_H-M "P -1"
_symmetry_group_IT_number 2
_symmetry_cell_setting 'triclinic'
loop_
_space_group_symop_operation_xyz
x,y,z
-x,-y,-z
loop_
_atom_site_type_symbol
_atom_site_label
_atom_site_fract_x
_atom_site_fract_y
_atom_site_fract_z
Si Si1 0.365535 0.561579 0.069978
Si Si2 0.056970 0.072453 0.896688
Si Si3 0.976370 0.862160 0.631768
Si Si4 0.597287 0.866548 0.713876
Si Si5 0.065944 0.572452 0.041230
Si Si6 0.589710 0.784110 0.229279
Si Si7 0.651156 0.349585 0.292959
Si Si8 0.910048 0.460911 0.460023
O O1 0.389629 0.338228 0.152434
O O2 0.505162 0.444995 0.230491
O O3 0.338372 0.656734 0.867461
O O4 0.224501 0.807842 0.016979
O O5 0.016230 0.273795 0.903558
O O6 0.976111 0.228287 0.670225
O O7 0.000000 0.000000 0.000000
O O8 0.058491 0.623141 0.654690
O O9 0.802868 0.069344 0.502959
O O10 0.000000 0.000000 0.500000
O O11 0.038742 0.751725 0.845692
O O12 0.761494 0.689728 0.791389
O O13 0.500000 0.000000 0.500000
O O14 0.515683 0.079545 0.722138
O O15 0.000000 0.500000 0.000000
O O16 0.633403 0.549218 0.276754
O O17 0.735272 0.688565 0.341139
O O18 0.500000 0.000000 0.000000
O O19 0.000000 0.500000 0.500000
#
# Coordination Sequence:
#
# PCOD9066077 Si02
#       8
#     2   2   2   2   2   2   2   2
#     4  11  25  46  72 104 140 185 232 295 352 416
#     4  12  25  47  72 100 141 188 232 285 353 421
#     4  12  23  46  72  99 136 181 241 295 336 407
#     4  12  27  46  67  98 148 187 222 278 358 426
#     4  12  28  46  69 103 144 183 229 293 354 412
#     4  12  26  43  71 103 140 180 231 292 349 408
#     4  11  25  44  74 106 136 180 241 297 344 410
#     4  12  27  43  73 104 137 186 241 285 346 417
#
# _framework density 21.690161
#
# number of rings (size 3 to 8) (size 9 to 14) (size 15 to 20)
#    0.000    0.250    5.000    3.750    7.000    0.000 
#    0.000    1.250    0.000    0.000    0.000    0.000 
#    0.000    0.000    0.000    0.000    0.000    0.000 
#
# Total GULP energy -89503.370570 kJ/mol
# GULP energy per Si atom -5593.960661 kJ/mol
# Density = 2.164079 g / cm^3
# Si number density = 21.690161 Si / 1000 Ang^3
#
#
#
# Elastic Constant Matrix: (Units=GPa)
#
#
# Indices 1 2 3 4 5 6 
#
# 1 96.9709 21.6377 9.2395 -14.6392 25.6755 -5.5547
# 2 21.6377 132.9013 0.4796 9.8370 15.3041 -25.5295
# 3 9.2395 0.4796 89.7925 -5.6412 14.8984 -23.0215
# 4 -14.6392 9.8370 -5.6412 38.6384 -8.1209 8.4298
# 5 25.6755 15.3041 14.8984 -8.1209 38.7597 -4.0862
# 6 -5.5547 -25.5295 -23.0215 8.4298 -4.0862 35.3735
#
#
#
# Elastic Compliance Matrix: (Units=1/GPa)
#
#
# Indices 1 2 3 4 5 6 
#
# 1 0.013218 -0.001878 -0.000215 0.004219 -0.007180 -0.001255
# 2 -0.001878 0.010822 0.003190 -0.006241 -0.004449 0.010566
# 3 -0.000215 0.003190 0.015080 -0.002610 -0.006196 0.011989
# 4 0.004219 -0.006241 -0.002610 0.032746 0.006202 -0.012628
# 5 -0.007180 -0.004449 -0.006196 0.006202 0.035387 -0.005762
# 6 -0.001255 0.010566 0.011989 -0.012628 -0.005762 0.045844
#
#
# Mechanical properties :
#
#
# Convention : Reuss Voigt Hill
#
# Bulk Modulus (GPa) = 24.20422 42.48648 33.34535
# Shear Modulus (GPa) = 30.36283 41.77485 36.06884
#
# Velocity S-wave (km/s) = 3.74551 4.39336 4.08231
# Velocity P-wave (km/s) = 5.46703 6.73542 6.13410
#
# Compressibility (1/GPa) = 0.04131510
#
# Stress axis : x y z
#
# Youngs Moduli (GPa) = 75.65395 92.40013 66.31345
#
# Poissons Ratio (x) = 0.17350 0.01428
# Poissons Ratio (y) = 0.14206 -0.21157
# Poissons Ratio (z) = 0.01629 -0.29480
#
# Static dielectric constant tensor:
#      x y z
#    x 1.834780 0.080440 -0.078600 
#    y 0.080440 2.047180 -0.294860 
#    z -0.078600 -0.294860 2.011720 
# 
# From -- ./inp_files/297919.got.cif
#   From: 2010.05.17/outbox.cif.g08.bks.cpg/sg2_149_cif.got.tgz:297919.got - 2010.06.03 11:33:40.
