data_PCOD9066407
_publ_section_title
;
Structure prediction by ZEFSAII (Michael W. Deem and Ramdas Pophale) SiO2 
 PCOD9066407
Probable space group: P -1
;
_chemical_formula_sum "Si O2"
_cell_formula_units_Z 16
_cell_length_a 12.333292
_cell_length_b 9.242127
_cell_length_c 12.667165
_cell_angle_alpha 103.057761
_cell_angle_beta 60.944032
_cell_angle_gamma 53.488241
_cell_volume 690.199705
_symmetry_space_group_name_H-M "P -1"
_symmetry_group_IT_number 2
_symmetry_cell_setting 'triclinic'
loop_
_space_group_symop_operation_xyz
x,y,z
-x,-y,-z
loop_
_atom_site_type_symbol
_atom_site_label
_atom_site_fract_x
_atom_site_fract_y
_atom_site_fract_z
Si Si1 0.801917 0.749976 0.210052
Si Si2 0.279320 0.383059 0.231282
Si Si3 0.019003 0.101143 0.262673
Si Si4 0.086193 0.125125 0.651356
Si Si5 0.542486 0.736567 0.272026
Si Si6 0.551805 0.675538 0.631558
Si Si7 0.341251 0.997457 0.187963
Si Si8 0.769360 0.213179 0.087638
O O1 0.915158 0.730814 0.246803
O O2 0.665204 0.733374 0.288167
O O3 0.621062 0.040453 0.292630
O O4 0.000000 0.500000 0.000000
O O5 0.370483 0.344010 0.293969
O O6 0.220286 0.268672 0.255603
O O7 0.074594 0.680889 0.337471
O O8 0.462737 0.215830 0.025083
O O9 0.166323 0.037334 0.270586
O O10 0.777563 0.415541 0.419476
O O11 0.978460 0.967983 0.283516
O O12 0.174039 0.954157 0.061970
O O13 0.335002 0.874212 0.452348
O O14 0.695305 0.447267 0.120796
O O15 0.451578 0.901054 0.234880
O O16 0.408586 0.672627 0.727446
O O17 0.000000 0.000000 0.000000
#
# Coordination Sequence:
#
# PCOD9066407 Si02
#       8
#     2   2   2   2   2   2   2   2
#     4  12  27  50  73 105 149 197 245 300 366 435
#     4  11  25  47  73 111 141 193 247 302 363 435
#     4  12  27  46  76 110 148 192 238 307 368 431
#     4  12  28  45  74 110 149 191 246 300 366 440
#     4  12  26  48  72 108 147 193 246 305 363 433
#     4  12  26  48  76 110 148 190 249 300 361 443
#     4  11  25  45  77 106 146 189 247 301 369 431
#     4  12  27  47  74 107 149 195 243 299 368 436
#
# _framework density 23.181695000000001
#
# number of rings (size 3 to 8) (size 9 to 14) (size 15 to 20)
#    0.000    0.250    3.750    4.875    7.000    5.000 
#    0.000    0.000    0.000    0.000    0.000    0.000 
#    0.000    0.000    0.000    0.000    0.000    0.000 
#
# Total GULP energy -89574.741599 kJ/mol
# GULP energy per Si atom -5598.421350 kJ/mol
# Density = 2.312893 g / cm^3
# Si number density = 23.181695 Si / 1000 Ang^3
#
#
#
# Elastic Constant Matrix: (Units=GPa)
#
#
# Indices 1 2 3 4 5 6 
#
# 1 85.5024 6.8834 3.5836 -4.8217 -15.6221 6.4653
# 2 6.8834 51.5270 40.7661 14.9507 -5.3710 3.0435
# 3 3.5836 40.7661 88.6043 9.7729 -1.1785 20.3625
# 4 -4.8217 14.9507 9.7729 30.5895 1.4905 0.3446
# 5 -15.6221 -5.3710 -1.1785 1.4905 34.4887 -8.6053
# 6 6.4653 3.0435 20.3625 0.3446 -8.6053 29.9581
#
#
#
# Elastic Compliance Matrix: (Units=1/GPa)
#
#
# Indices 1 2 3 4 5 6 
#
# 1 0.013072 -0.002587 0.000806 0.002843 0.004998 -0.001703
# 2 -0.002587 0.038770 -0.018812 -0.013858 0.007765 0.011796
# 3 0.000806 -0.018812 0.023180 0.002375 -0.005795 -0.015710
# 4 0.002843 -0.013858 0.002375 0.039325 -0.003023 -0.002141
# 5 0.004998 0.007765 -0.005795 -0.003023 0.035468 0.012294
# 6 -0.001703 0.011796 -0.015710 -0.002141 0.012294 0.046783
#
#
# Mechanical properties :
#
#
# Convention : Reuss Voigt Hill
#
# Bulk Modulus (GPa) = 29.55490 36.45556 33.00523
# Shear Modulus (GPa) = 20.07509 30.63397 25.35453
#
# Velocity S-wave (km/s) = 2.94596 3.63915 3.31075
# Velocity P-wave (km/s) = 4.93442 5.78083 5.37432
#
# Compressibility (1/GPa) = 0.03383534
#
# Stress axis : x y z
#
# Youngs Moduli (GPa) = 76.49688 25.79317 43.14020
#
# Poissons Ratio (x) = 0.06674 -0.03477
# Poissons Ratio (y) = 0.19793 0.81156
# Poissons Ratio (z) = -0.06166 0.48523
#
# Static dielectric constant tensor:
#      x y z
#    x 1.676920 -0.115200 -0.053800 
#    y -0.115200 1.752600 -0.091850 
#    z -0.053800 -0.091850 1.842020 
# 
# From -- ./inp_files/274478.got.cif
#   From: 2010.05.17/outbox.cif.g08.bks.cpg/sg2_138_cif.got.tgz:274478.got - 2010.06.03 11:33:40.
