data_PCOD9066631
_publ_section_title
;
Structure prediction by ZEFSAII (Michael W. Deem and Ramdas Pophale) SiO2 
 PCOD9066631
Probable space group: P -1
;
_chemical_formula_sum "Si O2"
_cell_formula_units_Z 14
_cell_length_a 8.207120
_cell_length_b 9.995744
_cell_length_c 17.280242
_cell_angle_alpha 59.941182
_cell_angle_beta 30.842888
_cell_angle_gamma 63.352085
_cell_volume 628.497992
_symmetry_space_group_name_H-M "P -1"
_symmetry_group_IT_number 2
_symmetry_cell_setting 'triclinic'
loop_
_space_group_symop_operation_xyz
x,y,z
-x,-y,-z
loop_
_atom_site_type_symbol
_atom_site_label
_atom_site_fract_x
_atom_site_fract_y
_atom_site_fract_z
Si Si1 0.121129 0.381348 0.922056
Si Si2 0.741890 0.923313 0.725000
Si Si3 0.885711 0.781437 0.307728
Si Si4 0.328787 0.406720 0.419928
Si Si5 0.598041 0.926094 0.602276
Si Si6 0.337544 0.668440 0.014858
Si Si7 0.482838 0.883911 0.111805
O O1 0.402565 0.468262 0.738560
O O2 0.235550 0.239230 0.969547
O O3 0.864102 0.325164 0.983248
O O4 0.000000 0.500000 0.000000
O O5 0.666869 0.900930 0.672529
O O6 0.512589 0.051884 0.821833
O O7 0.639177 0.775932 0.857060
O O8 0.096197 0.978564 0.577149
O O9 0.681706 0.650818 0.469618
O O10 0.090593 0.720679 0.168068
O O11 0.151272 0.805572 0.257575
O O12 0.694690 0.946383 0.325164
O O13 0.404908 0.243396 0.388561
O O14 0.000000 0.500000 0.500000
O O15 0.500000 0.500000 0.000000
O O16 0.500000 0.000000 0.000000
#
# Coordination Sequence:
#
# PCOD9066631 Si02
#       7
#     2   2   2   2   2   2   2
#     4  12  28  47  72 105 144 192 234 293 358 419
#     4  11  25  46  72  99 146 182 240 288 355 419
#     4  12  26  45  75 106 138 188 241 293 357 417
#     4  12  26  47  73 105 148 182 237 294 357 422
#     4  11  26  45  75 107 137 189 239 295 351 423
#     4  12  29  47  71 106 146 187 239 296 359 423
#     4  12  25  45  73 105 143 186 240 288 355 427
#
# _framework density 22.275331000000001
#
# number of rings (size 3 to 8) (size 9 to 14) (size 15 to 20)
#    0.000    0.286    4.286    3.000    8.000    2.857 
#    0.000    0.000    0.000    0.000    0.000    0.000 
#    0.000    0.000    0.000    0.000    0.000    0.000 
#
# Total GULP energy -78170.975748 kJ/mol
# GULP energy per Si atom -5583.641125 kJ/mol
# Density = 2.222463 g / cm^3
# Si number density = 22.275331 Si / 1000 Ang^3
#
#
#
# Elastic Constant Matrix: (Units=GPa)
#
#
# Indices 1 2 3 4 5 6 
#
# 1 58.5869 36.6905 9.2257 10.4557 8.3811 -0.5271
# 2 36.6905 147.9431 35.6691 23.5504 5.8686 -19.6228
# 3 9.2257 35.6691 97.2495 -7.3870 15.5362 2.3093
# 4 10.4557 23.5504 -7.3870 46.7572 7.5877 -0.1370
# 5 8.3811 5.8686 15.5362 7.5877 32.2783 8.2467
# 6 -0.5271 -19.6228 2.3093 -0.1370 8.2467 43.8345
#
#
#
# Elastic Compliance Matrix: (Units=1/GPa)
#
#
# Indices 1 2 3 4 5 6 
#
# 1 0.021020 -0.005111 0.000459 -0.001393 -0.004091 -0.001294
# 2 -0.005111 0.010310 -0.003995 -0.004891 0.001378 0.004490
# 3 0.000459 -0.003995 0.013174 0.005060 -0.006613 -0.001217
# 4 -0.001393 -0.004891 0.005060 0.026102 -0.007048 -0.001065
# 5 -0.004091 0.001378 -0.006613 -0.007048 0.038242 -0.006300
# 6 -0.001294 0.004490 -0.001217 -0.001065 -0.006300 0.026053
#
#
# Mechanical properties :
#
#
# Convention : Reuss Voigt Hill
#
# Bulk Modulus (GPa) = 36.75178 51.88336 44.31757
# Shear Modulus (GPa) = 31.00503 39.38693 35.19598
#
# Velocity S-wave (km/s) = 3.73487 4.20954 3.97929
# Velocity P-wave (km/s) = 5.92736 6.85342 6.40715
#
# Compressibility (1/GPa) = 0.02720957
#
# Stress axis : x y z
#
# Youngs Moduli (GPa) = 47.57463 96.99757 75.90629
#
# Poissons Ratio (x) = 0.49578 -0.03485
# Poissons Ratio (y) = 0.24316 0.30323
# Poissons Ratio (z) = -0.02184 0.38748
#
# Static dielectric constant tensor:
#      x y z
#    x 1.782550 0.059600 -0.000090 
#    y 0.059600 2.017630 -0.007890 
#    z -0.000090 -0.007890 1.926050 
# 
# From -- ./inp_files/157450.got.cif
#   From: 2010.05.17/outbox.cif.g08.bks.cpg/sg2_79_cif.got.tgz:157450.got - 2010.06.03 11:33:40.
