data_PCOD9066051
_publ_section_title
;
Structure prediction by ZEFSAII (Michael W. Deem and Ramdas Pophale) SiO2 
 PCOD9066051
Probable space group: P -1
;
_chemical_formula_sum "Si O2"
_cell_formula_units_Z 14
_cell_length_a 18.576641
_cell_length_b 9.579895
_cell_length_c 9.110032
_cell_angle_alpha 118.819530
_cell_angle_beta 67.524862
_cell_angle_gamma 151.667724
_cell_volume 670.665856
_symmetry_space_group_name_H-M "P -1"
_symmetry_group_IT_number 2
_symmetry_cell_setting 'triclinic'
loop_
_space_group_symop_operation_xyz
x,y,z
-x,-y,-z
loop_
_atom_site_type_symbol
_atom_site_label
_atom_site_fract_x
_atom_site_fract_y
_atom_site_fract_z
Si Si1 0.457363 0.364687 0.125539
Si Si2 0.045128 0.736320 0.492191
Si Si3 0.558118 0.334929 0.538221
Si Si4 0.312103 0.422972 0.759432
Si Si5 0.146115 0.370169 0.053240
Si Si6 0.742105 0.399679 0.590683
Si Si7 0.874903 0.313453 0.880398
O O1 0.450758 0.504123 0.310097
O O2 0.586077 0.473707 0.140421
O O3 0.292545 0.993150 0.074428
O O4 0.500000 0.500000 0.000000
O O5 0.108075 0.785188 0.312951
O O6 0.000000 0.500000 0.500000
O O7 0.897707 0.589652 0.513805
O O8 0.173773 0.061943 0.642076
O O9 0.588126 0.384669 0.366891
O O10 0.693520 0.474050 0.581601
O O11 0.398323 0.967552 0.508678
O O12 0.244583 0.468537 0.895220
O O13 0.235981 0.529105 0.217464
O O14 0.101686 0.471595 0.099399
O O15 0.000000 0.000000 0.000000
O O16 0.000000 0.500000 0.000000
#
# Coordination Sequence:
#
# PCOD9066051 Si02
#       7
#     2   2   2   2   2   2   2
#     4  12  28  47  73 103 148 190 242 301 361 425
#     4  12  24  46  74 102 139 190 234 294 349 432
#     4  11  26  45  72 104 140 188 238 304 349 433
#     4  12  26  45  75 100 142 187 241 291 364 414
#     4  12  26  47  72 107 148 188 234 303 358 433
#     4  11  25  44  73 102 143 186 243 282 371 424
#     4  12  30  46  74 110 148 189 245 294 363 431
#
# _framework density 20.874776000000001
#
# number of rings (size 3 to 8) (size 9 to 14) (size 15 to 20)
#    0.000    0.286    4.286    3.000   10.000    4.000 
#    0.000    0.000    0.000    0.000    0.000    0.000 
#    0.000    0.000    0.000    0.000    0.000    0.000 
#
# Total GULP energy -78419.034559 kJ/mol
# GULP energy per Si atom -5601.359611 kJ/mol
# Density = 2.082726 g / cm^3
# Si number density = 20.874776 Si / 1000 Ang^3
#
#
#
# Elastic Constant Matrix: (Units=GPa)
#
#
# Indices 1 2 3 4 5 6 
#
# 1 70.4982 9.2699 22.5515 8.5314 12.9786 18.9178
# 2 9.2699 82.1979 4.5202 3.1541 2.9363 16.6884
# 3 22.5515 4.5202 94.4030 -10.3716 0.3953 7.7257
# 4 8.5314 3.1541 -10.3716 45.6429 1.7452 3.5275
# 5 12.9786 2.9363 0.3953 1.7452 46.2543 -2.0466
# 6 18.9178 16.6884 7.7257 3.5275 -2.0466 34.4006
#
#
#
# Elastic Compliance Matrix: (Units=1/GPa)
#
#
# Indices 1 2 3 4 5 6 
#
# 1 0.019718 0.000401 -0.004289 -0.003689 -0.005827 -0.010043
# 2 0.000401 0.013573 -0.000240 -0.000496 -0.001253 -0.006775
# 3 -0.004289 -0.000240 0.012061 0.003564 0.000957 -0.000542
# 4 -0.003689 -0.000496 0.003564 0.023511 0.000108 -0.000936
# 5 -0.005827 -0.001253 0.000957 0.000108 0.023543 0.004987
# 6 -0.010043 -0.006775 -0.000542 -0.000936 0.004987 0.038393
#
#
# Mechanical properties :
#
#
# Convention : Reuss Voigt Hill
#
# Bulk Modulus (GPa) = 26.95738 35.53134 31.24436
# Shear Modulus (GPa) = 33.02068 39.31004 36.16536
#
# Velocity S-wave (km/s) = 3.98156 4.34422 4.16684
# Velocity P-wave (km/s) = 5.83772 6.49778 6.17657
#
# Compressibility (1/GPa) = 0.03709559
#
# Stress axis : x y z
#
# Youngs Moduli (GPa) = 50.71494 73.67554 82.91318
#
# Poissons Ratio (x) = -0.02953 0.35558
# Poissons Ratio (y) = -0.02033 0.01994
# Poissons Ratio (z) = 0.21749 0.01772
#
# Static dielectric constant tensor:
#      x y z
#    x 1.707050 0.007140 -0.012230 
#    y 0.007140 1.745620 -0.008930 
#    z -0.012230 -0.008930 1.718590 
# 
# From -- ./inp_files/152841.got.cif
#   From: 2010.05.17/outbox.cif.g08.bks.cpg/sg2_77_cif.got.tgz:152841.got - 2010.06.03 11:33:40.
