data_PCOD9066756
_publ_section_title
;
Structure prediction by ZEFSAII (Michael W. Deem and Ramdas Pophale) SiO2 
 PCOD9066756
Probable space group: P -1
;
_chemical_formula_sum "Si O2"
_cell_formula_units_Z 15
_cell_length_a 8.603467
_cell_length_b 9.603832
_cell_length_c 7.818894
_cell_angle_alpha 70.973951
_cell_angle_beta 97.608722
_cell_angle_gamma 89.456305
_cell_volume 604.418807
_symmetry_space_group_name_H-M "P -1"
_symmetry_group_IT_number 2
_symmetry_cell_setting 'triclinic'
loop_
_space_group_symop_operation_xyz
x,y,z
-x,-y,-z
loop_
_atom_site_type_symbol
_atom_site_label
_atom_site_fract_x
_atom_site_fract_y
_atom_site_fract_z
Si Si1 0.073115 0.630732 0.561780
Si Si2 0.540679 0.457699 0.827424
Si Si3 0.867831 0.070585 0.072549
Si Si4 0.864960 0.393056 0.049515
Si Si5 0.544987 0.137066 0.840848
Si Si6 0.392196 0.743956 0.539601
Si Si7 0.150544 0.095290 0.525771
Si Si8 0.500000 0.000000 0.500000
O O1 0.172360 0.581829 0.765794
O O2 0.215792 0.718533 0.465911
O O3 0.000000 0.500000 0.500000
O O4 0.924629 0.738753 0.545147
O O5 0.479990 0.299766 0.823618
O O6 0.485074 0.588932 0.639648
O O7 0.500000 0.500000 0.000000
O O8 0.728156 0.435042 0.879659
O O9 0.916089 0.221214 0.107921
O O10 0.813299 0.955581 0.252551
O O11 0.727942 0.126022 0.908930
O O12 0.000000 0.000000 0.000000
O O13 0.000000 0.500000 0.000000
O O14 0.530987 0.135555 0.630887
O O15 0.500000 0.000000 0.000000
O O16 0.430548 0.849240 0.659502
O O17 0.301468 0.067872 0.438526
O O18 0.000000 0.000000 0.500000
#
# Coordination Sequence:
#
# PCOD9066756 Si02
#       8
#     2   2   2   2   2   2   2   1
#     4  12  28  48  80 116 165 218 271 339 419 499
#     4  11  26  48  76 106 156 201 261 334 396 480
#     4  11  25  46  75 108 153 202 262 332 402 481
#     4  11  26  47  70 111 150 203 266 323 407 484
#     4  11  27  46  73 113 157 200 262 328 408 489
#     4  12  26  49  79 115 162 209 273 335 414 489
#     4  12  25  50  78 114 158 211 273 336 409 495
#     4  12  28  46  86 118 156 214 280 342 414 486
#
# _framework density 24.817226000000002
#
# number of rings (size 3 to 8) (size 9 to 14) (size 15 to 20)
#    0.000    0.533    4.000    2.000   11.200    3.200 
#    0.000    0.000    0.000    0.000    0.000    0.000 
#    0.000    0.000    0.000    0.000    0.000    0.000 
#
# Total GULP energy -83624.257171 kJ/mol
# GULP energy per Si atom -5574.950478 kJ/mol
# Density = 2.476074 g / cm^3
# Si number density = 24.817226 Si / 1000 Ang^3
#
#
#
# Elastic Constant Matrix: (Units=GPa)
#
#
# Indices 1 2 3 4 5 6 
#
# 1 125.8072 77.3323 23.8417 -10.2233 -1.8391 2.2595
# 2 77.3323 191.2476 35.4211 -17.9827 0.1016 1.3298
# 3 23.8417 35.4211 116.2465 -8.7974 -3.3979 -5.0989
# 4 -10.2233 -17.9827 -8.7974 47.1572 -0.1907 3.2981
# 5 -1.8391 0.1016 -3.3979 -0.1907 34.8399 -7.1624
# 6 2.2595 1.3298 -5.0989 3.2981 -7.1624 48.9927
#
#
#
# Elastic Compliance Matrix: (Units=1/GPa)
#
#
# Indices 1 2 3 4 5 6 
#
# 1 0.010705 -0.004099 -0.000908 0.000622 0.000397 -0.000461
# 2 -0.004099 0.007282 -0.001278 0.001670 -0.000418 -0.000315
# 3 -0.000908 -0.001278 0.009335 0.000982 0.001107 0.001144
# 4 0.000622 0.001670 0.000982 0.022264 -0.000059 -0.001479
# 5 0.000397 -0.000418 0.001107 -0.000059 0.029750 0.004461
# 6 -0.000461 -0.000315 0.001144 -0.001479 0.004461 0.021312
#
#
# Mechanical properties :
#
#
# Convention : Reuss Voigt Hill
#
# Bulk Modulus (GPa) = 67.78614 78.49906 73.14260
# Shear Modulus (GPa) = 42.32441 45.97838 44.15139
#
# Velocity S-wave (km/s) = 4.13418 4.30895 4.22247
# Velocity P-wave (km/s) = 7.08252 7.51369 7.30129
#
# Compressibility (1/GPa) = 0.01475228
#
# Stress axis : x y z
#
# Youngs Moduli (GPa) = 93.41439 137.31673 107.12518
#
# Poissons Ratio (x) = 0.56286 0.09728
# Poissons Ratio (y) = 0.38290 0.13690
# Poissons Ratio (z) = 0.08483 0.17548
#
# Static dielectric constant tensor:
#      x y z
#    x 2.120790 0.197710 -0.135710 
#    y 0.197710 2.168080 -0.094190 
#    z -0.135710 -0.094190 2.143140 
# 
# From -- ./inp_files/156841.got.cif
#   From: 2010.05.17/outbox.cif.g08.bks.cpg/sg2_79_cif.got.tgz:156841.got - 2010.06.03 11:33:40.
