data_PCOD9066884
_publ_section_title
;
Structure prediction by ZEFSAII (Michael W. Deem and Ramdas Pophale) SiO2 
 PCOD9066884
Probable space group: P -1
;
_chemical_formula_sum "Si O2"
_cell_formula_units_Z 14
_cell_length_a 11.952727
_cell_length_b 11.167564
_cell_length_c 7.018527
_cell_angle_alpha 71.821349
_cell_angle_beta 63.402738
_cell_angle_gamma 45.411786
_cell_volume 596.589131
_symmetry_space_group_name_H-M "P -1"
_symmetry_group_IT_number 2
_symmetry_cell_setting 'triclinic'
loop_
_space_group_symop_operation_xyz
x,y,z
-x,-y,-z
loop_
_atom_site_type_symbol
_atom_site_label
_atom_site_fract_x
_atom_site_fract_y
_atom_site_fract_z
Si Si1 0.100245 0.707212 0.722846
Si Si2 0.369089 0.195190 0.948363
Si Si3 0.343084 0.591440 0.269014
Si Si4 0.097505 0.331614 0.394062
Si Si5 0.684359 0.916795 0.322152
Si Si6 0.146594 0.953994 0.049688
Si Si7 0.341813 0.468102 0.960774
O O1 0.260520 0.642064 0.512952
O O2 0.166471 0.606768 0.920560
O O3 0.020240 0.660702 0.665845
O O4 0.958568 0.903541 0.778099
O O5 0.287874 0.203006 0.810061
O O6 0.435992 0.292251 0.862825
O O7 0.238935 0.292776 0.169944
O O8 0.500000 0.000000 0.000000
O O9 0.537349 0.493152 0.182706
O O10 0.248246 0.768910 0.145816
O O11 0.322299 0.484464 0.197427
O O12 0.188679 0.182461 0.551378
O O13 0.000000 0.500000 0.500000
O O14 0.500000 0.000000 0.500000
O O15 0.725854 0.027487 0.148759
O O16 0.000000 0.000000 0.000000
#
# Coordination Sequence:
#
# PCOD9066884 Si02
#       7
#     2   2   2   2   2   2   2
#     4  12  25  46  72 106 142 196 244 304 380 433
#     4  12  25  48  73 107 146 196 248 306 376 455
#     4  11  25  47  71 107 146 194 243 306 377 443
#     4  12  27  44  74 107 146 190 246 311 374 436
#     4  12  27  48  74 110 149 198 250 307 375 453
#     4  12  25  47  76 108 152 191 253 310 370 445
#     4  11  26  45  73 103 150 188 250 307 369 452
#
# _framework density 23.466736000000001
#
# number of rings (size 3 to 8) (size 9 to 14) (size 15 to 20)
#    0.000    0.286    4.286    4.286    2.000    2.286 
#    2.571    0.000    0.000    0.000    0.000    0.000 
#    0.000    0.000    0.000    0.000    0.000    0.000 
#
# Total GULP energy -78288.615174 kJ/mol
# GULP energy per Si atom -5592.043941 kJ/mol
# Density = 2.341333 g / cm^3
# Si number density = 23.466736 Si / 1000 Ang^3
#
#
#
# Elastic Constant Matrix: (Units=GPa)
#
#
# Indices 1 2 3 4 5 6 
#
# 1 118.1435 27.5359 22.9336 8.4465 33.6610 12.1634
# 2 27.5359 85.9516 7.4079 23.4786 15.8387 8.0665
# 3 22.9336 7.4079 88.7995 23.6318 9.6052 7.7803
# 4 8.4465 23.4786 23.6318 45.6242 -7.6503 9.5493
# 5 33.6610 15.8387 9.6052 -7.6503 42.0875 4.6577
# 6 12.1634 8.0665 7.7803 9.5493 4.6577 40.5966
#
#
#
# Elastic Compliance Matrix: (Units=1/GPa)
#
#
# Indices 1 2 3 4 5 6 
#
# 1 0.011866 -0.001375 -0.001336 -0.001957 -0.008852 -0.001550
# 2 -0.001375 0.016159 0.002672 -0.010727 -0.007550 0.000079
# 3 -0.001336 0.002672 0.014429 -0.009402 -0.004926 -0.000119
# 4 -0.001957 -0.010727 -0.009402 0.036392 0.015001 -0.005761
# 5 -0.008852 -0.007550 -0.004926 0.015001 0.037839 -0.002773
# 6 -0.001550 0.000079 -0.000119 -0.005761 -0.002773 0.026778
#
#
# Mechanical properties :
#
#
# Convention : Reuss Voigt Hill
#
# Bulk Modulus (GPa) = 23.59867 45.40549 34.50208
# Shear Modulus (GPa) = 31.71292 41.32946 36.52119
#
# Velocity S-wave (km/s) = 3.68013 4.20121 3.94927
# Velocity P-wave (km/s) = 5.30432 6.55167 5.96072
#
# Compressibility (1/GPa) = 0.04237526
#
# Stress axis : x y z
#
# Youngs Moduli (GPa) = 84.27756 61.88614 69.30561
#
# Poissons Ratio (x) = 0.08509 0.09256
# Poissons Ratio (y) = 0.11587 -0.18515
# Poissons Ratio (z) = 0.11256 -0.16533
#
# Static dielectric constant tensor:
#      x y z
#    x 2.030180 0.014330 -0.150550 
#    y 0.014330 1.883030 0.009290 
#    z -0.150550 0.009290 2.049580 
# 
# From -- ./inp_files/69680.got.cif
#   From: 2010.05.17/outbox.cif.g08.bks.cpg/sg2_35_cif.got.tgz:69680.got - 2010.06.03 11:33:40.
