data_PCOD9066646
_publ_section_title
;
Structure prediction by ZEFSAII (Michael W. Deem and Ramdas Pophale) SiO2 
 PCOD9066646
Probable space group: P -1
;
_chemical_formula_sum "Si O2"
_cell_formula_units_Z 12
_cell_length_a 19.813138
_cell_length_b 8.614826
_cell_length_c 6.790235
_cell_angle_alpha 80.006045
_cell_angle_beta 67.118263
_cell_angle_gamma 33.361598
_cell_volume 560.442612
_symmetry_space_group_name_H-M "P -1"
_symmetry_group_IT_number 2
_symmetry_cell_setting 'triclinic'
loop_
_space_group_symop_operation_xyz
x,y,z
-x,-y,-z
loop_
_atom_site_type_symbol
_atom_site_label
_atom_site_fract_x
_atom_site_fract_y
_atom_site_fract_z
Si Si1 0.967563 0.969328 0.842169
Si Si2 0.320772 0.010432 0.097192
Si Si3 0.551977 0.784042 0.655403
Si Si4 0.149890 0.150485 0.918993
Si Si5 0.626114 0.308855 0.543753
Si Si6 0.804628 0.495134 0.620566
O O1 0.872400 0.992145 0.978029
O O2 0.106595 0.656978 0.646216
O O3 0.889710 0.229489 0.728730
O O4 0.000000 0.000000 0.000000
O O5 0.237061 0.075048 0.007567
O O6 0.221293 0.295550 0.284009
O O7 0.389243 0.758927 0.221273
O O8 0.428317 0.932934 0.888671
O O9 0.626381 0.495398 0.540854
O O10 0.659359 0.681454 0.691148
O O11 0.500000 0.000000 0.500000
O O12 0.000000 0.500000 0.000000
O O13 0.236528 0.998270 0.653657
O O14 0.500000 0.500000 0.500000
#
# Coordination Sequence:
#
# PCOD9066646 Si02
#       6
#     2   2   2   2   2   2
#     4  11  25  46  73 103 146 189 241 298 362 432
#     4  12  27  47  73 107 149 186 246 301 364 430
#     4  12  27  46  76 105 146 194 242 301 364 430
#     4  12  27  45  76 105 147 193 242 300 366 431
#     4  12  26  47  74 106 146 189 244 297 366 430
#     4  11  26  44  71 106 143 189 241 297 365 426
#
# _framework density 21.411650000000002
#
# number of rings (size 3 to 8) (size 9 to 14) (size 15 to 20)
#    0.000    0.333    1.667    6.000    9.333    5.333 
#    0.000    0.000    0.000    0.000    0.000    0.000 
#    0.000    0.000    0.000    0.000    0.000    0.000 
#
# Total GULP energy -67221.172258 kJ/mol
# GULP energy per Si atom -5601.764355 kJ/mol
# Density = 2.136292 g / cm^3
# Si number density = 21.411650 Si / 1000 Ang^3
#
#
#
# Elastic Constant Matrix: (Units=GPa)
#
#
# Indices 1 2 3 4 5 6 
#
# 1 125.8484 18.6449 66.6910 -7.2680 5.8519 1.4877
# 2 18.6449 103.6006 64.1693 -6.4888 -0.5326 9.2907
# 3 66.6910 64.1693 171.3047 5.7457 -0.7132 3.1049
# 4 -7.2680 -6.4888 5.7457 44.9083 6.2223 2.5504
# 5 5.8519 -0.5326 -0.7132 6.2223 41.4728 4.4487
# 6 1.4877 9.2907 3.1049 2.5504 4.4487 43.7319
#
#
#
# Elastic Compliance Matrix: (Units=1/GPa)
#
#
# Indices 1 2 3 4 5 6 
#
# 1 0.010463 0.001147 -0.004598 0.002727 -0.001924 -0.000236
# 2 0.001147 0.013250 -0.005464 0.002983 -0.000253 -0.002614
# 3 -0.004598 -0.005464 0.009766 -0.002977 0.001120 0.000683
# 4 0.002727 0.002983 -0.002977 0.024142 -0.003856 -0.001531
# 5 -0.001924 -0.000253 0.001120 -0.003856 0.025225 -0.002302
# 6 -0.000236 -0.002614 0.000683 -0.001531 -0.002302 0.023705
#
#
# Mechanical properties :
#
#
# Convention : Reuss Voigt Hill
#
# Bulk Modulus (GPa) = 63.89809 77.75156 70.82483
# Shear Modulus (GPa) = 38.58104 42.77250 40.67677
#
# Velocity S-wave (km/s) = 4.24945 4.47433 4.36334
# Velocity P-wave (km/s) = 7.34742 7.94257 7.65078
#
# Compressibility (1/GPa) = 0.01564992
#
# Stress axis : x y z
#
# Youngs Moduli (GPa) = 95.57835 75.47085 102.39095
#
# Poissons Ratio (x) = -0.08659 0.47081
# Poissons Ratio (y) = -0.10965 0.55944
# Poissons Ratio (z) = 0.43949 0.41235
#
# Static dielectric constant tensor:
#      x y z
#    x 1.725420 0.020470 -0.013900 
#    y 0.020470 1.767550 0.023930 
#    z -0.013900 0.023930 1.793380 
# 
# From -- ./inp_files/17170.got.cif
#   From: 2010.05.17/outbox.cif.g08.bks.cpg/sg2_9_cif.got.tgz:17170.got - 2010.06.03 11:33:40.
