data_PCOD9066251
_publ_section_title
;
Structure prediction by ZEFSAII (Michael W. Deem and Ramdas Pophale) SiO2 
 PCOD9066251
Probable space group: P -1
;
_chemical_formula_sum "Si O2"
_cell_formula_units_Z 15
_cell_length_a 12.309694
_cell_length_b 11.213066
_cell_length_c 14.710297
_cell_angle_alpha 109.413586
_cell_angle_beta 18.569569
_cell_angle_gamma 109.943432
_cell_volume 607.554747
_symmetry_space_group_name_H-M "P -1"
_symmetry_group_IT_number 2
_symmetry_cell_setting 'triclinic'
loop_
_space_group_symop_operation_xyz
x,y,z
-x,-y,-z
loop_
_atom_site_type_symbol
_atom_site_label
_atom_site_fract_x
_atom_site_fract_y
_atom_site_fract_z
Si Si1 0.030538 0.699835 0.000269
Si Si2 0.183358 0.250890 0.018961
Si Si3 0.208123 0.356106 0.573548
Si Si4 0.854269 0.150616 0.438555
Si Si5 0.714590 0.745422 0.706572
Si Si6 0.591712 0.502486 0.824234
Si Si7 0.500000 0.500000 0.500000
Si Si8 0.162950 0.885420 0.100262
O O1 0.977939 0.740685 0.949646
O O2 0.724860 0.616972 0.272976
O O3 0.131702 0.827384 0.010181
O O4 0.385053 0.626085 0.703056
O O5 0.426560 0.379199 0.874790
O O6 0.449783 0.141755 0.773116
O O7 0.951739 0.226577 0.286791
O O8 0.197538 0.339052 0.471048
O O9 0.146537 0.481463 0.708741
O O10 0.062456 0.221933 0.692114
O O11 0.017757 0.212496 0.417332
O O12 0.022615 0.018959 0.259757
O O13 0.463931 0.635947 0.925039
O O14 0.539471 0.865898 0.836813
O O15 0.000000 0.500000 0.500000
O O16 0.500000 0.500000 0.000000
#
# Coordination Sequence:
#
# PCOD9066251 Si02
#       8
#     2   2   2   2   2   2   1   2
#     4   9  24  45  69 109 138 191 244 293 378 415
#     4  12  27  48  74 107 150 198 234 308 363 444
#     4   9  23  42  70 107 138 185 242 300 362 418
#     4  12  29  48  73 106 149 199 251 288 369 434
#     4  11  25  45  72 107 139 191 238 308 361 426
#     4  12  25  46  70 105 147 181 239 291 367 438
#     4   8  20  44  66 100 144 174 242 296 360 428
#     4  11  26  46  74 103 144 197 248 307 349 434
#
# _framework density 24.689131
#
# number of rings (size 3 to 8) (size 9 to 14) (size 15 to 20)
#    0.800    0.533    2.667    0.400   11.200    4.267 
#    0.000    0.000    0.000    0.000    0.000    0.000 
#    0.000    0.000    0.000    0.000    0.000    0.000 
#
# Total GULP energy -83661.994033 kJ/mol
# GULP energy per Si atom -5577.466269 kJ/mol
# Density = 2.463294 g / cm^3
# Si number density = 24.689131 Si / 1000 Ang^3
#
#
#
# Elastic Constant Matrix: (Units=GPa)
#
#
# Indices 1 2 3 4 5 6 
#
# 1 221.0692 34.5697 35.5234 6.7672 21.2956 18.1267
# 2 34.5697 80.9713 -2.0973 22.7302 -6.5604 5.4401
# 3 35.5234 -2.0973 85.4928 6.3004 17.4705 -0.6077
# 4 6.7672 22.7302 6.3004 40.5225 -5.2410 3.0053
# 5 21.2956 -6.5604 17.4705 -5.2410 34.5534 4.5231
# 6 18.1267 5.4401 -0.6077 3.0053 4.5231 24.6839
#
#
#
# Elastic Compliance Matrix: (Units=1/GPa)
#
#
# Indices 1 2 3 4 5 6 
#
# 1 0.005763 -0.002716 -0.002037 0.000804 -0.002480 -0.003327
# 2 -0.002716 0.016219 0.001566 -0.008447 0.002815 -0.001029
# 3 -0.002037 0.001566 0.014248 -0.003851 -0.006652 0.003189
# 4 0.000804 -0.008447 -0.003851 0.030782 0.004972 -0.003482
# 5 -0.002480 0.002815 -0.006652 0.004972 0.035926 -0.006152
# 6 -0.003327 -0.001029 0.003189 -0.003482 -0.006152 0.044812
#
#
# Mechanical properties :
#
#
# Convention : Reuss Voigt Hill
#
# Bulk Modulus (GPa) = 33.49499 58.16944 45.83221
# Shear Modulus (GPa) = 30.47399 41.25444 35.86421
#
# Velocity S-wave (km/s) = 3.51708 4.09217 3.81548
# Velocity P-wave (km/s) = 5.48537 6.77788 6.16559
#
# Compressibility (1/GPa) = 0.02985521
#
# Stress axis : x y z
#
# Youngs Moduli (GPa) = 173.53212 61.65733 70.18690
#
# Poissons Ratio (x) = 0.16747 0.14299
# Poissons Ratio (y) = 0.47134 -0.10995
# Poissons Ratio (z) = 0.35353 -0.09659
#
# Static dielectric constant tensor:
#      x y z
#    x 2.239290 -0.114430 -0.364900 
#    y -0.114430 2.026810 0.128020 
#    z -0.364900 0.128020 2.749500 
# 
# From -- ./inp_files/518987.got.cif
#   From: 2010.05.17/outbox.cif.g08.bks.cpg/sg2_260_cif.got.tgz:518987.got - 2010.06.03 11:33:40.
