data_PCOD9066169
_publ_section_title
;
Structure prediction by ZEFSAII (Michael W. Deem and Ramdas Pophale) SiO2 
 PCOD9066169
Probable space group: P -1
;
_chemical_formula_sum "Si O2"
_cell_formula_units_Z 16
_cell_length_a 10.067514
_cell_length_b 9.993133
_cell_length_c 15.046099
_cell_angle_alpha 70.508088
_cell_angle_beta 106.438226
_cell_angle_gamma 50.213554
_cell_volume 798.449669
_symmetry_space_group_name_H-M "P -1"
_symmetry_group_IT_number 2
_symmetry_cell_setting 'triclinic'
loop_
_space_group_symop_operation_xyz
x,y,z
-x,-y,-z
loop_
_atom_site_type_symbol
_atom_site_label
_atom_site_fract_x
_atom_site_fract_y
_atom_site_fract_z
Si Si1 0.406583 0.929303 0.962795
Si Si2 0.321893 0.583536 0.874452
Si Si3 0.188935 0.885776 0.301501
Si Si4 0.065528 0.814047 0.115842
Si Si5 0.788240 0.231927 0.469118
Si Si6 0.223892 0.152700 0.683506
Si Si7 0.466447 0.694417 0.732289
Si Si8 0.308032 0.396304 0.581354
O O1 0.324234 0.016431 0.826196
O O2 0.171505 0.074968 0.935875
O O3 0.500000 0.000000 0.000000
O O4 0.597284 0.644810 0.073401
O O5 0.362690 0.652035 0.782215
O O6 0.500000 0.500000 0.000000
O O7 0.051420 0.821819 0.802874
O O8 0.157565 0.809128 0.227124
O O9 0.189016 0.801151 0.413689
O O10 0.434217 0.770884 0.369859
O O11 0.251873 0.558453 0.156153
O O12 0.000000 0.000000 0.000000
O O13 0.585135 0.297373 0.381881
O O14 0.741959 0.435145 0.395708
O O15 0.000000 0.000000 0.500000
O O16 0.314574 0.234716 0.659694
O O17 0.935195 0.399135 0.569331
O O18 0.334957 0.946296 0.681369
#
# Coordination Sequence:
#
# PCOD9066169 Si02
#       8
#     2   2   2   2   2   2   2   2
#     4  12  28  45  70 102 143 188 231 288 363 414
#     4  12  22  45  70 100 137 184 228 292 343 421
#     4  12  25  42  75 106 134 178 247 288 347 414
#     4  12  25  43  73 106 137 182 238 291 341 421
#     4  12  23  40  73 101 129 178 235 283 340 419
#     4  11  26  47  66 100 150 186 225 293 363 409
#     4  12  23  42  71 102 138 176 237 284 353 411
#     4  11  25  45  70 100 142 185 228 294 351 415
#
# _framework density 20.038833
#
# number of rings (size 3 to 8) (size 9 to 14) (size 15 to 20)
#    0.000    0.250    7.500    1.125    5.250    1.000 
#    0.000    1.875    0.000    0.000    0.000    0.000 
#    0.000    0.000    0.000    0.000    0.000    0.000 
#
# Total GULP energy -89302.913603 kJ/mol
# GULP energy per Si atom -5581.432100 kJ/mol
# Density = 1.999322 g / cm^3
# Si number density = 20.038833 Si / 1000 Ang^3
#
#
#
# Elastic Constant Matrix: (Units=GPa)
#
#
# Indices 1 2 3 4 5 6 
#
# 1 154.6173 73.2784 41.5620 -22.3458 3.6426 2.6104
# 2 73.2784 130.7450 50.3946 -33.4248 0.8033 -1.1205
# 3 41.5620 50.3946 82.2572 -9.8868 -2.3955 -4.3494
# 4 -22.3458 -33.4248 -9.8868 53.5628 -3.7022 6.0831
# 5 3.6426 0.8033 -2.3955 -3.7022 36.3891 -10.8466
# 6 2.6104 -1.1205 -4.3494 6.0831 -10.8466 39.9334
#
#
#
# Elastic Compliance Matrix: (Units=1/GPa)
#
#
# Indices 1 2 3 4 5 6 
#
# 1 0.009166 -0.004073 -0.002135 0.000963 -0.001301 -0.001446
# 2 -0.004073 0.013573 -0.005598 0.005838 0.000087 -0.000828
# 3 -0.002135 -0.005598 0.016686 -0.001454 0.002057 0.002580
# 4 0.000963 0.005838 -0.001454 0.022888 0.001035 -0.003263
# 5 -0.001301 0.000087 0.002057 0.001035 0.030353 0.008398
# 6 -0.001446 -0.000828 0.002580 -0.003263 0.008398 0.028172
#
#
# Mechanical properties :
#
#
# Convention : Reuss Voigt Hill
#
# Bulk Modulus (GPa) = 63.22777 77.56551 70.39664
# Shear Modulus (GPa) = 33.39552 39.46936 36.43244
#
# Velocity S-wave (km/s) = 4.08676 4.44288 4.26853
# Velocity P-wave (km/s) = 7.34097 8.06911 7.71364
#
# Compressibility (1/GPa) = 0.01581584
#
# Stress axis : x y z
#
# Youngs Moduli (GPa) = 109.10188 73.67339 59.92886
#
# Poissons Ratio (x) = 0.30004 0.12793
# Poissons Ratio (y) = 0.44433 0.33546
# Poissons Ratio (z) = 0.23291 0.41239
#
# Static dielectric constant tensor:
#      x y z
#    x 1.696140 -0.011910 0.041960 
#    y -0.011910 1.700060 -0.010080 
#    z 0.041960 -0.010080 1.826810 
# 
# From -- ./inp_files/494689.got.cif
#   From: 2010.05.17/outbox.cif.g08.bks.cpg/sg2_248_cif.got.tgz:494689.got - 2010.06.03 11:33:40.
