data_PCOD9066182
_publ_section_title
;
Structure prediction by ZEFSAII (Michael W. Deem and Ramdas Pophale) SiO2 
 PCOD9066182
Probable space group: P -1
;
_chemical_formula_sum "Si O2"
_cell_formula_units_Z 16
_cell_length_a 6.740128
_cell_length_b 16.431014
_cell_length_c 9.902989
_cell_angle_alpha 74.415347
_cell_angle_beta 45.426357
_cell_angle_gamma 74.082587
_cell_volume 746.637411
_symmetry_space_group_name_H-M "P -1"
_symmetry_group_IT_number 2
_symmetry_cell_setting 'triclinic'
loop_
_space_group_symop_operation_xyz
x,y,z
-x,-y,-z
loop_
_atom_site_type_symbol
_atom_site_label
_atom_site_fract_x
_atom_site_fract_y
_atom_site_fract_z
Si Si1 0.169834 0.186197 0.676029
Si Si2 0.315358 0.544647 0.188498
Si Si3 0.610888 0.926989 0.587973
Si Si4 0.349329 0.440965 0.495986
Si Si5 0.245892 0.143695 0.172028
Si Si6 0.987618 0.087521 0.053809
Si Si7 0.687790 0.260798 0.473608
Si Si8 0.636401 0.277190 0.812587
O O1 0.141182 0.123549 0.593059
O O2 0.490527 0.196380 0.534708
O O3 0.964606 0.267644 0.698625
O O4 0.083548 0.153051 0.873930
O O5 0.335162 0.483086 0.336340
O O6 0.456412 0.628934 0.127853
O O7 0.979646 0.562229 0.304756
O O8 0.500000 0.500000 0.000000
O O9 0.707681 0.926422 0.697838
O O10 0.331094 0.883729 0.766045
O O11 0.500000 0.000000 0.500000
O O12 0.500000 0.500000 0.500000
O O13 0.554447 0.351609 0.436991
O O14 0.165028 0.091666 0.102740
O O15 0.999797 0.217615 0.306824
O O16 0.492984 0.199973 0.984063
O O17 0.000000 0.000000 0.000000
O O18 0.627727 0.270087 0.658393
#
# Coordination Sequence:
#
# PCOD9066182 Si02
#       8
#     2   2   2   2   2   2   2   2
#     4  12  24  46  71 100 143 184 233 295 358 417
#     4  11  27  44  70 109 145 188 234 289 355 418
#     4  12  26  46  70 104 142 183 233 300 361 424
#     4  11  25  45  70 104 147 189 232 286 354 417
#     4  12  28  44  76 108 133 192 248 286 360 435
#     4  12  26  46  69 105 144 181 233 300 363 428
#     4  12  25  45  74 103 142 187 241 293 347 421
#     4  12  25  45  72 104 145 185 237 295 349 420
#
# _framework density 21.429411000000002
#
# number of rings (size 3 to 8) (size 9 to 14) (size 15 to 20)
#    0.000    0.250    8.750    0.000    1.750    4.500 
#    2.250    0.000    0.000    0.000    0.000    0.000 
#    0.000    0.000    0.000    0.000    0.000    0.000 
#
# Total GULP energy -89145.085957 kJ/mol
# GULP energy per Si atom -5571.567872 kJ/mol
# Density = 2.138064 g / cm^3
# Si number density = 21.429411 Si / 1000 Ang^3
#
#
#
# Elastic Constant Matrix: (Units=GPa)
#
#
# Indices 1 2 3 4 5 6 
#
# 1 121.0482 28.3237 41.5213 5.8051 29.8683 4.4586
# 2 28.3237 71.8268 20.1995 17.3864 19.3740 -0.9132
# 3 41.5213 20.1995 91.2381 20.9228 18.2332 8.1565
# 4 5.8051 17.3864 20.9228 29.7037 0.7566 6.0250
# 5 29.8683 19.3740 18.2332 0.7566 47.2789 3.9440
# 6 4.4586 -0.9132 8.1565 6.0250 3.9440 34.2721
#
#
#
# Elastic Compliance Matrix: (Units=1/GPa)
#
#
# Indices 1 2 3 4 5 6 
#
# 1 0.011327 -0.002714 -0.004213 0.002553 -0.004420 -0.000483
# 2 -0.002714 0.019533 0.000653 -0.011919 -0.006649 0.003579
# 3 -0.004213 0.000653 0.015925 -0.010488 -0.003498 -0.000978
# 4 0.002553 -0.011919 -0.010488 0.048885 0.007166 -0.007572
# 5 -0.004420 -0.006649 -0.003498 0.007166 0.028175 -0.003272
# 6 -0.000483 0.003579 -0.000978 -0.007572 -0.003272 0.031277
#
#
# Mechanical properties :
#
#
# Convention : Reuss Voigt Hill
#
# Bulk Modulus (GPa) = 29.20830 51.57801 40.39315
# Shear Modulus (GPa) = 27.92003 35.18884 31.55443
#
# Velocity S-wave (km/s) = 3.61346 4.05666 3.84146
# Velocity P-wave (km/s) = 5.57397 6.78697 6.21016
#
# Compressibility (1/GPa) = 0.03423685
#
# Stress axis : x y z
#
# Youngs Moduli (GPa) = 88.28282 51.19478 62.79517
#
# Poissons Ratio (x) = 0.13894 0.26456
# Poissons Ratio (y) = 0.23959 -0.04099
# Poissons Ratio (z) = 0.37194 -0.03342
#
# Static dielectric constant tensor:
#      x y z
#    x 1.800970 -0.046460 -0.026990 
#    y -0.046460 1.685940 -0.034860 
#    z -0.026990 -0.034860 1.747040 
# 
# From -- ./inp_files/107821.got.cif
#   From: 2010.05.17/outbox.cif.g08.bks.cpg/sg2_54_cif.got.tgz:107821.got - 2010.06.03 11:33:40.
