data_PCOD9066451
_publ_section_title
;
Structure prediction by ZEFSAII (Michael W. Deem and Ramdas Pophale) SiO2 
 PCOD9066451
Probable space group: P -1
;
_chemical_formula_sum "Si O2"
_cell_formula_units_Z 16
_cell_length_a 9.148164
_cell_length_b 7.802197
_cell_length_c 11.365957
_cell_angle_alpha 69.369565
_cell_angle_beta 86.455467
_cell_angle_gamma 54.880376
_cell_volume 610.408561
_symmetry_space_group_name_H-M "P -1"
_symmetry_group_IT_number 2
_symmetry_cell_setting 'triclinic'
loop_
_space_group_symop_operation_xyz
x,y,z
-x,-y,-z
loop_
_atom_site_type_symbol
_atom_site_label
_atom_site_fract_x
_atom_site_fract_y
_atom_site_fract_z
Si Si1 0.906419 0.810112 0.882133
Si Si2 0.353838 0.216945 0.654357
Si Si3 0.957868 0.920111 0.405109
Si Si4 0.423354 0.747414 0.747065
Si Si5 0.716120 0.479355 0.634735
Si Si6 0.037504 0.389004 0.331526
Si Si7 0.285922 0.446520 0.012683
Si Si8 0.546413 0.155231 0.889377
O O1 0.808708 0.684667 0.945189
O O2 0.941600 0.751392 0.752830
O O3 0.758294 0.046879 0.899637
O O4 0.101499 0.699052 0.959498
O O5 0.342092 0.372127 0.515464
O O6 0.161871 0.372082 0.698260
O O7 0.502918 0.156981 0.756215
O O8 0.414999 0.973608 0.664805
O O9 0.133771 0.775928 0.349717
O O10 0.926476 0.745319 0.514005
O O11 0.000000 0.000000 0.500000
O O12 0.791216 0.121888 0.290374
O O13 0.533972 0.557557 0.688491
O O14 0.551641 0.646433 0.879729
O O15 0.819881 0.550630 0.694340
O O16 0.397795 0.394810 0.899136
O O17 0.500000 0.000000 0.000000
#
# Coordination Sequence:
#
# PCOD9066451 Si02
#       8
#     2   2   2   2   2   2   2   2
#     4  10  19  29  50  83 122 149 178 231 289 336
#     4  11  18  31  52  88 120 145 179 235 288 335
#     4  11  26  42  56  82 119 156 191 237 289 341
#     4  12  21  34  62  80 120 151 190 231 292 341
#     4  11  22  36  60  91 111 144 191 245 289 342
#     4  11  19  36  60  87 119 146 189 242 286 338
#     4  10  20  30  47  86 122 148 178 229 292 339
#     4  10  18  28  46  78 127 149 171 222 296 339
#
# _framework density 26.211953000000001
#
# number of rings (size 3 to 8) (size 9 to 14) (size 15 to 20)
#    0.000    1.250    7.500    1.125    1.750    1.500 
#    0.000    0.000    0.000    0.750    0.000    1.750 
#    0.000    0.000    0.000    0.000    0.000    0.000 
#
# Total GULP energy -89401.293674 kJ/mol
# GULP energy per Si atom -5587.580855 kJ/mol
# Density = 2.615229 g / cm^3
# Si number density = 26.211953 Si / 1000 Ang^3
#
#
#
# Elastic Constant Matrix: (Units=GPa)
#
#
# Indices 1 2 3 4 5 6 
#
# 1 73.3197 47.5585 37.0219 -8.6746 -8.5102 -14.3873
# 2 47.5585 177.8326 47.0164 -2.0822 10.0483 -58.1649
# 3 37.0219 47.0164 98.5817 -9.0379 10.8395 -30.1868
# 4 -8.6746 -2.0822 -9.0379 39.6017 -14.9487 8.6326
# 5 -8.5102 10.0483 10.8395 -14.9487 48.4646 3.8963
# 6 -14.3873 -58.1649 -30.1868 8.6326 3.8963 52.2523
#
#
#
# Elastic Compliance Matrix: (Units=1/GPa)
#
#
# Indices 1 2 3 4 5 6 
#
# 1 0.023249 -0.007487 -0.008313 0.008909 0.010967 -0.009025
# 2 -0.007487 0.012105 0.001498 -0.006427 -0.007258 0.013881
# 3 -0.008313 0.001498 0.016005 -0.002825 -0.006994 0.009613
# 4 0.008909 -0.006427 -0.002825 0.034906 0.015360 -0.013246
# 5 0.010967 -0.007258 -0.006994 0.015360 0.031491 -0.013986
# 6 -0.009025 0.013881 0.009613 -0.013246 -0.013986 0.040890
#
#
# Mechanical properties :
#
#
# Convention : Reuss Voigt Hill
#
# Bulk Modulus (GPa) = 43.94679 68.10305 56.02492
# Shear Modulus (GPa) = 25.66302 42.60622 34.13462
#
# Velocity S-wave (km/s) = 3.13238 4.03606 3.61259
# Velocity P-wave (km/s) = 5.46670 6.91070 6.23067
#
# Compressibility (1/GPa) = 0.02275479
#
# Stress axis : x y z
#
# Youngs Moduli (GPa) = 43.01288 82.61390 62.48054
#
# Poissons Ratio (x) = 0.61852 0.51940
# Poissons Ratio (y) = 0.32203 -0.09360
# Poissons Ratio (z) = 0.35756 -0.12376
#
# Static dielectric constant tensor:
#      x y z
#    x 2.139950 0.074220 -0.039960 
#    y 0.074220 2.192420 -0.036980 
#    z -0.039960 -0.036980 2.030400 
# 
# From -- ./inp_files/216757.got.cif
#   From: 2010.05.17/outbox.cif.g08.bks.cpg/sg2_109_cif.got.tgz:216757.got - 2010.06.03 11:33:40.
