data_PCOD9066116
_publ_section_title
;
Structure prediction by ZEFSAII (Michael W. Deem and Ramdas Pophale) SiO2 
 PCOD9066116
Probable space group: P -1
;
_chemical_formula_sum "Si O2"
_cell_formula_units_Z 15
_cell_length_a 17.987277
_cell_length_b 12.129811
_cell_length_c 11.307092
_cell_angle_alpha 143.006407
_cell_angle_beta 151.537928
_cell_angle_gamma 31.859814
_cell_volume 607.181275
_symmetry_space_group_name_H-M "P -1"
_symmetry_group_IT_number 2
_symmetry_cell_setting 'triclinic'
loop_
_space_group_symop_operation_xyz
x,y,z
-x,-y,-z
loop_
_atom_site_type_symbol
_atom_site_label
_atom_site_fract_x
_atom_site_fract_y
_atom_site_fract_z
Si Si1 0.957626 0.289042 0.278797
Si Si2 0.793170 0.737861 0.207740
Si Si3 0.457615 0.249227 0.439887
Si Si4 0.924407 0.176290 0.872094
Si Si5 0.434254 0.506773 0.045430
Si Si6 0.445141 0.881547 0.963927
Si Si7 0.916911 0.613159 0.858346
Si Si8 0.500000 0.500000 0.500000
O O1 0.123727 0.295979 0.574630
O O2 0.955024 0.265814 0.115257
O O3 0.762373 0.467247 0.205877
O O4 0.998800 0.068323 0.205946
O O5 0.606775 0.735957 0.971127
O O6 0.959449 0.564066 0.215889
O O7 0.716981 0.953896 0.207686
O O8 0.592500 0.285993 0.742426
O O9 0.292759 0.308071 0.350904
O O10 0.417220 0.415832 0.420517
O O11 0.493701 0.032284 0.239825
O O12 0.709640 0.303097 0.655329
O O13 0.040629 0.202784 0.954906
O O14 0.500000 0.500000 0.000000
O O15 0.567593 0.288442 0.117120
O O16 0.000000 0.500000 0.000000
#
# Coordination Sequence:
#
# PCOD9066116 Si02
#       8
#     2   2   2   2   2   2   2   1
#     4  11  26  46  70 112 148 196 255 315 378 450
#     4  11  25  47  76 112 148 193 261 324 376 459
#     4  12  27  48  80 112 151 207 253 321 385 456
#     4  11  25  44  77 108 149 199 253 307 385 462
#     4  12  29  49  71 112 159 202 252 316 388 461
#     4  11  27  48  79 114 146 208 265 306 385 464
#     4  12  24  45  71 113 150 190 253 319 385 445
#     4  12  22  46  80 110 146 200 262 304 376 472
#
# _framework density 24.704319999999999
#
# number of rings (size 3 to 8) (size 9 to 14) (size 15 to 20)
#    0.000    0.533    4.000    2.400    9.333    3.733 
#    0.000    2.000    0.000    0.000    0.000    0.000 
#    0.000    0.000    0.000    0.000    0.000    0.000 
#
# Total GULP energy -83655.442844 kJ/mol
# GULP energy per Si atom -5577.029523 kJ/mol
# Density = 2.464809 g / cm^3
# Si number density = 24.704320 Si / 1000 Ang^3
#
#
#
# Elastic Constant Matrix: (Units=GPa)
#
#
# Indices 1 2 3 4 5 6 
#
# 1 173.9345 37.1096 32.1427 0.5156 17.9647 14.1226
# 2 37.1096 82.9060 23.2250 1.2290 10.8773 2.4924
# 3 32.1427 23.2250 73.1589 -10.7987 -5.4291 2.8932
# 4 0.5156 1.2290 -10.7987 45.0473 -5.6475 0.1851
# 5 17.9647 10.8773 -5.4291 -5.6475 47.1833 5.0377
# 6 14.1226 2.4924 2.8932 0.1851 5.0377 44.8839
#
#
#
# Elastic Compliance Matrix: (Units=1/GPa)
#
#
# Indices 1 2 3 4 5 6 
#
# 1 0.007078 -0.002011 -0.002736 -0.000987 -0.002488 -0.001656
# 2 -0.002011 0.014621 -0.004297 -0.001831 -0.003370 0.000484
# 3 -0.002736 -0.004297 0.017326 0.004890 0.004671 -0.000562
# 4 -0.000987 -0.001831 0.004890 0.023971 0.004281 -0.000482
# 5 -0.002488 -0.003370 0.004671 0.004281 0.024188 -0.002064
# 6 -0.001656 0.000484 -0.000562 -0.000482 -0.002064 0.023044
#
#
# Mechanical properties :
#
#
# Convention : Reuss Voigt Hill
#
# Bulk Modulus (GPa) = 47.76553 57.21712 52.49132
# Shear Modulus (GPa) = 36.95610 43.25770 40.10690
#
# Velocity S-wave (km/s) = 3.87193 4.18906 4.03361
# Velocity P-wave (km/s) = 6.27423 6.82705 6.55647
#
# Compressibility (1/GPa) = 0.02093560
#
# Stress axis : x y z
#
# Youngs Moduli (GPa) = 141.27660 68.39669 57.71683
#
# Poissons Ratio (x) = 0.13755 0.15793
# Poissons Ratio (y) = 0.28411 0.24803
# Poissons Ratio (z) = 0.38658 0.29392
#
# Static dielectric constant tensor:
#      x y z
#    x 1.947740 -0.033310 0.006050 
#    y -0.033310 2.002950 0.050310 
#    z 0.006050 0.050310 2.202980 
# 
# From -- ./inp_files/465159.got.cif
#   From: 2010.05.17/outbox.cif.g08.bks.cpg/sg2_233_cif.got.tgz:465159.got - 2010.06.03 11:33:40.
