data_PCOD9066175
_publ_section_title
;
Structure prediction by ZEFSAII (Michael W. Deem and Ramdas Pophale) SiO2 
 PCOD9066175
Probable space group: P -1
;
_chemical_formula_sum "Si O2"
_cell_formula_units_Z 14
_cell_length_a 11.483109
_cell_length_b 14.891072
_cell_length_c 8.798195
_cell_angle_alpha 32.191095
_cell_angle_beta 125.091971
_cell_angle_gamma 130.415455
_cell_volume 608.948206
_symmetry_space_group_name_H-M "P -1"
_symmetry_group_IT_number 2
_symmetry_cell_setting 'triclinic'
loop_
_space_group_symop_operation_xyz
x,y,z
-x,-y,-z
loop_
_atom_site_type_symbol
_atom_site_label
_atom_site_fract_x
_atom_site_fract_y
_atom_site_fract_z
Si Si1 0.477783 0.314996 0.160323
Si Si2 0.999986 0.248919 0.999970
Si Si3 0.477732 0.002447 0.160300
Si Si4 0.245456 0.640572 0.161279
Si Si5 0.245367 0.443606 0.161229
Si Si6 0.194202 0.103576 0.784128
Si Si7 0.805734 0.693470 0.215851
O O1 0.500015 0.164180 0.500013
O O2 0.500000 0.500000 0.000000
O O3 0.611983 0.388453 0.032863
O O4 0.311142 0.246474 0.056241
O O5 0.064590 0.323282 0.774397
O O6 0.862454 0.290772 0.914568
O O7 0.137421 0.342903 0.085375
O O8 0.935487 0.033116 0.225566
O O9 0.611887 0.190668 0.032791
O O10 0.311077 0.008395 0.056222
O O11 0.500000 0.000000 0.000000
O O12 0.169461 0.520932 0.127652
O O13 0.287904 0.502316 0.499913
O O14 0.287816 0.285648 0.499862
O O15 0.132754 0.170551 0.791682
#
# Coordination Sequence:
#
# PCOD9066175 Si02
#       7
#     2   2   2   2   2   2   2
#     4  12  25  44  73 102 134 176 229 287 342 407
#     4  12  24  42  72 100 142 190 228 276 330 412
#     4  12  25  44  73 102 134 176 229 287 342 407
#     4  11  25  45  70 102 141 182 227 282 341 401
#     4  11  25  45  70 102 141 182 227 282 341 401
#     4  11  25  45  70 102 141 182 227 282 341 401
#     4  11  25  45  70 102 141 182 227 282 341 401
#
# _framework density 22.990459999999999
#
# number of rings (size 3 to 8) (size 9 to 14) (size 15 to 20)
#    0.000    0.571    2.857    5.143    0.000    6.857 
#    0.000    0.000    0.000    0.000    0.000    0.000 
#    0.000    0.000    0.000    0.000    0.000    0.000 
#
# Total GULP energy -78253.127039 kJ/mol
# GULP energy per Si atom -5589.509074 kJ/mol
# Density = 2.293813 g / cm^3
# Si number density = 22.990460 Si / 1000 Ang^3
#
#
#
# Elastic Constant Matrix: (Units=GPa)
#
#
# Indices 1 2 3 4 5 6 
#
# 1 97.2916 70.5740 25.7608 -0.8170 -9.5376 -26.8254
# 2 70.5740 121.5194 29.6510 -10.9214 2.5969 -38.7361
# 3 25.7608 29.6510 129.7914 -16.0632 -21.6577 -11.8580
# 4 -0.8170 -10.9214 -16.0632 24.8416 0.3659 -3.9410
# 5 -9.5376 2.5969 -21.6577 0.3659 26.2794 -4.8287
# 6 -26.8254 -38.7361 -11.8580 -3.9410 -4.8287 48.4861
#
#
#
# Elastic Compliance Matrix: (Units=1/GPa)
#
#
# Indices 1 2 3 4 5 6 
#
# 1 0.020120 -0.011402 -0.000221 -0.004227 0.008765 0.002498
# 2 -0.011402 0.018727 -0.001075 0.008599 -0.005424 0.008549
# 3 -0.000221 -0.001075 0.010666 0.006773 0.009293 0.003104
# 4 -0.004227 0.008599 0.006773 0.049906 0.004467 0.010689
# 5 0.008765 -0.005424 0.009293 0.004467 0.050876 0.008219
# 6 0.002498 0.008549 0.003104 0.010689 0.008219 0.031283
#
#
# Mechanical properties :
#
#
# Convention : Reuss Voigt Hill
#
# Bulk Modulus (GPa) = 41.46304 66.73043 54.09674
# Shear Modulus (GPa) = 23.25432 34.76253 29.00843
#
# Velocity S-wave (km/s) = 3.18382 3.89272 3.55598
# Velocity P-wave (km/s) = 5.62047 7.02087 6.35933
#
# Compressibility (1/GPa) = 0.02411786
#
# Stress axis : x y z
#
# Youngs Moduli (GPa) = 49.70118 53.39818 93.75172
#
# Poissons Ratio (x) = 0.60886 0.02072
# Poissons Ratio (y) = 0.56670 0.10077
# Poissons Ratio (z) = 0.01098 0.05739
#
# Static dielectric constant tensor:
#      x y z
#    x 1.885960 -0.020310 -0.010550 
#    y -0.020310 1.893030 -0.011650 
#    z -0.010550 -0.011650 1.841390 
# 
# From -- ./inp_files/218225.got.cif
#   From: 2010.05.17/outbox.cif.g08.bks.cpg/sg2_110_cif.got.tgz:218225.got - 2010.06.03 11:33:40.
