data_PCOD9066446
_publ_section_title
;
Structure prediction by ZEFSAII (Michael W. Deem and Ramdas Pophale) SiO2 
 PCOD9066446
Probable space group: P -1
;
_chemical_formula_sum "Si O2"
_cell_formula_units_Z 15
_cell_length_a 12.769837
_cell_length_b 11.203859
_cell_length_c 9.629337
_cell_angle_alpha 132.388686
_cell_angle_beta 40.417464
_cell_angle_gamma 122.797934
_cell_volume 658.562230
_symmetry_space_group_name_H-M "P -1"
_symmetry_group_IT_number 2
_symmetry_cell_setting 'triclinic'
loop_
_space_group_symop_operation_xyz
x,y,z
-x,-y,-z
loop_
_atom_site_type_symbol
_atom_site_label
_atom_site_fract_x
_atom_site_fract_y
_atom_site_fract_z
Si Si1 0.373644 0.952571 0.711390
Si Si2 0.919968 0.864626 0.374392
Si Si3 0.947671 0.232010 0.119108
Si Si4 0.432948 0.235236 0.404193
Si Si5 0.006872 0.603932 0.290709
Si Si6 0.500000 0.500000 0.000000
Si Si7 0.189875 0.265903 0.155053
Si Si8 0.384289 0.572312 0.872333
O O1 0.230305 0.830652 0.702790
O O2 0.457762 0.864775 0.683172
O O3 0.500000 0.000000 0.500000
O O4 0.293601 0.114280 0.965530
O O5 0.728093 0.870589 0.557059
O O6 0.950688 0.692114 0.278556
O O7 0.000000 0.000000 0.500000
O O8 0.000052 0.870272 0.146474
O O9 0.947241 0.416807 0.214893
O O10 0.078115 0.221960 0.100449
O O11 0.381413 0.392988 0.665802
O O12 0.529027 0.304159 0.227784
O O13 0.925399 0.689589 0.569130
O O14 0.200391 0.617165 0.114553
O O15 0.684378 0.586433 0.895558
O O16 0.485717 0.568150 0.907684
#
# Coordination Sequence:
#
# PCOD9066446 Si02
#       8
#     2   2   2   2   2   1   2   2
#     4  12  28  48  78 110 153 203 258 322 387 450
#     4  12  26  48  78 112 156 200 256 314 387 462
#     4  12  26  50  76 112 152 205 259 311 388 459
#     4  11  26  50  75 115 151 202 254 320 385 451
#     4  12  26  47  76 115 150 207 251 315 376 467
#     4  12  24  46  72 116 150 200 246 320 376 454
#     4  12  28  47  75 113 156 199 256 315 381 459
#     4  11  25  45  79 110 157 196 258 313 378 461
#
# _framework density 22.776890999999999
#
# number of rings (size 3 to 8) (size 9 to 14) (size 15 to 20)
#    0.000    0.267    2.667    5.200    7.467    2.133 
#    0.000    4.000    0.000    0.000    0.000    0.000 
#    0.000    0.000    0.000    0.000    0.000    0.000 
#
# Total GULP energy -83899.357910 kJ/mol
# GULP energy per Si atom -5593.290527 kJ/mol
# Density = 2.272505 g / cm^3
# Si number density = 22.776891 Si / 1000 Ang^3
#
#
#
# Elastic Constant Matrix: (Units=GPa)
#
#
# Indices 1 2 3 4 5 6 
#
# 1 178.9208 61.9230 69.8699 -27.3277 -1.8659 6.3283
# 2 61.9230 103.6243 67.4633 -30.7090 -7.0316 4.9115
# 3 69.8699 67.4633 152.3326 -15.1811 0.1905 -0.8952
# 4 -27.3277 -30.7090 -15.1811 33.8378 -3.9925 -4.3325
# 5 -1.8659 -7.0316 0.1905 -3.9925 35.7989 -7.2020
# 6 6.3283 4.9115 -0.8952 -4.3325 -7.2020 50.4202
#
#
#
# Elastic Compliance Matrix: (Units=1/GPa)
#
#
# Indices 1 2 3 4 5 6 
#
# 1 0.007735 -0.002129 -0.002283 0.003259 0.000263 -0.000486
# 2 -0.002129 0.019426 -0.006261 0.013754 0.005313 0.000205
# 3 -0.002283 -0.006261 0.010079 -0.003124 -0.001636 0.000573
# 4 0.003259 0.013754 -0.003124 0.044688 0.008526 0.003254
# 5 0.000263 0.005313 -0.001636 0.008526 0.030869 0.004562
# 6 -0.000486 0.000205 0.000573 0.003254 0.004562 0.020816
#
#
# Mechanical properties :
#
#
# Convention : Reuss Voigt Hill
#
# Bulk Modulus (GPa) = 62.92313 92.59889 77.76101
# Shear Modulus (GPa) = 31.19984 39.71949 35.45966
#
# Velocity S-wave (km/s) = 3.70510 4.18047 3.94994
# Velocity P-wave (km/s) = 6.78156 8.00280 7.41736
#
# Compressibility (1/GPa) = 0.01589241
#
# Stress axis : x y z
#
# Youngs Moduli (GPa) = 129.27635 51.47843 99.21740
#
# Poissons Ratio (x) = 0.10960 0.22656
# Poissons Ratio (y) = 0.27524 0.62122
# Poissons Ratio (z) = 0.29519 0.32232
#
# Static dielectric constant tensor:
#      x y z
#    x 1.788700 0.005030 0.010840 
#    y 0.005030 1.866370 0.033950 
#    z 0.010840 0.033950 1.850870 
# 
# From -- ./inp_files/263277.got.cif
#   From: 2010.05.17/outbox.cif.g08.bks.cpg/sg2_132_cif.got.tgz:263277.got - 2010.06.03 11:33:40.
