data_PCOD9066453
_publ_section_title
;
Structure prediction by ZEFSAII (Michael W. Deem and Ramdas Pophale) SiO2 
 PCOD9066453
Probable space group: P -1
;
_chemical_formula_sum "Si O2"
_cell_formula_units_Z 12
_cell_length_a 4.839947
_cell_length_b 9.872141
_cell_length_c 15.599326
_cell_angle_alpha 137.650854
_cell_angle_beta 93.564790
_cell_angle_gamma 104.512702
_cell_volume 449.750190
_symmetry_space_group_name_H-M "P -1"
_symmetry_group_IT_number 2
_symmetry_cell_setting 'triclinic'
loop_
_space_group_symop_operation_xyz
x,y,z
-x,-y,-z
loop_
_atom_site_type_symbol
_atom_site_label
_atom_site_fract_x
_atom_site_fract_y
_atom_site_fract_z
Si Si1 0.794680 0.882704 0.617541
Si Si2 0.739801 0.181965 0.526073
Si Si3 0.204920 0.653721 0.798832
Si Si4 0.211952 0.165174 0.211666
Si Si5 0.344530 0.284038 0.013269
Si Si6 0.305059 0.686568 0.136834
O O1 0.082802 0.912865 0.578738
O O2 0.763629 0.113695 0.738272
O O3 0.472546 0.732890 0.493190
O O4 0.815101 0.790000 0.667802
O O5 0.012845 0.386725 0.674405
O O6 0.500000 0.000000 0.500000
O O7 0.433742 0.738880 0.761825
O O8 0.432661 0.742477 0.924929
O O9 0.950687 0.738517 0.813404
O O10 0.007132 0.898557 0.071785
O O11 0.385111 0.537920 0.136794
O O12 0.446369 0.241780 0.901018
O O13 0.000000 0.500000 0.000000
#
# Coordination Sequence:
#
# PCOD9066453 Si02
#       6
#     2   2   2   2   2   2
#     4  12  27  51  80 115 156 202 266 318 380 472
#     4  12  30  52  80 112 158 205 259 327 388 457
#     4  12  29  49  76 114 157 209 259 313 390 468
#     4  12  26  49  79 113 155 208 258 319 388 454
#     4  11  26  47  75 119 162 199 262 325 389 463
#     4  11  25  45  80 115 153 205 254 322 397 442
#
# _framework density 26.681481999999999
#
# number of rings (size 3 to 8) (size 9 to 14) (size 15 to 20)
#    0.000    0.333    1.667    5.500    7.000    5.333 
#    0.000    0.000    0.000    0.000    0.000    0.000 
#    0.000    0.000    0.000    0.000    0.000    0.000 
#
# Total GULP energy -67387.643717 kJ/mol
# GULP energy per Si atom -5615.636976 kJ/mol
# Density = 2.662075 g / cm^3
# Si number density = 26.681482 Si / 1000 Ang^3
#
#
#
# Elastic Constant Matrix: (Units=GPa)
#
#
# Indices 1 2 3 4 5 6 
#
# 1 171.9128 36.6767 29.7850 8.1215 -3.0326 22.7009
# 2 36.6767 114.5249 26.0277 -2.3825 -8.0576 9.2965
# 3 29.7850 26.0277 90.4597 -4.7242 23.6172 22.7365
# 4 8.1215 -2.3825 -4.7242 52.7326 1.2269 17.2372
# 5 -3.0326 -8.0576 23.6172 1.2269 46.4926 -3.1472
# 6 22.7009 9.2965 22.7365 17.2372 -3.1472 50.0453
#
#
#
# Elastic Compliance Matrix: (Units=1/GPa)
#
#
# Indices 1 2 3 4 5 6 
#
# 1 0.006709 -0.001605 -0.001572 -0.000699 0.000859 -0.001736
# 2 -0.001605 0.010230 -0.003454 0.000134 0.003458 0.000568
# 3 -0.001572 -0.003454 0.017859 0.004909 -0.010519 -0.009111
# 4 -0.000699 0.000134 0.004909 0.022895 -0.003801 -0.010063
# 5 0.000859 0.003458 -0.010519 -0.003801 0.028070 0.006822
# 6 -0.001736 0.000568 -0.009111 -0.010063 0.006822 0.028698
#
#
# Mechanical properties :
#
#
# Convention : Reuss Voigt Hill
#
# Bulk Modulus (GPa) = 46.42894 62.43069 54.42982
# Shear Modulus (GPa) = 37.06445 48.81463 42.93954
#
# Velocity S-wave (km/s) = 3.73117 4.28194 4.01601
# Velocity P-wave (km/s) = 6.00009 6.92070 6.47677
#
# Compressibility (1/GPa) = 0.02153829
#
# Stress axis : x y z
#
# Youngs Moduli (GPa) = 149.05402 97.74735 55.99538
#
# Poissons Ratio (x) = 0.15684 0.08800
# Poissons Ratio (y) = 0.23916 0.19339
# Poissons Ratio (z) = 0.23426 0.33759
#
# Static dielectric constant tensor:
#      x y z
#    x 2.041120 -0.021080 -0.054740 
#    y -0.021080 2.090260 -0.004350 
#    z -0.054740 -0.004350 2.110260 
# 
# From -- ./inp_files/359513.got.cif
#   From: 2010.05.17/outbox.cif.g08.bks.cpg/sg2_180_cif.got.tgz:359513.got - 2010.06.03 11:33:40.
