data_PCOD9066025
_publ_section_title
;
Structure prediction by ZEFSAII (Michael W. Deem and Ramdas Pophale) SiO2 
 PCOD9066025
Probable space group: P -1
;
_chemical_formula_sum "Si O2"
_cell_formula_units_Z 16
_cell_length_a 11.950530
_cell_length_b 12.233178
_cell_length_c 12.126417
_cell_angle_alpha 35.564883
_cell_angle_beta 79.461172
_cell_angle_gamma 108.213476
_cell_volume 598.918465
_symmetry_space_group_name_H-M "P -1"
_symmetry_group_IT_number 2
_symmetry_cell_setting 'triclinic'
loop_
_space_group_symop_operation_xyz
x,y,z
-x,-y,-z
loop_
_atom_site_type_symbol
_atom_site_label
_atom_site_fract_x
_atom_site_fract_y
_atom_site_fract_z
Si Si1 0.714550 0.390786 0.795872
Si Si2 0.647091 0.329818 0.327975
Si Si3 0.014618 0.920011 0.891283
Si Si4 0.846670 0.627199 0.819629
Si Si5 0.145098 0.811956 0.142043
Si Si6 0.686595 0.879088 0.472577
Si Si7 0.374925 0.181367 0.004012
Si Si8 0.202091 0.886971 0.504718
O O1 0.866088 0.725278 0.425258
O O2 0.745930 0.504665 0.821075
O O3 0.756606 0.226487 0.912048
O O4 0.494808 0.145354 0.005201
O O5 0.420320 0.069824 0.583625
O O6 0.706724 0.196259 0.446167
O O7 0.710263 0.459821 0.085568
O O8 0.790523 0.635612 0.132177
O O9 0.111028 0.916046 0.782058
O O10 0.050802 0.844837 0.055479
O O11 0.000000 0.000000 0.500000
O O12 0.979968 0.617904 0.799329
O O13 0.000000 0.500000 0.500000
O O14 0.289846 0.098096 0.967695
O O15 0.691769 0.871341 0.610159
O O16 0.537726 0.540992 0.718120
O O17 0.225052 0.985338 0.293774
#
# Coordination Sequence:
#
# PCOD9066025 Si02
#       8
#     2   2   2   2   2   2   2   2
#     4  11  25  45  74 104 141 190 235 296 354 418
#     4  12  24  41  71 107 144 187 228 294 362 418
#     4  11  26  49  71 108 142 185 241 291 354 427
#     4  12  21  40  70 102 147 185 229 285 357 426
#     4  12  28  49  73 102 139 189 242 295 353 422
#     4  11  25  44  72 105 142 186 233 293 358 424
#     4  11  25  48  67 103 140 186 240 291 351 423
#     4  12  24  42  70 107 145 183 235 292 355 429
#
# _framework density 26.714821000000001
#
# number of rings (size 3 to 8) (size 9 to 14) (size 15 to 20)
#    0.000    0.500    2.500    6.000    5.250    2.500 
#    4.500    0.000    0.000    0.000    0.000    0.000 
#    0.000    0.000    0.000    0.000    0.000    0.000 
#
# Total GULP energy -89727.466358 kJ/mol
# GULP energy per Si atom -5607.966647 kJ/mol
# Density = 2.665402 g / cm^3
# Si number density = 26.714821 Si / 1000 Ang^3
#
#
#
# Elastic Constant Matrix: (Units=GPa)
#
#
# Indices 1 2 3 4 5 6 
#
# 1 133.7765 36.8066 12.6238 -6.3117 -3.6549 11.5160
# 2 36.8066 174.1866 30.8466 -2.7178 11.2262 20.8978
# 3 12.6238 30.8466 71.9289 4.5500 1.2240 5.7871
# 4 -6.3117 -2.7178 4.5500 35.5965 8.4788 7.0695
# 5 -3.6549 11.2262 1.2240 8.4788 49.5303 -2.0102
# 6 11.5160 20.8978 5.7871 7.0695 -2.0102 55.0886
#
#
#
# Elastic Compliance Matrix: (Units=1/GPa)
#
#
# Indices 1 2 3 4 5 6 
#
# 1 0.008147 -0.001444 -0.000818 0.001534 0.000636 -0.001243
# 2 -0.001444 0.006936 -0.002598 0.001537 -0.001972 -0.002326
# 3 -0.000818 -0.002598 0.015313 -0.002409 0.000557 -0.000123
# 4 0.001534 0.001537 -0.002409 0.031111 -0.005698 -0.004851
# 5 0.000636 -0.001972 0.000557 -0.005698 0.021730 0.002081
# 6 -0.001243 -0.002326 -0.000123 -0.004851 0.002081 0.020006
#
#
# Mechanical properties :
#
#
# Convention : Reuss Voigt Hill
#
# Bulk Modulus (GPa) = 48.36707 60.04955 54.20831
# Shear Modulus (GPa) = 41.71726 48.01741 44.86733
#
# Velocity S-wave (km/s) = 3.95597 4.24418 4.10261
# Velocity P-wave (km/s) = 6.24584 6.82233 6.54044
#
# Compressibility (1/GPa) = 0.02067522
#
# Stress axis : x y z
#
# Youngs Moduli (GPa) = 122.75194 144.16891 65.30404
#
# Poissons Ratio (x) = 0.20824 0.05343
# Poissons Ratio (y) = 0.17731 0.16964
# Poissons Ratio (z) = 0.10043 0.37450
#
# Static dielectric constant tensor:
#      x y z
#    x 2.226390 -0.055600 0.019200 
#    y -0.055600 2.047570 -0.016610 
#    z 0.019200 -0.016610 2.133090 
# 
# From -- ./inp_files/427404.got.cif
#   From: 2010.05.17/outbox.cif.g08.bks.cpg/sg2_214_cif.got.tgz:427404.got - 2010.06.03 11:33:40.
