data_PCOD9066865
_publ_section_title
;
Structure prediction by ZEFSAII (Michael W. Deem and Ramdas Pophale) SiO2 
 PCOD9066865
Probable space group: P -1
;
_chemical_formula_sum "Si O2"
_cell_formula_units_Z 12
_cell_length_a 13.514929
_cell_length_b 8.552317
_cell_length_c 11.069681
_cell_angle_alpha 113.571831
_cell_angle_beta 33.568803
_cell_angle_gamma 90.173984
_cell_volume 491.952015
_symmetry_space_group_name_H-M "P -1"
_symmetry_group_IT_number 2
_symmetry_cell_setting 'triclinic'
loop_
_space_group_symop_operation_xyz
x,y,z
-x,-y,-z
loop_
_atom_site_type_symbol
_atom_site_label
_atom_site_fract_x
_atom_site_fract_y
_atom_site_fract_z
Si Si1 0.462110 0.057311 0.388035
Si Si2 0.896166 0.541420 0.752355
Si Si3 0.836380 0.093660 0.362203
Si Si4 0.771357 0.235578 0.748067
Si Si5 0.400629 0.228135 0.240719
Si Si6 0.634303 0.274039 0.372038
O O1 0.253868 0.047349 0.597408
O O2 0.454224 0.169168 0.307090
O O3 0.479498 0.196150 0.511553
O O4 0.701811 0.801118 0.058290
O O5 0.786651 0.421867 0.827342
O O6 0.000000 0.500000 0.500000
O O7 0.121772 0.413642 0.568046
O O8 0.774896 0.205653 0.590817
O O9 0.717270 0.261945 0.420697
O O10 0.117691 0.921935 0.006360
O O11 0.542413 0.290142 0.052661
O O12 0.000000 0.000000 0.500000
O O13 0.500000 0.000000 0.000000
O O14 0.500000 0.500000 0.500000
#
# Coordination Sequence:
#
# PCOD9066865 Si02
#       6
#     2   2   2   2   2   2
#     4  12  26  46  70 101 142 179 231 288 347 415
#     4  12  24  40  67 104 144 182 221 280 343 415
#     4  11  25  47  71 101 138 181 236 285 350 412
#     4  12  23  42  72 106 146 184 223 279 353 423
#     4  12  23  44  65 107 145 179 226 277 348 422
#     4  11  28  50  71  98 133 185 245 295 340 407
#
# _framework density 24.392623
#
# number of rings (size 3 to 8) (size 9 to 14) (size 15 to 20)
#    0.000    0.333    5.000    2.500    0.000   12.667 
#    0.000    0.000    0.000    0.000    0.000    0.000 
#    0.000    0.000    0.000    0.000    0.000    0.000 
#
# Total GULP energy -67353.692611 kJ/mol
# GULP energy per Si atom -5612.807718 kJ/mol
# Density = 2.433710 g / cm^3
# Si number density = 24.392623 Si / 1000 Ang^3
#
#
#
# Elastic Constant Matrix: (Units=GPa)
#
#
# Indices 1 2 3 4 5 6 
#
# 1 155.8750 76.3154 51.4954 7.5450 -16.2656 -21.4953
# 2 76.3154 164.4767 61.8573 2.2668 -16.9462 4.4181
# 3 51.4954 61.8573 86.2541 -19.2699 -21.0332 -5.7234
# 4 7.5450 2.2668 -19.2699 43.4858 -4.5440 -8.9137
# 5 -16.2656 -16.9462 -21.0332 -4.5440 38.8071 -11.9047
# 6 -21.4953 4.4181 -5.7234 -8.9137 -11.9047 59.6651
#
#
#
# Elastic Compliance Matrix: (Units=1/GPa)
#
#
# Indices 1 2 3 4 5 6 
#
# 1 0.009872 -0.003161 -0.003482 -0.002207 0.001673 0.003461
# 2 -0.003161 0.010139 -0.007130 -0.004139 -0.002371 -0.003665
# 3 -0.003482 -0.007130 0.025856 0.015187 0.013265 0.006669
# 4 -0.002207 -0.004139 0.015187 0.033279 0.011949 0.008324
# 5 0.001673 -0.002371 0.013265 0.011949 0.037495 0.011317
# 6 0.003461 -0.003665 0.006669 0.008324 0.011317 0.022420
#
#
# Mechanical properties :
#
#
# Convention : Reuss Voigt Hill
#
# Bulk Modulus (GPa) = 54.58338 87.32688 70.95513
# Shear Modulus (GPa) = 28.94944 42.85411 35.90177
#
# Velocity S-wave (km/s) = 3.44875 4.19602 3.84060
# Velocity P-wave (km/s) = 6.18741 7.70414 6.98705
#
# Compressibility (1/GPa) = 0.01832060
#
# Stress axis : x y z
#
# Youngs Moduli (GPa) = 101.29521 98.62571 38.67583
#
# Poissons Ratio (x) = 0.31176 0.13468
# Poissons Ratio (y) = 0.32020 0.27576
# Poissons Ratio (z) = 0.35274 0.70321
#
# Static dielectric constant tensor:
#      x y z
#    x 1.962110 -0.041720 -0.007470 
#    y -0.041720 2.660990 -0.021210 
#    z -0.007470 -0.021210 1.894210 
# 
# From -- ./inp_files/446166.got.cif
#   From: 2010.05.17/outbox.cif.g08.bks.cpg/sg2_224_cif.got.tgz:446166.got - 2010.06.03 11:33:40.
