data_PCOD9066553
_publ_section_title
;
Structure prediction by ZEFSAII (Michael W. Deem and Ramdas Pophale) SiO2 
 PCOD9066553
Probable space group: P -1
;
_chemical_formula_sum "Si O2"
_cell_formula_units_Z 15
_cell_length_a 16.137125
_cell_length_b 9.641204
_cell_length_c 8.122192
_cell_angle_alpha 72.441034
_cell_angle_beta 116.838847
_cell_angle_gamma 143.470983
_cell_volume 666.688617
_symmetry_space_group_name_H-M "P -1"
_symmetry_group_IT_number 2
_symmetry_cell_setting 'triclinic'
loop_
_space_group_symop_operation_xyz
x,y,z
-x,-y,-z
loop_
_atom_site_type_symbol
_atom_site_label
_atom_site_fract_x
_atom_site_fract_y
_atom_site_fract_z
Si Si1 0.203120 0.281090 0.187499
Si Si2 0.193981 0.472840 0.576350
Si Si3 0.482885 0.886201 0.862444
Si Si4 0.714994 0.925097 0.502962
Si Si5 0.430680 0.743744 0.398948
Si Si6 0.623116 0.754709 0.109770
Si Si7 0.902732 0.922071 0.196094
Si Si8 0.000000 0.500000 0.500000
O O1 0.232650 0.154651 0.325696
O O2 0.346427 0.556319 0.242725
O O3 0.152453 0.210653 0.980088
O O4 0.068164 0.179238 0.212850
O O5 0.308354 0.639113 0.770912
O O6 0.313081 0.592943 0.495208
O O7 0.103575 0.215908 0.628960
O O8 0.088730 0.483649 0.475596
O O9 0.536886 0.053353 0.701285
O O10 0.579371 0.860646 0.973722
O O11 0.500000 0.000000 0.000000
O O12 0.587039 0.851409 0.519157
O O13 0.638909 0.778675 0.314351
O O14 0.852742 0.204723 0.493510
O O15 0.785475 0.900470 0.146578
O O16 0.500000 0.500000 0.000000
#
# Coordination Sequence:
#
# PCOD9066553 Si02
#       8
#     2   2   2   2   2   2   2   1
#     4  11  26  45  72 106 151 189 250 310 373 445
#     4  12  25  46  74 101 150 191 245 309 364 446
#     4  12  24  47  71 106 150 192 243 305 373 437
#     4  12  26  47  75 111 148 196 249 305 376 441
#     4  12  26  44  72 110 143 194 246 306 370 447
#     4  12  25  44  78 109 145 197 252 302 372 444
#     4  11  25  46  71 106 144 196 242 311 372 437
#     4  12  26  46  76 108 150 198 246 306 376 442
#
# _framework density 22.499258000000001
#
# number of rings (size 3 to 8) (size 9 to 14) (size 15 to 20)
#    0.000    0.267    5.333    3.200    3.733    1.067 
#    0.000    0.667    0.000    0.000    0.000    0.000 
#    0.000    0.000    0.000    0.000    0.000    0.000 
#
# Total GULP energy -83687.665048 kJ/mol
# GULP energy per Si atom -5579.177670 kJ/mol
# Density = 2.244805 g / cm^3
# Si number density = 22.499258 Si / 1000 Ang^3
#
#
#
# Elastic Constant Matrix: (Units=GPa)
#
#
# Indices 1 2 3 4 5 6 
#
# 1 179.3631 33.6371 8.9841 -15.5726 8.0500 19.7644
# 2 33.6371 118.7274 26.9341 6.5562 0.8539 -3.9441
# 3 8.9841 26.9341 63.4395 -6.1702 -14.4639 -3.4834
# 4 -15.5726 6.5562 -6.1702 34.6068 -5.9087 -1.9736
# 5 8.0500 0.8539 -14.4639 -5.9087 33.5566 -5.9265
# 6 19.7644 -3.9441 -3.4834 -1.9736 -5.9265 43.0926
#
#
#
# Elastic Compliance Matrix: (Units=1/GPa)
#
#
# Indices 1 2 3 4 5 6 
#
# 1 0.006684 -0.002058 -0.000403 0.002819 -0.001831 -0.003409
# 2 -0.002058 0.010437 -0.005070 -0.004184 -0.002526 0.000950
# 3 -0.000403 -0.005070 0.021355 0.006685 0.011189 0.003292
# 4 0.002819 -0.004184 0.006685 0.033694 0.008524 0.001580
# 5 -0.001831 -0.002526 0.011189 0.008524 0.037884 0.007113
# 6 -0.003409 0.000950 0.003292 0.001580 0.007113 0.026173
#
#
# Mechanical properties :
#
#
# Convention : Reuss Voigt Hill
#
# Bulk Modulus (GPa) = 42.71276 55.62676 49.16976
# Shear Modulus (GPa) = 31.42789 41.71615 36.57202
#
# Velocity S-wave (km/s) = 3.74149 4.31061 4.03609
# Velocity P-wave (km/s) = 6.13924 7.03937 6.60465
#
# Compressibility (1/GPa) = 0.02341221
#
# Stress axis : x y z
#
# Youngs Moduli (GPa) = 149.61160 95.81515 46.82787
#
# Poissons Ratio (x) = 0.19718 0.01888
# Poissons Ratio (y) = 0.30789 0.23744
# Poissons Ratio (z) = 0.06034 0.48583
#
# Static dielectric constant tensor:
#      x y z
#    x 1.812840 0.018120 -0.034160 
#    y 0.018120 1.788310 -0.009170 
#    z -0.034160 -0.009170 1.845710 
# 
# From -- ./inp_files/298333.got.cif
#   From: 2010.05.17/outbox.cif.g08.bks.cpg/sg2_150_cif.got.tgz:298333.got - 2010.06.03 11:33:40.
