data_PCOD9066504
_publ_section_title
;
Structure prediction by ZEFSAII (Michael W. Deem and Ramdas Pophale) SiO2 
 PCOD9066504
Probable space group: P -1
;
_chemical_formula_sum "Si O2"
_cell_formula_units_Z 15
_cell_length_a 9.342374
_cell_length_b 8.676403
_cell_length_c 8.934771
_cell_angle_alpha 82.507852
_cell_angle_beta 69.967717
_cell_angle_gamma 74.637711
_cell_volume 655.480130
_symmetry_space_group_name_H-M "P -1"
_symmetry_group_IT_number 2
_symmetry_cell_setting 'triclinic'
loop_
_space_group_symop_operation_xyz
x,y,z
-x,-y,-z
loop_
_atom_site_type_symbol
_atom_site_label
_atom_site_fract_x
_atom_site_fract_y
_atom_site_fract_z
Si Si1 0.044405 0.178166 0.717763
Si Si2 0.621331 0.375446 0.183011
Si Si3 0.514994 0.301864 0.924098
Si Si4 0.751862 0.078269 0.677326
Si Si5 0.029146 0.676010 0.949636
Si Si6 0.789855 0.731799 0.778695
Si Si7 0.000000 0.500000 0.500000
Si Si8 0.638722 0.086833 0.406247
O O1 0.059433 0.336456 0.602591
O O2 0.909930 0.115074 0.682638
O O3 0.206627 0.041935 0.690480
O O4 0.990434 0.230879 0.899058
O O5 0.524027 0.557648 0.203814
O O6 0.797823 0.353209 0.174169
O O7 0.567722 0.233186 0.301732
O O8 0.624569 0.347970 0.006767
O O9 0.609706 0.142292 0.834083
O O10 0.360036 0.291496 0.071807
O O11 0.700498 0.157357 0.525512
O O12 0.761221 0.892423 0.672703
O O13 0.907832 0.764024 0.860226
O O14 0.000000 0.500000 0.000000
O O15 0.873726 0.581275 0.668777
O O16 0.500000 0.000000 0.500000
#
# Coordination Sequence:
#
# PCOD9066504 Si02
#       8
#     2   2   2   2   2   2   1   2
#     4  12  27  48  72 108 149 197 244 306 371 441
#     4  11  25  46  70 105 148 191 246 305 366 436
#     4  11  25  47  74 106 146 193 246 301 371 435
#     4  12  27  48  74 109 147 195 243 304 379 437
#     4  12  24  45  73 110 139 189 257 299 358 437
#     4  12  26  47  77 108 146 194 245 305 367 444
#     4  12  26  46  76 102 154 194 242 296 372 444
#     4  12  29  46  72 109 153 191 247 305 374 438
#
# _framework density 22.883987000000001
#
# number of rings (size 3 to 8) (size 9 to 14) (size 15 to 20)
#    0.000    0.267    5.333    2.400    7.467    1.600 
#    0.000    0.000    0.000    0.000    0.000    0.000 
#    0.000    0.000    0.000    0.000    0.000    0.000 
#
# Total GULP energy -83634.019684 kJ/mol
# GULP energy per Si atom -5575.601312 kJ/mol
# Density = 2.283190 g / cm^3
# Si number density = 22.883987 Si / 1000 Ang^3
#
#
#
# Elastic Constant Matrix: (Units=GPa)
#
#
# Indices 1 2 3 4 5 6 
#
# 1 104.4085 10.0244 17.6743 0.7997 -7.6268 -9.1194
# 2 10.0244 89.0992 28.1067 6.5515 -11.6938 -14.7959
# 3 17.6743 28.1067 61.7745 -1.4672 -9.5213 -11.6128
# 4 0.7997 6.5515 -1.4672 58.6258 -5.1916 -2.0946
# 5 -7.6268 -11.6938 -9.5213 -5.1916 29.3730 -2.0617
# 6 -9.1194 -14.7959 -11.6128 -2.0946 -2.0617 25.7481
#
#
#
# Elastic Compliance Matrix: (Units=1/GPa)
#
#
# Indices 1 2 3 4 5 6 
#
# 1 0.010353 0.000332 -0.002172 0.000085 0.002347 0.003073
# 2 0.000332 0.014457 -0.004764 -0.001101 0.004563 0.006552
# 3 -0.002172 -0.004764 0.021039 0.001777 0.005132 0.006538
# 4 0.000085 -0.001101 0.001777 0.017593 0.003403 0.001902
# 5 0.002347 0.004563 0.005132 0.003403 0.039382 0.009198
# 6 0.003073 0.006552 0.006538 0.001902 0.009198 0.047531
#
#
# Mechanical properties :
#
#
# Convention : Reuss Voigt Hill
#
# Bulk Modulus (GPa) = 30.63536 40.76587 35.70062
# Shear Modulus (GPa) = 28.66293 36.04783 32.35538
#
# Velocity S-wave (km/s) = 3.54295 3.97324 3.76425
# Velocity P-wave (km/s) = 5.49117 6.23712 5.87600
#
# Compressibility (1/GPa) = 0.03264202
#
# Stress axis : x y z
#
# Youngs Moduli (GPa) = 96.59312 69.17200 47.53068
#
# Poissons Ratio (x) = -0.02300 0.10323
# Poissons Ratio (y) = -0.03211 0.22643
# Poissons Ratio (z) = 0.20978 0.32953
#
# Static dielectric constant tensor:
#      x y z
#    x 1.833130 0.031800 -0.023600 
#    y 0.031800 1.925530 -0.037710 
#    z -0.023600 -0.037710 1.818140 
# 
# From -- ./inp_files/157985.got.cif
#   From: 2010.05.17/outbox.cif.g08.bks.cpg/sg2_79_cif.got.tgz:157985.got - 2010.06.03 11:33:40.
