data_PCOD9066480
_publ_section_title
;
Structure prediction by ZEFSAII (Michael W. Deem and Ramdas Pophale) SiO2 
 PCOD9066480
Probable space group: P -1
;
_chemical_formula_sum "Si O2"
_cell_formula_units_Z 16
_cell_length_a 17.221744
_cell_length_b 9.084933
_cell_length_c 6.501273
_cell_angle_alpha 75.106323
_cell_angle_beta 58.468900
_cell_angle_gamma 57.110420
_cell_volume 727.518656
_symmetry_space_group_name_H-M "P -1"
_symmetry_group_IT_number 2
_symmetry_cell_setting 'triclinic'
loop_
_space_group_symop_operation_xyz
x,y,z
-x,-y,-z
loop_
_atom_site_type_symbol
_atom_site_label
_atom_site_fract_x
_atom_site_fract_y
_atom_site_fract_z
Si Si1 0.544305 0.318144 0.380347
Si Si2 0.407011 0.004268 0.262410
Si Si3 0.138100 0.531714 0.794325
Si Si4 0.749117 0.283936 0.885049
Si Si5 0.952340 0.627325 0.335593
Si Si6 0.656212 0.624540 0.594823
Si Si7 0.117631 0.842541 0.867023
Si Si8 0.209311 0.995254 0.410815
O O1 0.500000 0.500000 0.500000
O O2 0.455365 0.346753 0.328904
O O3 0.559627 0.157740 0.566127
O O4 0.648062 0.290727 0.131063
O O5 0.358654 0.191695 0.373393
O O6 0.315750 0.003065 0.252763
O O7 0.500000 0.000000 0.000000
O O8 0.119842 0.423241 0.683411
O O9 0.262880 0.433072 0.689641
O O10 0.111694 0.729985 0.725101
O O11 0.052641 0.575458 0.072127
O O12 0.708587 0.463558 0.744276
O O13 0.796725 0.109106 0.739767
O O14 0.834798 0.258224 0.948621
O O15 0.887318 0.815907 0.463773
O O16 0.000000 0.500000 0.500000
O O17 0.204297 0.890921 0.654740
O O18 0.000000 0.000000 0.000000
#
# Coordination Sequence:
#
# PCOD9066480 Si02
#       8
#     2   2   2   2   2   2   2   2
#     4  12  25  48  77 105 148 195 244 310 373 440
#     4  12  26  47  71 107 150 191 245 303 373 445
#     4  11  25  46  69 103 148 182 245 300 359 443
#     4  12  27  46  77 108 149 194 246 309 370 443
#     4  11  27  44  72 102 147 197 237 304 375 433
#     4  12  25  45  73 110 142 192 248 302 373 439
#     4  12  26  46  75 105 149 198 248 301 369 436
#     4  12  25  47  70 109 146 189 251 303 367 446
#
# _framework density 21.992560999999998
#
# number of rings (size 3 to 8) (size 9 to 14) (size 15 to 20)
#    0.000    0.250    5.000    3.750    3.500    2.500 
#    0.000    0.000    0.000    0.000    0.000    0.000 
#    0.000    0.000    0.000    0.000    0.000    0.000 
#
# Total GULP energy -89264.483631 kJ/mol
# GULP energy per Si atom -5579.030227 kJ/mol
# Density = 2.194251 g / cm^3
# Si number density = 21.992561 Si / 1000 Ang^3
#
#
#
# Elastic Constant Matrix: (Units=GPa)
#
#
# Indices 1 2 3 4 5 6 
#
# 1 96.6169 26.7775 45.4542 -4.9105 -13.1233 2.4511
# 2 26.7775 156.6872 78.7862 12.6534 8.6714 15.8733
# 3 45.4542 78.7862 111.2086 13.5226 -23.0689 -7.1808
# 4 -4.9105 12.6534 13.5226 49.5266 0.3935 3.2773
# 5 -13.1233 8.6714 -23.0689 0.3935 40.3533 1.2003
# 6 2.4511 15.8733 -7.1808 3.2773 1.2003 37.0388
#
#
#
# Elastic Compliance Matrix: (Units=1/GPa)
#
#
# Indices 1 2 3 4 5 6 
#
# 1 0.013536 0.001199 -0.006904 0.003119 0.000257 -0.003033
# 2 0.001199 0.014195 -0.013259 0.000753 -0.009996 -0.008476
# 3 -0.006904 -0.013259 0.025661 -0.005156 0.014994 0.011084
# 4 0.003119 0.000753 -0.005156 0.021958 -0.002208 -0.003400
# 5 0.000257 -0.009996 0.014994 -0.002208 0.035421 0.006221
# 6 -0.003033 -0.008476 0.011084 -0.003400 0.006221 0.033080
#
#
# Mechanical properties :
#
#
# Convention : Reuss Voigt Hill
#
# Bulk Modulus (GPa) = 64.66566 74.06094 69.36330
# Shear Modulus (GPa) = 26.74737 39.61672 33.18204
#
# Velocity S-wave (km/s) = 3.49119 4.24886 3.88852
# Velocity P-wave (km/s) = 6.76154 7.60388 7.19505
#
# Compressibility (1/GPa) = 0.01546416
#
# Stress axis : x y z
#
# Youngs Moduli (GPa) = 73.87558 70.44573 38.97036
#
# Poissons Ratio (x) = -0.08448 0.26905
# Poissons Ratio (y) = -0.08860 0.51672
# Poissons Ratio (z) = 0.51004 0.93405
#
# Static dielectric constant tensor:
#      x y z
#    x 1.651590 0.033880 0.092890 
#    y 0.033880 1.860720 0.027210 
#    z 0.092890 0.027210 1.781370 
# 
# From -- ./inp_files/106661.got.cif
#   From: 2010.05.17/outbox.cif.g08.bks.cpg/sg2_54_cif.got.tgz:106661.got - 2010.06.03 11:33:40.
