data_PCOD9066956
_publ_section_title
;
Structure prediction by ZEFSAII (Michael W. Deem and Ramdas Pophale) SiO2 
 PCOD9066956
Probable space group: P -1
;
_chemical_formula_sum "Si O2"
_cell_formula_units_Z 14
_cell_length_a 15.582077
_cell_length_b 8.343861
_cell_length_c 9.976550
_cell_angle_alpha 58.757483
_cell_angle_beta 144.426054
_cell_angle_gamma 106.196427
_cell_volume 617.948292
_symmetry_space_group_name_H-M "P -1"
_symmetry_group_IT_number 2
_symmetry_cell_setting 'triclinic'
loop_
_space_group_symop_operation_xyz
x,y,z
-x,-y,-z
loop_
_atom_site_type_symbol
_atom_site_label
_atom_site_fract_x
_atom_site_fract_y
_atom_site_fract_z
Si Si1 0.546144 0.933215 0.934461
Si Si2 0.320158 0.578345 0.403569
Si Si3 0.969163 0.182029 0.477951
Si Si4 0.661451 0.298340 0.917051
Si Si5 0.641478 0.029714 0.580711
Si Si6 0.967557 0.846926 0.129628
Si Si7 0.821995 0.570067 0.483940
O O1 0.409005 0.952915 0.646417
O O2 0.637539 0.088194 0.942247
O O3 0.658236 0.712973 0.166135
O O4 0.500000 0.000000 0.000000
O O5 0.495455 0.438976 0.685292
O O6 0.280371 0.625008 0.177959
O O7 0.321779 0.775574 0.399981
O O8 0.210716 0.468237 0.385497
O O9 0.031236 0.102296 0.735660
O O10 0.056895 0.322380 0.460920
O O11 0.785869 0.280533 0.198714
O O12 0.000000 0.000000 0.500000
O O13 0.500000 0.000000 0.500000
O O14 0.793745 0.848071 0.873457
O O15 0.103309 0.647025 0.380180
O O16 0.000000 0.000000 0.000000
#
# Coordination Sequence:
#
# PCOD9066956 Si02
#       7
#     2   2   2   2   2   2   2
#     4  12  26  47  74 111 144 194 247 305 369 441
#     4  11  25  47  73 113 143 199 249 305 372 447
#     4  12  27  48  75 107 153 194 243 310 377 438
#     4  11  25  47  74 109 152 189 253 307 371 444
#     4  12  26  48  78 101 148 197 247 301 367 447
#     4  12  29  50  73 113 151 196 250 309 376 441
#     4  12  27  47  75 108 154 188 254 303 379 439
#
# _framework density 22.655616999999999
#
# number of rings (size 3 to 8) (size 9 to 14) (size 15 to 20)
#    0.000    0.286    5.714    2.143    6.000    1.143 
#    0.000    0.000    0.000    0.000    0.000    0.000 
#    0.000    0.000    0.000    0.000    0.000    0.000 
#
# Total GULP energy -78278.182640 kJ/mol
# GULP energy per Si atom -5591.298760 kJ/mol
# Density = 2.260405 g / cm^3
# Si number density = 22.655617 Si / 1000 Ang^3
#
#
#
# Elastic Constant Matrix: (Units=GPa)
#
#
# Indices 1 2 3 4 5 6 
#
# 1 114.4224 34.3638 38.2458 1.9983 -21.4179 -3.5204
# 2 34.3638 65.9335 41.2148 -10.9472 -18.8640 -7.8987
# 3 38.2458 41.2148 157.0717 5.5076 -3.3284 -23.9249
# 4 1.9983 -10.9472 5.5076 34.1731 -4.3808 1.6509
# 5 -21.4179 -18.8640 -3.3284 -4.3808 40.1665 -11.1210
# 6 -3.5204 -7.8987 -23.9249 1.6509 -11.1210 40.6887
#
#
#
# Elastic Compliance Matrix: (Units=1/GPa)
#
#
# Indices 1 2 3 4 5 6 
#
# 1 0.011198 -0.003872 -0.001512 -0.001158 0.004033 0.000478
# 2 -0.003872 0.026489 -0.005437 0.010956 0.012380 0.004550
# 3 -0.001512 -0.005437 0.008784 -0.003501 -0.002026 0.003567
# 4 -0.001158 0.010956 -0.003501 0.034418 0.008218 0.000818
# 5 0.004033 0.012380 -0.002026 0.008218 0.036707 0.011260
# 6 0.000478 0.004550 0.003567 0.000818 0.011260 0.030644
#
#
# Mechanical properties :
#
#
# Convention : Reuss Voigt Hill
#
# Bulk Modulus (GPa) = 40.27359 62.78625 51.52992
# Shear Modulus (GPa) = 28.06494 37.91254 32.98874
#
# Velocity S-wave (km/s) = 3.52343 4.09519 3.82002
# Velocity P-wave (km/s) = 5.86240 7.08056 6.50008
#
# Compressibility (1/GPa) = 0.02483017
#
# Stress axis : x y z
#
# Youngs Moduli (GPa) = 89.30522 37.75100 113.83846
#
# Poissons Ratio (x) = 0.14618 0.17209
# Poissons Ratio (y) = 0.34581 0.61890
# Poissons Ratio (z) = 0.13500 0.20524
#
# Static dielectric constant tensor:
#      x y z
#    x 1.868770 -0.006170 0.038770 
#    y -0.006170 1.820700 -0.034740 
#    z 0.038770 -0.034740 1.867360 
# 
# From -- ./inp_files/297730.got.cif
#   From: 2010.05.17/outbox.cif.g08.bks.cpg/sg2_149_cif.got.tgz:297730.got - 2010.06.03 11:33:40.
