data_PCOD9066834
_publ_section_title
;
Structure prediction by ZEFSAII (Michael W. Deem and Ramdas Pophale) SiO2 
 PCOD9066834
Probable space group: P -1
;
_chemical_formula_sum "Si O2"
_cell_formula_units_Z 15
_cell_length_a 6.079774
_cell_length_b 17.354694
_cell_length_c 16.180322
_cell_angle_alpha 154.069364
_cell_angle_beta 119.767172
_cell_angle_gamma 52.635104
_cell_volume 587.337932
_symmetry_space_group_name_H-M "P -1"
_symmetry_group_IT_number 2
_symmetry_cell_setting 'triclinic'
loop_
_space_group_symop_operation_xyz
x,y,z
-x,-y,-z
loop_
_atom_site_type_symbol
_atom_site_label
_atom_site_fract_x
_atom_site_fract_y
_atom_site_fract_z
Si Si1 0.241154 0.011034 0.159005
Si Si2 0.130235 0.082076 0.396021
Si Si3 0.095459 0.821987 0.281537
Si Si4 0.796253 0.836998 0.867636
Si Si5 0.649470 0.616727 0.267906
Si Si6 0.213125 0.301974 0.013953
Si Si7 0.000000 0.500000 0.500000
Si Si8 0.472681 0.595195 0.389721
O O1 0.238095 0.026668 0.270782
O O2 0.158966 0.194091 0.257343
O O3 0.566174 0.883217 0.075051
O O4 0.030257 0.911626 0.005805
O O5 0.267512 0.215806 0.590016
O O6 0.802341 0.219239 0.456474
O O7 0.169204 0.907781 0.295297
O O8 0.362676 0.646345 0.199673
O O9 0.000000 0.000000 0.500000
O O10 0.856230 0.757028 0.145778
O O11 0.860297 0.615200 0.678561
O O12 0.500000 0.000000 0.000000
O O13 0.598297 0.657244 0.394086
O O14 0.911994 0.414507 0.107834
O O15 0.367067 0.443095 0.183791
O O16 0.307332 0.489133 0.578145
#
# Coordination Sequence:
#
# PCOD9066834 Si02
#       8
#     2   2   2   2   2   2   1   2
#     4  11  25  47  67 110 144 195 243 305 371 438
#     4  11  25  47  76 104 148 188 250 312 371 442
#     4  12  25  47  75 105 141 197 249 308 373 438
#     4  11  26  46  75 106 150 194 254 304 370 444
#     4  11  25  48  70 108 144 195 248 303 377 442
#     4  11  27  44  71 104 150 191 239 308 368 446
#     4  12  24  44  76 108 144 196 244 300 370 442
#     4  11  25  48  70 108 148 195 244 306 371 448
#
# _framework density 25.538958000000001
#
# number of rings (size 3 to 8) (size 9 to 14) (size 15 to 20)
#    0.000    0.800    2.667    3.200    7.467    0.533 
#    0.000    3.333    0.000    0.000    0.000    0.000 
#    0.000    0.000    0.000    0.000    0.000    0.000 
#
# Total GULP energy -83720.942708 kJ/mol
# GULP energy per Si atom -5581.396181 kJ/mol
# Density = 2.548083 g / cm^3
# Si number density = 25.538958 Si / 1000 Ang^3
#
#
#
# Elastic Constant Matrix: (Units=GPa)
#
#
# Indices 1 2 3 4 5 6 
#
# 1 71.9964 53.2707 47.8422 -6.5944 6.1100 -25.2569
# 2 53.2707 152.9192 12.3193 -18.0952 -9.1863 -31.7843
# 3 47.8422 12.3193 112.0457 -26.6204 3.6349 -18.6016
# 4 -6.5944 -18.0952 -26.6204 34.4205 -15.8330 -1.1750
# 5 6.1100 -9.1863 3.6349 -15.8330 47.5876 -1.2362
# 6 -25.2569 -31.7843 -18.6016 -1.1750 -1.2362 58.8342
#
#
#
# Elastic Compliance Matrix: (Units=1/GPa)
#
#
# Indices 1 2 3 4 5 6 
#
# 1 0.035650 -0.013737 -0.017735 -0.019759 -0.012406 0.001621
# 2 -0.013737 0.014087 0.008601 0.015838 0.009224 0.004943
# 3 -0.017735 0.008601 0.021243 0.022221 0.009822 0.004400
# 4 -0.019759 0.015838 0.022221 0.062553 0.024940 0.008873
# 5 -0.012406 0.009224 0.009822 0.024940 0.032037 0.003934
# 6 0.001621 0.004943 0.004400 0.008873 0.003934 0.022014
#
#
# Mechanical properties :
#
#
# Convention : Reuss Voigt Hill
#
# Bulk Modulus (GPa) = 39.62154 62.64730 51.13442
# Shear Modulus (GPa) = 20.68341 43.07040 31.87691
#
# Velocity S-wave (km/s) = 2.84892 4.11111 3.53677
# Velocity P-wave (km/s) = 5.13514 6.86428 6.06168
#
# Compressibility (1/GPa) = 0.02523879
#
# Stress axis : x y z
#
# Youngs Moduli (GPa) = 28.05043 70.98523 47.07428
#
# Poissons Ratio (x) = 0.97511 0.83485
# Poissons Ratio (y) = 0.38532 -0.40487
# Poissons Ratio (z) = 0.49747 -0.61052
#
# Static dielectric constant tensor:
#      x y z
#    x 1.963220 -0.057290 -0.117740 
#    y -0.057290 1.801210 -0.245240 
#    z -0.117740 -0.245240 1.772490 
# 
# From -- ./inp_files/104650.got.cif
#   From: 2010.05.17/outbox.cif.g08.bks.cpg/sg2_53_cif.got.tgz:104650.got - 2010.06.03 11:33:40.
