data_PCOD9066676
_publ_section_title
;
Structure prediction by ZEFSAII (Michael W. Deem and Ramdas Pophale) SiO2 
 PCOD9066676
Probable space group: P -1
;
_chemical_formula_sum "Si O2"
_cell_formula_units_Z 15
_cell_length_a 18.826727
_cell_length_b 19.081391
_cell_length_c 12.733896
_cell_angle_alpha 27.189906
_cell_angle_beta 148.457222
_cell_angle_gamma 161.558958
_cell_volume 660.093357
_symmetry_space_group_name_H-M "P -1"
_symmetry_group_IT_number 2
_symmetry_cell_setting 'triclinic'
loop_
_space_group_symop_operation_xyz
x,y,z
-x,-y,-z
loop_
_atom_site_type_symbol
_atom_site_label
_atom_site_fract_x
_atom_site_fract_y
_atom_site_fract_z
Si Si1 0.500000 0.500000 0.500000
Si Si2 0.678297 0.744629 0.969484
Si Si3 0.317145 0.628768 0.179613
Si Si4 0.160713 0.279982 0.173977
Si Si5 0.077633 0.519359 0.212501
Si Si6 0.968799 0.082723 0.684471
Si Si7 0.526914 0.189875 0.230027
Si Si8 0.262153 0.923585 0.036382
O O1 0.325987 0.453884 0.413069
O O2 0.344667 0.395169 0.337745
O O3 0.572763 0.790356 0.834702
O O4 0.500000 0.500000 0.000000
O O5 0.779446 0.732517 0.206933
O O6 0.848287 0.955969 0.813523
O O7 0.293094 0.678108 0.198981
O O8 0.095788 0.506500 0.011384
O O9 0.545912 0.874598 0.077943
O O10 0.245656 0.516936 0.911092
O O11 0.119261 0.114627 0.251798
O O12 0.926545 0.114497 0.155675
O O13 0.951013 0.243790 0.416971
O O14 0.162806 0.665749 0.233818
O O15 0.500000 0.000000 0.500000
O O16 0.377572 0.047163 0.127983
#
# Coordination Sequence:
#
# PCOD9066676 Si02
#       8
#     1   2   2   2   2   2   2   2
#     4  12  26  48  80 108 158 202 252 328 378 466
#     4  11  25  46  73 111 151 195 255 313 391 458
#     4  11  27  47  74 114 151 201 254 309 393 451
#     4  12  27  51  73 119 154 205 265 312 399 463
#     4  11  27  49  75 112 148 202 257 314 383 465
#     4  11  27  47  77 109 152 200 254 324 381 467
#     4  12  28  47  78 110 152 204 255 326 387 459
#     4  12  25  50  76 107 159 194 262 317 385 469
#
# _framework density 22.724059
#
# number of rings (size 3 to 8) (size 9 to 14) (size 15 to 20)
#    0.000    0.533    5.333    0.400    9.333    4.267 
#    0.000    0.000    0.000    0.000    0.000    0.000 
#    0.000    0.000    0.000    0.000    0.000    0.000 
#
# Total GULP energy -83516.703416 kJ/mol
# GULP energy per Si atom -5567.780228 kJ/mol
# Density = 2.267234 g / cm^3
# Si number density = 22.724059 Si / 1000 Ang^3
#
#
#
# Elastic Constant Matrix: (Units=GPa)
#
#
# Indices 1 2 3 4 5 6 
#
# 1 182.0653 53.9141 49.8002 2.7878 26.0328 -7.8429
# 2 53.9141 76.8534 44.2024 -2.8932 6.0272 -14.0713
# 3 49.8002 44.2024 97.6948 1.8543 10.8408 8.2481
# 4 2.7878 -2.8932 1.8543 28.1064 -0.8047 10.6117
# 5 26.0328 6.0272 10.8408 -0.8047 35.4723 4.5894
# 6 -7.8429 -14.0713 8.2481 10.6117 4.5894 49.8405
#
#
#
# Elastic Compliance Matrix: (Units=1/GPa)
#
#
# Indices 1 2 3 4 5 6 
#
# 1 0.007925 -0.004013 -0.001763 -0.001674 -0.004789 0.001203
# 2 -0.004013 0.021942 -0.008574 0.000705 0.000981 0.006742
# 3 -0.001763 -0.008574 0.015597 0.000186 -0.001340 -0.005195
# 4 -0.001674 0.000705 0.000186 0.039186 0.003069 -0.008721
# 5 -0.004789 0.000981 -0.001340 0.003069 0.032524 -0.003903
# 6 0.001203 0.006742 -0.005195 -0.008721 -0.003903 0.025233
#
#
# Mechanical properties :
#
#
# Convention : Reuss Voigt Hill
#
# Bulk Modulus (GPa) = 59.64306 72.49409 66.06857
# Shear Modulus (GPa) = 28.29747 36.59696 32.44721
#
# Velocity S-wave (km/s) = 3.53266 4.01745 3.78283
# Velocity P-wave (km/s) = 6.55311 7.31376 6.94386
#
# Compressibility (1/GPa) = 0.01676641
#
# Stress axis : x y z
#
# Youngs Moduli (GPa) = 126.17766 45.57441 64.11349
#
# Poissons Ratio (x) = 0.18290 0.11300
# Poissons Ratio (y) = 0.50637 0.54968
# Poissons Ratio (z) = 0.22239 0.39073
#
# Static dielectric constant tensor:
#      x y z
#    x 1.805880 0.019090 -0.024860 
#    y 0.019090 1.780570 -0.048100 
#    z -0.024860 -0.048100 1.892070 
# 
# From -- ./inp_files/466572.got.cif
#   From: 2010.05.17/outbox.cif.g08.bks.cpg/sg2_234_cif.got.tgz:466572.got - 2010.06.03 11:33:40.
