data_PCOD9066771
_publ_section_title
;
Structure prediction by ZEFSAII (Michael W. Deem and Ramdas Pophale) SiO2 
 PCOD9066771
Probable space group: P -1
;
_chemical_formula_sum "Si O2"
_cell_formula_units_Z 14
_cell_length_a 15.161458
_cell_length_b 8.097835
_cell_length_c 12.020823
_cell_angle_alpha 132.053765
_cell_angle_beta 43.156398
_cell_angle_gamma 106.164645
_cell_volume 682.317259
_symmetry_space_group_name_H-M "P -1"
_symmetry_group_IT_number 2
_symmetry_cell_setting 'triclinic'
loop_
_space_group_symop_operation_xyz
x,y,z
-x,-y,-z
loop_
_atom_site_type_symbol
_atom_site_label
_atom_site_fract_x
_atom_site_fract_y
_atom_site_fract_z
Si Si1 0.617919 0.076602 0.057358
Si Si2 0.649040 0.879014 0.165473
Si Si3 0.163092 0.276529 0.872906
Si Si4 0.412698 0.599067 0.463695
Si Si5 0.161805 0.513503 0.758186
Si Si6 0.378737 0.763185 0.341017
Si Si7 0.669162 0.014561 0.734852
O O1 0.545144 0.365127 0.279232
O O2 0.480464 0.012073 0.145049
O O3 0.702140 0.921485 0.014929
O O4 0.693723 0.044377 0.854885
O O5 0.768227 0.720137 0.070226
O O6 0.528005 0.783821 0.219169
O O7 0.572303 0.151606 0.412464
O O8 0.170544 0.468798 0.862527
O O9 0.256553 0.009982 0.615113
O O10 0.999431 0.326305 0.053734
O O11 0.270052 0.618782 0.662284
O O12 0.394434 0.564565 0.331735
O O13 0.215394 0.243290 0.532608
O O14 0.342965 0.774426 0.247813
#
# Coordination Sequence:
#
# PCOD9066771 Si02
#       7
#     2   2   2   2   2   2   2
#     4   9  17  29  47  66  90 122 151 185 224 263
#     4  10  19  30  45  71  97 117 146 188 232 266
#     4   9  17  31  47  67  92 120 147 186 232 264
#     4  10  18  28  47  72  92 115 152 189 221 269
#     4   9  18  31  49  68  88 121 156 182 221 271
#     4   9  18  30  47  70  95 118 146 188 230 264
#     4   8  16  32  46  63  92 122 152 183 221 268
#
# _framework density 20.518315000000001
#
# number of rings (size 3 to 8) (size 9 to 14) (size 15 to 20)
#    0.000    2.857    0.000    3.000    0.000    4.000 
#    0.000    0.714    0.000    0.000    0.000   26.000 
#    0.000    0.000    0.000    0.000    0.000    0.000 
#
# Total GULP energy -78086.469537 kJ/mol
# GULP energy per Si atom -5577.604967 kJ/mol
# Density = 2.047161 g / cm^3
# Si number density = 20.518315 Si / 1000 Ang^3
#
#
#
# Elastic Constant Matrix: (Units=GPa)
#
#
# Indices 1 2 3 4 5 6 
#
# 1 99.0812 34.7788 54.8288 -10.5520 3.3340 -46.5098
# 2 34.7788 59.4228 25.5334 -14.7720 -5.7604 -21.6016
# 3 54.8288 25.5334 58.2294 -10.4944 -4.0116 -18.1761
# 4 -10.5520 -14.7720 -10.4944 26.7300 -8.8737 11.1450
# 5 3.3340 -5.7604 -4.0116 -8.8737 29.7934 -4.1109
# 6 -46.5098 -21.6016 -18.1761 11.1450 -4.1109 41.6323
#
#
#
# Elastic Compliance Matrix: (Units=1/GPa)
#
#
# Indices 1 2 3 4 5 6 
#
# 1 0.047984 -0.003815 -0.034800 -0.016907 -0.010317 0.039941
# 2 -0.003815 0.026685 -0.003372 0.012790 0.009721 0.005649
# 3 -0.034800 -0.003372 0.048042 0.016659 0.011503 -0.022975
# 4 -0.016907 0.012790 0.016659 0.059358 0.021703 -0.018725
# 5 -0.010317 0.009721 0.011503 0.021703 0.044211 -0.002905
# 6 0.039941 0.005649 -0.022975 -0.018725 -0.002905 0.066266
#
#
# Mechanical properties :
#
#
# Convention : Reuss Voigt Hill
#
# Bulk Modulus (GPa) = 25.81313 49.66838 37.74075
# Shear Modulus (GPa) = 12.83922 26.40397 19.62160
#
# Velocity S-wave (km/s) = 2.50420 3.59116 3.09576
# Velocity P-wave (km/s) = 4.57922 6.43853 5.58676
#
# Compressibility (1/GPa) = 0.03873998
#
# Stress axis : x y z
#
# Youngs Moduli (GPa) = 20.84017 37.47428 20.81490
#
# Poissons Ratio (x) = 0.14295 0.72435
# Poissons Ratio (y) = 0.07950 0.07018
# Poissons Ratio (z) = 0.72523 0.12635
#
# Static dielectric constant tensor:
#      x y z
#    x 1.770720 -0.039990 0.075930 
#    y -0.039990 1.797460 -0.007890 
#    z 0.075930 -0.007890 1.723020 
# 
# From -- ./inp_files/444973.got.cif
#   From: 2010.05.17/outbox.cif.g08.bks.cpg/sg2_223_cif.got.tgz:444973.got - 2010.06.03 11:33:40.
