data_PCOD9066863
_publ_section_title
;
Structure prediction by ZEFSAII (Michael W. Deem and Ramdas Pophale) SiO2 
 PCOD9066863
Probable space group: P -1
;
_chemical_formula_sum "Si O2"
_cell_formula_units_Z 16
_cell_length_a 11.227252
_cell_length_b 8.044340
_cell_length_c 11.131728
_cell_angle_alpha 75.524961
_cell_angle_beta 91.830257
_cell_angle_gamma 135.865234
_cell_volume 661.455794
_symmetry_space_group_name_H-M "P -1"
_symmetry_group_IT_number 2
_symmetry_cell_setting 'triclinic'
loop_
_space_group_symop_operation_xyz
x,y,z
-x,-y,-z
loop_
_atom_site_type_symbol
_atom_site_label
_atom_site_fract_x
_atom_site_fract_y
_atom_site_fract_z
Si Si1 0.425897 0.388288 0.680932
Si Si2 0.134359 0.688547 0.366087
Si Si3 0.218119 0.400902 0.402605
Si Si4 0.010175 0.783669 0.132458
Si Si5 0.937284 0.947041 0.317071
Si Si6 0.625625 0.870198 0.041501
Si Si7 0.328713 0.719224 0.897429
Si Si8 0.506733 0.860823 0.626825
O O1 0.596290 0.495572 0.602850
O O2 0.238247 0.123599 0.675166
O O3 0.419765 0.587795 0.639982
O O4 0.438399 0.335042 0.826880
O O5 0.237185 0.622986 0.350765
O O6 0.000000 0.500000 0.500000
O O7 0.038927 0.661181 0.252274
O O8 0.291275 0.973748 0.366282
O O9 0.101205 0.232309 0.546191
O O10 0.110036 0.224135 0.315712
O O11 0.956498 0.884567 0.198316
O O12 0.859778 0.569841 0.073330
O O13 0.198764 0.009751 0.038400
O O14 0.469402 0.751678 0.967069
O O15 0.676062 0.102434 0.068440
O O16 0.405407 0.820272 0.747750
O O17 0.500000 0.000000 0.500000
#
# Coordination Sequence:
#
# PCOD9066863 Si02
#       8
#     2   2   2   2   2   2   2   2
#     4  12  27  48  74 112 152 201 252 312 378 455
#     4  12  24  45  75 109 150 201 250 314 382 452
#     4  11  26  45  73 110 158 193 250 317 380 452
#     4  12  24  48  74 109 149 202 259 307 380 446
#     4  11  25  47  70 110 150 197 251 316 385 442
#     4  11  28  48  74 108 156 205 258 308 374 462
#     4  11  25  50  74 110 151 205 257 310 381 447
#     4  12  25  48  80 110 151 198 253 320 385 455
#
# _framework density 24.189069
#
# number of rings (size 3 to 8) (size 9 to 14) (size 15 to 20)
#    0.000    0.500    3.750    3.750    5.250    3.000 
#    0.000    0.000    0.000    0.000    0.000    0.000 
#    0.000    0.000    0.000    0.000    0.000    0.000 
#
# Total GULP energy -89698.121059 kJ/mol
# GULP energy per Si atom -5606.132566 kJ/mol
# Density = 2.413401 g / cm^3
# Si number density = 24.189069 Si / 1000 Ang^3
#
#
#
# Elastic Constant Matrix: (Units=GPa)
#
#
# Indices 1 2 3 4 5 6 
#
# 1 95.0561 37.7624 31.4176 7.9995 1.0626 17.3427
# 2 37.7624 100.1692 28.3759 19.1841 -0.1977 26.9311
# 3 31.4176 28.3759 106.9490 -1.3562 4.0522 -0.0633
# 4 7.9995 19.1841 -1.3562 44.2043 6.4168 7.4299
# 5 1.0626 -0.1977 4.0522 6.4168 46.2026 -7.5323
# 6 17.3427 26.9311 -0.0633 7.4299 -7.5323 41.4742
#
#
#
# Elastic Compliance Matrix: (Units=1/GPa)
#
#
# Indices 1 2 3 4 5 6 
#
# 1 0.013509 -0.003140 -0.003122 -0.000484 -0.000575 -0.003632
# 2 -0.003140 0.015004 -0.003116 -0.004733 -0.000175 -0.007618
# 3 -0.003122 -0.003116 0.011147 0.001878 -0.000710 0.002880
# 4 -0.000484 -0.004733 0.001878 0.025765 -0.004091 -0.002080
# 5 -0.000575 -0.000175 -0.000710 -0.004091 0.023149 0.005290
# 6 -0.003632 -0.007618 0.002880 -0.002080 0.005290 0.031915
#
#
# Mechanical properties :
#
#
# Convention : Reuss Voigt Hill
#
# Bulk Modulus (GPa) = 47.83993 55.25401 51.54697
# Shear Modulus (GPa) = 34.19642 40.01743 37.10693
#
# Velocity S-wave (km/s) = 3.76402 4.07180 3.92093
# Velocity P-wave (km/s) = 6.22181 6.70807 6.46951
#
# Compressibility (1/GPa) = 0.02090304
#
# Stress axis : x y z
#
# Youngs Moduli (GPa) = 74.02291 66.64835 89.71369
#
# Poissons Ratio (x) = 0.20930 0.28007
# Poissons Ratio (y) = 0.23246 0.27957
# Poissons Ratio (z) = 0.23108 0.20770
#
# Static dielectric constant tensor:
#      x y z
#    x 1.916480 0.006400 0.003530 
#    y 0.006400 1.940790 0.019320 
#    z 0.003530 0.019320 1.911500 
# 
# From -- ./inp_files/281894.got.cif
#   From: 2010.05.17/outbox.cif.g08.bks.cpg/sg2_141_cif.got.tgz:281894.got - 2010.06.03 11:33:40.
