data_PCOD9066769
_publ_section_title
;
Structure prediction by ZEFSAII (Michael W. Deem and Ramdas Pophale) SiO2 
 PCOD9066769
Probable space group: P -1
;
_chemical_formula_sum "Si O2"
_cell_formula_units_Z 12
_cell_length_a 9.219173
_cell_length_b 5.047345
_cell_length_c 11.062586
_cell_angle_alpha 91.298338
_cell_angle_beta 71.678055
_cell_angle_gamma 86.293380
_cell_volume 487.147592
_symmetry_space_group_name_H-M "P -1"
_symmetry_group_IT_number 2
_symmetry_cell_setting 'triclinic'
loop_
_space_group_symop_operation_xyz
x,y,z
-x,-y,-z
loop_
_atom_site_type_symbol
_atom_site_label
_atom_site_fract_x
_atom_site_fract_y
_atom_site_fract_z
Si Si1 0.922866 0.587929 0.148354
Si Si2 0.121315 0.279929 0.302222
Si Si3 0.155577 0.005226 0.644825
Si Si4 0.567922 0.578591 0.239572
Si Si5 0.703727 0.511496 0.518634
Si Si6 0.547331 0.903079 0.855919
O O1 0.892696 0.896059 0.205474
O O2 0.748675 0.508204 0.191589
O O3 0.028087 0.452747 0.226181
O O4 0.000000 0.500000 0.000000
O O5 0.182482 0.461084 0.395036
O O6 0.271146 0.120601 0.208628
O O7 0.006407 0.063313 0.369739
O O8 0.252267 0.235577 0.567217
O O9 0.256576 0.743273 0.576323
O O10 0.463705 0.505944 0.380014
O O11 0.504541 0.390474 0.152280
O O12 0.527880 0.887076 0.219620
O O13 0.500000 0.000000 0.000000
#
# Coordination Sequence:
#
# PCOD9066769 Si02
#       6
#     2   2   2   2   2   2
#     4  12  30  49  74 112 156 197 243 300 377 447
#     4  11  26  46  79 112 145 192 251 310 367 431
#     4  12  26  46  79 106 151 193 245 310 366 434
#     4  11  27  48  72 108 151 192 241 309 366 441
#     4  11  25  48  77 109 143 191 258 302 366 432
#     4  11  25  46  76 103 146 201 252 297 356 436
#
# _framework density 24.633189000000002
#
# number of rings (size 3 to 8) (size 9 to 14) (size 15 to 20)
#    0.000    0.667    1.667    4.500   11.667    2.000 
#    0.000    0.000    0.000    0.000    0.000    0.000 
#    0.000    0.000    0.000    0.000    0.000    0.000 
#
# Total GULP energy -67118.561987 kJ/mol
# GULP energy per Si atom -5593.213499 kJ/mol
# Density = 2.457712 g / cm^3
# Si number density = 24.633189 Si / 1000 Ang^3
#
#
#
# Elastic Constant Matrix: (Units=GPa)
#
#
# Indices 1 2 3 4 5 6 
#
# 1 154.5755 30.9761 65.1372 -3.9549 -50.6841 0.4996
# 2 30.9761 134.8594 57.4134 19.5223 -21.1716 8.0967
# 3 65.1372 57.4134 181.2937 34.4046 -28.8290 0.6958
# 4 -3.9549 19.5223 34.4046 44.3784 -7.7266 -0.2491
# 5 -50.6841 -21.1716 -28.8290 -7.7266 35.5223 5.6859
# 6 0.4996 8.0967 0.6958 -0.2491 5.6859 31.5723
#
#
#
# Elastic Compliance Matrix: (Units=1/GPa)
#
#
# Indices 1 2 3 4 5 6 
#
# 1 0.015012 0.000559 -0.003636 0.007561 0.021094 -0.004040
# 2 0.000559 0.009364 -0.002070 -0.001636 0.004864 -0.003253
# 3 -0.003636 -0.002070 0.008493 -0.006161 -0.000952 0.000524
# 4 0.007561 -0.001636 -0.006161 0.030737 0.011728 -0.001434
# 5 0.021094 0.004864 -0.000952 0.011728 0.065035 -0.013180
# 6 -0.004040 -0.003253 0.000524 -0.001434 -0.013180 0.034922
#
#
# Mechanical properties :
#
#
# Convention : Reuss Voigt Hill
#
# Bulk Modulus (GPa) = 44.29384 86.42021 65.35702
# Shear Modulus (GPa) = 27.56605 43.44140 35.50373
#
# Velocity S-wave (km/s) = 3.34887 4.20400 3.80056
# Velocity P-wave (km/s) = 5.74227 7.66315 6.77117
#
# Compressibility (1/GPa) = 0.02257650
#
# Stress axis : x y z
#
# Youngs Moduli (GPa) = 66.61155 106.79646 117.73711
#
# Poissons Ratio (x) = -0.05973 0.42808
# Poissons Ratio (y) = -0.03726 0.24370
# Poissons Ratio (z) = 0.24219 0.22106
#
# Static dielectric constant tensor:
#      x y z
#    x 1.959560 -0.018390 0.057310 
#    y -0.018390 2.005830 -0.028910 
#    z 0.057310 -0.028910 1.955440 
# 
# From -- ./inp_files/57704.got.cif
#   From: 2010.05.17/outbox.cif.g08.bks.cpg/sg2_29_cif.got.tgz:57704.got - 2010.06.03 11:33:40.
