data_PCOD9066983
_publ_section_title
;
Structure prediction by ZEFSAII (Michael W. Deem and Ramdas Pophale) SiO2 
 PCOD9066983
Probable space group: P -1
;
_chemical_formula_sum "Si O2"
_cell_formula_units_Z 15
_cell_length_a 12.746228
_cell_length_b 8.526969
_cell_length_c 21.166820
_cell_angle_alpha 45.030838
_cell_angle_beta 29.479013
_cell_angle_gamma 65.604295
_cell_volume 652.040266
_symmetry_space_group_name_H-M "P -1"
_symmetry_group_IT_number 2
_symmetry_cell_setting 'triclinic'
loop_
_space_group_symop_operation_xyz
x,y,z
-x,-y,-z
loop_
_atom_site_type_symbol
_atom_site_label
_atom_site_fract_x
_atom_site_fract_y
_atom_site_fract_z
Si Si1 0.004191 0.042540 0.168322
Si Si2 0.775548 0.242661 0.814652
Si Si3 0.206633 0.793861 0.944483
Si Si4 0.050661 0.174378 0.488121
Si Si5 0.559033 0.335171 0.250777
Si Si6 0.243677 0.280714 0.735256
Si Si7 0.500000 0.000000 0.500000
Si Si8 0.481540 0.750744 0.930183
O O1 0.767604 0.049604 0.314795
O O2 0.036469 0.854529 0.252301
O O3 0.275625 0.339525 0.934698
O O4 0.944818 0.917424 0.164902
O O5 0.874522 0.527454 0.650400
O O6 0.719546 0.275342 0.907010
O O7 0.500000 0.000000 0.000000
O O8 0.263703 0.727146 0.865725
O O9 0.378823 0.761170 0.912791
O O10 0.289787 0.101727 0.808540
O O11 0.904392 0.615507 0.177696
O O12 0.281094 0.200258 0.399749
O O13 0.000000 0.000000 0.500000
O O14 0.773161 0.012650 0.714595
O O15 0.513708 0.207020 0.379510
O O16 0.500000 0.500000 0.500000
O O17 0.500000 0.500000 0.000000
#
# Coordination Sequence:
#
# PCOD9066983 Si02
#       8
#     2   2   2   2   2   2   1   2
#     4  12  28  51  74 113 156 200 259 328 388 471
#     4  12  27  51  76 115 156 198 256 327 400 465
#     4  11  25  47  74 108 149 192 255 321 377 461
#     4  12  26  48  80 117 150 200 260 314 397 472
#     4  12  27  50  76 111 156 206 260 324 388 470
#     4  11  27  47  75 109 143 198 256 316 388 452
#     4  12  30  48  80 106 154 212 266 308 402 456
#     4  12  26  46  78 112 152 200 250 324 393 471
#
# _framework density 23.004714
#
# number of rings (size 3 to 8) (size 9 to 14) (size 15 to 20)
#    0.000    0.267    6.667    0.400    5.600    3.733 
#    0.000    0.000    0.000    0.000    0.000    0.000 
#    0.000    0.000    0.000    0.000    0.000    0.000 
#
# Total GULP energy -83741.947902 kJ/mol
# GULP energy per Si atom -5582.796527 kJ/mol
# Density = 2.295235 g / cm^3
# Si number density = 23.004714 Si / 1000 Ang^3
#
#
#
# Elastic Constant Matrix: (Units=GPa)
#
#
# Indices 1 2 3 4 5 6 
#
# 1 99.6606 45.7517 38.3522 -8.0742 6.4812 -27.7953
# 2 45.7517 87.2731 36.9140 -7.0876 -3.3997 -38.0988
# 3 38.3522 36.9140 138.8600 1.6782 15.9674 -14.5471
# 4 -8.0742 -7.0876 1.6782 43.1084 -0.0689 3.4093
# 5 6.4812 -3.3997 15.9674 -0.0689 33.5083 -0.4058
# 6 -27.7953 -38.0988 -14.5471 3.4093 -0.4058 45.3938
#
#
#
# Elastic Compliance Matrix: (Units=1/GPa)
#
#
# Indices 1 2 3 4 5 6 
#
# 1 0.014468 -0.004993 -0.002019 0.001657 -0.002293 0.003876
# 2 -0.004993 0.022212 -0.003634 0.001733 0.005129 0.014336
# 3 -0.002019 -0.003634 0.009101 -0.001233 -0.004333 -0.001316
# 4 0.001657 0.001733 -0.001233 0.023819 0.000495 0.000289
# 5 -0.002293 0.005129 -0.004333 0.000495 0.032895 0.001769
# 6 0.003876 0.014336 -0.001316 0.000289 0.001769 0.036007
#
#
# Mechanical properties :
#
#
# Convention : Reuss Voigt Hill
#
# Bulk Modulus (GPa) = 40.83762 63.09215 51.96489
# Shear Modulus (GPa) = 29.76972 38.05380 33.91176
#
# Velocity S-wave (km/s) = 3.60122 4.07157 3.84360
# Velocity P-wave (km/s) = 5.92302 7.04193 6.50657
#
# Compressibility (1/GPa) = 0.02448722
#
# Stress axis : x y z
#
# Youngs Moduli (GPa) = 69.12003 45.02061 109.88341
#
# Poissons Ratio (x) = 0.22479 0.22184
# Poissons Ratio (y) = 0.34513 0.39937
# Poissons Ratio (z) = 0.13954 0.16363
#
# Static dielectric constant tensor:
#      x y z
#    x 1.846790 0.002570 0.020320 
#    y 0.002570 1.953880 -0.060810 
#    z 0.020320 -0.060810 1.858640 
# 
# From -- ./inp_files/469893.got.cif
#   From: 2010.05.17/outbox.cif.g08.bks.cpg/sg2_235_cif.got.tgz:469893.got - 2010.06.03 11:33:40.
