data_PCOD9066552
_publ_section_title
;
Structure prediction by ZEFSAII (Michael W. Deem and Ramdas Pophale) SiO2 
 PCOD9066552
Probable space group: P -1
;
_chemical_formula_sum "Si O2"
_cell_formula_units_Z 13
_cell_length_a 8.570836
_cell_length_b 9.164457
_cell_length_c 8.451120
_cell_angle_alpha 118.604937
_cell_angle_beta 93.104157
_cell_angle_gamma 64.549960
_cell_volume 516.523404
_symmetry_space_group_name_H-M "P -1"
_symmetry_group_IT_number 2
_symmetry_cell_setting 'triclinic'
loop_
_space_group_symop_operation_xyz
x,y,z
-x,-y,-z
loop_
_atom_site_type_symbol
_atom_site_label
_atom_site_fract_x
_atom_site_fract_y
_atom_site_fract_z
Si Si1 0.209163 0.150600 0.136730
Si Si2 0.456691 0.791312 0.844104
Si Si3 0.000000 0.500000 0.500000
Si Si4 0.457234 0.441853 0.796940
Si Si5 0.286733 0.903985 0.555390
Si Si6 0.914469 0.377578 0.005958
Si Si7 0.034480 0.744850 0.384226
O O1 0.362547 0.200681 0.112446
O O2 0.117978 0.272679 0.348558
O O3 0.056241 0.211038 0.030460
O O4 0.312169 0.925313 0.032789
O O5 0.479154 0.583391 0.748756
O O6 0.386386 0.878728 0.713088
O O7 0.938121 0.445204 0.632242
O O8 0.570171 0.232766 0.632874
O O9 0.500000 0.500000 0.000000
O O10 0.250709 0.499713 0.828899
O O11 0.138660 0.832801 0.534134
O O12 0.167374 0.112540 0.594233
O O13 0.869099 0.298741 0.804576
O O14 0.000000 0.500000 0.000000
#
# Coordination Sequence:
#
# PCOD9066552 Si02
#       7
#     2   2   1   2   2   2   2
#     4  11  26  45  69 105 140 185 232 294 355 416
#     4  11  26  47  71 101 144 189 235 293 348 427
#     4  12  26  44  72 104 140 182 232 292 358 428
#     4  12  26  44  73 107 140 187 243 288 351 421
#     4  11  25  47  72 103 144 187 239 291 351 423
#     4  12  24  47  70 100 145 187 230 297 355 418
#     4  11  25  46  71 106 141 185 234 295 359 418
#
# _framework density 25.168267
#
# number of rings (size 3 to 8) (size 9 to 14) (size 15 to 20)
#    0.000    0.615    4.615    2.308    6.462    0.615 
#    0.000    1.538    0.000    0.000    0.000    0.000 
#    0.000    0.000    0.000    0.000    0.000    0.000 
#
# Total GULP energy -72571.660539 kJ/mol
# GULP energy per Si atom -5582.435426 kJ/mol
# Density = 2.511098 g / cm^3
# Si number density = 25.168267 Si / 1000 Ang^3
#
#
#
# Elastic Constant Matrix: (Units=GPa)
#
#
# Indices 1 2 3 4 5 6 
#
# 1 79.2310 14.1578 4.3779 -4.6145 -4.2493 -14.5502
# 2 14.1578 103.1126 21.8260 -2.4039 -11.9460 -10.6963
# 3 4.3779 21.8260 119.0828 18.2841 -18.9869 -22.8117
# 4 -4.6145 -2.4039 18.2841 47.0210 -14.7873 -9.8743
# 5 -4.2493 -11.9460 -18.9869 -14.7873 38.4819 11.6348
# 6 -14.5502 -10.6963 -22.8117 -9.8743 11.6348 31.7440
#
#
#
# Elastic Compliance Matrix: (Units=1/GPa)
#
#
# Indices 1 2 3 4 5 6 
#
# 1 0.014343 -0.001256 0.000764 0.002720 0.000377 0.007408
# 2 -0.001256 0.010736 -0.001505 0.002239 0.002821 0.001623
# 3 0.000764 -0.001505 0.010449 -0.002146 0.002167 0.005890
# 4 0.002720 0.002239 -0.002146 0.026279 0.008350 0.005573
# 5 0.000377 0.002821 0.002167 0.008350 0.033273 -0.006917
# 6 0.007408 0.001623 0.005890 0.005573 -0.006917 0.043946
#
#
# Mechanical properties :
#
#
# Convention : Reuss Voigt Hill
#
# Bulk Modulus (GPa) = 31.70971 42.46108 37.08540
# Shear Modulus (GPa) = 32.56702 40.85371 36.71036
#
# Velocity S-wave (km/s) = 3.60108 4.03329 3.82330
# Velocity P-wave (km/s) = 5.46963 6.21269 5.85296
#
# Compressibility (1/GPa) = 0.03153609
#
# Stress axis : x y z
#
# Youngs Moduli (GPa) = 69.72244 93.14037 95.70698
#
# Poissons Ratio (x) = 0.11694 -0.07316
# Poissons Ratio (y) = 0.08754 0.14400
# Poissons Ratio (z) = -0.05329 0.14014
#
# Static dielectric constant tensor:
#      x y z
#    x 1.976970 -0.027550 -0.011720 
#    y -0.027550 1.934780 0.034420 
#    z -0.011720 0.034420 2.000460 
# 
# From -- ./inp_files/153003.got.cif
#   From: 2010.05.17/outbox.cif.g08.bks.cpg/sg2_77_cif.got.tgz:153003.got - 2010.06.03 11:33:40.
