data_PCOD9066319
_publ_section_title
;
Structure prediction by ZEFSAII (Michael W. Deem and Ramdas Pophale) SiO2 
 PCOD9066319
Probable space group: P -1
;
_chemical_formula_sum "Si O2"
_cell_formula_units_Z 10
_cell_length_a 9.234570
_cell_length_b 10.726711
_cell_length_c 8.245208
_cell_angle_alpha 85.871924
_cell_angle_beta 128.753360
_cell_angle_gamma 56.170325
_cell_volume 402.499993
_symmetry_space_group_name_H-M "P -1"
_symmetry_group_IT_number 2
_symmetry_cell_setting 'triclinic'
loop_
_space_group_symop_operation_xyz
x,y,z
-x,-y,-z
loop_
_atom_site_type_symbol
_atom_site_label
_atom_site_fract_x
_atom_site_fract_y
_atom_site_fract_z
Si Si1 0.244947 0.911440 0.927046
Si Si2 0.796505 0.726874 0.815791
Si Si3 0.693513 0.354385 0.799263
Si Si4 0.233140 0.731198 0.640293
Si Si5 0.339449 0.104378 0.643224
O O1 0.276657 0.804324 0.113250
O O2 0.470110 0.908200 0.103184
O O3 0.299966 0.799057 0.816458
O O4 0.917605 0.130434 0.639235
O O5 0.705897 0.789312 0.560336
O O6 0.520827 0.889039 0.725964
O O7 0.000000 0.500000 0.000000
O O8 0.991800 0.747129 0.988077
O O9 0.500000 0.500000 0.500000
O O10 0.523817 0.508095 0.815887
O O11 0.972523 0.777008 0.518162
#
# Coordination Sequence:
#
# PCOD9066319 Si02
#       5
#     2   2   2   2   2
#     4  11  25  45  74 102 142 184 235 288 348 416
#     4  11  26  44  70 104 146 179 234 294 347 416
#     4  12  26  46  71 107 141 186 234 290 352 412
#     4  11  26  46  73 104 142 185 234 288 348 419
#     4  11  25  47  70 105 139 187 233 286 352 415
#
# _framework density 24.844719999999999
#
# number of rings (size 3 to 8) (size 9 to 14) (size 15 to 20)
#    0.000    0.800    2.000    3.600    5.600    4.000 
#    0.000    0.000    0.000    0.000    0.000    0.000 
#    0.000    0.000    0.000    0.000    0.000    0.000 
#
# Total GULP energy -56047.758957 kJ/mol
# GULP energy per Si atom -5604.775896 kJ/mol
# Density = 2.478817 g / cm^3
# Si number density = 24.844720 Si / 1000 Ang^3
#
#
#
# Elastic Constant Matrix: (Units=GPa)
#
#
# Indices 1 2 3 4 5 6 
#
# 1 124.9852 25.4768 37.6243 2.9604 -8.6561 18.0490
# 2 25.4768 87.1998 24.2323 -6.3879 -4.5444 3.7712
# 3 37.6243 24.2323 123.3009 21.7852 -20.7642 10.9501
# 4 2.9604 -6.3879 21.7852 61.3787 8.3258 4.9156
# 5 -8.6561 -4.5444 -20.7642 8.3258 51.0411 -12.7495
# 6 18.0490 3.7712 10.9501 4.9156 -12.7495 42.4560
#
#
#
# Elastic Compliance Matrix: (Units=1/GPa)
#
#
# Indices 1 2 3 4 5 6 
#
# 1 0.009583 -0.001967 -0.002403 0.000531 -0.000485 -0.003486
# 2 -0.001967 0.012871 -0.002442 0.002394 -0.000606 -0.000136
# 3 -0.002403 -0.002442 0.010901 -0.004669 0.004663 0.000368
# 4 0.000531 0.002394 -0.004669 0.019168 -0.005498 -0.003105
# 5 -0.000485 -0.000606 0.004663 -0.005498 0.023972 0.006893
# 6 -0.003486 -0.000136 0.000368 -0.003105 0.006893 0.027382
#
#
# Mechanical properties :
#
#
# Convention : Reuss Voigt Hill
#
# Bulk Modulus (GPa) = 50.68656 56.68364 53.68510
# Shear Modulus (GPa) = 40.29688 47.51867 43.90777
#
# Velocity S-wave (km/s) = 4.03171 4.37810 4.20847
# Velocity P-wave (km/s) = 6.48988 6.95857 6.72831
#
# Compressibility (1/GPa) = 0.01972910
#
# Stress axis : x y z
#
# Youngs Moduli (GPa) = 104.35397 77.69333 91.73293
#
# Poissons Ratio (x) = 0.15286 0.22047
# Poissons Ratio (y) = 0.20531 0.22403
# Poissons Ratio (z) = 0.25080 0.18974
#
# Static dielectric constant tensor:
#      x y z
#    x 1.976980 -0.043190 -0.063230 
#    y -0.043190 2.074220 -0.035620 
#    z -0.063230 -0.035620 1.987780 
# 
# From -- ./inp_files/144282.got.cif
#   From: 2010.05.17/outbox.cif.g08.bks.cpg/sg2_73_cif.got.tgz:144282.got - 2010.06.03 11:33:40.
