data_PCOD9066302
_publ_section_title
;
Structure prediction by ZEFSAII (Michael W. Deem and Ramdas Pophale) SiO2 
 PCOD9066302
Probable space group: P -1
;
_chemical_formula_sum "Si O2"
_cell_formula_units_Z 14
_cell_length_a 16.097760
_cell_length_b 15.172250
_cell_length_c 5.328500
_cell_angle_alpha 97.491246
_cell_angle_beta 105.909609
_cell_angle_gamma 27.883621
_cell_volume 566.922112
_symmetry_space_group_name_H-M "P -1"
_symmetry_group_IT_number 2
_symmetry_cell_setting 'triclinic'
loop_
_space_group_symop_operation_xyz
x,y,z
-x,-y,-z
loop_
_atom_site_type_symbol
_atom_site_label
_atom_site_fract_x
_atom_site_fract_y
_atom_site_fract_z
Si Si1 0.866596 0.499263 0.743133
Si Si2 0.102209 0.815304 0.927119
Si Si3 0.427236 0.187337 0.990105
Si Si4 0.874546 0.846655 0.799877
Si Si5 0.657975 0.413522 0.460839
Si Si6 0.790729 0.761111 0.338323
Si Si7 0.538500 0.701576 0.257678
O O1 0.730330 0.564613 0.483098
O O2 0.014796 0.431369 0.718522
O O3 0.721738 0.685733 0.865533
O O4 0.000249 0.304990 0.923393
O O5 0.218056 0.731247 0.733559
O O6 0.973729 0.845368 0.773890
O O7 0.213238 0.683751 0.224458
O O8 0.000000 0.000000 0.000000
O O9 0.328042 0.219776 0.700187
O O10 0.441947 0.280098 0.001747
O O11 0.630706 0.960570 0.121100
O O12 0.855709 0.774716 0.595116
O O13 0.657114 0.073663 0.745538
O O14 0.500000 0.500000 0.500000
O O15 0.539975 0.599919 0.299361
#
# Coordination Sequence:
#
# PCOD9066302 Si02
#       7
#     2   2   2   2   2   2   2
#     4  12  23  46  70 104 144 200 256 308 401 452
#     4  12  27  51  81 120 158 207 263 329 404 482
#     4  11  25  45  73 109 150 204 263 321 391 467
#     4  12  26  46  75 108 152 199 255 326 390 469
#     4  12  27  51  81 120 158 207 263 329 404 482
#     4  11  25  45  73 109 150 204 263 321 391 467
#     4  12  26  46  75 108 152 199 255 326 390 469
#
# _framework density 24.694749000000002
#
# number of rings (size 3 to 8) (size 9 to 14) (size 15 to 20)
#    0.000    0.286    4.286    4.714    0.000    4.000 
#    0.000    0.000    0.000    0.000    0.000    0.000 
#    0.000    0.000    0.000    0.000    0.000    0.000 
#
# Total GULP energy -78136.364872 kJ/mol
# GULP energy per Si atom -5581.168919 kJ/mol
# Density = 2.463854 g / cm^3
# Si number density = 24.694749 Si / 1000 Ang^3
#
#
#
# Elastic Constant Matrix: (Units=GPa)
#
#
# Indices 1 2 3 4 5 6 
#
# 1 136.0828 27.3977 29.0102 0.6099 -29.1813 -4.6864
# 2 27.3977 125.6201 37.7519 -0.6908 -13.2087 -19.5975
# 3 29.0102 37.7519 74.2916 -6.1794 -12.6585 -18.2345
# 4 0.6099 -0.6908 -6.1794 43.7092 -7.8751 -1.4605
# 5 -29.1813 -13.2087 -12.6585 -7.8751 35.1656 -7.2658
# 6 -4.6864 -19.5975 -18.2345 -1.4605 -7.2658 43.0169
#
#
#
# Elastic Compliance Matrix: (Units=1/GPa)
#
#
# Indices 1 2 3 4 5 6 
#
# 1 0.009488 -0.000537 -0.001721 0.001025 0.007565 0.001372
# 2 -0.000537 0.009971 -0.003493 0.000298 0.002830 0.003492
# 3 -0.001721 -0.003493 0.019281 0.004161 0.006717 0.007670
# 4 0.001025 0.000298 0.004161 0.025228 0.009017 0.004391
# 5 0.007565 0.002830 0.006717 0.009017 0.042797 0.012496
# 6 0.001372 0.003492 0.007670 0.004391 0.012496 0.030498
#
#
# Mechanical properties :
#
#
# Convention : Reuss Voigt Hill
#
# Bulk Modulus (GPa) = 36.71387 58.25712 47.48549
# Shear Modulus (GPa) = 31.67648 40.50066 36.08857
#
# Velocity S-wave (km/s) = 3.58540 4.05415 3.82696
# Velocity P-wave (km/s) = 5.66034 6.74959 6.22882
#
# Compressibility (1/GPa) = 0.02723766
#
# Stress axis : x y z
#
# Youngs Moduli (GPa) = 105.39083 100.28663 51.86516
#
# Poissons Ratio (x) = 0.05385 0.08927
# Poissons Ratio (y) = 0.05659 0.18118
# Poissons Ratio (z) = 0.18140 0.35033
#
# Static dielectric constant tensor:
#      x y z
#    x 2.006380 0.047170 -0.054420 
#    y 0.047170 2.025010 -0.024190 
#    z -0.054420 -0.024190 2.146890 
# 
# From -- ./inp_files/97912.got.cif
#   From: 2010.05.17/outbox.cif.g08.bks.cpg/sg2_49_cif.got.tgz:97912.got - 2010.06.03 11:33:40.
