data_PCOD9066201
_publ_section_title
;
Structure prediction by ZEFSAII (Michael W. Deem and Ramdas Pophale) SiO2 
 PCOD9066201
Probable space group: P -1
;
_chemical_formula_sum "Si O2"
_cell_formula_units_Z 14
_cell_length_a 17.136871
_cell_length_b 14.652027
_cell_length_c 6.639415
_cell_angle_alpha 48.969017
_cell_angle_beta 56.841566
_cell_angle_gamma 31.297009
_cell_volume 652.863093
_symmetry_space_group_name_H-M "P -1"
_symmetry_group_IT_number 2
_symmetry_cell_setting 'triclinic'
loop_
_space_group_symop_operation_xyz
x,y,z
-x,-y,-z
loop_
_atom_site_type_symbol
_atom_site_label
_atom_site_fract_x
_atom_site_fract_y
_atom_site_fract_z
Si Si1 0.679781 0.811652 0.013659
Si Si2 0.532400 0.386386 0.813755
Si Si3 0.135208 0.597874 0.536730
Si Si4 0.750176 0.274044 0.996474
Si Si5 0.714027 0.998860 0.995715
Si Si6 0.110710 0.314677 0.458807
Si Si7 0.064518 0.045985 0.464088
O O1 0.721261 0.881906 0.997571
O O2 0.776676 0.729345 0.789267
O O3 0.729010 0.632302 0.292115
O O4 0.500000 0.000000 0.000000
O O5 0.500000 0.500000 0.500000
O O6 0.677200 0.284186 0.888111
O O7 0.556817 0.222756 0.948219
O O8 0.389867 0.551401 0.916985
O O9 0.175906 0.673406 0.239539
O O10 0.000406 0.654625 0.558782
O O11 0.070781 0.722153 0.650351
O O12 0.864384 0.073791 0.251971
O O13 0.807034 0.013939 0.747202
O O14 0.786375 0.875147 0.275103
O O15 0.000000 0.500000 0.500000
O O16 0.000000 0.000000 0.500000
#
# Coordination Sequence:
#
# PCOD9066201 Si02
#       7
#     2   2   2   2   2   2   2
#     4  12  30  47  72 109 148 196 245 304 367 443
#     4  11  25  45  71 104 150 195 238 302 377 436
#     4  12  25  47  74 103 148 186 245 306 363 444
#     4  11  26  44  71 110 143 190 247 301 371 444
#     4  12  25  45  75 102 146 191 243 300 364 442
#     4  12  25  49  75 103 143 196 249 300 370 429
#     4  12  24  44  76 108 143 188 242 305 369 432
#
# _framework density 21.444006000000002
#
# number of rings (size 3 to 8) (size 9 to 14) (size 15 to 20)
#    0.000    0.286    4.286    4.286    4.000    1.714 
#    0.000    0.000    0.000    0.000    0.000    0.000 
#    0.000    0.000    0.000    0.000    0.000    0.000 
#
# Total GULP energy -78270.006331 kJ/mol
# GULP energy per Si atom -5590.714738 kJ/mol
# Density = 2.139520 g / cm^3
# Si number density = 21.444006 Si / 1000 Ang^3
#
#
#
# Elastic Constant Matrix: (Units=GPa)
#
#
# Indices 1 2 3 4 5 6 
#
# 1 64.8395 17.0247 -12.0013 1.4238 -0.6363 10.2171
# 2 17.0247 124.1889 14.6136 -14.6066 -0.9703 25.0097
# 3 -12.0013 14.6136 79.3227 -10.0292 0.7403 -4.4448
# 4 1.4238 -14.6066 -10.0292 43.6768 -4.0960 -6.3968
# 5 -0.6363 -0.9703 0.7403 -4.0960 31.4061 0.8933
# 6 10.2171 25.0097 -4.4448 -6.3968 0.8933 46.1734
#
#
#
# Elastic Compliance Matrix: (Units=1/GPa)
#
#
# Indices 1 2 3 4 5 6 
#
# 1 0.016924 -0.002277 0.002715 -0.001027 0.000143 -0.002395
# 2 -0.002277 0.009841 -0.002145 0.002248 0.000736 -0.004736
# 3 0.002715 -0.002145 0.013883 0.002710 -0.000050 0.002274
# 4 -0.001027 0.002248 0.002710 0.024991 0.003168 0.002672
# 5 0.000143 0.000736 -0.000050 0.003168 0.032299 -0.000621
# 6 -0.002395 -0.004736 0.002274 0.002672 -0.000621 0.025354
#
#
# Mechanical properties :
#
#
# Convention : Reuss Voigt Hill
#
# Bulk Modulus (GPa) = 26.85784 34.18059 30.51922
# Shear Modulus (GPa) = 35.94059 40.83221 38.38640
#
# Velocity S-wave (km/s) = 4.09836 4.36837 4.23552
# Velocity P-wave (km/s) = 5.91162 6.43565 6.17919
#
# Compressibility (1/GPa) = 0.03723307
#
# Stress axis : x y z
#
# Youngs Moduli (GPa) = 59.08626 101.61886 72.02903
#
# Poissons Ratio (x) = 0.23137 -0.19553
# Poissons Ratio (y) = 0.13453 0.15453
# Poissons Ratio (z) = -0.16040 0.21802
#
# Static dielectric constant tensor:
#      x y z
#    x 1.554950 0.204870 0.340010 
#    y 0.204870 1.630630 -0.267830 
#    z 0.340010 -0.267830 1.306030 
# 
# From -- ./inp_files/26827.got.cif
#   From: 2010.05.17/outbox.cif.g08.bks.cpg/sg2_14_cif.got.tgz:26827.got - 2010.06.03 11:33:40.
