data_PCOD9066427
_publ_section_title
;
Structure prediction by ZEFSAII (Michael W. Deem and Ramdas Pophale) SiO2 
 PCOD9066427
Probable space group: P -1
;
_chemical_formula_sum "Si O2"
_cell_formula_units_Z 16
_cell_length_a 14.139671
_cell_length_b 14.290579
_cell_length_c 7.722792
_cell_angle_alpha 130.423468
_cell_angle_beta 127.575992
_cell_angle_gamma 30.213435
_cell_volume 592.806329
_symmetry_space_group_name_H-M "P -1"
_symmetry_group_IT_number 2
_symmetry_cell_setting 'triclinic'
loop_
_space_group_symop_operation_xyz
x,y,z
-x,-y,-z
loop_
_atom_site_type_symbol
_atom_site_label
_atom_site_fract_x
_atom_site_fract_y
_atom_site_fract_z
Si Si1 0.127889 0.034922 0.587863
Si Si2 0.557680 0.123247 0.627324
Si Si3 0.698178 0.413771 0.620932
Si Si4 0.521321 0.781887 0.747927
Si Si5 0.175557 0.273268 0.956563
Si Si6 0.758076 0.459031 0.124875
Si Si7 0.863821 0.721467 0.671175
Si Si8 0.786065 0.175679 0.909612
O O1 0.117758 0.188309 0.709521
O O2 0.904408 0.185288 0.552050
O O3 0.323584 0.895329 0.753418
O O4 0.198387 0.881229 0.340554
O O5 0.536447 0.133806 0.409323
O O6 0.346987 0.330032 0.696618
O O7 0.664139 0.166069 0.847185
O O8 0.681186 0.914272 0.592160
O O9 0.500000 0.500000 0.500000
O O10 0.662437 0.554161 0.617141
O O11 0.713161 0.466790 0.886057
O O12 0.638212 0.800296 0.984262
O O13 0.188585 0.248976 0.150017
O O14 0.000000 0.500000 0.000000
O O15 0.983334 0.290680 0.189144
O O16 0.707165 0.376704 0.076172
O O17 0.000000 0.500000 0.500000
O O18 0.000000 0.000000 0.000000
#
# Coordination Sequence:
#
# PCOD9066427 Si02
#       8
#     2   2   2   2   2   2   2   2
#     4  11  26  47  74 110 150 197 261 305 386 442
#     4  11  27  48  75 112 148 201 255 312 384 454
#     4  12  27  46  74 112 152 197 250 324 376 452
#     4  11  26  47  77 108 145 206 253 311 383 457
#     4  12  25  49  77 108 153 203 250 318 382 457
#     4  12  26  48  73 112 152 197 258 312 387 449
#     4  12  28  48  76 113 154 196 256 318 382 458
#     4  11  25  45  78 106 149 207 252 316 374 452
#
# _framework density 26.990265000000001
#
# number of rings (size 3 to 8) (size 9 to 14) (size 15 to 20)
#    0.000    0.500    3.750    3.000    8.750    4.000 
#    0.000    0.000    0.000    0.000    0.000    0.000 
#    0.000    0.000    0.000    0.000    0.000    0.000 
#
# Total GULP energy -89424.669994 kJ/mol
# GULP energy per Si atom -5589.041875 kJ/mol
# Density = 2.692883 g / cm^3
# Si number density = 26.990265 Si / 1000 Ang^3
#
#
#
# Elastic Constant Matrix: (Units=GPa)
#
#
# Indices 1 2 3 4 5 6 
#
# 1 82.8580 61.4390 20.9013 -11.4974 28.7052 -19.8772
# 2 61.4390 238.6885 36.0885 2.1860 16.5776 1.7370
# 3 20.9013 36.0885 74.5338 1.7005 15.2482 -0.5493
# 4 -11.4974 2.1860 1.7005 56.6970 -11.1208 18.8895
# 5 28.7052 16.5776 15.2482 -11.1208 48.4013 -11.6906
# 6 -19.8772 1.7370 -0.5493 18.8895 -11.6906 76.6091
#
#
#
# Elastic Compliance Matrix: (Units=1/GPa)
#
#
# Indices 1 2 3 4 5 6 
#
# 1 0.019622 -0.004240 -0.001720 0.001349 -0.008476 0.003549
# 2 -0.004240 0.005484 -0.001622 -0.000541 0.000786 -0.000983
# 3 -0.001720 -0.001622 0.015473 -0.001300 -0.003730 -0.000547
# 4 0.001349 -0.000541 -0.001300 0.019991 0.003408 -0.004056
# 5 -0.008476 0.000786 -0.003730 0.003408 0.027650 0.001135
# 6 0.003549 -0.000983 -0.000547 -0.004056 0.001135 0.015166
#
#
# Mechanical properties :
#
#
# Convention : Reuss Voigt Hill
#
# Bulk Modulus (GPa) = 39.34775 70.32644 54.83710
# Shear Modulus (GPa) = 39.36362 54.85157 47.10760
#
# Velocity S-wave (km/s) = 3.82309 4.51296 4.18228
# Velocity P-wave (km/s) = 5.83937 7.29853 6.60934
#
# Compressibility (1/GPa) = 0.02541442
#
# Stress axis : x y z
#
# Youngs Moduli (GPa) = 50.96411 182.35798 64.62878
#
# Poissons Ratio (x) = 0.77322 0.11117
# Poissons Ratio (y) = 0.21609 0.10481
# Poissons Ratio (z) = 0.08766 0.29574
#
# Static dielectric constant tensor:
#      x y z
#    x 2.267940 -0.015330 0.058420 
#    y -0.015330 2.106660 -0.003490 
#    z 0.058420 -0.003490 2.106590 
# 
# From -- ./inp_files/315984.got.cif
#   From: 2010.05.17/outbox.cif.g08.bks.cpg/sg2_158_cif.got.tgz:315984.got - 2010.06.03 11:33:40.
