data_PCOD9066212
_publ_section_title
;
Structure prediction by ZEFSAII (Michael W. Deem and Ramdas Pophale) SiO2 
 PCOD9066212
Probable space group: P -1
;
_chemical_formula_sum "Si O2"
_cell_formula_units_Z 10
_cell_length_a 18.374522
_cell_length_b 8.420306
_cell_length_c 5.056575
_cell_angle_alpha 61.598800
_cell_angle_beta 115.786638
_cell_angle_gamma 146.477884
_cell_volume 378.860892
_symmetry_space_group_name_H-M "P -1"
_symmetry_group_IT_number 2
_symmetry_cell_setting 'triclinic'
loop_
_space_group_symop_operation_xyz
x,y,z
-x,-y,-z
loop_
_atom_site_type_symbol
_atom_site_label
_atom_site_fract_x
_atom_site_fract_y
_atom_site_fract_z
Si Si1 0.337660 0.201861 0.655447
Si Si2 0.869283 0.361822 0.526985
Si Si3 0.095218 0.345325 0.128075
Si Si4 0.195867 0.212389 0.754388
Si Si5 0.455902 0.718324 0.099163
O O1 0.227629 0.077152 0.779882
O O2 0.420314 0.525986 0.445813
O O3 0.428122 0.200372 0.908179
O O4 0.257496 0.987814 0.443997
O O5 0.890823 0.480284 0.756075
O O6 0.000000 0.500000 0.500000
O O7 0.846124 0.485825 0.187426
O O8 0.164483 0.293732 0.401583
O O9 0.938754 0.034153 0.097153
O O10 0.325497 0.494783 0.893693
O O11 0.500000 0.000000 0.000000
#
# Coordination Sequence:
#
# PCOD9066212 Si02
#       5
#     2   2   2   2   2
#     4  11  26  44  76 104 144 193 252 293 371 434
#     4  12  24  47  72 112 149 192 238 304 367 438
#     4  11  27  43  78 110 150 192 237 301 378 431
#     4  11  25  45  71 107 145 190 247 303 359 449
#     4  11  26  49  70 103 145 197 248 307 357 432
#
# _framework density 26.394908999999998
#
# number of rings (size 3 to 8) (size 9 to 14) (size 15 to 20)
#    0.000    0.800    2.000    3.600    8.400    2.400 
#    0.000    0.000    0.000    0.000    0.000    0.000 
#    0.000    0.000    0.000    0.000    0.000    0.000 
#
# Total GULP energy -56135.533029 kJ/mol
# GULP energy per Si atom -5613.553303 kJ/mol
# Density = 2.633483 g / cm^3
# Si number density = 26.394909 Si / 1000 Ang^3
#
#
#
# Elastic Constant Matrix: (Units=GPa)
#
#
# Indices 1 2 3 4 5 6 
#
# 1 147.0327 50.9300 38.3158 12.2510 50.0622 -3.8098
# 2 50.9300 192.2787 61.6254 17.0914 26.2056 -21.2294
# 3 38.3158 61.6254 131.0902 -6.6447 30.0265 -8.4412
# 4 12.2510 17.0914 -6.6447 57.3024 -1.5579 9.8355
# 5 50.0622 26.2056 30.0265 -1.5579 46.2824 12.9462
# 6 -3.8098 -21.2294 -8.4412 9.8355 12.9462 38.0747
#
#
#
# Elastic Compliance Matrix: (Units=1/GPa)
#
#
# Indices 1 2 3 4 5 6 
#
# 1 0.013027 0.000079 0.000311 -0.004662 -0.016828 0.008342
# 2 0.000079 0.007602 -0.002275 -0.003770 -0.004818 0.006355
# 3 0.000311 -0.002275 0.010363 0.001119 -0.006574 0.003006
# 4 -0.004662 -0.003770 0.001119 0.021966 0.010418 -0.011537
# 5 -0.016828 -0.004818 -0.006574 0.010418 0.054742 -0.027132
# 6 0.008342 0.006355 0.003006 -0.011537 -0.027132 0.043514
#
#
# Mechanical properties :
#
#
# Convention : Reuss Voigt Hill
#
# Bulk Modulus (GPa) = 36.73614 85.79376 61.26495
# Shear Modulus (GPa) = 30.47664 49.63394 40.05529
#
# Velocity S-wave (km/s) = 3.40169 4.34110 3.89979
# Velocity P-wave (km/s) = 5.42003 7.59614 6.59841
#
# Compressibility (1/GPa) = 0.02722115
#
# Stress axis : x y z
#
# Youngs Moduli (GPa) = 76.76312 131.53572 96.49413
#
# Poissons Ratio (x) = -0.01036 -0.02997
# Poissons Ratio (y) = -0.00605 0.21955
# Poissons Ratio (z) = -0.02384 0.29928
#
# Static dielectric constant tensor:
#      x y z
#    x 2.115160 0.002230 0.006600 
#    y 0.002230 2.055140 -0.071210 
#    z 0.006600 -0.071210 2.102730 
# 
# From -- ./inp_files/29086.got.cif
#   From: 2010.05.17/outbox.cif.g08.bks.cpg/sg2_15_cif.got.tgz:29086.got - 2010.06.03 11:33:40.
