data_PCOD9066283
_publ_section_title
;
Structure prediction by ZEFSAII (Michael W. Deem and Ramdas Pophale) SiO2 
 PCOD9066283
Probable space group: P -1
;
_chemical_formula_sum "Si O2"
_cell_formula_units_Z 16
_cell_length_a 6.747641
_cell_length_b 9.505941
_cell_length_c 19.945877
_cell_angle_alpha 116.326652
_cell_angle_beta 125.407618
_cell_angle_gamma 47.992202
_cell_volume 771.538698
_symmetry_space_group_name_H-M "P -1"
_symmetry_group_IT_number 2
_symmetry_cell_setting 'triclinic'
loop_
_space_group_symop_operation_xyz
x,y,z
-x,-y,-z
loop_
_atom_site_type_symbol
_atom_site_label
_atom_site_fract_x
_atom_site_fract_y
_atom_site_fract_z
Si Si1 0.598139 0.183180 0.361424
Si Si2 0.634460 0.977773 0.949786
Si Si3 0.843637 0.404550 0.418494
Si Si4 0.244015 0.700514 0.964506
Si Si5 0.447037 0.039575 0.418769
Si Si6 0.069791 0.688016 0.774792
Si Si7 0.157163 0.984128 0.771211
Si Si8 0.529872 0.317062 0.709017
O O1 0.700395 0.325777 0.421058
O O2 0.638891 0.085736 0.420602
O O3 0.786556 0.060718 0.307081
O O4 0.259143 0.263970 0.291174
O O5 0.437100 0.968652 0.853088
O O6 0.662895 0.152354 0.980478
O O7 0.955481 0.785565 0.970630
O O8 0.500000 0.000000 0.000000
O O9 0.574727 0.552700 0.349886
O O10 0.000000 0.500000 0.500000
O O11 0.114773 0.228265 0.393830
O O12 0.141775 0.700953 0.868718
O O13 0.500000 0.500000 0.000000
O O14 0.500000 0.000000 0.500000
O O15 0.495350 0.856376 0.352888
O O16 0.115231 0.836795 0.774298
O O17 0.306801 0.470587 0.751661
O O18 0.871464 0.198819 0.770112
#
# Coordination Sequence:
#
# PCOD9066283 Si02
#       8
#     2   2   2   2   2   2   2   2
#     4  12  24  48  75 102 145 192 240 300 368 431
#     4  11  25  45  73 106 151 193 235 305 365 425
#     4  12  26  48  69 109 147 180 241 310 362 440
#     4  11  27  44  71 113 147 190 250 293 368 437
#     4  12  26  48  70 108 148 182 242 306 366 442
#     4  12  25  47  71 105 151 184 248 311 346 448
#     4  12  25  47  73 106 147 192 246 302 364 433
#     4  12  24  46  74 102 145 186 243 304 364 429
#
# _framework density 20.737781999999999
#
# number of rings (size 3 to 8) (size 9 to 14) (size 15 to 20)
#    0.000    0.250    8.750    0.000    1.750    5.500 
#    0.000    0.000    0.000    0.000    0.000    0.000 
#    0.000    0.000    0.000    0.000    0.000    0.000 
#
# Total GULP energy -89287.708246 kJ/mol
# GULP energy per Si atom -5580.481765 kJ/mol
# Density = 2.069058 g / cm^3
# Si number density = 20.737782 Si / 1000 Ang^3
#
#
#
# Elastic Constant Matrix: (Units=GPa)
#
#
# Indices 1 2 3 4 5 6 
#
# 1 116.3995 38.9549 30.0324 1.2295 -14.0139 -0.1991
# 2 38.9549 128.9217 10.6404 -7.3293 -4.9094 -21.5641
# 3 30.0324 10.6404 84.4842 5.7206 -2.0956 5.5918
# 4 1.2295 -7.3293 5.7206 35.0525 0.8042 0.3448
# 5 -14.0139 -4.9094 -2.0956 0.8042 37.8266 -0.2268
# 6 -0.1991 -21.5641 5.5918 0.3448 -0.2268 37.6184
#
#
#
# Elastic Compliance Matrix: (Units=1/GPa)
#
#
# Indices 1 2 3 4 5 6 
#
# 1 0.010904 -0.003130 -0.003277 -0.000569 0.003457 -0.001223
# 2 -0.003130 0.009838 -0.000652 0.002216 0.000068 0.005700
# 3 -0.003277 -0.000652 0.013374 -0.002169 -0.000526 -0.002362
# 4 -0.000569 0.002216 -0.002169 0.029368 -0.000660 0.001316
# 5 0.003457 0.000068 -0.000526 -0.000660 0.027713 0.000309
# 6 -0.001223 0.005700 -0.002362 0.001316 0.000309 0.030185
#
#
# Mechanical properties :
#
#
# Convention : Reuss Voigt Hill
#
# Bulk Modulus (GPa) = 50.00318 54.34009 52.17164
# Shear Modulus (GPa) = 35.17054 38.77799 36.97426
#
# Velocity S-wave (km/s) = 4.12268 4.32895 4.22707
# Velocity P-wave (km/s) = 6.84298 7.15868 7.00261
#
# Compressibility (1/GPa) = 0.01999873
#
# Stress axis : x y z
#
# Youngs Moduli (GPa) = 91.70929 101.64576 74.77390
#
# Poissons Ratio (x) = 0.31811 0.24501
# Poissons Ratio (y) = 0.28702 0.04876
# Poissons Ratio (z) = 0.30051 0.06629
#
# Static dielectric constant tensor:
#      x y z
#    x 1.755340 0.018490 0.001770 
#    y 0.018490 1.762860 -0.011410 
#    z 0.001770 -0.011410 1.779670 
# 
# From -- ./inp_files/358186.got.cif
#   From: 2010.05.17/outbox.cif.g08.bks.cpg/sg2_180_cif.got.tgz:358186.got - 2010.06.03 11:33:40.
