data_PCOD9066734
_publ_section_title
;
Structure prediction by ZEFSAII (Michael W. Deem and Ramdas Pophale) SiO2 
 PCOD9066734
Probable space group: P -1
;
_chemical_formula_sum "Si O2"
_cell_formula_units_Z 16
_cell_length_a 13.976929
_cell_length_b 8.254399
_cell_length_c 15.144729
_cell_angle_alpha 92.858921
_cell_angle_beta 141.082899
_cell_angle_gamma 115.052000
_cell_volume 741.249707
_symmetry_space_group_name_H-M "P -1"
_symmetry_group_IT_number 2
_symmetry_cell_setting 'triclinic'
loop_
_space_group_symop_operation_xyz
x,y,z
-x,-y,-z
loop_
_atom_site_type_symbol
_atom_site_label
_atom_site_fract_x
_atom_site_fract_y
_atom_site_fract_z
Si Si1 0.394375 0.295645 0.031055
Si Si2 0.658061 0.505803 0.835729
Si Si3 0.124327 0.219036 0.664981
Si Si4 0.261846 0.955034 0.503938
Si Si5 0.937765 0.381827 0.802961
Si Si6 0.917510 0.171553 0.107365
Si Si7 0.663558 0.059925 0.747784
Si Si8 0.714000 0.744188 0.706050
O O1 0.245009 0.221400 0.834935
O O2 0.289160 0.048432 0.987780
O O3 0.366220 0.407148 0.091187
O O4 0.662089 0.511646 0.210777
O O5 0.744234 0.683303 0.821879
O O6 0.420562 0.237762 0.631502
O O7 0.834437 0.502105 0.984303
O O8 0.925550 0.175220 0.559317
O O9 0.000000 0.000000 0.500000
O O10 0.132126 0.819322 0.316659
O O11 0.437331 0.943730 0.627978
O O12 0.964297 0.568362 0.771891
O O13 0.750862 0.253992 0.741696
O O14 0.081296 0.148471 0.207170
O O15 0.836587 0.161715 0.952482
O O16 0.658212 0.886276 0.687943
O O17 0.500000 0.500000 0.500000
#
# Coordination Sequence:
#
# PCOD9066734 Si02
#       8
#     2   2   2   2   2   2   2   2
#     4  11  25  46  75 100 131 179 234 297 350 403
#     4  12  22  42  73 100 141 180 233 281 344 413
#     4  11  25  48  77 101 129 174 241 298 352 411
#     4  12  25  42  71 102 133 186 234 280 347 411
#     4  12  24  44  67 103 150 187 216 275 344 423
#     4  12  24  44  67 100 146 186 227 280 341 412
#     4  12  23  42  66 101 148 184 224 275 339 418
#     4  12  25  39  66 106 143 189 232 277 335 420
#
# _framework density 21.585169
#
# number of rings (size 3 to 8) (size 9 to 14) (size 15 to 20)
#    0.000    0.250    6.250    4.125    1.750    0.000 
#    2.250    1.250    0.000    0.000    0.000    0.000 
#    0.000    0.000    0.000    0.000    0.000    0.000 
#
# Total GULP energy -89416.214388 kJ/mol
# GULP energy per Si atom -5588.513399 kJ/mol
# Density = 2.153604 g / cm^3
# Si number density = 21.585169 Si / 1000 Ang^3
#
#
#
# Elastic Constant Matrix: (Units=GPa)
#
#
# Indices 1 2 3 4 5 6 
#
# 1 131.6487 39.2171 53.9618 7.0322 19.8836 5.2287
# 2 39.2171 101.0360 39.8853 15.5455 7.9210 -2.7874
# 3 53.9618 39.8853 104.6416 29.1355 -2.1470 5.9510
# 4 7.0322 15.5455 29.1355 21.9656 -0.7351 1.9687
# 5 19.8836 7.9210 -2.1470 -0.7351 55.4997 3.9265
# 6 5.2287 -2.7874 5.9510 1.9687 3.9265 30.5076
#
#
#
# Elastic Compliance Matrix: (Units=1/GPa)
#
#
# Indices 1 2 3 4 5 6 
#
# 1 0.011452 -0.002525 -0.007036 0.007396 -0.003860 -0.000801
# 2 -0.002525 0.012768 -0.002171 -0.005619 -0.001256 0.002547
# 3 -0.007036 -0.002171 0.020706 -0.023383 0.003461 -0.001968
# 4 0.007396 -0.005619 -0.023383 0.078284 -0.001569 -0.002070
# 5 -0.003860 -0.001256 0.003461 -0.001569 0.019876 -0.002585
# 6 -0.000801 0.002547 -0.001968 -0.002070 -0.002585 0.033999
#
#
# Mechanical properties :
#
#
# Convention : Reuss Voigt Hill
#
# Bulk Modulus (GPa) = 46.59384 67.05052 56.82218
# Shear Modulus (GPa) = 24.07301 35.21205 29.64253
#
# Velocity S-wave (km/s) = 3.34317 4.04333 3.70980
# Velocity P-wave (km/s) = 6.04444 7.27521 6.68820
#
# Compressibility (1/GPa) = 0.02146206
#
# Stress axis : x y z
#
# Youngs Moduli (GPa) = 87.32166 78.32275 48.29573
#
# Poissons Ratio (x) = 0.19776 0.33981
# Poissons Ratio (y) = 0.22048 0.10483
# Poissons Ratio (z) = 0.61440 0.17001
#
# Static dielectric constant tensor:
#      x y z
#    x 1.796890 -0.042880 -0.012940 
#    y -0.042880 1.869560 0.045390 
#    z -0.012940 0.045390 1.852790 
# 
# From -- ./inp_files/528663.got.cif
#   From: 2010.05.17/outbox.cif.g08.bks.cpg/sg2_265_cif.got.tgz:528663.got - 2010.06.03 11:33:40.
