data_PCOD9066671
_publ_section_title
;
Structure prediction by ZEFSAII (Michael W. Deem and Ramdas Pophale) SiO2 
 PCOD9066671
Probable space group: P -1
;
_chemical_formula_sum "Si O2"
_cell_formula_units_Z 15
_cell_length_a 5.958748
_cell_length_b 6.090428
_cell_length_c 21.081110
_cell_angle_alpha 59.248945
_cell_angle_beta 76.373130
_cell_angle_gamma 87.676181
_cell_volume 636.051681
_symmetry_space_group_name_H-M "P -1"
_symmetry_group_IT_number 2
_symmetry_cell_setting 'triclinic'
loop_
_space_group_symop_operation_xyz
x,y,z
-x,-y,-z
loop_
_atom_site_type_symbol
_atom_site_label
_atom_site_fract_x
_atom_site_fract_y
_atom_site_fract_z
Si Si1 0.000000 0.500000 0.500000
Si Si2 0.823233 0.104851 0.760820
Si Si3 0.359874 0.199362 0.440583
Si Si4 0.580112 0.660304 0.170902
Si Si5 0.453779 0.103213 0.311799
Si Si6 0.655692 0.578007 0.038664
Si Si7 0.754448 0.636825 0.367527
Si Si8 0.961431 0.107047 0.105714
O O1 0.856924 0.696456 0.525651
O O2 0.828252 0.551201 0.444307
O O3 0.615865 0.205081 0.799181
O O4 0.020542 0.329727 0.696743
O O5 0.720477 0.991765 0.718755
O O6 0.934299 0.907821 0.828798
O O7 0.311525 0.094414 0.388375
O O8 0.548685 0.443762 0.383147
O O9 0.500000 0.000000 0.500000
O O10 0.571994 0.378411 0.242501
O O11 0.529223 0.643520 0.101772
O O12 0.819621 0.836716 0.139154
O O13 0.649704 0.910084 0.336098
O O14 0.792942 0.332312 0.081454
O O15 0.500000 0.500000 0.000000
O O16 0.837213 0.812418 0.969857
#
# Coordination Sequence:
#
# PCOD9066671 Si02
#       8
#     1   2   2   2   2   2   2   2
#     4  12  26  50  80 110 148 194 258 314 390 474
#     4  12  27  47  74 108 150 202 257 312 383 468
#     4  12  28  52  80 112 153 200 253 326 396 463
#     4  12  25  46  74 107 153 198 255 314 386 456
#     4  12  26  49  75 108 154 202 254 319 388 459
#     4  11  25  47  75 109 152 198 252 317 385 455
#     4  12  27  49  75 111 150 193 261 315 381 482
#     4  11  25  46  73 109 148 199 256 312 381 466
#
# _framework density 23.582989999999999
#
# number of rings (size 3 to 8) (size 9 to 14) (size 15 to 20)
#    0.000    0.267    1.333    8.000    1.867    9.067 
#    2.400    2.667    0.000    0.000    0.000    0.000 
#    0.000    0.000    0.000    0.000    0.000    0.000 
#
# Total GULP energy -83877.693287 kJ/mol
# GULP energy per Si atom -5591.846219 kJ/mol
# Density = 2.352931 g / cm^3
# Si number density = 23.582990 Si / 1000 Ang^3
#
#
#
# Elastic Constant Matrix: (Units=GPa)
#
#
# Indices 1 2 3 4 5 6 
#
# 1 110.0651 65.3343 60.6133 -0.2183 25.4936 -3.2291
# 2 65.3343 109.4641 78.0368 22.8345 5.0433 -5.1967
# 3 60.6133 78.0368 118.7983 31.5324 13.2320 -1.7227
# 4 -0.2183 22.8345 31.5324 62.1704 11.5137 0.0346
# 5 25.4936 5.0433 13.2320 11.5137 61.6935 -2.1078
# 6 -3.2291 -5.1967 -1.7227 0.0346 -2.1078 25.6316
#
#
#
# Elastic Compliance Matrix: (Units=1/GPa)
#
#
# Indices 1 2 3 4 5 6 
#
# 1 0.018711 -0.008949 -0.004747 0.007117 -0.007324 -0.000388
# 2 -0.008949 0.021776 -0.009082 -0.004309 0.004775 0.003076
# 3 -0.004747 -0.009082 0.018393 -0.005978 -0.000166 -0.001209
# 4 0.007117 -0.004309 -0.005978 0.021723 -0.005390 -0.000851
# 5 -0.007324 0.004775 -0.000166 -0.005390 0.019944 0.001682
# 6 -0.000388 0.003076 -0.001209 -0.000851 0.001682 0.039647
#
#
# Mechanical properties :
#
#
# Convention : Reuss Voigt Hill
#
# Bulk Modulus (GPa) = 75.05085 82.92180 78.98632
# Shear Modulus (GPa) = 26.28909 38.85531 32.57220
#
# Velocity S-wave (km/s) = 3.34241 4.06347 3.72045
# Velocity P-wave (km/s) = 6.84023 7.56662 7.21258
#
# Compressibility (1/GPa) = 0.01332430
#
# Stress axis : x y z
#
# Youngs Moduli (GPa) = 53.44436 45.92171 54.36786
#
# Poissons Ratio (x) = 0.41096 0.25809
# Poissons Ratio (y) = 0.47829 0.49376
# Poissons Ratio (z) = 0.25370 0.41705
#
# Static dielectric constant tensor:
#      x y z
#    x 1.861900 0.008350 -0.025260 
#    y 0.008350 1.939660 -0.028690 
#    z -0.025260 -0.028690 1.896570 
# 
# From -- ./inp_files/580925.got.cif
#   From: 2010.05.17/outbox.cif.g08.bks.cpg/sg2_291_cif.got.tgz:580925.got - 2010.06.03 11:33:40.
