data_PCOD9066288
_publ_section_title
;
Structure prediction by ZEFSAII (Michael W. Deem and Ramdas Pophale) SiO2 
 PCOD9066288
Probable space group: P -1
;
_chemical_formula_sum "Si O2"
_cell_formula_units_Z 13
_cell_length_a 12.024209
_cell_length_b 8.706606
_cell_length_c 5.978133
_cell_angle_alpha 110.976778
_cell_angle_beta 108.306520
_cell_angle_gamma 61.679385
_cell_volume 506.441871
_symmetry_space_group_name_H-M "P -1"
_symmetry_group_IT_number 2
_symmetry_cell_setting 'triclinic'
loop_
_space_group_symop_operation_xyz
x,y,z
-x,-y,-z
loop_
_atom_site_type_symbol
_atom_site_label
_atom_site_fract_x
_atom_site_fract_y
_atom_site_fract_z
Si Si1 0.457101 0.866560 0.710767
Si Si2 0.983070 0.648752 0.254097
Si Si3 0.201663 0.395591 0.513800
Si Si4 0.255693 0.805745 0.260969
Si Si5 0.691992 0.937926 0.892517
Si Si6 0.000000 0.000000 0.500000
Si Si7 0.393117 0.433862 0.981196
O O1 0.385199 0.783560 0.461297
O O2 0.552282 0.952118 0.727306
O O3 0.541473 0.715673 0.866089
O O4 0.340719 0.022659 0.849080
O O5 0.114856 0.589098 0.453845
O O6 0.953442 0.850966 0.273172
O O7 0.879648 0.640752 0.360023
O O8 0.000000 0.500000 0.000000
O O9 0.220123 0.253876 0.253478
O O10 0.332936 0.379180 0.699250
O O11 0.130539 0.920815 0.382816
O O12 0.263317 0.915625 0.103677
O O13 0.274881 0.605353 0.101614
O O14 0.500000 0.500000 0.000000
#
# Coordination Sequence:
#
# PCOD9066288 Si02
#       7
#     2   2   2   2   2   1   2
#     4  11  27  43  78 106 148 205 251 317 396 457
#     4  11  27  52  76 111 151 211 257 318 383 470
#     4  11  27  48  73 108 158 195 256 319 388 467
#     4  12  26  49  70 113 153 196 264 316 384 469
#     4  11  25  45  73 107 146 197 252 319 385 461
#     4  12  28  46  82 110 152 204 266 316 388 462
#     4  12  26  48  76 114 154 198 256 331 396 459
#
# _framework density 25.669281000000002
#
# number of rings (size 3 to 8) (size 9 to 14) (size 15 to 20)
#    0.000    0.615    3.077    2.769   12.923    0.000 
#    0.000    3.077    0.000    0.000    0.000    0.000 
#    0.000    0.000    0.000    0.000    0.000    0.000 
#
# Total GULP energy -72540.613061 kJ/mol
# GULP energy per Si atom -5580.047159 kJ/mol
# Density = 2.561086 g / cm^3
# Si number density = 25.669281 Si / 1000 Ang^3
#
#
#
# Elastic Constant Matrix: (Units=GPa)
#
#
# Indices 1 2 3 4 5 6 
#
# 1 124.7689 17.1648 -5.1347 5.0017 -19.7615 -7.1263
# 2 17.1648 70.4080 24.5443 3.7871 -6.5694 -8.1878
# 3 -5.1347 24.5443 63.8192 24.8356 6.0716 -11.7601
# 4 5.0017 3.7871 24.8356 62.0266 -15.1282 -0.2417
# 5 -19.7615 -6.5694 6.0716 -15.1282 41.9123 15.1230
# 6 -7.1263 -8.1878 -11.7601 -0.2417 15.1230 39.7377
#
#
#
# Elastic Compliance Matrix: (Units=1/GPa)
#
#
# Indices 1 2 3 4 5 6 
#
# 1 0.008968 -0.002328 0.001461 -0.000325 0.003445 0.000248
# 2 -0.002328 0.018192 -0.009555 0.004155 0.005155 -0.001433
# 3 0.001461 -0.009555 0.028820 -0.014613 -0.014708 0.012331
# 4 -0.000325 0.004155 -0.014613 0.025384 0.015062 -0.009105
# 5 0.003445 0.005155 -0.014708 0.015062 0.040328 -0.017929
# 6 0.000248 -0.001433 0.012331 -0.009105 -0.017929 0.035331
#
#
# Mechanical properties :
#
#
# Convention : Reuss Voigt Hill
#
# Bulk Modulus (GPa) = 28.46063 36.90499 32.68281
# Shear Modulus (GPa) = 26.37416 43.56343 34.96879
#
# Velocity S-wave (km/s) = 3.20888 4.12406 3.69491
# Velocity P-wave (km/s) = 4.98405 6.08979 5.56445
#
# Compressibility (1/GPa) = 0.03513625
#
# Stress axis : x y z
#
# Youngs Moduli (GPa) = 111.50689 54.96846 34.69825
#
# Poissons Ratio (x) = 0.12796 -0.05070
# Poissons Ratio (y) = 0.25958 0.33155
# Poissons Ratio (z) = -0.16294 0.52524
#
# Static dielectric constant tensor:
#      x y z
#    x 1.930470 -0.042860 -0.044860 
#    y -0.042860 2.105820 -0.011050 
#    z -0.044860 -0.011050 1.953070 
# 
# From -- ./inp_files/61215.got.cif
#   From: 2010.05.17/outbox.cif.g08.bks.cpg/sg2_31_cif.got.tgz:61215.got - 2010.06.03 11:33:40.
