data_PCOD9066496
_publ_section_title
;
Structure prediction by ZEFSAII (Michael W. Deem and Ramdas Pophale) SiO2 
 PCOD9066496
Probable space group: P -1
;
_chemical_formula_sum "Si O2"
_cell_formula_units_Z 16
_cell_length_a 16.988622
_cell_length_b 11.826689
_cell_length_c 5.190095
_cell_angle_alpha 99.916580
_cell_angle_beta 62.123112
_cell_angle_gamma 123.645598
_cell_volume 761.999693
_symmetry_space_group_name_H-M "P -1"
_symmetry_group_IT_number 2
_symmetry_cell_setting 'triclinic'
loop_
_space_group_symop_operation_xyz
x,y,z
-x,-y,-z
loop_
_atom_site_type_symbol
_atom_site_label
_atom_site_fract_x
_atom_site_fract_y
_atom_site_fract_z
Si Si1 0.549895 0.634606 0.804090
Si Si2 0.775874 0.067885 0.339819
Si Si3 0.624978 0.094228 0.911435
Si Si4 0.609168 0.859079 0.182762
Si Si5 0.605714 0.321088 0.271637
Si Si6 0.143676 0.213104 0.354405
Si Si7 0.100281 0.912411 0.326405
Si Si8 0.728302 0.626295 0.276301
O O1 0.459261 0.651868 0.832700
O O2 0.620015 0.622862 0.475084
O O3 0.500000 0.500000 0.000000
O O4 0.621470 0.763162 0.931496
O O5 0.702672 0.122879 0.564744
O O6 0.845574 0.081239 0.483370
O O7 0.686300 0.911853 0.331137
O O8 0.851734 0.127499 0.998889
O O9 0.647432 0.232362 0.056061
O O10 0.500000 0.000000 0.000000
O O11 0.638020 0.996737 0.047606
O O12 0.486784 0.774411 0.421307
O O13 0.693680 0.469492 0.299593
O O14 0.194284 0.278691 0.577826
O O15 0.026198 0.184424 0.503271
O O16 0.127965 0.065266 0.288764
O O17 0.217916 0.313499 0.055123
#
# Coordination Sequence:
#
# PCOD9066496 Si02
#       8
#     2   2   2   2   2   2   2   2
#     4  12  25  41  61 101 147 190 217 266 338 425
#     4  12  24  42  70 100 136 177 219 292 343 395
#     4  12  25  42  67 102 138 189 233 282 328 393
#     4  12  24  41  67 101 138 187 225 281 325 407
#     4  12  27  42  64  99 148 186 230 271 328 424
#     4  11  26  44  72 100 133 176 230 290 349 408
#     4  11  25  46  70 103 132 171 233 294 347 402
#     4  12  26  43  67 101 141 185 218 277 350 416
#
# _framework density 20.997382000000002
#
# number of rings (size 3 to 8) (size 9 to 14) (size 15 to 20)
#    0.000    0.250    5.000    3.750    7.000    2.000 
#    0.000    0.000    0.000    4.500    0.000    0.000 
#    0.000    0.000    0.000    0.000    0.000    0.000 
#
# Total GULP energy -89607.037128 kJ/mol
# GULP energy per Si atom -5600.439820 kJ/mol
# Density = 2.094959 g / cm^3
# Si number density = 20.997382 Si / 1000 Ang^3
#
#
#
# Elastic Constant Matrix: (Units=GPa)
#
#
# Indices 1 2 3 4 5 6 
#
# 1 86.7469 16.0623 30.3821 3.0168 -1.9893 9.1520
# 2 16.0623 95.2593 24.0538 12.6165 -8.3752 -18.4660
# 3 30.3821 24.0538 122.4537 8.7054 -9.1822 -6.3825
# 4 3.0168 12.6165 8.7054 34.6592 0.7573 -4.3427
# 5 -1.9893 -8.3752 -9.1822 0.7573 36.4587 1.1415
# 6 9.1520 -18.4660 -6.3825 -4.3427 1.1415 29.7954
#
#
#
# Elastic Compliance Matrix: (Units=1/GPa)
#
#
# Indices 1 2 3 4 5 6 
#
# 1 0.013905 -0.002846 -0.003267 -0.000188 -0.000503 -0.006743
# 2 -0.002846 0.013562 -0.001088 -0.003411 0.002492 0.008454
# 3 -0.003267 -0.001088 0.009551 -0.001500 0.001943 0.002082
# 4 -0.000188 -0.003411 -0.001500 0.030802 -0.001880 0.002184
# 5 -0.000503 0.002492 0.001943 -0.001880 0.028478 0.000750
# 6 -0.006743 0.008454 0.002082 0.002184 0.000750 0.041608
#
#
# Mechanical properties :
#
#
# Convention : Reuss Voigt Hill
#
# Bulk Modulus (GPa) = 44.21453 49.49516 46.85485
# Shear Modulus (GPa) = 31.27970 35.78010 33.52990
#
# Velocity S-wave (km/s) = 3.86384 4.13246 4.00041
# Velocity P-wave (km/s) = 6.40380 6.81123 6.61065
#
# Compressibility (1/GPa) = 0.02261700
#
# Stress axis : x y z
#
# Youngs Moduli (GPa) = 71.91465 73.73585 104.69584
#
# Poissons Ratio (x) = 0.20987 0.34202
# Poissons Ratio (y) = 0.20469 0.11389
# Poissons Ratio (z) = 0.23493 0.08021
#
# Static dielectric constant tensor:
#      x y z
#    x 1.801470 0.004150 0.013960 
#    y 0.004150 1.732280 0.012110 
#    z 0.013960 0.012110 1.788820 
# 
# From -- ./inp_files/109167.got.cif
#   From: 2010.05.17/outbox.cif.g08.bks.cpg/sg2_55_cif.got.tgz:109167.got - 2010.06.03 11:33:40.
