data_PCOD9066217
_publ_section_title
;
Structure prediction by ZEFSAII (Michael W. Deem and Ramdas Pophale) SiO2 
 PCOD9066217
Probable space group: P -1
;
_chemical_formula_sum "Si O2"
_cell_formula_units_Z 15
_cell_length_a 11.625266
_cell_length_b 12.466808
_cell_length_c 5.176524
_cell_angle_alpha 80.725935
_cell_angle_beta 54.511400
_cell_angle_gamma 95.732637
_cell_volume 585.149757
_symmetry_space_group_name_H-M "P -1"
_symmetry_group_IT_number 2
_symmetry_cell_setting 'triclinic'
loop_
_space_group_symop_operation_xyz
x,y,z
-x,-y,-z
loop_
_atom_site_type_symbol
_atom_site_label
_atom_site_fract_x
_atom_site_fract_y
_atom_site_fract_z
Si Si1 0.225481 0.736037 0.877192
Si Si2 0.612365 0.718672 0.947418
Si Si3 0.736991 0.051547 0.553964
Si Si4 0.406166 0.408006 0.463189
Si Si5 0.000000 0.000000 0.500000
Si Si6 0.473231 0.892093 0.811490
Si Si7 0.850527 0.515383 0.076155
Si Si8 0.070804 0.256923 0.444525
O O1 0.219104 0.815761 0.610669
O O2 0.374834 0.800994 0.789824
O O3 0.223887 0.606774 0.892658
O O4 0.077370 0.742646 0.212847
O O5 0.536701 0.623003 0.874945
O O6 0.533058 0.816888 0.972998
O O7 0.777212 0.744370 0.613154
O O8 0.622399 0.693405 0.248621
O O9 0.870641 0.997822 0.452699
O O10 0.623676 0.983010 0.514752
O O11 0.638141 0.044876 0.937826
O O12 0.500000 0.500000 0.500000
O O13 0.261224 0.452618 0.589998
O O14 0.036796 0.138408 0.387703
O O15 0.890015 0.623448 0.798845
O O16 0.000000 0.500000 0.000000
#
# Coordination Sequence:
#
# PCOD9066217 Si02
#       8
#     2   2   2   2   1   2   2   2
#     4  12  25  46  75 109 143 196 252 306 391 449
#     4  11  25  46  72 105 154 192 251 315 373 453
#     4  11  26  47  73 109 145 194 252 314 377 452
#     4  11  25  45  71 110 145 202 249 302 388 449
#     4  12  22  50  72 104 150 186 258 298 384 448
#     4  11  25  47  71 107 150 191 251 312 379 450
#     4  11  25  45  74 107 150 188 253 315 376 453
#     4  11  25  47  70 114 143 202 248 317 376 455
#
# _framework density 25.634461999999999
#
# number of rings (size 3 to 8) (size 9 to 14) (size 15 to 20)
#    0.000    0.800    2.667    3.600    3.733    3.733 
#    4.800    0.000    0.000    0.000    0.000    0.000 
#    0.000    0.000    0.000    0.000    0.000    0.000 
#
# Total GULP energy -83521.479251 kJ/mol
# GULP energy per Si atom -5568.098617 kJ/mol
# Density = 2.557612 g / cm^3
# Si number density = 25.634462 Si / 1000 Ang^3
#
#
#
# Elastic Constant Matrix: (Units=GPa)
#
#
# Indices 1 2 3 4 5 6 
#
# 1 67.6688 32.0179 30.3471 -0.2236 8.0430 -3.2323
# 2 32.0179 187.6162 38.6806 -35.5091 9.6962 12.7980
# 3 30.3471 38.6806 77.9932 -10.5311 2.2047 -5.5380
# 4 -0.2236 -35.5091 -10.5311 36.6410 -3.0867 -0.9654
# 5 8.0430 9.6962 2.2047 -3.0867 27.6275 -3.0941
# 6 -3.2323 12.7980 -5.5380 -0.9654 -3.0941 49.9085
#
#
#
# Elastic Compliance Matrix: (Units=1/GPa)
#
#
# Indices 1 2 3 4 5 6 
#
# 1 0.019668 -0.002681 -0.006780 -0.004800 -0.004688 0.000826
# 2 -0.002681 0.007690 -0.001995 0.006694 -0.001270 -0.002316
# 3 -0.006780 -0.001995 0.016968 0.003119 0.001907 0.002134
# 4 -0.004800 0.006694 0.003119 0.034843 0.002597 -0.000846
# 5 -0.004688 -0.001270 0.001907 0.002597 0.038443 0.002667
# 6 0.000826 -0.002316 0.002134 -0.000846 0.002667 0.021070
#
#
# Mechanical properties :
#
#
# Convention : Reuss Voigt Hill
#
# Bulk Modulus (GPa) = 46.70105 59.48551 53.09328
# Shear Modulus (GPa) = 29.63298 38.31758 33.97528
#
# Velocity S-wave (km/s) = 3.40366 3.87042 3.64452
# Velocity P-wave (km/s) = 5.80553 6.57489 6.20215
#
# Compressibility (1/GPa) = 0.02141279
#
# Stress axis : x y z
#
# Youngs Moduli (GPa) = 50.84458 130.04715 58.93480
#
# Poissons Ratio (x) = 0.34868 0.39958
# Poissons Ratio (y) = 0.13632 0.11758
# Poissons Ratio (z) = 0.34473 0.25945
#
# Static dielectric constant tensor:
#      x y z
#    x 2.083920 0.085510 0.031460 
#    y 0.085510 2.118750 -0.077720 
#    z 0.031460 -0.077720 2.101010 
# 
# From -- ./inp_files/66124.got.cif
#   From: 2010.05.17/outbox.cif.g08.bks.cpg/sg2_34_cif.got.tgz:66124.got - 2010.06.03 11:33:40.
