data_PCOD9066359
_publ_section_title
;
Structure prediction by ZEFSAII (Michael W. Deem and Ramdas Pophale) SiO2 
 PCOD9066359
Probable space group: P -1
;
_chemical_formula_sum "Si O2"
_cell_formula_units_Z 14
_cell_length_a 8.605426
_cell_length_b 12.410852
_cell_length_c 8.413846
_cell_angle_alpha 55.786388
_cell_angle_beta 109.452911
_cell_angle_gamma 129.567813
_cell_volume 572.387547
_symmetry_space_group_name_H-M "P -1"
_symmetry_group_IT_number 2
_symmetry_cell_setting 'triclinic'
loop_
_space_group_symop_operation_xyz
x,y,z
-x,-y,-z
loop_
_atom_site_type_symbol
_atom_site_label
_atom_site_fract_x
_atom_site_fract_y
_atom_site_fract_z
Si Si1 0.604808 0.260386 0.879190
Si Si2 0.916097 0.228605 0.198119
Si Si3 0.614308 0.511335 0.869846
Si Si4 0.661676 0.425435 0.436751
Si Si5 0.312994 0.830036 0.516911
Si Si6 0.161231 0.028517 0.809608
Si Si7 0.013320 0.207942 0.772322
O O1 0.560951 0.341106 0.939963
O O2 0.685904 0.380614 0.658488
O O3 0.391610 0.109179 0.872157
O O4 0.768613 0.233522 0.019087
O O5 0.847958 0.244478 0.334134
O O6 0.147023 0.368534 0.132367
O O7 0.876690 0.056695 0.300945
O O8 0.531931 0.571074 0.656302
O O9 0.500000 0.500000 0.000000
O O10 0.638031 0.292667 0.421144
O O11 0.851942 0.603260 0.315645
O O12 0.205635 0.851647 0.315034
O O13 0.500000 0.000000 0.500000
O O14 0.113717 0.157862 0.717285
O O15 0.011920 0.884112 0.998575
#
# Coordination Sequence:
#
# PCOD9066359 Si02
#       7
#     2   2   2   2   2   2   2
#     4  12  25  49  75 109 144 197 253 299 366 449
#     4  12  27  45  74 110 149 192 241 311 376 428
#     4  12  27  45  72 111 150 189 243 310 367 431
#     4  12  26  49  77 107 148 197 250 300 364 449
#     4  12  27  47  76 111 153 187 248 313 375 430
#     4  11  25  45  75 103 149 194 252 294 365 446
#     4  11  25  46  73 106 143 202 246 298 366 443
#
# _framework density 24.458953000000001
#
# number of rings (size 3 to 8) (size 9 to 14) (size 15 to 20)
#    0.000    0.286    1.429    6.857    6.000    2.857 
#    0.000    0.000    0.000    0.000    0.000    0.000 
#    0.000    0.000    0.000    0.000    0.000    0.000 
#
# Total GULP energy -78553.595295 kJ/mol
# GULP energy per Si atom -5610.971093 kJ/mol
# Density = 2.440328 g / cm^3
# Si number density = 24.458953 Si / 1000 Ang^3
#
#
#
# Elastic Constant Matrix: (Units=GPa)
#
#
# Indices 1 2 3 4 5 6 
#
# 1 84.8619 10.5098 11.6826 -11.5781 4.9267 -11.3823
# 2 10.5098 107.3480 13.3330 -20.0674 -3.5424 -19.0201
# 3 11.6826 13.3330 58.8166 -6.9914 5.7832 3.6457
# 4 -11.5781 -20.0674 -6.9914 25.1846 4.7390 -5.2680
# 5 4.9267 -3.5424 5.7832 4.7390 49.3680 -0.1139
# 6 -11.3823 -19.0201 3.6457 -5.2680 -0.1139 48.9291
#
#
#
# Elastic Compliance Matrix: (Units=1/GPa)
#
#
# Indices 1 2 3 4 5 6 
#
# 1 0.013755 0.001184 -0.002166 0.007981 -0.001789 0.004676
# 2 0.001184 0.012806 -0.002175 0.011544 -0.000037 0.006658
# 3 -0.002166 -0.002175 0.018590 0.002354 -0.002349 -0.002486
# 4 0.007981 0.011544 0.002354 0.056864 -0.005674 0.012278
# 5 -0.001789 -0.000037 -0.002349 -0.005674 0.021250 -0.000817
# 6 0.004676 0.006658 -0.002486 0.012278 -0.000817 0.025619
#
#
# Mechanical properties :
#
#
# Convention : Reuss Voigt Hill
#
# Bulk Modulus (GPa) = 25.74811 35.78637 30.76724
# Shear Modulus (GPa) = 29.73624 39.06307 34.39966
#
# Velocity S-wave (km/s) = 3.49056 4.00069 3.75430
# Velocity P-wave (km/s) = 5.17641 6.00031 5.60352
#
# Compressibility (1/GPa) = 0.03883780
#
# Stress axis : x y z
#
# Youngs Moduli (GPa) = 72.69888 78.08616 53.79184
#
# Poissons Ratio (x) = -0.09243 0.11650
# Poissons Ratio (y) = -0.08605 0.11699
# Poissons Ratio (z) = 0.15745 0.16983
#
# Static dielectric constant tensor:
#      x y z
#    x 1.941940 -0.030910 -0.006530 
#    y -0.030910 1.894940 0.003020 
#    z -0.006530 0.003020 1.968830 
# 
# From -- ./inp_files/185290.got.cif
#   From: 2010.05.17/outbox.cif.g08.bks.cpg/sg2_93_cif.got.tgz:185290.got - 2010.06.03 11:33:40.
