data_PCOD9066500
_publ_section_title
;
Structure prediction by ZEFSAII (Michael W. Deem and Ramdas Pophale) SiO2 
 PCOD9066500
Probable space group: P -1
;
_chemical_formula_sum "Si O2"
_cell_formula_units_Z 14
_cell_length_a 9.113574
_cell_length_b 9.727148
_cell_length_c 10.494425
_cell_angle_alpha 123.992907
_cell_angle_beta 84.342414
_cell_angle_gamma 63.069134
_cell_volume 604.809552
_symmetry_space_group_name_H-M "P -1"
_symmetry_group_IT_number 2
_symmetry_cell_setting 'triclinic'
loop_
_space_group_symop_operation_xyz
x,y,z
-x,-y,-z
loop_
_atom_site_type_symbol
_atom_site_label
_atom_site_fract_x
_atom_site_fract_y
_atom_site_fract_z
Si Si1 0.847317 0.442288 0.538804
Si Si2 0.697688 0.271975 0.842698
Si Si3 0.018703 0.294832 0.913339
Si Si4 0.435233 0.956869 0.613956
Si Si5 0.234726 0.134153 0.313597
Si Si6 0.544438 0.408846 0.660739
Si Si7 0.883352 0.249869 0.153926
O O1 0.807361 0.666990 0.659295
O O2 0.677933 0.459150 0.623145
O O3 0.879060 0.334357 0.339281
O O4 0.052979 0.270073 0.493631
O O5 0.861743 0.290671 0.857442
O O6 0.660025 0.250522 0.687402
O O7 0.746643 0.075824 0.820298
O O8 0.500000 0.500000 0.000000
O O9 0.987615 0.292350 0.065259
O O10 0.219762 0.109086 0.745982
O O11 0.000000 0.500000 0.000000
O O12 0.558396 0.969523 0.710537
O O13 0.488702 0.726903 0.495851
O O14 0.500000 0.000000 0.500000
O O15 0.332575 0.619367 0.805877
O O16 0.000000 0.000000 0.000000
#
# Coordination Sequence:
#
# PCOD9066500 Si02
#       7
#     2   2   2   2   2   2   2
#     4  11  27  45  73 105 144 195 239 287 357 426
#     4  12  25  47  71 107 143 182 241 302 360 414
#     4  12  28  46  74 106 139 187 232 297 364 417
#     4  12  24  44  74 104 141 184 240 291 353 421
#     4  11  25  46  70 104 143 187 241 295 351 427
#     4  12  25  45  75 106 139 193 241 291 352 428
#     4  12  25  47  69 104 151 184 236 291 356 425
#
# _framework density 23.147780999999998
#
# number of rings (size 3 to 8) (size 9 to 14) (size 15 to 20)
#    0.000    0.286    4.286    4.714    4.000    2.286 
#    0.000    1.429    0.000    0.000    0.000    0.000 
#    0.000    0.000    0.000    0.000    0.000    0.000 
#
# Total GULP energy -78115.347928 kJ/mol
# GULP energy per Si atom -5579.667709 kJ/mol
# Density = 2.309510 g / cm^3
# Si number density = 23.147781 Si / 1000 Ang^3
#
#
#
# Elastic Constant Matrix: (Units=GPa)
#
#
# Indices 1 2 3 4 5 6 
#
# 1 178.9514 41.9617 54.3819 28.5982 -24.8423 21.6107
# 2 41.9617 102.3649 54.8202 35.8370 -5.0480 29.4081
# 3 54.3819 54.8202 113.1851 33.1955 -31.3655 12.5583
# 4 28.5982 35.8370 33.1955 49.8343 -0.5455 7.9487
# 5 -24.8423 -5.0480 -31.3655 -0.5455 55.8679 3.3978
# 6 21.6107 29.4081 12.5583 7.9487 3.3978 54.5642
#
#
#
# Elastic Compliance Matrix: (Units=1/GPa)
#
#
# Indices 1 2 3 4 5 6 
#
# 1 0.007136 -0.000593 -0.001628 -0.002248 0.002302 -0.001948
# 2 -0.000593 0.017513 -0.005714 -0.007393 -0.001553 -0.006715
# 3 -0.001628 -0.005714 0.016167 -0.005697 0.007759 0.000350
# 4 -0.002248 -0.007393 -0.005697 0.030082 -0.004700 0.002097
# 5 0.002302 -0.001553 0.007759 -0.004700 0.023253 -0.002624
# 6 -0.001948 -0.006715 0.000350 0.002097 -0.002624 0.022495
#
#
# Mechanical properties :
#
#
# Convention : Reuss Voigt Hill
#
# Bulk Modulus (GPa) = 40.08774 77.42544 58.75659
# Shear Modulus (GPa) = 35.50320 48.27579 41.88949
#
# Velocity S-wave (km/s) = 3.92058 4.57173 4.25862
# Velocity P-wave (km/s) = 6.15226 7.83509 7.04411
#
# Compressibility (1/GPa) = 0.02494528
#
# Stress axis : x y z
#
# Youngs Moduli (GPa) = 140.13452 57.09942 61.85397
#
# Poissons Ratio (x) = 0.03387 0.10069
# Poissons Ratio (y) = 0.08314 0.35346
# Poissons Ratio (z) = 0.22812 0.32629
#
# Static dielectric constant tensor:
#      x y z
#    x 1.859690 -0.039020 0.152960 
#    y -0.039020 1.908870 -0.137190 
#    z 0.152960 -0.137190 1.777480 
# 
# From -- ./inp_files/383168.got.cif
#   From: 2010.05.17/outbox.cif.g08.bks.cpg/sg2_192_cif.got.tgz:383168.got - 2010.06.03 11:33:40.
