data_PCOD9066056
_publ_section_title
;
Structure prediction by ZEFSAII (Michael W. Deem and Ramdas Pophale) SiO2 
 PCOD9066056
Probable space group: P -1
;
_chemical_formula_sum "Si O2"
_cell_formula_units_Z 14
_cell_length_a 6.676857
_cell_length_b 11.826601
_cell_length_c 15.175483
_cell_angle_alpha 48.469718
_cell_angle_beta 42.485501
_cell_angle_gamma 65.912721
_cell_volume 598.096959
_symmetry_space_group_name_H-M "P -1"
_symmetry_group_IT_number 2
_symmetry_cell_setting 'triclinic'
loop_
_space_group_symop_operation_xyz
x,y,z
-x,-y,-z
loop_
_atom_site_type_symbol
_atom_site_label
_atom_site_fract_x
_atom_site_fract_y
_atom_site_fract_z
Si Si1 0.810086 0.555824 0.110692
Si Si2 0.840092 0.385843 0.536045
Si Si3 0.205002 0.961086 0.532403
Si Si4 0.801595 0.890300 0.872612
Si Si5 0.126900 0.922106 0.080812
Si Si6 0.858615 0.605316 0.259007
Si Si7 0.618610 0.760242 0.559073
O O1 0.988810 0.587238 0.129039
O O2 0.542456 0.413169 0.285613
O O3 0.729835 0.716530 0.021194
O O4 0.000000 0.500000 0.000000
O O5 0.877385 0.457651 0.388757
O O6 0.479754 0.365127 0.671242
O O7 0.000000 0.500000 0.500000
O O8 0.026050 0.246597 0.558840
O O9 0.425902 0.836354 0.509414
O O10 0.989570 0.901245 0.716063
O O11 0.400041 0.122787 0.414844
O O12 0.000000 0.000000 0.500000
O O13 0.959091 0.995363 0.846013
O O14 0.482818 0.945497 0.939115
O O15 0.002672 0.743553 0.202786
O O16 0.000000 0.000000 0.000000
#
# Coordination Sequence:
#
# PCOD9066056 Si02
#       7
#     2   2   2   2   2   2   2
#     4  12  24  47  74 104 147 190 238 301 361 433
#     4  11  25  44  74 105 146 184 242 307 359 429
#     4  11  28  48  72 104 143 199 243 293 369 439
#     4  11  26  47  73 106 148 190 241 308 363 431
#     4  11  25  44  73 105 141 186 241 299 366 433
#     4  11  26  44  72 114 139 195 245 294 376 429
#     4  11  26  47  73 104 145 190 246 300 360 432
#
# _framework density 23.407577
#
# number of rings (size 3 to 8) (size 9 to 14) (size 15 to 20)
#    0.000    0.857    4.286    0.857    6.000    3.429 
#    0.000    2.143    0.000    0.000    0.000    0.000 
#    0.000    0.000    0.000    0.000    0.000    0.000 
#
# Total GULP energy -78254.328039 kJ/mol
# GULP energy per Si atom -5589.594860 kJ/mol
# Density = 2.335430 g / cm^3
# Si number density = 23.407577 Si / 1000 Ang^3
#
#
#
# Elastic Constant Matrix: (Units=GPa)
#
#
# Indices 1 2 3 4 5 6 
#
# 1 155.7870 51.8576 47.1787 5.5588 15.4343 -17.5858
# 2 51.8576 111.3237 39.4489 -4.5879 12.5655 -12.6246
# 3 47.1787 39.4489 84.9532 -10.6260 13.9065 -5.9082
# 4 5.5588 -4.5879 -10.6260 40.5111 1.8100 -9.5711
# 5 15.4343 12.5655 13.9065 1.8100 43.3783 -6.5178
# 6 -17.5858 -12.6246 -5.9082 -9.5711 -6.5178 44.2856
#
#
#
# Elastic Compliance Matrix: (Units=1/GPa)
#
#
# Indices 1 2 3 4 5 6 
#
# 1 0.008725 -0.002567 -0.003647 -0.002008 -0.000854 0.001687
# 2 -0.002567 0.011859 -0.003600 0.001271 -0.001122 0.001991
# 3 -0.003647 -0.003600 0.016581 0.004648 -0.003127 0.000282
# 4 -0.002008 0.001271 0.004648 0.027801 -0.001404 0.005987
# 5 -0.000854 -0.001122 -0.003127 -0.001404 0.025090 0.002313
# 6 0.001687 0.001991 0.000282 0.005987 0.002313 0.025490
#
#
# Mechanical properties :
#
#
# Convention : Reuss Voigt Hill
#
# Bulk Modulus (GPa) = 57.02464 69.89270 63.45867
# Shear Modulus (GPa) = 35.45586 39.87357 37.66472
#
# Velocity S-wave (km/s) = 3.89616 4.13176 4.01569
# Velocity P-wave (km/s) = 6.68241 7.25850 6.97640
#
# Compressibility (1/GPa) = 0.01753628
#
# Stress axis : x y z
#
# Youngs Moduli (GPa) = 114.61757 84.32364 60.30832
#
# Poissons Ratio (x) = 0.21644 0.21997
# Poissons Ratio (y) = 0.29420 0.21713
# Poissons Ratio (z) = 0.41805 0.30359
#
# Static dielectric constant tensor:
#      x y z
#    x 1.883850 0.005190 -0.033240 
#    y 0.005190 2.056760 -0.078580 
#    z -0.033240 -0.078580 2.026920 
# 
# From -- ./inp_files/411343.got.cif
#   From: 2010.05.17/outbox.cif.g08.bks.cpg/sg2_206_cif.got.tgz:411343.got - 2010.06.03 11:33:40.
