data_PCOD9066981
_publ_section_title
;
Structure prediction by ZEFSAII (Michael W. Deem and Ramdas Pophale) SiO2 
 PCOD9066981
Probable space group: P -1
;
_chemical_formula_sum "Si O2"
_cell_formula_units_Z 15
_cell_length_a 11.653415
_cell_length_b 9.292958
_cell_length_c 8.012101
_cell_angle_alpha 93.109895
_cell_angle_beta 59.887613
_cell_angle_gamma 124.328039
_cell_volume 587.223881
_symmetry_space_group_name_H-M "P -1"
_symmetry_group_IT_number 2
_symmetry_cell_setting 'triclinic'
loop_
_space_group_symop_operation_xyz
x,y,z
-x,-y,-z
loop_
_atom_site_type_symbol
_atom_site_label
_atom_site_fract_x
_atom_site_fract_y
_atom_site_fract_z
Si Si1 0.901995 0.287473 0.391035
Si Si2 0.136068 0.221483 0.394948
Si Si3 0.429578 0.322272 0.759114
Si Si4 0.500000 0.500000 0.000000
Si Si5 0.074608 0.381288 0.735412
Si Si6 0.393179 0.611457 0.722759
Si Si7 0.224483 0.940871 0.869998
Si Si8 0.460647 0.995794 0.219228
O O1 0.943489 0.481664 0.340236
O O2 0.844910 0.173158 0.253945
O O3 0.734649 0.163171 0.616443
O O4 0.048058 0.289572 0.360017
O O5 0.161502 0.310589 0.564443
O O6 0.311349 0.302074 0.184870
O O7 0.000000 0.000000 0.500000
O O8 0.538992 0.374397 0.848042
O O9 0.409355 0.482591 0.822679
O O10 0.515127 0.357064 0.519830
O O11 0.245865 0.126626 0.868338
O O12 0.197166 0.498721 0.810424
O O13 0.893213 0.200412 0.910145
O O14 0.480384 0.806794 0.751525
O O15 0.420018 0.028080 0.758741
O O16 0.500000 0.000000 0.000000
#
# Coordination Sequence:
#
# PCOD9066981 Si02
#       8
#     2   2   2   1   2   2   2   2
#     4  12  27  50  77 111 157 200 260 324 394 469
#     4  12  30  51  77 115 157 206 265 333 393 475
#     4  11  26  45  75 107 145 208 254 315 391 464
#     4  12  28  48  78 110 156 198 266 320 400 458
#     4  12  26  50  72 111 159 200 260 320 389 477
#     4  11  25  47  74 107 154 201 252 320 392 459
#     4  12  26  47  75 115 153 205 259 319 391 469
#     4  12  27  47  79 112 154 203 261 321 394 470
#
# _framework density 25.543921999999998
#
# number of rings (size 3 to 8) (size 9 to 14) (size 15 to 20)
#    0.000    0.267    4.000    3.600    7.467    0.533 
#    0.000    0.000    0.000    0.000    0.000    0.000 
#    0.000    0.000    0.000    0.000    0.000    0.000 
#
# Total GULP energy -83930.468458 kJ/mol
# GULP energy per Si atom -5595.364564 kJ/mol
# Density = 2.548578 g / cm^3
# Si number density = 25.543922 Si / 1000 Ang^3
#
#
#
# Elastic Constant Matrix: (Units=GPa)
#
#
# Indices 1 2 3 4 5 6 
#
# 1 91.0043 3.3473 3.7655 -22.7146 -10.9965 10.1619
# 2 3.3473 181.6935 75.4054 -13.1543 4.8185 3.3043
# 3 3.7655 75.4054 140.1389 -6.0219 -4.7318 7.7572
# 4 -22.7146 -13.1543 -6.0219 54.2600 10.5999 5.9580
# 5 -10.9965 4.8185 -4.7318 10.5999 25.3039 0.2982
# 6 10.1619 3.3043 7.7572 5.9580 0.2982 27.1099
#
#
#
# Elastic Compliance Matrix: (Units=1/GPa)
#
#
# Indices 1 2 3 4 5 6 
#
# 1 0.013566 0.000047 0.000338 0.005732 0.003625 -0.006487
# 2 0.000047 0.007376 -0.003976 0.001962 -0.002948 -0.000178
# 3 0.000338 -0.003976 0.009488 -0.000040 0.002723 -0.002378
# 4 0.005732 0.001962 -0.000040 0.023626 -0.007699 -0.007484
# 5 0.003625 -0.002948 0.002723 -0.007699 0.045398 -0.000586
# 6 -0.006487 -0.000178 -0.002378 -0.007484 -0.000586 0.041672
#
#
# Mechanical properties :
#
#
# Convention : Reuss Voigt Hill
#
# Bulk Modulus (GPa) = 43.01409 64.20813 53.61111
# Shear Modulus (GPa) = 32.03960 43.35599 37.69780
#
# Velocity S-wave (km/s) = 3.54544 4.12431 3.84579
# Velocity P-wave (km/s) = 5.79966 6.91888 6.38384
#
# Compressibility (1/GPa) = 0.02324820
#
# Stress axis : x y z
#
# Youngs Moduli (GPa) = 73.71423 135.56931 105.39897
#
# Poissons Ratio (x) = -0.00631 -0.03565
# Poissons Ratio (y) = -0.00343 0.41903
# Poissons Ratio (z) = -0.02493 0.53898
#
# Static dielectric constant tensor:
#      x y z
#    x 1.445970 -0.486030 -0.281920 
#    y -0.486030 1.838210 -0.223000 
#    z -0.281920 -0.223000 1.882470 
# 
# From -- ./inp_files/244475.got.cif
#   From: 2010.05.17/outbox.cif.g08.bks.cpg/sg2_123_cif.got.tgz:244475.got - 2010.06.03 11:33:40.
