data_PCOD9066176
_publ_section_title
;
Structure prediction by ZEFSAII (Michael W. Deem and Ramdas Pophale) SiO2 
 PCOD9066176
Probable space group: P -1
;
_chemical_formula_sum "Si O2"
_cell_formula_units_Z 16
_cell_length_a 23.117570
_cell_length_b 9.113076
_cell_length_c 9.048579
_cell_angle_alpha 62.357938
_cell_angle_beta 52.636826
_cell_angle_gamma 27.813624
_cell_volume 693.194098
_symmetry_space_group_name_H-M "P -1"
_symmetry_group_IT_number 2
_symmetry_cell_setting 'triclinic'
loop_
_space_group_symop_operation_xyz
x,y,z
-x,-y,-z
loop_
_atom_site_type_symbol
_atom_site_label
_atom_site_fract_x
_atom_site_fract_y
_atom_site_fract_z
Si Si1 0.365176 0.896901 0.119850
Si Si2 0.852638 0.836283 0.500781
Si Si3 0.889141 0.156276 0.811014
Si Si4 0.165230 0.800762 0.462380
Si Si5 0.105923 0.173986 0.902212
Si Si6 0.353191 0.826186 0.862388
Si Si7 0.589647 0.825911 0.088851
Si Si8 0.591540 0.935409 0.496119
O O1 0.496514 0.541117 0.150187
O O2 0.253087 0.109141 0.326223
O O3 0.287138 0.979047 0.056578
O O4 0.421627 0.961708 0.942078
O O5 0.873586 0.828174 0.299718
O O6 0.000000 0.500000 0.500000
O O7 0.794661 0.113429 0.546949
O O8 0.845249 0.164529 0.715548
O O9 0.751145 0.485316 0.956433
O O10 0.008468 0.057656 0.639016
O O11 0.952565 0.893541 0.942291
O O12 0.272521 0.439727 0.495195
O O13 0.257439 0.896346 0.877331
O O14 0.000000 0.500000 0.000000
O O15 0.369206 0.967142 0.683555
O O16 0.515081 0.841679 0.304623
O O17 0.500000 0.000000 0.000000
O O18 0.500000 0.000000 0.500000
#
# Coordination Sequence:
#
# PCOD9066176 Si02
#       8
#     2   2   2   2   2   2   2   2
#     4  11  25  45  70 102 141 187 227 285 350 411
#     4  12  27  45  72 101 140 184 233 286 352 416
#     4  11  25  46  73 101 139 183 237 290 347 414
#     4  11  25  47  72  99 139 187 233 288 350 414
#     4  12  27  45  71 104 140 182 233 290 346 418
#     4  11  25  45  72 100 143 182 232 286 347 410
#     4  12  25  43  71 106 144 184 234 285 351 415
#     4  12  25  44  71 104 142 186 233 288 346 418
#
# _framework density 23.081558000000001
#
# number of rings (size 3 to 8) (size 9 to 14) (size 15 to 20)
#    0.000    0.500    2.500    5.250    7.000    3.000 
#    0.000    0.000    0.000    0.000    0.000    0.000 
#    0.000    0.000    0.000    0.000    0.000    0.000 
#
# Total GULP energy -89497.022651 kJ/mol
# GULP energy per Si atom -5593.563916 kJ/mol
# Density = 2.302902 g / cm^3
# Si number density = 23.081558 Si / 1000 Ang^3
#
#
#
# Elastic Constant Matrix: (Units=GPa)
#
#
# Indices 1 2 3 4 5 6 
#
# 1 61.0080 -11.0993 18.7141 -8.4420 10.5698 -8.6181
# 2 -11.0993 92.0318 43.7296 2.7968 -4.7794 -1.7022
# 3 18.7141 43.7296 176.4441 -14.6316 11.8700 -0.7178
# 4 -8.4420 2.7968 -14.6316 34.1209 -0.6644 -2.6814
# 5 10.5698 -4.7794 11.8700 -0.6644 37.2671 -8.5175
# 6 -8.6181 -1.7022 -0.7178 -2.6814 -8.5175 31.5745
#
#
#
# Elastic Compliance Matrix: (Units=1/GPa)
#
#
# Indices 1 2 3 4 5 6 
#
# 1 0.019476 0.003258 -0.002318 0.003882 -0.003176 0.004912
# 2 0.003258 0.013363 -0.003964 -0.001780 0.002487 0.002039
# 3 -0.002318 -0.003964 0.007278 0.002741 -0.002369 -0.001087
# 4 0.003882 -0.001780 0.002741 0.031849 -0.000833 0.003506
# 5 -0.003176 0.002487 -0.002369 -0.000833 0.030476 0.007364
# 6 0.004912 0.002039 -0.001087 0.003506 0.007364 0.035381
#
#
# Mechanical properties :
#
#
# Convention : Reuss Voigt Hill
#
# Bulk Modulus (GPa) = 29.35120 48.01919 38.68520
# Shear Modulus (GPa) = 32.21090 39.13514 35.67302
#
# Velocity S-wave (km/s) = 3.73973 4.12213 3.93558
# Velocity P-wave (km/s) = 5.60279 6.59585 6.11950
#
# Compressibility (1/GPa) = 0.03407016
#
# Stress axis : x y z
#
# Youngs Moduli (GPa) = 51.34463 74.83186 137.40011
#
# Poissons Ratio (x) = -0.24381 0.31844
# Poissons Ratio (y) = -0.16728 0.54467
# Poissons Ratio (z) = 0.11900 0.29664
#
# Static dielectric constant tensor:
#      x y z
#    x 1.875420 0.046840 0.006920 
#    y 0.046840 1.855300 -0.009600 
#    z 0.006920 -0.009600 1.758050 
# 
# From -- ./inp_files/352113.got.cif
#   From: 2010.05.17/outbox.cif.g08.bks.cpg/sg2_177_cif.got.tgz:352113.got - 2010.06.03 11:33:40.
