data_PCOD9066156
_publ_section_title
;
Structure prediction by ZEFSAII (Michael W. Deem and Ramdas Pophale) SiO2 
 PCOD9066156
Probable space group: P -1
;
_chemical_formula_sum "Si O2"
_cell_formula_units_Z 16
_cell_length_a 18.199505
_cell_length_b 6.106860
_cell_length_c 9.599394
_cell_angle_alpha 89.979620
_cell_angle_beta 136.604923
_cell_angle_gamma 88.981651
_cell_volume 732.730545
_symmetry_space_group_name_H-M "P -1"
_symmetry_group_IT_number 2
_symmetry_cell_setting 'triclinic'
loop_
_space_group_symop_operation_xyz
x,y,z
-x,-y,-z
loop_
_atom_site_type_symbol
_atom_site_label
_atom_site_fract_x
_atom_site_fract_y
_atom_site_fract_z
Si Si1 0.063099 0.975480 0.848998
Si Si2 0.923886 0.678898 0.468176
Si Si3 0.417536 0.248881 0.736785
Si Si4 0.641412 0.117299 0.127050
Si Si5 0.773131 0.429812 0.452617
Si Si6 0.444977 0.254339 0.446524
Si Si7 0.943229 0.286642 0.873085
Si Si8 0.737864 0.856444 0.009902
O O1 0.995719 0.869073 0.632101
O O2 0.186535 0.988150 0.976150
O O3 0.055261 0.853024 0.984877
O O4 0.005757 0.201390 0.820555
O O5 0.860628 0.589382 0.513930
O O6 0.830009 0.734260 0.228140
O O7 0.000000 0.500000 0.500000
O O8 0.336326 0.439537 0.671133
O O9 0.414690 0.240776 0.566954
O O10 0.382387 0.029983 0.770339
O O11 0.539628 0.272817 0.953283
O O12 0.747551 0.247553 0.303953
O O13 0.661918 0.971091 0.019917
O O14 0.821676 0.323550 0.657480
O O15 0.500000 0.500000 0.500000
O O16 0.500000 0.000000 0.500000
O O17 0.341250 0.264496 0.202924
O O18 0.000000 0.500000 0.000000
#
# Coordination Sequence:
#
# PCOD9066156 Si02
#       8
#     2   2   2   2   2   2   2   2
#     4  11  26  46  72 104 150 189 252 302 378 460
#     4  12  25  44  72 109 150 194 253 312 377 459
#     4  11  27  47  75 107 145 194 256 312 382 455
#     4  11  25  49  75 106 149 192 258 310 386 457
#     4  12  25  41  77 104 145 196 248 308 380 449
#     4  12  31  53  79 115 158 203 261 322 390 468
#     4  11  25  45  69 103 146 192 243 309 372 452
#     4  12  26  47  78 107 150 203 244 317 391 450
#
# _framework density 21.836133
#
# number of rings (size 3 to 8) (size 9 to 14) (size 15 to 20)
#    0.000    0.500    3.750    3.000    7.000    1.000 
#    0.000    0.000    0.000    0.000    0.000    0.000 
#    0.000    0.000    0.000    0.000    0.000    0.000 
#
# Total GULP energy -89273.874901 kJ/mol
# GULP energy per Si atom -5579.617181 kJ/mol
# Density = 2.178643 g / cm^3
# Si number density = 21.836133 Si / 1000 Ang^3
#
#
#
# Elastic Constant Matrix: (Units=GPa)
#
#
# Indices 1 2 3 4 5 6 
#
# 1 114.7134 34.9884 44.1835 9.1990 -15.5277 -2.7015
# 2 34.9884 60.0184 48.4636 27.4598 -7.2521 -9.9292
# 3 44.1835 48.4636 168.7861 30.5873 -1.5510 -8.1221
# 4 9.1990 27.4598 30.5873 35.5030 5.6640 8.9219
# 5 -15.5277 -7.2521 -1.5510 5.6640 43.3873 -1.8802
# 6 -2.7015 -9.9292 -8.1221 8.9219 -1.8802 36.2630
#
#
#
# Elastic Compliance Matrix: (Units=1/GPa)
#
#
# Indices 1 2 3 4 5 6 
#
# 1 0.011600 -0.007780 -0.001816 0.004955 0.002018 -0.002787
# 2 -0.007780 0.045688 -0.003168 -0.037554 0.010552 0.021007
# 3 -0.001816 -0.003168 0.008246 -0.004649 -0.000192 0.001978
# 4 0.004955 -0.037554 -0.004649 0.069579 -0.015003 -0.028852
# 5 0.002018 0.010552 -0.000192 -0.015003 0.027838 0.008131
# 6 -0.002787 0.021007 0.001978 -0.028852 0.008131 0.041084
#
#
# Mechanical properties :
#
#
# Convention : Reuss Voigt Hill
#
# Bulk Modulus (GPa) = 24.99728 66.53209 45.76468
# Shear Modulus (GPa) = 20.58464 37.42281 29.00372
#
# Velocity S-wave (km/s) = 3.07365 4.14430 3.64846
# Velocity P-wave (km/s) = 4.90601 7.30994 6.22512
#
# Compressibility (1/GPa) = 0.04000435
#
# Stress axis : x y z
#
# Youngs Moduli (GPa) = 86.20558 21.88763 121.27415
#
# Poissons Ratio (x) = 0.17029 0.22026
# Poissons Ratio (y) = 0.67070 0.38423
# Poissons Ratio (z) = 0.15657 0.06935
#
# Static dielectric constant tensor:
#      x y z
#    x 1.775540 -0.012980 0.002260 
#    y -0.012980 1.922270 -0.093880 
#    z 0.002260 -0.093880 1.846920 
# 
# From -- ./inp_files/95639.got.cif
#   From: 2010.05.17/outbox.cif.g08.bks.cpg/sg2_48_cif.got.tgz:95639.got - 2010.06.03 11:33:40.
