data_PCOD9066542
_publ_section_title
;
Structure prediction by ZEFSAII (Michael W. Deem and Ramdas Pophale) SiO2 
 PCOD9066542
Probable space group: P -1
;
_chemical_formula_sum "Si O2"
_cell_formula_units_Z 14
_cell_length_a 8.208035
_cell_length_b 18.551186
_cell_length_c 11.149263
_cell_angle_alpha 39.733702
_cell_angle_beta 90.931567
_cell_angle_gamma 123.004453
_cell_volume 600.837357
_symmetry_space_group_name_H-M "P -1"
_symmetry_group_IT_number 2
_symmetry_cell_setting 'triclinic'
loop_
_space_group_symop_operation_xyz
x,y,z
-x,-y,-z
loop_
_atom_site_type_symbol
_atom_site_label
_atom_site_fract_x
_atom_site_fract_y
_atom_site_fract_z
Si Si1 0.772366 0.310262 0.328691
Si Si2 0.994876 0.130448 0.852058
Si Si3 0.824192 0.660235 0.656174
Si Si4 0.274269 0.912202 0.711936
Si Si5 0.809643 0.782769 0.737822
Si Si6 0.959217 0.649519 0.268634
Si Si7 0.671613 0.286224 0.627344
O O1 0.759404 0.355251 0.402236
O O2 0.467656 0.584266 0.022497
O O3 0.892878 0.253299 0.423829
O O4 0.000000 0.500000 0.000000
O O5 0.098620 0.255830 0.812183
O O6 0.158358 0.280111 0.551283
O O7 0.645519 0.952967 0.067929
O O8 0.000000 0.000000 0.000000
O O9 0.548549 0.882607 0.486938
O O10 0.816489 0.754651 0.633777
O O11 0.500000 0.000000 0.500000
O O12 0.975048 0.776574 0.817298
O O13 0.182832 0.779938 0.991099
O O14 0.000000 0.000000 0.500000
O O15 0.104808 0.665947 0.360210
O O16 0.683748 0.414976 0.526656
#
# Coordination Sequence:
#
# PCOD9066542 Si02
#       7
#     2   2   2   2   2   2   2
#     4  12  23  44  76 104 140 185 241 301 366 421
#     4  12  27  45  72 101 149 192 236 294 362 430
#     4  11  26  48  70 105 146 189 239 299 363 434
#     4  12  24  43  72 105 140 181 240 298 351 432
#     4  11  27  46  71 102 148 186 236 296 364 432
#     4  11  25  46  71 104 138 184 246 298 352 434
#     4  11  25  46  73 101 141 186 242 300 358 428
#
# _framework density 23.300813999999999
#
# number of rings (size 3 to 8) (size 9 to 14) (size 15 to 20)
#    0.000    0.571    4.286    3.000    4.000    2.857 
#    0.000    0.000    0.000    0.000    0.000    0.000 
#    0.000    0.000    0.000    0.000    0.000    0.000 
#
# Total GULP energy -78340.263954 kJ/mol
# GULP energy per Si atom -5595.733140 kJ/mol
# Density = 2.324778 g / cm^3
# Si number density = 23.300814 Si / 1000 Ang^3
#
#
#
# Elastic Constant Matrix: (Units=GPa)
#
#
# Indices 1 2 3 4 5 6 
#
# 1 51.3634 13.9880 -5.1515 1.8850 1.0343 -9.5532
# 2 13.9880 142.1718 54.9666 -1.7567 -1.0289 -18.8922
# 3 -5.1515 54.9666 86.6565 -6.0000 -2.0106 -14.7849
# 4 1.8850 -1.7567 -6.0000 50.8715 1.6267 7.9111
# 5 1.0343 -1.0289 -2.0106 1.6267 27.5215 -11.9704
# 6 -9.5532 -18.8922 -14.7849 7.9111 -11.9704 38.0908
#
#
#
# Elastic Compliance Matrix: (Units=1/GPa)
#
#
# Indices 1 2 3 4 5 6 
#
# 1 0.021961 -0.002904 0.004258 -0.001548 0.002428 0.006804
# 2 -0.002904 0.010003 -0.006141 -0.000668 0.001087 0.002330
# 3 0.004258 -0.006141 0.016720 0.000670 0.003121 0.005354
# 4 -0.001548 -0.000668 0.000670 0.020817 -0.003740 -0.005958
# 5 0.002428 0.001087 0.003121 -0.003740 0.044130 0.017005
# 6 0.006804 0.002330 0.005354 -0.005958 0.017005 0.037774
#
#
# Mechanical properties :
#
#
# Convention : Reuss Voigt Hill
#
# Bulk Modulus (GPa) = 25.56962 45.31087 35.44025
# Shear Modulus (GPa) = 28.73294 37.72267 33.22781
#
# Velocity S-wave (km/s) = 3.51541 4.02797 3.78039
# Velocity P-wave (km/s) = 5.24166 6.41257 5.85645
#
# Compressibility (1/GPa) = 0.03910891
#
# Stress axis : x y z
#
# Youngs Moduli (GPa) = 45.53628 99.97048 59.80687
#
# Poissons Ratio (x) = 0.29033 -0.25464
# Poissons Ratio (y) = 0.13224 0.36728
# Poissons Ratio (z) = -0.19388 0.61393
#
# Static dielectric constant tensor:
#      x y z
#    x 1.902310 -0.033310 0.024390 
#    y -0.033310 1.863580 -0.003880 
#    z 0.024390 -0.003880 1.826150 
# 
# From -- ./inp_files/401825.got.cif
#   From: 2010.05.17/outbox.cif.g08.bks.cpg/sg2_201_cif.got.tgz:401825.got - 2010.06.03 11:33:40.
