data_PCOD9066186
_publ_section_title
;
Structure prediction by ZEFSAII (Michael W. Deem and Ramdas Pophale) SiO2 
 PCOD9066186
Probable space group: P -1
;
_chemical_formula_sum "Si O2"
_cell_formula_units_Z 16
_cell_length_a 10.025189
_cell_length_b 7.059488
_cell_length_c 19.692574
_cell_angle_alpha 127.299591
_cell_angle_beta 129.118981
_cell_angle_gamma 44.156000
_cell_volume 722.290793
_symmetry_space_group_name_H-M "P -1"
_symmetry_group_IT_number 2
_symmetry_cell_setting 'triclinic'
loop_
_space_group_symop_operation_xyz
x,y,z
-x,-y,-z
loop_
_atom_site_type_symbol
_atom_site_label
_atom_site_fract_x
_atom_site_fract_y
_atom_site_fract_z
Si Si1 0.261601 0.633332 0.448979
Si Si2 0.038248 0.269467 0.516723
Si Si3 0.148867 0.644887 0.877991
Si Si4 0.724886 0.707656 0.741403
Si Si5 0.576825 0.541653 0.779073
Si Si6 0.332166 0.326563 0.724348
Si Si7 0.362685 0.109843 0.912555
Si Si8 0.991028 0.770196 0.086779
O O1 0.500000 0.500000 0.500000
O O2 0.224607 0.433991 0.346930
O O3 0.170459 0.656694 0.499043
O O4 0.147832 0.953122 0.454071
O O5 0.179541 0.268047 0.622246
O O6 0.000000 0.500000 0.500000
O O7 0.230441 0.514411 0.800241
O O8 0.305191 0.412372 0.931473
O O9 0.928674 0.685349 0.827914
O O10 0.112096 0.954944 0.934693
O O11 0.655965 0.535451 0.727903
O O12 0.533284 0.028044 0.745046
O O13 0.409897 0.469421 0.727573
O O14 0.779316 0.330824 0.842206
O O15 0.481717 0.863615 0.842862
O O16 0.151242 0.142762 0.873608
O O17 0.500000 0.000000 0.000000
O O18 0.000000 0.500000 0.000000
#
# Coordination Sequence:
#
# PCOD9066186 Si02
#       8
#     2   2   2   2   2   2   2   2
#     4  11  25  45  70 105 150 187 234 291 352 421
#     4  11  27  44  70 110 147 187 238 292 356 418
#     4  12  26  46  75 102 141 191 237 295 361 427
#     4  12  25  45  74 103 141 191 241 294 352 422
#     4  12  26  44  72 106 139 185 241 297 358 421
#     4  12  25  45  72 104 144 186 242 293 352 426
#     4  12  26  46  70 105 145 180 235 302 363 425
#     4  12  26  46  69 106 144 178 237 299 358 436
#
# _framework density 22.151741999999999
#
# number of rings (size 3 to 8) (size 9 to 14) (size 15 to 20)
#    0.000    0.250    8.750    0.000    1.750    4.500 
#    2.250    0.000    0.000    0.000    0.000    0.000 
#    0.000    0.000    0.000    0.000    0.000    0.000 
#
# Total GULP energy -89544.542745 kJ/mol
# GULP energy per Si atom -5596.533922 kJ/mol
# Density = 2.210132 g / cm^3
# Si number density = 22.151742 Si / 1000 Ang^3
#
#
#
# Elastic Constant Matrix: (Units=GPa)
#
#
# Indices 1 2 3 4 5 6 
#
# 1 111.6895 43.0471 -0.1600 -1.1682 7.6542 -5.9463
# 2 43.0471 165.3617 16.2775 4.4647 -1.2617 9.5642
# 3 -0.1600 16.2775 39.3098 5.8686 3.2128 -9.3011
# 4 -1.1682 4.4647 5.8686 22.8719 -0.8794 0.0289
# 5 7.6542 -1.2617 3.2128 -0.8794 28.0440 1.7481
# 6 -5.9463 9.5642 -9.3011 0.0289 1.7481 46.5388
#
#
#
# Elastic Compliance Matrix: (Units=1/GPa)
#
#
# Indices 1 2 3 4 5 6 
#
# 1 0.010542 -0.003143 0.002158 0.000464 -0.003410 0.002552
# 2 -0.003143 0.007428 -0.003802 -0.000563 0.001782 -0.002754
# 3 0.002158 -0.003802 0.030204 -0.007095 -0.004897 0.007282
# 4 0.000464 -0.000563 -0.007095 0.045761 0.002180 -0.001353
# 5 -0.003410 0.001782 -0.004897 0.002180 0.037498 -0.003190
# 6 0.002552 -0.002754 0.007282 -0.001353 -0.003190 0.023956
#
#
# Mechanical properties :
#
#
# Convention : Reuss Voigt Hill
#
# Bulk Modulus (GPa) = 25.90652 48.29889 37.10271
# Shear Modulus (GPa) = 28.11674 36.63738 32.37706
#
# Velocity S-wave (km/s) = 3.56656 4.07126 3.82724
# Velocity P-wave (km/s) = 5.35545 6.62957 6.02628
#
# Compressibility (1/GPa) = 0.03860032
#
# Stress axis : x y z
#
# Youngs Moduli (GPa) = 94.85640 134.62838 33.10774
#
# Poissons Ratio (x) = 0.42312 -0.07143
# Poissons Ratio (y) = 0.29812 0.12587
# Poissons Ratio (z) = -0.20466 0.51183
#
# Static dielectric constant tensor:
#      x y z
#    x 1.858760 0.009520 0.013190 
#    y 0.009520 1.808030 -0.005220 
#    z 0.013190 -0.005220 1.813460 
# 
# From -- ./inp_files/48049.got.cif
#   From: 2010.05.17/outbox.cif.g08.bks.cpg/sg2_25_cif.got.tgz:48049.got - 2010.06.03 11:33:40.
