data_PCOD9066835
_publ_section_title
;
Structure prediction by ZEFSAII (Michael W. Deem and Ramdas Pophale) SiO2 
 PCOD9066835
Probable space group: P -1
;
_chemical_formula_sum "Si O2"
_cell_formula_units_Z 16
_cell_length_a 11.732471
_cell_length_b 18.219150
_cell_length_c 15.838838
_cell_angle_alpha 26.740270
_cell_angle_beta 45.992568
_cell_angle_gamma 30.526611
_cell_volume 731.484034
_symmetry_space_group_name_H-M "P -1"
_symmetry_group_IT_number 2
_symmetry_cell_setting 'triclinic'
loop_
_space_group_symop_operation_xyz
x,y,z
-x,-y,-z
loop_
_atom_site_type_symbol
_atom_site_label
_atom_site_fract_x
_atom_site_fract_y
_atom_site_fract_z
Si Si1 0.426799 0.344433 0.614636
Si Si2 0.786203 0.066907 0.439039
Si Si3 0.643577 0.757708 0.620865
Si Si4 0.718751 0.924056 0.777454
Si Si5 0.022945 0.332366 0.595510
Si Si6 0.278822 0.556356 0.650195
Si Si7 0.542753 0.178607 0.054028
Si Si8 0.205083 0.558333 0.976688
O O1 0.305599 0.430895 0.679898
O O2 0.617203 0.343623 0.523666
O O3 0.227008 0.531107 0.454719
O O4 0.567525 0.081162 0.776945
O O5 0.547574 0.192888 0.386799
O O6 0.828461 0.221825 0.234430
O O7 0.754300 0.058722 0.563741
O O8 0.009053 0.786556 0.582667
O O9 0.825728 0.712527 0.514108
O O10 0.500000 0.000000 0.500000
O O11 0.770706 0.536191 0.846757
O O12 0.578576 0.904919 0.811531
O O13 0.975416 0.662203 0.940671
O O14 0.000000 0.500000 0.500000
O O15 0.178449 0.069826 0.827019
O O16 0.444026 0.355641 0.844317
O O17 0.437572 0.336649 0.030618
#
# Coordination Sequence:
#
# PCOD9066835 Si02
#       8
#     2   2   2   2   2   2   2   2
#     4  11  25  47  67  97 144 181 220 282 343 406
#     4  12  23  46  70  99 141 174 226 285 335 407
#     4  12  25  44  69 102 134 177 226 283 336 396
#     4  12  23  44  71 101 134 174 233 284 332 407
#     4  12  25  47  68  98 142 180 223 280 342 408
#     4  11  26  44  70 103 137 181 227 281 343 404
#     4  12  25  42  71 104 131 181 230 281 344 397
#     4  12  25  41  71 105 132 179 227 281 344 393
#
# _framework density 21.873341
#
# number of rings (size 3 to 8) (size 9 to 14) (size 15 to 20)
#    0.000    0.250    6.250    2.625    3.500    2.000 
#    0.000    0.000    0.000    0.000    0.000    0.000 
#    0.000    0.000    0.000    0.000    0.000    0.000 
#
# Total GULP energy -89569.443114 kJ/mol
# GULP energy per Si atom -5598.090195 kJ/mol
# Density = 2.182356 g / cm^3
# Si number density = 21.873341 Si / 1000 Ang^3
#
#
#
# Elastic Constant Matrix: (Units=GPa)
#
#
# Indices 1 2 3 4 5 6 
#
# 1 53.8186 3.9641 4.7899 0.4309 16.2471 -0.2876
# 2 3.9641 77.4803 7.0103 -14.5555 -1.9643 22.4737
# 3 4.7899 7.0103 74.4171 -5.5112 0.9860 16.8210
# 4 0.4309 -14.5555 -5.5112 33.5987 -4.4737 5.0953
# 5 16.2471 -1.9643 0.9860 -4.4737 32.7703 -4.4200
# 6 -0.2876 22.4737 16.8210 5.0953 -4.4200 41.1616
#
#
#
# Elastic Compliance Matrix: (Units=1/GPa)
#
#
# Indices 1 2 3 4 5 6 
#
# 1 0.022380 -0.002247 -0.001588 -0.003229 -0.011462 0.001201
# 2 -0.002247 0.018260 0.001826 0.010290 0.001967 -0.011794
# 3 -0.001588 0.001826 0.015492 0.004549 -0.000015 -0.007904
# 4 -0.003229 0.010290 0.004549 0.037510 0.005645 -0.011537
# 5 -0.011462 0.001967 -0.000015 0.005645 0.037379 0.002167
# 6 0.001201 -0.011794 -0.007904 -0.011537 0.002167 0.035633
#
#
# Mechanical properties :
#
#
# Convention : Reuss Voigt Hill
#
# Bulk Modulus (GPa) = 19.18811 26.36052 22.77431
# Shear Modulus (GPa) = 26.58988 34.16958 30.37973
#
# Velocity S-wave (km/s) = 3.49037 3.95670 3.73083
# Velocity P-wave (km/s) = 5.00350 5.74035 5.38454
#
# Compressibility (1/GPa) = 0.05211562
#
# Stress axis : x y z
#
# Youngs Moduli (GPa) = 44.68261 54.76420 64.55136
#
# Poissons Ratio (x) = 0.12305 0.10248
# Poissons Ratio (y) = 0.10040 -0.11789
# Poissons Ratio (z) = 0.07094 -0.10002
#
# Static dielectric constant tensor:
#      x y z
#    x 1.789110 -0.008840 -0.016910 
#    y -0.008840 1.785050 0.000210 
#    z -0.016910 0.000210 1.789240 
# 
# From -- ./inp_files/190853.got.cif
#   From: 2010.05.17/outbox.cif.g08.bks.cpg/sg2_96_cif.got.tgz:190853.got - 2010.06.03 11:33:40.
