data_PCOD9066101
_publ_section_title
;
Structure prediction by ZEFSAII (Michael W. Deem and Ramdas Pophale) SiO2 
 PCOD9066101
Probable space group: P -1
;
_chemical_formula_sum "Si O2"
_cell_formula_units_Z 12
_cell_length_a 9.472684
_cell_length_b 9.049764
_cell_length_c 12.279708
_cell_angle_alpha 120.171016
_cell_angle_beta 81.831274
_cell_angle_gamma 140.693668
_cell_volume 514.646601
_symmetry_space_group_name_H-M "P -1"
_symmetry_group_IT_number 2
_symmetry_cell_setting 'triclinic'
loop_
_space_group_symop_operation_xyz
x,y,z
-x,-y,-z
loop_
_atom_site_type_symbol
_atom_site_label
_atom_site_fract_x
_atom_site_fract_y
_atom_site_fract_z
Si Si1 0.409067 0.371458 0.085705
Si Si2 0.177564 0.819434 0.642487
Si Si3 0.938462 0.138709 0.550980
Si Si4 0.571806 0.237389 0.155748
Si Si5 0.683308 0.109507 0.738914
Si Si6 0.060047 0.317146 0.153847
O O1 0.596339 0.428475 0.147031
O O2 0.313168 0.455470 0.175994
O O3 0.500000 0.500000 0.000000
O O4 0.160648 0.011771 0.992987
O O5 0.000000 0.500000 0.500000
O O6 0.162261 0.935146 0.587575
O O7 0.046425 0.757947 0.742250
O O8 0.438970 0.985094 0.698558
O O9 0.182219 0.491115 0.692653
O O10 0.728622 0.009089 0.606705
O O11 0.000000 0.000000 0.500000
O O12 0.351753 0.013296 0.186688
O O13 0.500000 0.000000 0.000000
O O14 0.896854 0.463716 0.833439
#
# Coordination Sequence:
#
# PCOD9066101 Si02
#       6
#     2   2   2   2   2   2
#     4  11  26  46  73 108 147 193 245 306 364 435
#     4  12  24  47  72 104 145 196 241 291 371 442
#     4  12  30  45  73 112 150 189 245 307 367 434
#     4  12  27  48  73 107 147 194 248 303 366 437
#     4  12  25  48  75 103 147 197 242 303 364 441
#     4  11  25  44  76 106 141 199 245 297 368 436
#
# _framework density 23.316972
#
# number of rings (size 3 to 8) (size 9 to 14) (size 15 to 20)
#    0.000    0.333    3.333    4.500    7.000    4.667 
#    0.000    0.000    0.000    0.000    0.000    0.000 
#    0.000    0.000    0.000    0.000    0.000    0.000 
#
# Total GULP energy -66953.503479 kJ/mol
# GULP energy per Si atom -5579.458623 kJ/mol
# Density = 2.326390 g / cm^3
# Si number density = 23.316972 Si / 1000 Ang^3
#
#
#
# Elastic Constant Matrix: (Units=GPa)
#
#
# Indices 1 2 3 4 5 6 
#
# 1 134.4305 61.9187 32.2167 -27.0917 -16.8696 -10.5872
# 2 61.9187 132.1667 39.0129 -26.4985 -4.7639 -13.0775
# 3 32.2167 39.0129 68.3453 0.3677 -5.0654 4.5106
# 4 -27.0917 -26.4985 0.3677 60.7583 1.1645 -2.0861
# 5 -16.8696 -4.7639 -5.0654 1.1645 50.2128 -7.6919
# 6 -10.5872 -13.0775 4.5106 -2.0861 -7.6919 45.5533
#
#
#
# Elastic Compliance Matrix: (Units=1/GPa)
#
#
# Indices 1 2 3 4 5 6 
#
# 1 0.011038 -0.003031 -0.003423 0.003651 0.003417 0.002778
# 2 -0.003031 0.011733 -0.005516 0.003916 -0.000034 0.003384
# 3 -0.003423 -0.005516 0.019696 -0.004202 -0.000289 -0.004570
# 4 0.003651 0.003916 -0.004202 0.019916 0.001250 0.003512
# 5 0.003417 -0.000034 -0.000289 0.001250 0.021696 0.004534
# 6 0.002778 0.003384 -0.004570 0.003512 0.004534 0.024948
#
#
# Mechanical properties :
#
#
# Convention : Reuss Voigt Hill
#
# Bulk Modulus (GPa) = 53.97030 66.80436 60.38733
# Shear Modulus (GPa) = 35.93403 44.75781 40.34592
#
# Velocity S-wave (km/s) = 3.92996 4.38601 4.16423
# Velocity P-wave (km/s) = 6.61735 7.37307 7.00541
#
# Compressibility (1/GPa) = 0.01852871
#
# Stress axis : x y z
#
# Youngs Moduli (GPa) = 90.59215 85.23019 50.77093
#
# Poissons Ratio (x) = 0.25834 0.17379
# Poissons Ratio (y) = 0.27459 0.28003
# Poissons Ratio (z) = 0.31009 0.47009
#
# Static dielectric constant tensor:
#      x y z
#    x 2.046040 -0.063260 0.008160 
#    y -0.063260 1.938450 0.094740 
#    z 0.008160 0.094740 1.896430 
# 
# From -- ./inp_files/22067.got.cif
#   From: 2010.05.17/outbox.cif.g08.bks.cpg/sg2_12_cif.got.tgz:22067.got - 2010.06.03 11:33:40.
