data_PCOD9066625
_publ_section_title
;
Structure prediction by ZEFSAII (Michael W. Deem and Ramdas Pophale) SiO2 
 PCOD9066625
Probable space group: P -1
;
_chemical_formula_sum "Si O2"
_cell_formula_units_Z 14
_cell_length_a 9.466404
_cell_length_b 5.429963
_cell_length_c 13.052568
_cell_angle_alpha 98.276136
_cell_angle_beta 107.638834
_cell_angle_gamma 96.398896
_cell_volume 624.116662
_symmetry_space_group_name_H-M "P -1"
_symmetry_group_IT_number 2
_symmetry_cell_setting 'triclinic'
loop_
_space_group_symop_operation_xyz
x,y,z
-x,-y,-z
loop_
_atom_site_type_symbol
_atom_site_label
_atom_site_fract_x
_atom_site_fract_y
_atom_site_fract_z
Si Si1 0.405843 0.363363 0.879537
Si Si2 0.662573 0.316863 0.289499
Si Si3 0.154257 0.918176 0.339904
Si Si4 0.844856 0.529954 0.525598
Si Si5 0.917948 0.238518 0.016385
Si Si6 0.629808 0.079688 0.804598
Si Si7 0.858366 0.036725 0.199803
O O1 0.313876 0.528157 0.800725
O O2 0.517032 0.273751 0.815202
O O3 0.287285 0.140483 0.888581
O O4 0.500000 0.500000 0.000000
O O5 0.709655 0.472227 0.410553
O O6 0.490916 0.177939 0.237283
O O7 0.785477 0.130095 0.292396
O O8 0.169227 0.690592 0.405960
O O9 0.280126 0.916511 0.280682
O O10 0.992162 0.887894 0.247449
O O11 0.159418 0.192677 0.411793
O O12 0.000000 0.500000 0.500000
O O13 0.916196 0.245045 0.139826
O O14 0.754813 0.151331 0.924417
O O15 0.000000 0.500000 0.000000
O O16 0.000000 0.000000 0.000000
#
# Coordination Sequence:
#
# PCOD9066625 Si02
#       7
#     2   2   2   2   2   2   2
#     4  11  25  46  78 105 153 195 249 297 376 452
#     4  11  26  46  76 103 152 195 248 307 368 444
#     4  12  28  46  78 109 148 192 253 313 366 433
#     4  12  27  48  78 109 146 196 258 303 369 439
#     4  12  28  44  74 108 148 188 241 303 371 439
#     4  11  28  46  71 113 150 191 249 304 381 433
#     4  11  25  46  72 111 140 198 248 305 371 442
#
# _framework density 22.431705000000001
#
# number of rings (size 3 to 8) (size 9 to 14) (size 15 to 20)
#    0.000    0.571    2.857    3.000   14.000    3.429 
#    0.000    0.000    0.000    0.000    0.000    0.000 
#    0.000    0.000    0.000    0.000    0.000    0.000 
#
# Total GULP energy -78198.762373 kJ/mol
# GULP energy per Si atom -5585.625884 kJ/mol
# Density = 2.238065 g / cm^3
# Si number density = 22.431705 Si / 1000 Ang^3
#
#
#
# Elastic Constant Matrix: (Units=GPa)
#
#
# Indices 1 2 3 4 5 6 
#
# 1 110.1059 40.6918 22.7181 3.3888 -10.1562 4.1482
# 2 40.6918 116.5044 47.7660 0.4775 -5.3730 6.5599
# 3 22.7181 47.7660 108.9487 5.5628 6.1978 12.9173
# 4 3.3888 0.4775 5.5628 43.4121 4.7527 -1.2666
# 5 -10.1562 -5.3730 6.1978 4.7527 44.5853 3.6609
# 6 4.1482 6.5599 12.9173 -1.2666 3.6609 33.2881
#
#
#
# Elastic Compliance Matrix: (Units=1/GPa)
#
#
# Indices 1 2 3 4 5 6 
#
# 1 0.010725 -0.003266 -0.000807 -0.000971 0.002320 -0.000672
# 2 -0.003266 0.011634 -0.004488 0.000558 0.001244 -0.000260
# 3 -0.000807 -0.004488 0.011903 -0.001300 -0.001956 -0.003468
# 4 -0.000971 0.000558 -0.001300 0.023609 -0.002630 0.001703
# 5 0.002320 0.001244 -0.001956 -0.002630 0.023865 -0.002500
# 6 -0.000672 -0.000260 -0.003468 0.001703 -0.002500 0.031861
#
#
# Mechanical properties :
#
#
# Convention : Reuss Voigt Hill
#
# Bulk Modulus (GPa) = 58.34421 61.99008 60.16714
# Shear Modulus (GPa) = 36.64791 39.21599 37.93195
#
# Velocity S-wave (km/s) = 4.04636 4.18573 4.11663
# Velocity P-wave (km/s) = 6.92076 7.14531 7.03393
#
# Compressibility (1/GPa) = 0.01713966
#
# Stress axis : x y z
#
# Youngs Moduli (GPa) = 93.23977 85.95561 84.00898
#
# Poissons Ratio (x) = 0.28075 0.06781
# Poissons Ratio (y) = 0.30454 0.37703
# Poissons Ratio (z) = 0.07526 0.38577
#
# Static dielectric constant tensor:
#      x y z
#    x 1.895740 -0.089910 0.029860 
#    y -0.089910 1.994470 -0.032190 
#    z 0.029860 -0.032190 1.941220 
# 
# From -- ./inp_files/128798.got.cif
#   From: 2010.05.17/outbox.cif.g08.bks.cpg/sg2_65_cif.got.tgz:128798.got - 2010.06.03 11:33:40.
