data_PCOD9066947
_publ_section_title
;
Structure prediction by ZEFSAII (Michael W. Deem and Ramdas Pophale) SiO2 
 PCOD9066947
Probable space group: P -1
;
_chemical_formula_sum "Si O2"
_cell_formula_units_Z 13
_cell_length_a 10.881204
_cell_length_b 8.134617
_cell_length_c 11.306111
_cell_angle_alpha 52.023266
_cell_angle_beta 67.156513
_cell_angle_gamma 106.250841
_cell_volume 508.941351
_symmetry_space_group_name_H-M "P -1"
_symmetry_group_IT_number 2
_symmetry_cell_setting 'triclinic'
loop_
_space_group_symop_operation_xyz
x,y,z
-x,-y,-z
loop_
_atom_site_type_symbol
_atom_site_label
_atom_site_fract_x
_atom_site_fract_y
_atom_site_fract_z
Si Si1 0.813901 0.664052 0.754845
Si Si2 0.054590 0.361690 0.620023
Si Si3 0.399331 0.537567 0.300997
Si Si4 0.760886 0.118175 0.005179
Si Si5 0.500000 0.500000 0.000000
Si Si6 0.328759 0.899809 0.451358
Si Si7 0.660746 0.958653 0.365831
O O1 0.618545 0.501505 0.817763
O O2 0.708382 0.626831 0.925899
O O3 0.831874 0.437324 0.835366
O O4 0.000000 0.000000 0.500000
O O5 0.181975 0.348593 0.501402
O O6 0.192730 0.592627 0.570133
O O7 0.000000 0.500000 0.500000
O O8 0.867850 0.095273 0.880166
O O9 0.450043 0.377813 0.413664
O O10 0.542738 0.868483 0.150517
O O11 0.779238 0.058930 0.158040
O O12 0.622587 0.854409 0.759352
O O13 0.518504 0.984840 0.374749
O O14 0.240286 0.878776 0.618643
#
# Coordination Sequence:
#
# PCOD9066947 Si02
#       7
#     2   2   2   2   1   2   2
#     4  12  26  44  73 110 144 191 253 301 352 434
#     4  12  27  44  75 108 142 185 254 300 352 434
#     4  12  26  48  72 107 154 186 242 306 365 436
#     4  12  26  46  76 104 147 202 231 303 377 420
#     4  12  22  44  76  98 140 194 240 298 360 410
#     4  11  25  47  73 110 145 191 248 302 353 447
#     4  11  25  48  73 104 153 195 238 295 371 445
#
# _framework density 25.543220000000002
#
# number of rings (size 3 to 8) (size 9 to 14) (size 15 to 20)
#    0.000    0.308    6.154    1.846    2.154    1.231 
#    0.000    0.000    0.000    0.000    0.000    0.000 
#    0.000    0.000    0.000    0.000    0.000    0.000 
#
# Total GULP energy -72566.468741 kJ/mol
# GULP energy per Si atom -5582.036057 kJ/mol
# Density = 2.548508 g / cm^3
# Si number density = 25.543220 Si / 1000 Ang^3
#
#
#
# Elastic Constant Matrix: (Units=GPa)
#
#
# Indices 1 2 3 4 5 6 
#
# 1 66.7958 16.1501 24.9405 0.7798 10.0869 -11.5476
# 2 16.1501 126.1978 44.1661 16.0525 6.3756 8.8149
# 3 24.9405 44.1661 110.3779 17.5116 -1.0221 8.2145
# 4 0.7798 16.0525 17.5116 55.1859 -8.4294 -0.2897
# 5 10.0869 6.3756 -1.0221 -8.4294 53.8762 8.2997
# 6 -11.5476 8.8149 8.2145 -0.2897 8.2997 34.6690
#
#
#
# Elastic Compliance Matrix: (Units=1/GPa)
#
#
# Indices 1 2 3 4 5 6 
#
# 1 0.019325 -0.001336 -0.004696 0.000920 -0.004799 0.009046
# 2 -0.001336 0.009611 -0.003099 -0.001949 -0.000952 -0.001943
# 3 -0.004696 -0.003099 0.012097 -0.002634 0.001690 -0.004069
# 4 0.000920 -0.001949 -0.002634 0.019973 0.002999 0.000875
# 5 -0.004799 -0.000952 0.001690 0.002999 0.021119 -0.006788
# 6 0.009046 -0.001943 -0.004069 0.000875 -0.006788 0.034948
#
#
# Mechanical properties :
#
#
# Convention : Reuss Voigt Hill
#
# Bulk Modulus (GPa) = 43.91326 52.65389 48.28357
# Shear Modulus (GPa) = 34.98341 43.28721 39.13531
#
# Velocity S-wave (km/s) = 3.70479 4.12110 3.91848
# Velocity P-wave (km/s) = 5.96068 6.58050 6.27825
#
# Compressibility (1/GPa) = 0.02277217
#
# Stress axis : x y z
#
# Youngs Moduli (GPa) = 51.74642 104.04390 82.66442
#
# Poissons Ratio (x) = 0.13903 0.38815
# Poissons Ratio (y) = 0.06915 0.25617
# Poissons Ratio (z) = 0.24298 0.32242
#
# Static dielectric constant tensor:
#      x y z
#    x 2.052460 -0.074160 -0.141620 
#    y -0.074160 2.265880 0.203900 
#    z -0.141620 0.203900 2.213030 
# 
# From -- ./inp_files/157774.got.cif
#   From: 2010.05.17/outbox.cif.g08.bks.cpg/sg2_79_cif.got.tgz:157774.got - 2010.06.03 11:33:40.
