data_PCOD9066134
_publ_section_title
;
Structure prediction by ZEFSAII (Michael W. Deem and Ramdas Pophale) SiO2 
 PCOD9066134
Probable space group: P -1
;
_chemical_formula_sum "Si O2"
_cell_formula_units_Z 16
_cell_length_a 12.669063
_cell_length_b 9.528308
_cell_length_c 14.640132
_cell_angle_alpha 132.565836
_cell_angle_beta 145.293817
_cell_angle_gamma 47.110613
_cell_volume 707.676399
_symmetry_space_group_name_H-M "P -1"
_symmetry_group_IT_number 2
_symmetry_cell_setting 'triclinic'
loop_
_space_group_symop_operation_xyz
x,y,z
-x,-y,-z
loop_
_atom_site_type_symbol
_atom_site_label
_atom_site_fract_x
_atom_site_fract_y
_atom_site_fract_z
Si Si1 0.600466 0.861778 0.423722
Si Si2 0.022376 0.574807 0.662260
Si Si3 0.667735 0.247207 0.134167
Si Si4 0.030707 0.211558 0.090422
Si Si5 0.361016 0.582413 0.160407
Si Si6 0.081206 0.803829 0.533195
Si Si7 0.564652 0.947830 0.785795
Si Si8 0.554412 0.411832 0.401009
O O1 0.811912 0.711447 0.533243
O O2 0.448109 0.739531 0.241307
O O3 0.500000 0.000000 0.500000
O O4 0.594613 0.977980 0.375468
O O5 0.039709 0.340173 0.576836
O O6 0.202696 0.622517 0.761161
O O7 0.016986 0.658010 0.796095
O O8 0.463633 0.380237 0.089979
O O9 0.798339 0.151764 0.274026
O O10 0.621263 0.106786 0.961439
O O11 0.243014 0.171347 0.184665
O O12 0.867461 0.332613 0.958411
O O13 0.000000 0.000000 0.000000
O O14 0.443181 0.561946 0.311322
O O15 0.223998 0.648073 0.497065
O O16 0.000000 0.000000 0.500000
O O17 0.501403 0.792577 0.735266
O O18 0.500000 0.500000 0.500000
#
# Coordination Sequence:
#
# PCOD9066134 Si02
#       8
#     2   2   2   2   2   2   2   2
#     4  12  22  41  73 103 134 182 231 289 342 394
#     4  12  23  45  74 101 142 180 236 287 342 411
#     4  11  26  46  67 106 140 177 234 281 354 412
#     4  12  23  44  68 105 135 174 234 291 344 405
#     4  11  25  45  66  96 145 182 219 288 348 407
#     4  11  27  46  68 101 142 187 229 286 345 413
#     4  12  26  42  73 107 135 182 231 286 345 416
#     4  11  25  47  70  99 137 182 235 280 348 416
#
# _framework density 22.609204999999999
#
# number of rings (size 3 to 8) (size 9 to 14) (size 15 to 20)
#    0.000    0.500    6.250    1.875    1.750    7.500 
#    0.000    0.000    0.000    0.000    0.000    0.000 
#    0.000    0.000    0.000    0.000    0.000    0.000 
#
# Total GULP energy -89421.443068 kJ/mol
# GULP energy per Si atom -5588.840192 kJ/mol
# Density = 2.255775 g / cm^3
# Si number density = 22.609205 Si / 1000 Ang^3
#
#
#
# Elastic Constant Matrix: (Units=GPa)
#
#
# Indices 1 2 3 4 5 6 
#
# 1 99.9830 26.4702 7.0347 0.8539 -8.3747 -6.6498
# 2 26.4702 115.7714 41.1987 -20.1226 -4.0951 3.0030
# 3 7.0347 41.1987 52.6762 12.7477 -10.0173 -3.6207
# 4 0.8539 -20.1226 12.7477 35.7074 -7.0236 9.5466
# 5 -8.3747 -4.0951 -10.0173 -7.0236 47.5219 12.9774
# 6 -6.6498 3.0030 -3.6207 9.5466 12.9774 28.4921
#
#
#
# Elastic Compliance Matrix: (Units=1/GPa)
#
#
# Indices 1 2 3 4 5 6 
#
# 1 0.011722 -0.006097 0.005429 -0.007493 -0.000250 0.006693
# 2 -0.006097 0.025886 -0.027303 0.031094 0.005622 -0.020600
# 3 0.005429 -0.027303 0.050683 -0.041431 -0.004017 0.026297
# 4 -0.007493 0.031094 -0.041431 0.074801 0.015230 -0.042291
# 5 -0.000250 0.005622 -0.004017 0.015230 0.028092 -0.019060
# 6 0.006693 -0.020600 0.026297 -0.042291 -0.019060 0.065024
#
#
# Mechanical properties :
#
#
# Convention : Reuss Voigt Hill
#
# Bulk Modulus (GPa) = 30.91343 46.42644 38.66994
# Shear Modulus (GPa) = 15.48314 35.25940 25.37127
#
# Velocity S-wave (km/s) = 2.61974 3.95335 3.35351
# Velocity P-wave (km/s) = 4.78052 6.43565 5.66881
#
# Compressibility (1/GPa) = 0.03234839
#
# Stress axis : x y z
#
# Youngs Moduli (GPa) = 85.30943 38.63164 19.73059
#
# Poissons Ratio (x) = 0.23553 -0.10711
# Poissons Ratio (y) = 0.52012 0.53870
# Poissons Ratio (z) = -0.46312 1.05475
#
# Static dielectric constant tensor:
#      x y z
#    x 1.978040 0.016300 -0.004520 
#    y 0.016300 1.860230 -0.002090 
#    z -0.004520 -0.002090 1.863090 
# 
# From -- ./inp_files/392782.got.cif
#   From: 2010.05.17/outbox.cif.g08.bks.cpg/sg2_197_cif.got.tgz:392782.got - 2010.06.03 11:33:40.
