data_PCOD9066959
_publ_section_title
;
Structure prediction by ZEFSAII (Michael W. Deem and Ramdas Pophale) SiO2 
 PCOD9066959
Probable space group: P -1
;
_chemical_formula_sum "Si O2"
_cell_formula_units_Z 16
_cell_length_a 15.008834
_cell_length_b 14.387804
_cell_length_c 6.647577
_cell_angle_alpha 56.371894
_cell_angle_beta 111.301798
_cell_angle_gamma 140.857941
_cell_volume 748.495257
_symmetry_space_group_name_H-M "P -1"
_symmetry_group_IT_number 2
_symmetry_cell_setting 'triclinic'
loop_
_space_group_symop_operation_xyz
x,y,z
-x,-y,-z
loop_
_atom_site_type_symbol
_atom_site_label
_atom_site_fract_x
_atom_site_fract_y
_atom_site_fract_z
Si Si1 0.636179 0.400432 0.936772
Si Si2 0.141750 0.566563 0.117874
Si Si3 0.416083 0.136431 0.766164
Si Si4 0.132741 0.978300 0.503448
Si Si5 0.562815 0.162311 0.469826
Si Si6 0.993032 0.721220 0.342836
Si Si7 0.866924 0.759158 0.852229
Si Si8 0.233917 0.806255 0.211939
O O1 0.760350 0.418722 0.966345
O O2 0.530966 0.313882 0.762050
O O3 0.721088 0.584165 0.849583
O O4 0.557329 0.272413 0.210818
O O5 0.100345 0.444126 0.405741
O O6 0.225683 0.743617 0.062832
O O7 0.000000 0.500000 0.000000
O O8 0.278889 0.073106 0.622905
O O9 0.493468 0.129312 0.668313
O O10 0.352202 0.003001 0.049100
O O11 0.139096 0.113180 0.285049
O O12 0.097210 0.873223 0.404914
O O13 0.998946 0.847921 0.702524
O O14 0.721318 0.254379 0.531843
O O15 0.500000 0.000000 0.500000
O O16 0.088559 0.734032 0.251102
O O17 0.901483 0.728737 0.127994
#
# Coordination Sequence:
#
# PCOD9066959 Si02
#       8
#     2   2   2   2   2   2   2   2
#     4  12  25  44  65 100 139 178 224 275 335 401
#     4  12  23  40  65 101 138 178 219 273 332 400
#     4  12  25  44  65  99 139 179 224 272 334 407
#     4  11  25  47  73  97 128 175 233 291 343 391
#     4  12  23  40  65  95 139 184 216 260 329 408
#     4  12  23  44  70 101 134 174 229 280 339 401
#     4  11  25  47  73  98 127 176 232 294 342 384
#     4  12  22  40  63  98 136 178 216 261 332 406
#
# _framework density 21.376218999999999
#
# number of rings (size 3 to 8) (size 9 to 14) (size 15 to 20)
#    0.000    0.250    5.000    5.625    0.000    0.500 
#    0.000    0.625    0.000    0.000    0.000    0.000 
#    0.000    0.000    0.000    0.000    0.000    0.000 
#
# Total GULP energy -89438.146733 kJ/mol
# GULP energy per Si atom -5589.884171 kJ/mol
# Density = 2.132757 g / cm^3
# Si number density = 21.376219 Si / 1000 Ang^3
#
#
#
# Elastic Constant Matrix: (Units=GPa)
#
#
# Indices 1 2 3 4 5 6 
#
# 1 37.6460 -0.5618 12.4432 -4.6068 10.1795 2.8172
# 2 -0.5618 128.8774 25.0912 9.4154 20.3136 2.1330
# 3 12.4432 25.0912 102.7558 -3.4113 13.7684 6.4639
# 4 -4.6068 9.4154 -3.4113 28.4477 10.3365 1.2083
# 5 10.1795 20.3136 13.7684 10.3365 30.2919 1.9674
# 6 2.8172 2.1330 6.4639 1.2083 1.9674 21.2956
#
#
#
# Elastic Compliance Matrix: (Units=1/GPa)
#
#
# Indices 1 2 3 4 5 6 
#
# 1 0.032653 0.002180 -0.002000 0.009787 -0.014662 -0.003132
# 2 0.002180 0.009070 -0.001725 -0.000757 -0.005766 -0.000098
# 3 -0.002000 -0.001725 0.011241 0.003241 -0.004206 -0.002770
# 4 0.009787 -0.000757 0.003241 0.044495 -0.019246 -0.002949
# 5 -0.014662 -0.005766 -0.004206 -0.019246 0.050270 0.000242
# 6 -0.003132 -0.000098 -0.002770 -0.002949 0.000242 0.048368
#
#
# Mechanical properties :
#
#
# Convention : Reuss Voigt Hill
#
# Bulk Modulus (GPa) = 20.05067 38.13605 29.09336
# Shear Modulus (GPa) = 23.16829 31.49415 27.33122
#
# Velocity S-wave (km/s) = 3.29574 3.84256 3.57960
# Velocity P-wave (km/s) = 4.88700 6.12912 5.54296
#
# Compressibility (1/GPa) = 0.04987366
#
# Stress axis : x y z
#
# Youngs Moduli (GPa) = 30.62466 110.24794 88.96262
#
# Poissons Ratio (x) = -0.24029 0.17791
# Poissons Ratio (y) = -0.06675 0.15347
# Poissons Ratio (z) = 0.06125 0.19019
#
# Static dielectric constant tensor:
#      x y z
#    x 1.729950 0.032800 0.004890 
#    y 0.032800 1.859880 0.047810 
#    z 0.004890 0.047810 1.800610 
# 
# From -- ./inp_files/71685.got.cif
#   From: 2010.05.17/outbox.cif.g08.bks.cpg/sg2_36_cif.got.tgz:71685.got - 2010.06.03 11:33:40.
