data_PCOD9066389
_publ_section_title
;
Structure prediction by ZEFSAII (Michael W. Deem and Ramdas Pophale) SiO2 
 PCOD9066389
Probable space group: P -1
;
_chemical_formula_sum "Si O2"
_cell_formula_units_Z 16
_cell_length_a 12.739736
_cell_length_b 9.596992
_cell_length_c 7.899576
_cell_angle_alpha 97.435969
_cell_angle_beta 59.207748
_cell_angle_gamma 127.029518
_cell_volume 639.420873
_symmetry_space_group_name_H-M "P -1"
_symmetry_group_IT_number 2
_symmetry_cell_setting 'triclinic'
loop_
_space_group_symop_operation_xyz
x,y,z
-x,-y,-z
loop_
_atom_site_type_symbol
_atom_site_label
_atom_site_fract_x
_atom_site_fract_y
_atom_site_fract_z
Si Si1 0.541293 0.130965 0.328361
Si Si2 0.316633 0.224033 0.485745
Si Si3 0.091387 0.671576 0.245916
Si Si4 0.734477 0.923164 0.836669
Si Si5 0.597557 0.214118 0.812490
Si Si6 0.218427 0.450345 0.501287
Si Si7 0.857086 0.513891 0.063702
Si Si8 0.161633 0.189351 0.960224
O O1 0.461978 0.226424 0.399221
O O2 0.720222 0.300786 0.177600
O O3 0.500000 0.000000 0.500000
O O4 0.475590 0.987510 0.209312
O O5 0.219908 0.066415 0.396959
O O6 0.309990 0.368982 0.416666
O O7 0.268770 0.224516 0.717027
O O8 0.239110 0.700767 0.216655
O O9 0.945505 0.627080 0.470343
O O10 0.177538 0.874147 0.138083
O O11 0.028624 0.503549 0.143137
O O12 0.544790 0.801977 0.987910
O O13 0.786759 0.841116 0.910250
O O14 0.654170 0.342878 0.622501
O O15 0.141703 0.406027 0.744038
O O16 0.836965 0.641487 0.990186
O O17 0.000000 0.000000 0.000000
#
# Coordination Sequence:
#
# PCOD9066389 Si02
#       8
#     2   2   2   2   2   2   2   2
#     4  12  23  46  77 109 146 196 252 321 376 448
#     4  11  27  47  74 108 149 193 252 305 383 449
#     4  12  25  47  71 107 153 192 253 311 375 454
#     4  12  25  48  79 104 149 199 253 316 372 453
#     4  12  25  46  72 111 141 196 257 307 381 435
#     4  11  27  45  70 107 150 198 244 312 380 454
#     4  11  25  45  76 107 146 193 257 306 378 453
#     4  11  28  49  73 113 154 201 247 308 390 456
#
# _framework density 25.022641
#
# number of rings (size 3 to 8) (size 9 to 14) (size 15 to 20)
#    0.000    0.500    3.750    4.125    3.500    4.500 
#    0.000    0.000    0.000    0.000    0.000    0.000 
#    0.000    0.000    0.000    0.000    0.000    0.000 
#
# Total GULP energy -89134.404431 kJ/mol
# GULP energy per Si atom -5570.900277 kJ/mol
# Density = 2.496569 g / cm^3
# Si number density = 25.022641 Si / 1000 Ang^3
#
#
#
# Elastic Constant Matrix: (Units=GPa)
#
#
# Indices 1 2 3 4 5 6 
#
# 1 48.5847 36.8856 22.8492 -19.5405 6.2431 -9.6094
# 2 36.8856 105.4966 16.2619 -10.7116 -16.1737 -18.5027
# 3 22.8492 16.2619 50.8139 -0.8071 3.0862 -18.5290
# 4 -19.5405 -10.7116 -0.8071 41.1038 3.2416 -0.5836
# 5 6.2431 -16.1737 3.0862 3.2416 41.4336 8.5106
# 6 -9.6094 -18.5027 -18.5290 -0.5836 8.5106 44.7072
#
#
#
# Elastic Compliance Matrix: (Units=1/GPa)
#
#
# Indices 1 2 3 4 5 6 
#
# 1 0.049474 -0.014714 -0.016101 0.020465 -0.013756 0.000757
# 2 -0.014714 0.015626 0.002027 -0.003470 0.007904 0.002594
# 3 -0.016101 0.002027 0.029743 -0.006365 -0.000496 0.009716
# 4 0.020465 -0.003470 -0.006365 0.033612 -0.007025 0.002101
# 5 -0.013756 0.007904 -0.000496 -0.007025 0.031092 -0.005901
# 6 0.000757 0.002594 0.009716 0.002101 -0.005901 0.028782
#
#
# Mechanical properties :
#
#
# Convention : Reuss Voigt Hill
#
# Bulk Modulus (GPa) = 26.83475 39.65429 33.24452
# Shear Modulus (GPa) = 19.35518 34.04215 26.69867
#
# Velocity S-wave (km/s) = 2.78422 3.69243 3.27001
# Velocity P-wave (km/s) = 4.59165 5.83614 5.25090
#
# Compressibility (1/GPa) = 0.03726512
#
# Stress axis : x y z
#
# Youngs Moduli (GPa) = 20.21258 63.99679 33.62097
#
# Poissons Ratio (x) = 0.94167 0.54134
# Poissons Ratio (y) = 0.29742 -0.06814
# Poissons Ratio (z) = 0.32545 -0.12970
#
# Static dielectric constant tensor:
#      x y z
#    x 2.307130 0.084070 0.040960 
#    y 0.084070 1.982550 0.021050 
#    z 0.040960 0.021050 2.110070 
# 
# From -- ./inp_files/244442.got.cif
#   From: 2010.05.17/outbox.cif.g08.bks.cpg/sg2_123_cif.got.tgz:244442.got - 2010.06.03 11:33:40.
