data_PCOD9066954
_publ_section_title
;
Structure prediction by ZEFSAII (Michael W. Deem and Ramdas Pophale) SiO2 
 PCOD9066954
Probable space group: P -1
;
_chemical_formula_sum "Si O2"
_cell_formula_units_Z 11
_cell_length_a 11.507599
_cell_length_b 6.510566
_cell_length_c 14.569800
_cell_angle_alpha 67.263236
_cell_angle_beta 149.816805
_cell_angle_gamma 124.024508
_cell_volume 442.309411
_symmetry_space_group_name_H-M "P -1"
_symmetry_group_IT_number 2
_symmetry_cell_setting 'triclinic'
loop_
_space_group_symop_operation_xyz
x,y,z
-x,-y,-z
loop_
_atom_site_type_symbol
_atom_site_label
_atom_site_fract_x
_atom_site_fract_y
_atom_site_fract_z
Si Si1 0.500000 0.000000 0.500000
Si Si2 0.869900 0.403521 0.811494
Si Si3 0.428229 0.699856 0.763814
Si Si4 0.018173 0.883886 0.434073
Si Si5 0.236548 0.278647 0.184718
Si Si6 0.267451 0.946142 0.923132
O O1 0.302705 0.718803 0.373853
O O2 0.731732 0.919134 0.695310
O O3 0.706170 0.479463 0.756207
O O4 0.136891 0.662238 0.923649
O O5 0.958672 0.222986 0.958131
O O6 0.209023 0.409849 0.685217
O O7 0.568886 0.674078 0.774412
O O8 0.284978 0.865958 0.612022
O O9 0.611881 0.842258 0.951203
O O10 0.963535 0.038680 0.292646
O O11 0.000000 0.000000 0.500000
O O12 0.500000 0.000000 0.000000
#
# Coordination Sequence:
#
# PCOD9066954 Si02
#       6
#     1   2   2   2   2   2
#     4  12  28  48  78 108 150 200 252 314 374 444
#     4  11  29  49  77 110 156 196 254 315 375 454
#     4  11  27  45  76 106 154 196 249 316 369 451
#     4  11  25  47  73 112 148 197 251 310 375 449
#     4  11  28  50  73 112 147 203 251 309 383 445
#     4  12  26  48  77 108 149 201 247 307 379 445
#
# _framework density 24.869468999999999
#
# number of rings (size 3 to 8) (size 9 to 14) (size 15 to 20)
#    0.000    0.727    1.818    2.727   12.727    0.000 
#    0.000    0.000    0.000    0.000    0.000    0.000 
#    0.000    0.000    0.000    0.000    0.000    0.000 
#
# Total GULP energy -61385.677661 kJ/mol
# GULP energy per Si atom -5580.516151 kJ/mol
# Density = 2.481286 g / cm^3
# Si number density = 24.869469 Si / 1000 Ang^3
#
#
#
# Elastic Constant Matrix: (Units=GPa)
#
#
# Indices 1 2 3 4 5 6 
#
# 1 149.9727 40.9784 33.9990 -5.1510 11.8155 -21.9190
# 2 40.9784 116.7599 61.9019 -2.7129 -3.7781 -15.9088
# 3 33.9990 61.9019 128.9593 -11.0764 -10.5284 -17.2348
# 4 -5.1510 -2.7129 -11.0764 76.9829 -15.9606 6.9391
# 5 11.8155 -3.7781 -10.5284 -15.9606 26.7482 -10.3243
# 6 -21.9190 -15.9088 -17.2348 6.9391 -10.3243 32.9051
#
#
#
# Elastic Compliance Matrix: (Units=1/GPa)
#
#
# Indices 1 2 3 4 5 6 
#
# 1 0.008160 -0.001986 -0.001177 -0.000712 -0.003670 0.002858
# 2 -0.001986 0.012263 -0.004933 -0.000340 0.001448 0.002548
# 3 -0.001177 -0.004933 0.012011 0.002702 0.008133 0.005104
# 4 -0.000712 -0.000340 0.002702 0.015503 0.010944 0.000941
# 5 -0.003670 0.001448 0.008133 0.010944 0.055778 0.017708
# 6 0.002858 0.002548 0.005104 0.000941 0.017708 0.041557
#
#
# Mechanical properties :
#
#
# Convention : Reuss Voigt Hill
#
# Bulk Modulus (GPa) = 61.56989 74.38340 67.97664
# Shear Modulus (GPa) = 29.96220 44.58141 37.27180
#
# Velocity S-wave (km/s) = 3.47476 4.23852 3.87550
# Velocity P-wave (km/s) = 6.39606 7.34356 6.88613
#
# Compressibility (1/GPa) = 0.01624171
#
# Stress axis : x y z
#
# Youngs Moduli (GPa) = 122.55551 81.54521 83.25826
#
# Poissons Ratio (x) = 0.16193 0.09798
# Poissons Ratio (y) = 0.24336 0.41074
# Poissons Ratio (z) = 0.14423 0.40229
#
# Static dielectric constant tensor:
#      x y z
#    x 2.639170 0.220030 -0.302250 
#    y 0.220030 1.903570 -0.162480 
#    z -0.302250 -0.162480 2.079500 
# 
# From -- ./inp_files/510306.got.cif
#   From: 2010.05.17/outbox.cif.g08.bks.cpg/sg2_256_cif.got.tgz:510306.got - 2010.06.03 11:33:40.
