data_PCOD9066059
_publ_section_title
;
Structure prediction by ZEFSAII (Michael W. Deem and Ramdas Pophale) SiO2 
 PCOD9066059
Probable space group: P -1
;
_chemical_formula_sum "Si O2"
_cell_formula_units_Z 14
_cell_length_a 14.034341
_cell_length_b 11.217858
_cell_length_c 14.613382
_cell_angle_alpha 48.452016
_cell_angle_beta 49.539164
_cell_angle_gamma 22.031620
_cell_volume 641.098525
_symmetry_space_group_name_H-M "P -1"
_symmetry_group_IT_number 2
_symmetry_cell_setting 'triclinic'
loop_
_space_group_symop_operation_xyz
x,y,z
-x,-y,-z
loop_
_atom_site_type_symbol
_atom_site_label
_atom_site_fract_x
_atom_site_fract_y
_atom_site_fract_z
Si Si1 0.282481 0.846119 0.331513
Si Si2 0.298914 0.861102 0.834045
Si Si3 0.178995 0.811898 0.764353
Si Si4 0.261656 0.871941 0.062981
Si Si5 0.208040 0.285411 0.564355
Si Si6 0.730134 0.869286 0.943581
Si Si7 0.021838 0.146410 0.521964
O O1 0.555684 0.520671 0.279760
O O2 0.130389 0.849769 0.404213
O O3 0.198045 0.103545 0.204286
O O4 0.255116 0.894341 0.433229
O O5 0.166144 0.878417 0.843444
O O6 0.585079 0.466164 0.854312
O O7 0.239284 0.090634 0.703445
O O8 0.224609 0.950699 0.940112
O O9 0.087483 0.056603 0.633081
O O10 0.992646 0.870135 0.850649
O O11 0.386533 0.881739 0.032586
O O12 0.000000 0.500000 0.500000
O O13 0.126356 0.523891 0.558413
O O14 0.500000 0.000000 0.500000
O O15 0.000000 0.500000 0.000000
O O16 0.500000 0.000000 0.000000
#
# Coordination Sequence:
#
# PCOD9066059 Si02
#       7
#     2   2   2   2   2   2   2
#     4  11  25  46  72 103 143 195 246 303 374 446
#     4  11  25  44  73 108 144 199 247 306 373 448
#     4  12  19  45  73 103 143 194 247 300 376 448
#     4  11  25  46  73 107 147 198 250 305 376 448
#     4  12  26  48  73 109 151 193 245 309 370 435
#     4  12  27  48  73 105 147 191 243 309 368 431
#     4  11  25  44  73 105 145 194 245 304 370 449
#
# _framework density 21.837516000000001
#
# number of rings (size 3 to 8) (size 9 to 14) (size 15 to 20)
#    0.000    0.571    4.286    3.429    2.000    0.000 
#    2.571    0.000    0.000    0.000    0.000    0.000 
#    0.000    0.000    0.000    0.000    0.000    0.000 
#
# Total GULP energy -78020.702368 kJ/mol
# GULP energy per Si atom -5572.907312 kJ/mol
# Density = 2.178781 g / cm^3
# Si number density = 21.837516 Si / 1000 Ang^3
#
#
#
# Elastic Constant Matrix: (Units=GPa)
#
#
# Indices 1 2 3 4 5 6 
#
# 1 104.0085 45.7555 79.4376 10.4599 4.8297 5.9204
# 2 45.7555 90.9167 61.0810 -2.4354 -17.1054 -0.7662
# 3 79.4376 61.0810 150.0579 -6.2937 -1.6359 0.4056
# 4 10.4599 -2.4354 -6.2937 41.0208 10.8784 -0.1000
# 5 4.8297 -17.1054 -1.6359 10.8784 40.3858 1.4783
# 6 5.9204 -0.7662 0.4056 -0.1000 1.4783 33.3958
#
#
#
# Elastic Compliance Matrix: (Units=1/GPa)
#
#
# Indices 1 2 3 4 5 6 
#
# 1 0.018963 -0.004617 -0.008419 -0.005633 -0.002928 -0.003253
# 2 -0.004617 0.018126 -0.004876 -0.000661 0.008176 0.000930
# 3 -0.008419 -0.004876 0.013266 0.004358 -0.001743 0.001310
# 4 -0.005633 -0.000661 0.004358 0.028332 -0.007110 0.001330
# 5 -0.002928 0.008176 -0.001743 -0.007110 0.030442 -0.000641
# 6 -0.003253 0.000930 0.001310 0.001330 -0.000641 0.030558
#
#
# Mechanical properties :
#
#
# Convention : Reuss Voigt Hill
#
# Bulk Modulus (GPa) = 68.80769 79.72569 74.26669
# Shear Modulus (GPa) = 27.72317 33.54106 30.63211
#
# Velocity S-wave (km/s) = 3.56690 3.92336 3.74937
# Velocity P-wave (km/s) = 6.96714 7.55721 7.26817
#
# Compressibility (1/GPa) = 0.01453326
#
# Stress axis : x y z
#
# Youngs Moduli (GPa) = 52.73394 55.16813 75.38245
#
# Poissons Ratio (x) = 0.25469 0.63464
# Poissons Ratio (y) = 0.24345 0.36753
# Poissons Ratio (z) = 0.44396 0.26897
#
# Static dielectric constant tensor:
#      x y z
#    x 1.886190 -0.048340 0.000350 
#    y -0.048340 1.882390 -0.080560 
#    z 0.000350 -0.080560 1.798150 
# 
# From -- ./inp_files/124235.got.cif
#   From: 2010.05.17/outbox.cif.g08.bks.cpg/sg2_63_cif.got.tgz:124235.got - 2010.06.03 11:33:40.
