data_PCOD9066989
_publ_section_title
;
Structure prediction by ZEFSAII (Michael W. Deem and Ramdas Pophale) SiO2 
 PCOD9066989
Probable space group: P -1
;
_chemical_formula_sum "Si O2"
_cell_formula_units_Z 14
_cell_length_a 14.618725
_cell_length_b 10.937569
_cell_length_c 5.239703
_cell_angle_alpha 55.863784
_cell_angle_beta 62.658351
_cell_angle_gamma 53.946816
_cell_volume 550.110592
_symmetry_space_group_name_H-M "P -1"
_symmetry_group_IT_number 2
_symmetry_cell_setting 'triclinic'
loop_
_space_group_symop_operation_xyz
x,y,z
-x,-y,-z
loop_
_atom_site_type_symbol
_atom_site_label
_atom_site_fract_x
_atom_site_fract_y
_atom_site_fract_z
Si Si1 0.449390 0.875746 0.134570
Si Si2 0.662887 0.716870 0.753972
Si Si3 0.215089 0.572103 0.701373
Si Si4 0.923375 0.089145 0.751331
Si Si5 0.423366 0.443095 0.332464
Si Si6 0.000461 0.601110 0.133810
Si Si7 0.768000 0.926221 0.099681
O O1 0.489070 0.726009 0.451686
O O2 0.525344 0.795789 0.878993
O O3 0.500000 0.000000 0.000000
O O4 0.316713 0.983301 0.128505
O O5 0.674156 0.586992 0.667513
O O6 0.702795 0.851612 0.454096
O O7 0.727268 0.623296 0.040450
O O8 0.130798 0.711745 0.443142
O O9 0.338902 0.572778 0.500556
O O10 0.113250 0.630609 0.973709
O O11 0.000000 0.000000 0.500000
O O12 0.812559 0.055416 0.979041
O O13 0.000000 0.000000 0.000000
O O14 0.500000 0.500000 0.000000
O O15 0.000000 0.500000 0.500000
O O16 0.884829 0.767871 0.066575
O O17 0.000000 0.500000 0.000000
#
# Coordination Sequence:
#
# PCOD9066989 Si02
#       7
#     2   2   2   2   2   2   2
#     4  11  26  45  73 115 149 195 264 320 390 462
#     4  11  25  47  74 109 147 202 258 312 389 474
#     4  11  27  47  73 105 155 195 263 311 391 467
#     4  12  31  51  75 117 159 204 260 324 396 465
#     4  11  27  46  75 105 155 204 258 320 389 472
#     4  12  27  46  79 113 149 202 260 315 389 463
#     4  12  26  48  78 110 155 202 257 331 391 461
#
# _framework density 25.44943
#
# number of rings (size 3 to 8) (size 9 to 14) (size 15 to 20)
#    0.000    0.571    4.286    1.286   10.000    2.286 
#    0.000    0.000    0.000    0.000    0.000    0.000 
#    0.000    0.000    0.000    0.000    0.000    0.000 
#
# Total GULP energy -78032.934709 kJ/mol
# GULP energy per Si atom -5573.781051 kJ/mol
# Density = 2.539151 g / cm^3
# Si number density = 25.449430 Si / 1000 Ang^3
#
#
#
# Elastic Constant Matrix: (Units=GPa)
#
#
# Indices 1 2 3 4 5 6 
#
# 1 124.5082 26.2450 74.5477 -13.4106 7.1487 -24.1649
# 2 26.2450 95.3465 59.5233 -25.5444 23.6868 -41.1485
# 3 74.5477 59.5233 228.2988 -17.9749 -10.1121 -25.4570
# 4 -13.4106 -25.5444 -17.9749 42.9708 -9.5814 8.1278
# 5 7.1487 23.6868 -10.1121 -9.5814 47.5189 -2.6290
# 6 -24.1649 -41.1485 -25.4570 8.1278 -2.6290 59.5471
#
#
#
# Elastic Compliance Matrix: (Units=1/GPa)
#
#
# Indices 1 2 3 4 5 6 
#
# 1 0.010913 0.002259 -0.003694 0.001777 -0.002972 0.004036
# 2 0.002259 0.023852 -0.005332 0.007613 -0.011077 0.013591
# 3 -0.003694 -0.005332 0.006955 -0.000013 0.004580 -0.002006
# 4 0.001777 0.007613 -0.000013 0.028327 0.001768 0.002188
# 5 -0.002972 -0.011077 0.004580 0.001768 0.028017 -0.005907
# 6 0.004036 0.013591 -0.002006 0.002188 -0.005907 0.026406
#
#
# Mechanical properties :
#
#
# Convention : Reuss Voigt Hill
#
# Bulk Modulus (GPa) = 35.48032 85.42062 60.45047
# Shear Modulus (GPa) = 33.92151 49.19654 41.55902
#
# Velocity S-wave (km/s) = 3.65485 4.40148 4.04543
# Velocity P-wave (km/s) = 5.63758 7.71158 6.75466
#
# Compressibility (1/GPa) = 0.02818464
#
# Stress axis : x y z
#
# Youngs Moduli (GPa) = 91.63743 41.92507 143.78670
#
# Poissons Ratio (x) = -0.09469 0.53113
# Poissons Ratio (y) = -0.20697 0.76668
# Poissons Ratio (z) = 0.33850 0.22355
#
# Static dielectric constant tensor:
#      x y z
#    x 1.804330 0.087040 -0.241390 
#    y 0.087040 2.672150 0.212880 
#    z -0.241390 0.212880 1.862050 
# 
# From -- ./inp_files/94267.got.cif
#   From: 2010.05.17/outbox.cif.g08.bks.cpg/sg2_48_cif.got.tgz:94267.got - 2010.06.03 11:33:40.
