data_PCOD9066930
_publ_section_title
;
Structure prediction by ZEFSAII (Michael W. Deem and Ramdas Pophale) SiO2 
 PCOD9066930
Probable space group: P -1
;
_chemical_formula_sum "Si O2"
_cell_formula_units_Z 16
_cell_length_a 14.270958
_cell_length_b 10.950816
_cell_length_c 14.726604
_cell_angle_alpha 135.366693
_cell_angle_beta 149.610912
_cell_angle_gamma 65.774167
_cell_volume 670.573162
_symmetry_space_group_name_H-M "P -1"
_symmetry_group_IT_number 2
_symmetry_cell_setting 'triclinic'
loop_
_space_group_symop_operation_xyz
x,y,z
-x,-y,-z
loop_
_atom_site_type_symbol
_atom_site_label
_atom_site_fract_x
_atom_site_fract_y
_atom_site_fract_z
Si Si1 0.950119 0.082829 0.592428
Si Si2 0.374363 0.814910 0.392928
Si Si3 0.373683 0.203315 0.562561
Si Si4 0.870014 0.378174 0.416498
Si Si5 0.558986 0.332672 0.451640
Si Si6 0.908969 0.026940 0.186778
Si Si7 0.035840 0.515884 0.247387
Si Si8 0.463684 0.377883 0.000157
O O1 0.094032 0.135704 0.831898
O O2 0.957736 0.282462 0.673565
O O3 0.718987 0.862659 0.308749
O O4 0.000000 0.000000 0.500000
O O5 0.582350 0.830482 0.523101
O O6 0.315579 0.683933 0.366372
O O7 0.422532 0.045229 0.569207
O O8 0.160311 0.688383 0.078666
O O9 0.549015 0.455846 0.859698
O O10 0.128556 0.136546 0.361659
O O11 0.890592 0.181154 0.321734
O O12 0.979559 0.500167 0.665668
O O13 0.634063 0.346937 0.183867
O O14 0.000000 0.500000 0.500000
O O15 0.500000 0.500000 0.500000
O O16 0.715610 0.410370 0.535548
O O17 0.325382 0.100950 0.129475
O O18 0.500000 0.500000 0.000000
#
# Coordination Sequence:
#
# PCOD9066930 Si02
#       8
#     2   2   2   2   2   2   2   2
#     4  12  24  43  73 107 148 190 236 295 376 444
#     4  11  27  49  76 103 142 204 256 296 361 437
#     4  11  25  47  73 103 142 196 248 302 362 430
#     4  12  27  44  72 116 142 187 239 307 377 437
#     4  12  28  46  72 105 149 196 246 304 362 434
#     4  12  25  45  73 112 148 185 242 307 372 438
#     4  12  27  49  76 106 151 193 248 306 369 445
#     4  12  26  46  74 104 151 192 241 299 374 442
#
# _framework density 23.860185999999999
#
# number of rings (size 3 to 8) (size 9 to 14) (size 15 to 20)
#    0.000    0.250    3.750    4.125    7.000    2.500 
#    0.000    0.000    0.000    0.000    0.000    0.000 
#    0.000    0.000    0.000    0.000    0.000    0.000 
#
# Total GULP energy -89317.336602 kJ/mol
# GULP energy per Si atom -5582.333538 kJ/mol
# Density = 2.380588 g / cm^3
# Si number density = 23.860186 Si / 1000 Ang^3
#
#
#
# Elastic Constant Matrix: (Units=GPa)
#
#
# Indices 1 2 3 4 5 6 
#
# 1 110.4773 11.1229 27.5660 -4.3414 -7.7987 -3.8828
# 2 11.1229 89.6988 7.0014 1.9665 -4.3066 -5.3810
# 3 27.5660 7.0014 88.6353 -9.9865 -1.2125 -0.2386
# 4 -4.3414 1.9665 -9.9865 35.2764 4.8494 -8.5774
# 5 -7.7987 -4.3066 -1.2125 4.8494 26.9390 -0.6755
# 6 -3.8828 -5.3810 -0.2386 -8.5774 -0.6755 48.0275
#
#
#
# Elastic Compliance Matrix: (Units=1/GPa)
#
#
# Indices 1 2 3 4 5 6 
#
# 1 0.010112 -0.000851 -0.003009 0.000272 0.002627 0.000793
# 2 -0.000851 0.011479 -0.000720 -0.000928 0.001750 0.001073
# 3 -0.003009 -0.000720 0.012654 0.003478 -0.001034 0.000346
# 4 0.000272 -0.000928 0.003478 0.031499 -0.005446 0.005484
# 5 0.002627 0.001750 -0.001034 -0.005446 0.039095 -0.000019
# 6 0.000793 0.001073 0.000346 0.005484 -0.000019 0.021987
#
#
# Mechanical properties :
#
#
# Convention : Reuss Voigt Hill
#
# Bulk Modulus (GPa) = 39.86538 42.24355 41.05447
# Shear Modulus (GPa) = 34.63884 38.25666 36.44775
#
# Velocity S-wave (km/s) = 3.81431 4.00855 3.91263
# Velocity P-wave (km/s) = 6.01189 6.25841 6.13639
#
# Compressibility (1/GPa) = 0.02508442
#
# Stress axis : x y z
#
# Youngs Moduli (GPa) = 98.89133 87.11645 79.02943
#
# Poissons Ratio (x) = 0.07417 0.23780
# Poissons Ratio (y) = 0.08419 0.05688
# Poissons Ratio (z) = 0.29756 0.06270
#
# Static dielectric constant tensor:
#      x y z
#    x 1.886900 -0.043730 -0.051360 
#    y -0.043730 1.791980 -0.072910 
#    z -0.051360 -0.072910 1.901210 
# 
# From -- ./inp_files/532746.got.cif
#   From: 2010.05.17/outbox.cif.g08.bks.cpg/sg2_267_cif.got.tgz:532746.got - 2010.06.03 11:33:40.
