data_PCOD9066400
_publ_section_title
;
Structure prediction by ZEFSAII (Michael W. Deem and Ramdas Pophale) SiO2 
 PCOD9066400
Probable space group: P -1
;
_chemical_formula_sum "Si O2"
_cell_formula_units_Z 16
_cell_length_a 8.933140
_cell_length_b 10.825016
_cell_length_c 9.345294
_cell_angle_alpha 105.770835
_cell_angle_beta 46.652303
_cell_angle_gamma 98.490268
_cell_volume 631.456905
_symmetry_space_group_name_H-M "P -1"
_symmetry_group_IT_number 2
_symmetry_cell_setting 'triclinic'
loop_
_space_group_symop_operation_xyz
x,y,z
-x,-y,-z
loop_
_atom_site_type_symbol
_atom_site_label
_atom_site_fract_x
_atom_site_fract_y
_atom_site_fract_z
Si Si1 0.187499 0.985697 0.482451
Si Si2 0.000473 0.840409 0.117592
Si Si3 0.580719 0.095919 0.177943
Si Si4 0.106338 0.589998 0.133038
Si Si5 0.312476 0.495170 0.507229
Si Si6 0.259502 0.300335 0.938613
Si Si7 0.329306 0.773384 0.534044
Si Si8 0.477339 0.321806 0.093855
O O1 0.412321 0.990609 0.264145
O O2 0.802670 0.135277 0.457371
O O3 0.159638 0.109542 0.642537
O O4 0.000000 0.000000 0.500000
O O5 0.093019 0.698560 0.054013
O O6 0.183986 0.936103 0.031360
O O7 0.888647 0.813922 0.035825
O O8 0.615899 0.156607 0.331731
O O9 0.498049 0.201058 0.149481
O O10 0.170032 0.444071 0.002260
O O11 0.879855 0.586937 0.347861
O O12 0.301891 0.641730 0.106947
O O13 0.500000 0.500000 0.500000
O O14 0.226049 0.641173 0.592989
O O15 0.402628 0.438443 0.282801
O O16 0.322650 0.303323 0.061973
O O17 0.458287 0.268567 0.699195
#
# Coordination Sequence:
#
# PCOD9066400 Si02
#       8
#     2   2   2   2   2   2   2   2
#     4  12  30  52  76 109 151 197 252 316 366 434
#     4  11  26  49  78 108 150 200 250 305 376 444
#     4  11  25  51  78 106 144 199 253 298 372 448
#     4  11  25  45  76 112 151 201 241 307 380 437
#     4  12  24  45  76 113 154 198 245 303 374 450
#     4  12  25  46  74 113 155 190 242 319 374 440
#     4  12  26  49  76 108 154 200 249 302 371 450
#     4  11  26  45  73 116 152 189 248 311 371 442
#
# _framework density 25.338229999999999
#
# number of rings (size 3 to 8) (size 9 to 14) (size 15 to 20)
#    0.000    0.500    3.750    3.375    5.250    3.500 
#    4.500    0.000    0.000    0.000    0.000    0.000 
#    0.000    0.000    0.000    0.000    0.000    0.000 
#
# Total GULP energy -89646.804889 kJ/mol
# GULP energy per Si atom -5602.925306 kJ/mol
# Density = 2.528056 g / cm^3
# Si number density = 25.338230 Si / 1000 Ang^3
#
#
#
# Elastic Constant Matrix: (Units=GPa)
#
#
# Indices 1 2 3 4 5 6 
#
# 1 143.7823 67.1640 46.5377 -7.8789 8.5337 14.2492
# 2 67.1640 91.9838 6.0401 -21.3320 9.3221 -15.5274
# 3 46.5377 6.0401 89.3245 -9.4077 -2.9120 4.9101
# 4 -7.8789 -21.3320 -9.4077 44.0710 11.4923 -7.3132
# 5 8.5337 9.3221 -2.9120 11.4923 37.1742 -2.0271
# 6 14.2492 -15.5274 4.9101 -7.3132 -2.0271 50.8062
#
#
#
# Elastic Compliance Matrix: (Units=1/GPa)
#
#
# Indices 1 2 3 4 5 6 
#
# 1 0.017779 -0.016317 -0.008451 -0.008617 0.001449 -0.010339
# 2 -0.016317 0.029729 0.007254 0.017559 -0.007741 0.015180
# 3 -0.008451 0.007254 0.015518 0.006050 -0.000319 0.003946
# 4 -0.008617 0.017559 0.006050 0.036172 -0.012484 0.011907
# 5 0.001449 -0.007741 -0.000319 -0.012484 0.032166 -0.003255
# 6 -0.010339 0.015180 0.003946 0.011907 -0.003255 0.028424
#
#
# Mechanical properties :
#
#
# Convention : Reuss Voigt Hill
#
# Bulk Modulus (GPa) = 35.72074 62.73045 49.22560
# Shear Modulus (GPa) = 24.49175 40.10020 32.29598
#
# Velocity S-wave (km/s) = 3.11238 3.98250 3.57402
# Velocity P-wave (km/s) = 5.20039 6.77924 6.04161
#
# Compressibility (1/GPa) = 0.02799494
#
# Stress axis : x y z
#
# Youngs Moduli (GPa) = 56.24566 33.63748 64.44209
#
# Poissons Ratio (x) = 0.54888 0.54463
# Poissons Ratio (y) = 0.91779 -0.46744
# Poissons Ratio (z) = 0.47536 -0.24399
#
# Static dielectric constant tensor:
#      x y z
#    x 1.994640 -0.000320 -0.042570 
#    y -0.000320 1.980570 -0.033470 
#    z -0.042570 -0.033470 1.988660 
# 
# From -- ./inp_files/202890.got.cif
#   From: 2010.05.17/outbox.cif.g08.bks.cpg/sg2_102_cif.got.tgz:202890.got - 2010.06.03 11:33:40.
