data_PCOD9066776
_publ_section_title
;
Structure prediction by ZEFSAII (Michael W. Deem and Ramdas Pophale) SiO2 
 PCOD9066776
Probable space group: P -1
;
_chemical_formula_sum "Si O2"
_cell_formula_units_Z 14
_cell_length_a 17.623397
_cell_length_b 12.112832
_cell_length_c 8.672085
_cell_angle_alpha 36.454803
_cell_angle_beta 136.179603
_cell_angle_gamma 146.279034
_cell_volume 602.861959
_symmetry_space_group_name_H-M "P -1"
_symmetry_group_IT_number 2
_symmetry_cell_setting 'triclinic'
loop_
_space_group_symop_operation_xyz
x,y,z
-x,-y,-z
loop_
_atom_site_type_symbol
_atom_site_label
_atom_site_fract_x
_atom_site_fract_y
_atom_site_fract_z
Si Si1 0.110783 0.208891 0.314089
Si Si2 0.315455 0.930350 0.217658
Si Si3 0.755058 0.840079 0.708013
Si Si4 0.841048 0.367788 0.964001
Si Si5 0.376289 0.934191 0.778344
Si Si6 0.392354 0.669108 0.814275
Si Si7 0.940810 0.238998 0.758702
O O1 0.211147 0.178083 0.399890
O O2 0.182564 0.436133 0.273442
O O3 0.000000 0.000000 0.500000
O O4 0.035950 0.240338 0.026483
O O5 0.246881 0.835615 0.059247
O O6 0.358573 0.764882 0.512621
O O7 0.202147 0.873713 0.236189
O O8 0.444795 0.201746 0.102592
O O9 0.628081 0.855415 0.512226
O O10 0.893576 0.063547 0.742605
O O11 0.705563 0.604967 0.990275
O O12 0.776567 0.235444 0.178760
O O13 0.000000 0.500000 0.000000
O O14 0.379828 0.796280 0.797867
O O15 0.500000 0.000000 0.000000
O O16 0.000000 0.500000 0.500000
#
# Coordination Sequence:
#
# PCOD9066776 Si02
#       7
#     2   2   2   2   2   2   2
#     4  12  27  43  70 119 148 187 254 313 375 447
#     4  11  25  46  76 106 150 194 252 310 370 451
#     4  12  27  48  77 106 149 197 255 304 374 462
#     4  12  24  45  74 105 153 190 242 313 380 435
#     4  12  25  50  73 104 148 201 244 312 382 442
#     4  11  25  50  72 109 144 200 255 304 374 452
#     4  12  26  48  77 104 154 206 241 305 389 456
#
# _framework density 23.222563999999998
#
# number of rings (size 3 to 8) (size 9 to 14) (size 15 to 20)
#    0.000    0.286    5.714    3.000    4.000    1.143 
#    2.571    0.000    0.000    0.000    0.000    0.000 
#    0.000    0.000    0.000    0.000    0.000    0.000 
#
# Total GULP energy -78265.534313 kJ/mol
# GULP energy per Si atom -5590.395308 kJ/mol
# Density = 2.316971 g / cm^3
# Si number density = 23.222564 Si / 1000 Ang^3
#
#
#
# Elastic Constant Matrix: (Units=GPa)
#
#
# Indices 1 2 3 4 5 6 
#
# 1 102.1278 16.1682 -1.8146 -11.5499 -7.2556 9.0529
# 2 16.1682 68.5402 24.9776 -4.3670 1.7276 8.6148
# 3 -1.8146 24.9776 101.4737 -9.6929 -0.7555 3.8315
# 4 -11.5499 -4.3670 -9.6929 45.3153 6.5163 1.0771
# 5 -7.2556 1.7276 -0.7555 6.5163 40.0669 -6.4899
# 6 9.0529 8.6148 3.8315 1.0771 -6.4899 33.2871
#
#
#
# Elastic Compliance Matrix: (Units=1/GPa)
#
#
# Indices 1 2 3 4 5 6 
#
# 1 0.010805 -0.002558 0.001168 0.002624 0.001299 -0.002243
# 2 -0.002558 0.017239 -0.004117 0.000499 -0.001963 -0.003691
# 3 0.001168 -0.004117 0.011129 0.002276 0.000135 -0.000581
# 4 0.002624 0.000499 0.002276 0.023882 -0.003812 -0.002621
# 5 0.001299 -0.001963 0.000135 -0.003812 0.026789 0.005486
# 6 -0.002243 -0.003691 -0.000581 -0.002621 0.005486 0.032828
#
#
# Mechanical properties :
#
#
# Convention : Reuss Voigt Hill
#
# Bulk Modulus (GPa) = 35.51214 38.97825 37.24519
# Shear Modulus (GPa) = 34.94733 39.25456 37.10095
#
# Velocity S-wave (km/s) = 3.88350 4.11586 4.00137
# Velocity P-wave (km/s) = 5.95265 6.27759 6.11728
#
# Compressibility (1/GPa) = 0.02815938
#
# Stress axis : x y z
#
# Youngs Moduli (GPa) = 92.54791 58.00871 89.85296
#
# Poissons Ratio (x) = 0.14840 -0.10494
# Poissons Ratio (y) = 0.23675 0.36990
# Poissons Ratio (z) = -0.10809 0.23880
#
# Static dielectric constant tensor:
#      x y z
#    x 2.011450 -0.026410 -0.025810 
#    y -0.026410 1.894900 0.031860 
#    z -0.025810 0.031860 2.036390 
# 
# From -- ./inp_files/285245.got.cif
#   From: 2010.05.17/outbox.cif.g08.bks.cpg/sg2_143_cif.got.tgz:285245.got - 2010.06.03 11:33:40.
