data_PCOD9066062
_publ_section_title
;
Structure prediction by ZEFSAII (Michael W. Deem and Ramdas Pophale) SiO2 
 PCOD9066062
Probable space group: P -1
;
_chemical_formula_sum "Si O2"
_cell_formula_units_Z 14
_cell_length_a 10.082100
_cell_length_b 9.090307
_cell_length_c 11.099077
_cell_angle_alpha 79.752288
_cell_angle_beta 56.788555
_cell_angle_gamma 118.314473
_cell_volume 602.599979
_symmetry_space_group_name_H-M "P -1"
_symmetry_group_IT_number 2
_symmetry_cell_setting 'triclinic'
loop_
_space_group_symop_operation_xyz
x,y,z
-x,-y,-z
loop_
_atom_site_type_symbol
_atom_site_label
_atom_site_fract_x
_atom_site_fract_y
_atom_site_fract_z
Si Si1 0.683952 0.169385 0.977670
Si Si2 0.909680 0.559660 0.436983
Si Si3 0.113469 0.456730 0.042576
Si Si4 0.702499 0.016444 0.390481
Si Si5 0.072116 0.079044 0.585635
Si Si6 0.568469 0.828202 0.245403
Si Si7 0.339722 0.324641 0.999433
O O1 0.697659 0.341007 0.001601
O O2 0.917395 0.312811 0.775188
O O3 0.500000 0.000000 0.000000
O O4 0.643539 0.036567 0.128625
O O5 0.876658 0.711498 0.466330
O O6 0.673694 0.339943 0.554633
O O7 0.000000 0.500000 0.500000
O O8 0.236415 0.385945 0.954602
O O9 0.915878 0.262712 0.250359
O O10 0.000000 0.500000 0.000000
O O11 0.726482 0.904231 0.494366
O O12 0.716735 0.919329 0.277545
O O13 0.500000 0.000000 0.500000
O O14 0.000000 0.000000 0.500000
O O15 0.864185 0.895680 0.801421
O O16 0.561963 0.723459 0.142894
O O17 0.500000 0.500000 0.000000
#
# Coordination Sequence:
#
# PCOD9066062 Si02
#       7
#     2   2   2   2   2   2   2
#     4  12  24  45  74 110 149 196 256 315 384 448
#     4  12  27  43  72 110 147 195 257 309 374 459
#     4  11  25  44  73 107 142 193 250 305 379 455
#     4  11  27  49  75 110 154 202 254 322 390 448
#     4  11  27  46  72 110 150 197 259 316 375 461
#     4  12  25  47  77 106 153 203 253 312 390 454
#     4  11  25  46  74 110 152 197 251 315 382 453
#
# _framework density 23.232659000000002
#
# number of rings (size 3 to 8) (size 9 to 14) (size 15 to 20)
#    0.000    0.571    4.286    2.571    6.000    6.286 
#    0.000    0.000    0.000    0.000    0.000    0.000 
#    0.000    0.000    0.000    0.000    0.000    0.000 
#
# Total GULP energy -78041.212782 kJ/mol
# GULP energy per Si atom -5574.372342 kJ/mol
# Density = 2.317978 g / cm^3
# Si number density = 23.232659 Si / 1000 Ang^3
#
#
#
# Elastic Constant Matrix: (Units=GPa)
#
#
# Indices 1 2 3 4 5 6 
#
# 1 123.5089 42.7438 2.8460 -9.7502 16.3630 -18.6977
# 2 42.7438 119.6641 35.6889 -14.4269 1.0973 -4.4593
# 3 2.8460 35.6889 101.3709 -25.8529 -5.1388 -2.7018
# 4 -9.7502 -14.4269 -25.8529 39.0219 2.2157 5.6508
# 5 16.3630 1.0973 -5.1388 2.2157 29.5048 -0.6718
# 6 -18.6977 -4.4593 -2.7018 5.6508 -0.6718 50.0778
#
#
#
# Elastic Compliance Matrix: (Units=1/GPa)
#
#
# Indices 1 2 3 4 5 6 
#
# 1 0.010840 -0.003856 0.001370 0.002011 -0.005701 0.003474
# 2 -0.003856 0.010826 -0.003468 0.000788 0.001056 -0.000738
# 3 0.001370 -0.003468 0.013051 0.007637 0.001070 0.000059
# 4 0.002011 0.000788 0.007637 0.031957 -0.002269 -0.002403
# 5 -0.005701 0.001056 0.001070 -0.002269 0.037344 -0.001220
# 6 0.003474 -0.000738 0.000059 -0.002403 -0.001220 0.021459
#
#
# Mechanical properties :
#
#
# Convention : Reuss Voigt Hill
#
# Bulk Modulus (GPa) = 43.84600 56.34459 50.09529
# Shear Modulus (GPa) = 34.48526 41.27191 37.87858
#
# Velocity S-wave (km/s) = 3.85690 4.21938 4.04220
# Velocity P-wave (km/s) = 6.22477 6.93127 6.58750
#
# Compressibility (1/GPa) = 0.02280710
#
# Stress axis : x y z
#
# Youngs Moduli (GPa) = 92.25386 92.36636 76.62260
#
# Poissons Ratio (x) = 0.35619 -0.10495
# Poissons Ratio (y) = 0.35575 0.26576
# Poissons Ratio (z) = -0.12636 0.32037
#
# Static dielectric constant tensor:
#      x y z
#    x 1.944170 0.033000 -0.015130 
#    y 0.033000 2.258180 0.079180 
#    z -0.015130 0.079180 1.900920 
# 
# From -- ./inp_files/381622.got.cif
#   From: 2010.05.17/outbox.cif.g08.bks.cpg/sg2_191_cif.got.tgz:381622.got - 2010.06.03 11:33:40.
