data_PCOD9066903
_publ_section_title
;
Structure prediction by ZEFSAII (Michael W. Deem and Ramdas Pophale) SiO2 
 PCOD9066903
Probable space group: P -1
;
_chemical_formula_sum "Si O2"
_cell_formula_units_Z 16
_cell_length_a 15.998453
_cell_length_b 9.416261
_cell_length_c 9.547014
_cell_angle_alpha 68.653356
_cell_angle_beta 149.378515
_cell_angle_gamma 107.406329
_cell_volume 682.015802
_symmetry_space_group_name_H-M "P -1"
_symmetry_group_IT_number 2
_symmetry_cell_setting 'triclinic'
loop_
_space_group_symop_operation_xyz
x,y,z
-x,-y,-z
loop_
_atom_site_type_symbol
_atom_site_label
_atom_site_fract_x
_atom_site_fract_y
_atom_site_fract_z
Si Si1 0.541553 0.743041 0.213660
Si Si2 0.375269 0.952035 0.667598
Si Si3 0.014398 0.416907 0.698843
Si Si4 0.112507 0.410803 0.307177
Si Si5 0.072242 0.894994 0.434060
Si Si6 0.383554 0.466270 0.213176
Si Si7 0.430802 0.833573 0.492106
Si Si8 0.138989 0.833965 0.865399
O O1 0.715638 0.653629 0.479218
O O2 0.555168 0.876814 0.302755
O O3 0.493998 0.842263 0.972239
O O4 0.587092 0.388623 0.896074
O O5 0.207710 0.973134 0.506425
O O6 0.353060 0.864989 0.521511
O O7 0.000000 0.500000 0.500000
O O8 0.876308 0.476059 0.585678
O O9 0.994821 0.241212 0.703987
O O10 0.197068 0.453493 0.000300
O O11 0.009250 0.273232 0.269978
O O12 0.000000 0.500000 0.000000
O O13 0.155781 0.840935 0.720093
O O14 0.920658 0.000353 0.226621
O O15 0.500000 0.500000 0.500000
O O16 0.437810 0.307397 0.273142
O O17 0.500000 0.000000 0.500000
O O18 0.296556 0.790113 0.199060
#
# Coordination Sequence:
#
# PCOD9066903 Si02
#       8
#     2   2   2   2   2   2   2   2
#     4  11  26  48  75 104 149 192 248 300 379 441
#     4  11  27  46  76 109 145 197 246 313 366 445
#     4  12  26  45  75 105 142 188 249 300 358 439
#     4  12  26  46  72 106 146 192 240 304 372 440
#     4  11  25  47  75 105 146 192 251 305 366 440
#     4  12  27  49  74 109 150 198 243 310 377 444
#     4  12  28  45  74 110 150 194 250 306 378 446
#     4  11  25  47  72 103 145 199 246 301 373 443
#
# _framework density 23.459866999999999
#
# number of rings (size 3 to 8) (size 9 to 14) (size 15 to 20)
#    0.000    0.500    2.500    4.500   10.500    2.000 
#    0.000    0.000    0.000    0.000    0.000    0.000 
#    0.000    0.000    0.000    0.000    0.000    0.000 
#
# Total GULP energy -89622.824630 kJ/mol
# GULP energy per Si atom -5601.426539 kJ/mol
# Density = 2.340647 g / cm^3
# Si number density = 23.459867 Si / 1000 Ang^3
#
#
#
# Elastic Constant Matrix: (Units=GPa)
#
#
# Indices 1 2 3 4 5 6 
#
# 1 81.1133 31.2682 9.2057 -3.1270 -3.3402 -13.7000
# 2 31.2682 157.3439 8.7597 -3.6380 7.7262 -9.9547
# 3 9.2057 8.7597 65.5380 -2.4443 5.2358 -16.9650
# 4 -3.1270 -3.6380 -2.4443 41.8499 -3.9760 10.3561
# 5 -3.3402 7.7262 5.2358 -3.9760 38.0724 4.0654
# 6 -13.7000 -9.9547 -16.9650 10.3561 4.0654 42.6799
#
#
#
# Elastic Compliance Matrix: (Units=1/GPa)
#
#
# Indices 1 2 3 4 5 6 
#
# 1 0.014072 -0.002606 -0.000867 0.000078 0.001528 0.003400
# 2 -0.002606 0.007025 -0.000208 0.000024 -0.001717 0.000877
# 3 -0.000867 -0.000208 0.017503 -0.001167 -0.003335 0.007231
# 4 0.000078 0.000024 -0.001167 0.025929 0.003625 -0.007070
# 5 0.001528 -0.001717 -0.003335 0.003625 0.028097 -0.004792
# 6 0.003400 0.000877 0.007231 -0.007070 -0.004792 0.029772
#
#
# Mechanical properties :
#
#
# Convention : Reuss Voigt Hill
#
# Bulk Modulus (GPa) = 32.01322 44.71802 38.36562
# Shear Modulus (GPa) = 35.67024 41.50453 38.58739
#
# Velocity S-wave (km/s) = 3.90356 4.21072 4.06004
# Velocity P-wave (km/s) = 5.83032 6.53782 6.19418
#
# Compressibility (1/GPa) = 0.03123710
#
# Stress axis : x y z
#
# Youngs Moduli (GPa) = 71.06464 142.34157 57.13418
#
# Poissons Ratio (x) = 0.37098 0.04955
# Poissons Ratio (y) = 0.18521 0.01187
# Poissons Ratio (z) = 0.06163 0.02958
#
# Static dielectric constant tensor:
#      x y z
#    x 1.906480 0.000790 -0.007560 
#    y 0.000790 1.910770 -0.018520 
#    z -0.007560 -0.018520 1.889270 
# 
# From -- ./inp_files/329085.got.cif
#   From: 2010.05.17/outbox.cif.g08.bks.cpg/sg2_165_cif.got.tgz:329085.got - 2010.06.03 11:33:40.
