data_PCOD9066640
_publ_section_title
;
Structure prediction by ZEFSAII (Michael W. Deem and Ramdas Pophale) SiO2 
 PCOD9066640
Probable space group: P -1
;
_chemical_formula_sum "Si O2"
_cell_formula_units_Z 16
_cell_length_a 11.498472
_cell_length_b 6.664506
_cell_length_c 24.027207
_cell_angle_alpha 67.971351
_cell_angle_beta 152.731597
_cell_angle_gamma 122.446792
_cell_volume 686.760936
_symmetry_space_group_name_H-M "P -1"
_symmetry_group_IT_number 2
_symmetry_cell_setting 'triclinic'
loop_
_space_group_symop_operation_xyz
x,y,z
-x,-y,-z
loop_
_atom_site_type_symbol
_atom_site_label
_atom_site_fract_x
_atom_site_fract_y
_atom_site_fract_z
Si Si1 0.477336 0.146945 0.870827
Si Si2 0.154178 0.416138 0.529549
Si Si3 0.563713 0.333329 0.588351
Si Si4 0.063697 0.963854 0.966705
Si Si5 0.728125 0.920462 0.720420
Si Si6 0.084372 0.960820 0.614840
Si Si7 0.445213 0.505671 0.043193
Si Si8 0.897743 0.247606 0.162780
O O1 0.393527 0.335008 0.849486
O O2 0.266348 0.042317 0.739257
O O3 0.359827 0.922935 0.888428
O O4 0.795193 0.210867 0.973900
O O5 0.448879 0.659652 0.615076
O O6 0.932230 0.273594 0.400143
O O7 0.000000 0.500000 0.500000
O O8 0.202328 0.201029 0.600800
O O9 0.500000 0.500000 0.500000
O O10 0.256790 0.151933 0.504955
O O11 0.819872 0.549021 0.708589
O O12 0.687174 0.139760 0.652817
O O13 0.327760 0.228792 0.038472
O O14 0.802711 0.930685 0.817227
O O15 0.000000 0.000000 0.000000
O O16 0.008956 0.925532 0.812683
O O17 0.203085 0.594903 0.933407
O O18 0.500000 0.500000 0.000000
#
# Coordination Sequence:
#
# PCOD9066640 Si02
#       8
#     2   2   2   2   2   2   2   2
#     4  12  27  46  73 109 153 195 254 311 381 462
#     4  11  25  46  73 101 150 205 248 303 392 449
#     4  12  25  47  71 111 145 189 247 314 371 449
#     4  12  29  46  74 115 150 196 257 318 379 454
#     4  12  26  47  77 108 150 199 252 316 383 448
#     4  11  26  46  70 108 149 195 251 311 371 462
#     4  12  25  48  77 105 150 207 250 308 385 457
#     4  12  24  46  75 107 147 194 253 310 381 450
#
# _framework density 23.297772999999999
#
# number of rings (size 3 to 8) (size 9 to 14) (size 15 to 20)
#    0.000    0.250    7.500    1.125    3.500    2.000 
#    2.250    0.000    0.000    0.000    0.000    0.000 
#    0.000    0.000    0.000    0.000    0.000    0.000 
#
# Total GULP energy -89117.934768 kJ/mol
# GULP energy per Si atom -5569.870923 kJ/mol
# Density = 2.324475 g / cm^3
# Si number density = 23.297773 Si / 1000 Ang^3
#
#
#
# Elastic Constant Matrix: (Units=GPa)
#
#
# Indices 1 2 3 4 5 6 
#
# 1 150.0422 53.9819 18.0425 -2.9437 -7.4355 -18.5447
# 2 53.9819 108.3658 35.8763 8.2023 -12.7721 -22.0882
# 3 18.0425 35.8763 74.9907 9.5915 -16.7009 -6.0949
# 4 -2.9437 8.2023 9.5915 35.9482 -14.8258 -2.4686
# 5 -7.4355 -12.7721 -16.7009 -14.8258 39.6102 1.1182
# 6 -18.5447 -22.0882 -6.0949 -2.4686 1.1182 37.6553
#
#
#
# Elastic Compliance Matrix: (Units=1/GPa)
#
#
# Indices 1 2 3 4 5 6 
#
# 1 0.008375 -0.003772 -0.000084 0.002147 0.001067 0.002008
# 2 -0.003772 0.014104 -0.004980 -0.001381 0.001069 0.005488
# 3 -0.000084 -0.004980 0.016999 -0.001354 0.005052 -0.000450
# 4 0.002147 -0.001381 -0.001354 0.033732 0.011959 0.001884
# 5 0.001067 0.001069 0.005052 0.011959 0.032347 0.001794
# 6 0.002008 0.005488 -0.000450 0.001884 0.001794 0.030762
#
#
# Mechanical properties :
#
#
# Convention : Reuss Voigt Hill
#
# Bulk Modulus (GPa) = 45.85568 61.02225 53.43896
# Shear Modulus (GPa) = 31.00596 37.67591 34.34094
#
# Velocity S-wave (km/s) = 3.65205 4.02574 3.84344
# Velocity P-wave (km/s) = 6.12441 6.91794 6.53324
#
# Compressibility (1/GPa) = 0.02180755
#
# Stress axis : x y z
#
# Youngs Moduli (GPa) = 119.40298 70.89978 58.82596
#
# Poissons Ratio (x) = 0.26740 0.00496
# Poissons Ratio (y) = 0.45033 0.29293
# Poissons Ratio (z) = 0.01008 0.35306
#
# Static dielectric constant tensor:
#      x y z
#    x -0.126350 1.541470 2.828570 
#    y 1.541470 0.679960 -2.179830 
#    z 2.828570 -2.179830 -1.997230 
# 
# From -- ./inp_files/473508.got.cif
#   From: 2010.05.17/outbox.cif.g08.bks.cpg/sg2_237_cif.got.tgz:473508.got - 2010.06.03 11:33:40.
