data_PCOD9066280
_publ_section_title
;
Structure prediction by ZEFSAII (Michael W. Deem and Ramdas Pophale) SiO2 
 PCOD9066280
Probable space group: P -1
;
_chemical_formula_sum "Si O2"
_cell_formula_units_Z 14
_cell_length_a 5.638953
_cell_length_b 20.830494
_cell_length_c 15.083983
_cell_angle_alpha 160.448841
_cell_angle_beta 95.027519
_cell_angle_gamma 85.619973
_cell_volume 590.545541
_symmetry_space_group_name_H-M "P -1"
_symmetry_group_IT_number 2
_symmetry_cell_setting 'triclinic'
loop_
_space_group_symop_operation_xyz
x,y,z
-x,-y,-z
loop_
_atom_site_type_symbol
_atom_site_label
_atom_site_fract_x
_atom_site_fract_y
_atom_site_fract_z
Si Si1 0.820049 0.331788 0.293903
Si Si2 0.828445 0.940612 0.705693
Si Si3 0.737986 0.899320 0.842137
Si Si4 0.145582 0.600027 0.213268
Si Si5 0.475577 0.477266 0.603642
Si Si6 0.447093 0.885198 0.477351
Si Si7 0.359749 0.274263 0.907381
O O1 0.709410 0.365239 0.431361
O O2 0.589567 0.366939 0.269682
O O3 0.000000 0.500000 0.500000
O O4 0.929878 0.142096 0.007931
O O5 0.684015 0.880817 0.711285
O O6 0.680224 0.960794 0.636700
O O7 0.012698 0.774437 0.481218
O O8 0.726075 0.687317 0.606332
O O9 0.500000 0.000000 0.000000
O O10 0.000000 0.000000 0.000000
O O11 0.355914 0.714337 0.316372
O O12 0.182039 0.428214 0.060253
O O13 0.000000 0.500000 0.000000
O O14 0.500951 0.594008 0.846474
O O15 0.501331 0.795030 0.265969
O O16 0.290600 0.074736 0.697152
#
# Coordination Sequence:
#
# PCOD9066280 Si02
#       7
#     2   2   2   2   2   2   2
#     4  11  25  46  73 107 151 196 256 323 395 468
#     4  12  26  48  76 107 155 201 255 326 401 471
#     4  12  28  48  73 114 156 207 270 327 402 486
#     4  12  28  46  73 113 152 201 253 326 398 474
#     4  11  25  45  73 106 147 199 257 321 394 473
#     4  11  26  51  75 107 153 199 262 319 402 477
#     4  11  25  50  77 109 150 200 261 324 393 487
#
# _framework density 23.706893999999998
#
# number of rings (size 3 to 8) (size 9 to 14) (size 15 to 20)
#    0.000    0.571    4.286    2.143    8.000    0.571 
#    0.000    0.000    0.000    0.000    0.000    0.000 
#    0.000    0.000    0.000    0.000    0.000    0.000 
#
# Total GULP energy -78061.613559 kJ/mol
# GULP energy per Si atom -5575.829540 kJ/mol
# Density = 2.365294 g / cm^3
# Si number density = 23.706894 Si / 1000 Ang^3
#
#
#
# Elastic Constant Matrix: (Units=GPa)
#
#
# Indices 1 2 3 4 5 6 
#
# 1 56.2710 12.8781 43.7145 -7.9335 -4.6772 5.3896
# 2 12.8781 99.1100 35.9346 -10.9005 -7.3826 -15.4596
# 3 43.7145 35.9346 192.8033 -11.1886 -12.7866 -2.5770
# 4 -7.9335 -10.9005 -11.1886 55.9594 0.7456 -11.4457
# 5 -4.6772 -7.3826 -12.7866 0.7456 40.0693 7.8846
# 6 5.3896 -15.4596 -2.5770 -11.4457 7.8846 38.0763
#
#
#
# Elastic Compliance Matrix: (Units=1/GPa)
#
#
# Indices 1 2 3 4 5 6 
#
# 1 0.022462 -0.001639 -0.004674 0.001054 0.001632 -0.004182
# 2 -0.001639 0.012167 -0.001621 0.003017 0.000315 0.005904
# 3 -0.004674 -0.001621 0.006656 0.000403 0.001208 0.000325
# 4 0.001054 0.003017 0.000403 0.020213 -0.001023 0.007391
# 5 0.001632 0.000315 0.001208 -0.001023 0.026765 -0.005871
# 6 -0.004182 0.005904 0.000325 0.007391 -0.005871 0.032712
#
#
# Mechanical properties :
#
#
# Convention : Reuss Voigt Hill
#
# Bulk Modulus (GPa) = 39.34377 59.24874 49.29626
# Shear Modulus (GPa) = 34.40797 43.86481 39.13639
#
# Velocity S-wave (km/s) = 3.81385 4.30618 4.06747
# Velocity P-wave (km/s) = 6.00215 7.05483 6.54967
#
# Compressibility (1/GPa) = 0.02541698
#
# Stress axis : x y z
#
# Youngs Moduli (GPa) = 44.51977 82.19136 150.23239
#
# Poissons Ratio (x) = 0.13471 0.70217
# Poissons Ratio (y) = 0.07297 0.24355
# Poissons Ratio (z) = 0.20808 0.13324
#
# Static dielectric constant tensor:
#      x y z
#    x 1.827280 0.012860 -0.072450 
#    y 0.012860 2.064990 0.098690 
#    z -0.072450 0.098690 1.857620 
# 
# From -- ./inp_files/485668.got.cif
#   From: 2010.05.17/outbox.cif.g08.bks.cpg/sg2_243_cif.got.tgz:485668.got - 2010.06.03 11:33:40.
