data_PCOD9066423
_publ_section_title
;
Structure prediction by ZEFSAII (Michael W. Deem and Ramdas Pophale) SiO2 
 PCOD9066423
Probable space group: P -1
;
_chemical_formula_sum "Si O2"
_cell_formula_units_Z 14
_cell_length_a 8.137852
_cell_length_b 17.505078
_cell_length_c 5.469790
_cell_angle_alpha 50.455134
_cell_angle_beta 56.337148
_cell_angle_gamma 69.019195
_cell_volume 500.084156
_symmetry_space_group_name_H-M "P -1"
_symmetry_group_IT_number 2
_symmetry_cell_setting 'triclinic'
loop_
_space_group_symop_operation_xyz
x,y,z
-x,-y,-z
loop_
_atom_site_type_symbol
_atom_site_label
_atom_site_fract_x
_atom_site_fract_y
_atom_site_fract_z
Si Si1 0.688441 0.985798 0.190990
Si Si2 0.901599 0.392466 0.009570
Si Si3 0.311953 0.794641 0.198827
Si Si4 0.686641 0.597135 0.850001
Si Si5 0.969662 0.262982 0.828315
Si Si6 0.151056 0.083533 0.294697
Si Si7 0.369133 0.348565 0.731185
O O1 0.500000 0.000000 0.500000
O O2 0.823404 0.935426 0.394982
O O3 0.726381 0.100692 0.860188
O O4 0.689370 0.929152 0.043098
O O5 0.798751 0.303511 0.418507
O O6 0.816470 0.497979 0.934018
O O7 0.869073 0.361453 0.819155
O O8 0.138578 0.381515 0.857656
O O9 0.541532 0.762836 0.092034
O O10 0.201926 0.802336 0.014675
O O11 0.835337 0.692301 0.552498
O O12 0.570055 0.611837 0.664287
O O13 0.552312 0.602666 0.186443
O O14 0.063458 0.192251 0.100797
O O15 0.000000 0.000000 0.500000
#
# Coordination Sequence:
#
# PCOD9066423 Si02
#       7
#     2   2   2   2   2   2   2
#     4  12  30  49  74 112 151 192 247 314 368 448
#     4  11  26  50  72 106 149 195 241 303 360 443
#     4  12  28  45  77 108 147 188 251 299 370 431
#     4  11  26  48  74 104 150 194 243 293 371 431
#     4  11  25  45  78 103 148 193 246 298 364 440
#     4  12  26  49  79 106 146 198 251 297 381 436
#     4  11  26  45  73 105 147 193 239 301 360 431
#
# _framework density 27.995287000000001
#
# number of rings (size 3 to 8) (size 9 to 14) (size 15 to 20)
#    0.000    0.571    2.857    3.857   12.000    1.143 
#    0.000    0.000    0.000    0.000    0.000    0.000 
#    0.000    0.000    0.000    0.000    0.000    0.000 
#
# Total GULP energy -78189.130443 kJ/mol
# GULP energy per Si atom -5584.937889 kJ/mol
# Density = 2.793157 g / cm^3
# Si number density = 27.995287 Si / 1000 Ang^3
#
#
#
# Elastic Constant Matrix: (Units=GPa)
#
#
# Indices 1 2 3 4 5 6 
#
# 1 117.5932 39.0915 30.5990 0.9870 23.5257 -21.4292
# 2 39.0915 191.6884 41.6182 -2.9576 33.1461 -6.1176
# 3 30.5990 41.6182 116.0090 -2.6561 16.7578 3.9716
# 4 0.9870 -2.9576 -2.6561 60.3199 2.8383 10.4420
# 5 23.5257 33.1461 16.7578 2.8383 51.7112 5.5609
# 6 -21.4292 -6.1176 3.9716 10.4420 5.5609 41.4311
#
#
#
# Elastic Compliance Matrix: (Units=1/GPa)
#
#
# Indices 1 2 3 4 5 6 
#
# 1 0.011638 -0.000846 -0.002364 -0.001343 -0.004675 0.007087
# 2 -0.000846 0.006343 -0.001608 0.000229 -0.003283 0.001036
# 3 -0.002364 -0.001608 0.010062 0.000883 -0.000931 -0.002522
# 4 -0.001343 0.000229 0.000883 0.017551 -0.000233 -0.005138
# 5 -0.004675 -0.003283 -0.000931 -0.000233 0.024535 -0.006048
# 6 0.007087 0.001036 -0.002522 -0.005138 -0.006048 0.030304
#
#
# Mechanical properties :
#
#
# Convention : Reuss Voigt Hill
#
# Bulk Modulus (GPa) = 54.33188 71.98978 63.16083
# Shear Modulus (GPa) = 43.02751 51.62456 47.32603
#
# Velocity S-wave (km/s) = 3.92466 4.29889 4.11603
# Velocity P-wave (km/s) = 6.32352 7.10010 6.72303
#
# Compressibility (1/GPa) = 0.01840540
#
# Stress axis : x y z
#
# Youngs Moduli (GPa) = 85.92189 157.65587 99.38667
#
# Poissons Ratio (x) = 0.13343 0.23498
# Poissons Ratio (y) = 0.07272 0.15983
# Poissons Ratio (z) = 0.20315 0.25354
#
# Static dielectric constant tensor:
#      x y z
#    x 2.408760 0.001500 -0.019200 
#    y 0.001500 2.137630 0.151830 
#    z -0.019200 0.151830 2.353740 
# 
# From -- ./inp_files/46118.got.cif
#   From: 2010.05.17/outbox.cif.g08.bks.cpg/sg2_24_cif.got.tgz:46118.got - 2010.06.03 11:33:40.
