data_PCOD9066341
_publ_section_title
;
Structure prediction by ZEFSAII (Michael W. Deem and Ramdas Pophale) SiO2 
 PCOD9066341
Probable space group: P -1
;
_chemical_formula_sum "Si O2"
_cell_formula_units_Z 16
_cell_length_a 10.402482
_cell_length_b 8.724027
_cell_length_c 11.937309
_cell_angle_alpha 127.961802
_cell_angle_beta 86.663033
_cell_angle_gamma 57.151278
_cell_volume 578.494840
_symmetry_space_group_name_H-M "P -1"
_symmetry_group_IT_number 2
_symmetry_cell_setting 'triclinic'
loop_
_space_group_symop_operation_xyz
x,y,z
-x,-y,-z
loop_
_atom_site_type_symbol
_atom_site_label
_atom_site_fract_x
_atom_site_fract_y
_atom_site_fract_z
Si Si1 0.297159 0.373681 0.791940
Si Si2 0.171457 0.402009 0.275436
Si Si3 0.979900 0.987029 0.653096
Si Si4 0.567302 0.195610 0.443387
Si Si5 0.542091 0.449426 0.843602
Si Si6 0.104701 0.524970 0.088214
Si Si7 0.111447 0.633491 0.698717
Si Si8 0.508415 0.282098 0.242355
O O1 0.475568 0.315351 0.739671
O O2 0.134191 0.627736 0.829240
O O3 0.337600 0.103219 0.644043
O O4 0.252825 0.448294 0.958618
O O5 0.185076 0.350029 0.118859
O O6 0.383238 0.223398 0.223298
O O7 0.081341 0.708927 0.453138
O O8 0.022061 0.408662 0.331357
O O9 0.008334 0.900407 0.743328
O O10 0.766009 0.223858 0.725562
O O11 0.034515 0.150699 0.716855
O O12 0.336492 0.396370 0.545486
O O13 0.632465 0.124523 0.276854
O O14 0.582961 0.400592 0.578892
O O15 0.440912 0.722966 0.891945
O O16 0.500000 0.500000 0.000000
O O17 0.000000 0.500000 0.000000
#
# Coordination Sequence:
#
# PCOD9066341 Si02
#       8
#     2   2   2   2   2   2   2   2
#     4  12  26  48  71 103 154 194 244 299 377 438
#     4  12  25  46  73 110 143 189 250 306 361 431
#     4  12  27  46  80 104 148 192 246 312 359 443
#     4  11  26  47  74 108 145 194 243 314 359 441
#     4  12  25  48  70 106 144 191 239 296 372 441
#     4  12  27  47  69 110 148 193 243 307 374 436
#     4  12  26  47  77 111 145 194 258 297 368 439
#     4  11  25  45  74 110 143 189 253 296 374 428
#
# _framework density 27.657983999999999
#
# number of rings (size 3 to 8) (size 9 to 14) (size 15 to 20)
#    0.000    0.250    6.250    1.875    5.250    0.500 
#    2.250    1.250    0.000    0.000    0.000    0.000 
#    0.000    0.000    0.000    0.000    0.000    0.000 
#
# Total GULP energy -89429.593076 kJ/mol
# GULP energy per Si atom -5589.349567 kJ/mol
# Density = 2.759503 g / cm^3
# Si number density = 27.657984 Si / 1000 Ang^3
#
#
#
# Elastic Constant Matrix: (Units=GPa)
#
#
# Indices 1 2 3 4 5 6 
#
# 1 171.9015 23.8579 19.2772 10.0318 41.3920 -0.6730
# 2 23.8579 166.3302 15.6224 -23.2541 10.7109 -5.5421
# 3 19.2772 15.6224 65.1603 -15.2383 16.4012 5.8566
# 4 10.0318 -23.2541 -15.2383 52.4692 -0.8985 6.7859
# 5 41.3920 10.7109 16.4012 -0.8985 47.0356 -8.5723
# 6 -0.6730 -5.5421 5.8566 6.7859 -8.5723 27.7261
#
#
#
# Elastic Compliance Matrix: (Units=1/GPa)
#
#
# Indices 1 2 3 4 5 6 
#
# 1 0.007743 -0.000946 -0.000750 -0.002051 -0.006630 -0.001391
# 2 -0.000946 0.006646 -0.000633 0.002854 -0.000287 0.000652
# 3 -0.000750 -0.000633 0.019897 0.006584 -0.007518 -0.008283
# 4 -0.002051 0.002854 0.006584 0.023531 -0.002012 -0.007252
# 5 -0.006630 -0.000287 -0.007518 -0.002012 0.031879 0.011719
# 6 -0.001391 0.000652 -0.008283 -0.007252 0.011719 0.043311
#
#
# Mechanical properties :
#
#
# Convention : Reuss Voigt Hill
#
# Bulk Modulus (GPa) = 33.75100 57.87855 45.81478
# Shear Modulus (GPa) = 33.88854 48.42181 41.15517
#
# Velocity S-wave (km/s) = 3.50419 4.18872 3.86165
# Velocity P-wave (km/s) = 5.34807 6.66076 6.04018
#
# Compressibility (1/GPa) = 0.02962875
#
# Stress axis : x y z
#
# Youngs Moduli (GPa) = 129.14178 150.45598 50.25930
#
# Poissons Ratio (x) = 0.14240 0.03769
# Poissons Ratio (y) = 0.12223 0.03179
# Poissons Ratio (z) = 0.09684 0.09518
#
# Static dielectric constant tensor:
#      x y z
#    x 2.266660 0.046570 -0.143360 
#    y 0.046570 2.140880 -0.011520 
#    z -0.143360 -0.011520 2.278870 
# 
# From -- ./inp_files/420024.got.cif
#   From: 2010.05.17/outbox.cif.g08.bks.cpg/sg2_211_cif.got.tgz:420024.got - 2010.06.03 11:33:40.
