data_PCOD9066128
_publ_section_title
;
Structure prediction by ZEFSAII (Michael W. Deem and Ramdas Pophale) SiO2 
 PCOD9066128
Probable space group: P -1
;
_chemical_formula_sum "Si O2"
_cell_formula_units_Z 16
_cell_length_a 7.719123
_cell_length_b 14.540240
_cell_length_c 13.770419
_cell_angle_alpha 37.958396
_cell_angle_beta 67.845325
_cell_angle_gamma 44.486752
_cell_volume 601.400728
_symmetry_space_group_name_H-M "P -1"
_symmetry_group_IT_number 2
_symmetry_cell_setting 'triclinic'
loop_
_space_group_symop_operation_xyz
x,y,z
-x,-y,-z
loop_
_atom_site_type_symbol
_atom_site_label
_atom_site_fract_x
_atom_site_fract_y
_atom_site_fract_z
Si Si1 0.159588 0.510738 0.108819
Si Si2 0.078203 0.145662 0.791074
Si Si3 0.823189 0.699739 0.190580
Si Si4 0.731706 0.313301 0.202432
Si Si5 0.457930 0.357050 0.566805
Si Si6 0.631560 0.804095 0.451096
Si Si7 0.070568 0.037508 0.707150
Si Si8 0.139395 0.165362 0.392421
O O1 0.876459 0.712786 0.057275
O O2 0.423413 0.430494 0.175368
O O3 0.143661 0.341648 0.241350
O O4 0.217758 0.546847 0.961120
O O5 0.199004 0.141301 0.867916
O O6 0.784954 0.398221 0.629954
O O7 0.092400 0.978824 0.870417
O O8 0.253529 0.112166 0.691892
O O9 0.108819 0.446346 0.364179
O O10 0.617099 0.691633 0.278708
O O11 0.881919 0.231310 0.342364
O O12 0.859926 0.148361 0.220177
O O13 0.491885 0.209039 0.603498
O O14 0.746447 0.268117 0.583863
O O15 0.395260 0.960408 0.447394
O O16 0.174454 0.094737 0.553940
#
# Coordination Sequence:
#
# PCOD9066128 Si02
#       8
#     2   2   2   2   2   2   2   2
#     4  11  25  45  63  86 124 172 207 240 314 370
#     4   9  19  32  56  87 123 157 190 249 306 357
#     4   9  19  38  60  84 125 168 195 243 309 367
#     4  11  26  43  63  91 127 159 205 263 298 367
#     4   9  18  33  54  88 129 147 193 253 301 357
#     4   9  17  33  56  88 118 151 196 249 306 347
#     4  12  22  36  61 100 123 151 207 260 309 353
#     4  12  23  39  68  93 123 159 203 261 309 362
#
# _framework density 26.604555999999999
#
# number of rings (size 3 to 8) (size 9 to 14) (size 15 to 20)
#    0.000    1.750    1.250    5.625    3.500    1.500 
#    0.000    1.250    0.000    0.000    0.000    0.000 
#    0.000    0.000    0.000    0.000    0.000    0.000 
#
# Total GULP energy -89161.061082 kJ/mol
# GULP energy per Si atom -5572.566318 kJ/mol
# Density = 2.654400 g / cm^3
# Si number density = 26.604556 Si / 1000 Ang^3
#
#
#
# Elastic Constant Matrix: (Units=GPa)
#
#
# Indices 1 2 3 4 5 6 
#
# 1 178.2738 35.3018 12.1512 -0.1892 -28.6562 35.5195
# 2 35.3018 141.1410 -0.9206 9.2162 -11.4751 0.8357
# 3 12.1512 -0.9206 47.7148 -5.4077 -25.9441 2.3899
# 4 -0.1892 9.2162 -5.4077 17.4315 -6.8126 -8.5888
# 5 -28.6562 -11.4751 -25.9441 -6.8126 36.5451 -2.5637
# 6 35.5195 0.8357 2.3899 -8.5888 -2.5637 62.6736
#
#
#
# Elastic Compliance Matrix: (Units=1/GPa)
#
#
# Indices 1 2 3 4 5 6 
#
# 1 0.007718 -0.001442 0.002822 0.002968 0.007895 -0.003733
# 2 -0.001442 0.007768 0.000889 -0.003161 0.001372 0.000303
# 3 0.002822 0.000889 0.046070 0.031235 0.041203 0.002598
# 4 0.002968 -0.003161 0.031235 0.090379 0.041145 0.011238
# 5 0.007895 0.001372 0.041203 0.041145 0.071080 0.002483
# 6 -0.003733 0.000303 0.002598 0.011238 0.002483 0.019610
#
#
# Mechanical properties :
#
#
# Convention : Reuss Voigt Hill
#
# Bulk Modulus (GPa) = 15.12955 51.13270 33.13112
# Shear Modulus (GPa) = 19.22218 44.70319 31.96268
#
# Velocity S-wave (km/s) = 2.69088 4.10357 3.46988
# Velocity P-wave (km/s) = 3.91837 6.45861 5.34169
#
# Compressibility (1/GPa) = 0.06609583
#
# Stress axis : x y z
#
# Youngs Moduli (GPa) = 129.56002 128.73764 21.70623
#
# Poissons Ratio (x) = 0.18563 -0.06126
# Poissons Ratio (y) = 0.18682 -0.01931
# Poissons Ratio (z) = -0.36567 -0.11451
#
# Static dielectric constant tensor:
#      x y z
#    x 0.170740 -0.184480 0.161760 
#    y -0.184480 2.026410 0.020490 
#    z 0.161760 0.020490 2.260060 
# 
# From -- ./inp_files/397727.got.cif
#   From: 2010.05.17/outbox.cif.g08.bks.cpg/sg2_199_cif.got.tgz:397727.got - 2010.06.03 11:33:40.
