data_PCOD9066003
_publ_section_title
;
Structure prediction by ZEFSAII (Michael W. Deem and Ramdas Pophale) SiO2 
 PCOD9066003
Probable space group: P -1
;
_chemical_formula_sum "Si O2"
_cell_formula_units_Z 10
_cell_length_a 8.727802
_cell_length_b 6.778605
_cell_length_c 15.016169
_cell_angle_alpha 80.285929
_cell_angle_beta 36.150402
_cell_angle_gamma 94.717507
_cell_volume 478.698245
_symmetry_space_group_name_H-M "P -1"
_symmetry_group_IT_number 2
_symmetry_cell_setting 'triclinic'
loop_
_space_group_symop_operation_xyz
x,y,z
-x,-y,-z
loop_
_atom_site_type_symbol
_atom_site_label
_atom_site_fract_x
_atom_site_fract_y
_atom_site_fract_z
Si Si1 0.485045 0.778504 0.068195
Si Si2 0.039084 0.351980 0.236405
Si Si3 0.231948 0.023831 0.464439
Si Si4 0.443518 0.550645 0.623661
Si Si5 0.667821 0.875417 0.176475
O O1 0.201846 0.580195 0.190832
O O2 0.529129 0.810310 0.149914
O O3 0.735230 0.719151 0.914032
O O4 0.500000 0.000000 0.000000
O O5 0.881820 0.171619 0.396900
O O6 0.824252 0.382346 0.264590
O O7 0.689168 0.752572 0.536554
O O8 0.508475 0.011653 0.289312
O O9 0.000000 0.000000 0.500000
O O10 0.500000 0.500000 0.500000
O O11 0.383898 0.338928 0.725892
O O12 0.000000 0.000000 0.000000
#
# Coordination Sequence:
#
# PCOD9066003 Si02
#       5
#     2   2   2   2   2
#     4  11  25  44  72 104 147 184 230 296 358 415
#     4  11  25  44  71 104 140 188 237 283 356 426
#     4  12  27  45  73 104 142 185 243 289 349 425
#     4  12  27  45  73 102 143 188 234 290 350 417
#     4  12  27  45  72 105 143 185 238 293 355 414
#
# _framework density 20.889984999999999
#
# number of rings (size 3 to 8) (size 9 to 14) (size 15 to 20)
#    0.000    0.400    2.000    5.400    8.400    8.000 
#    0.000    0.000    0.000    0.000    0.000    0.000 
#    0.000    0.000    0.000    0.000    0.000    0.000 
#
# Total GULP energy -56027.914437 kJ/mol
# GULP energy per Si atom -5602.791444 kJ/mol
# Density = 2.084244 g / cm^3
# Si number density = 20.889985 Si / 1000 Ang^3
#
#
#
# Elastic Constant Matrix: (Units=GPa)
#
#
# Indices 1 2 3 4 5 6 
#
# 1 154.1094 72.5388 38.1863 -13.2365 17.5674 4.7084
# 2 72.5388 149.6999 56.3506 -18.9220 11.7416 10.6803
# 3 38.1863 56.3506 102.5053 -8.4237 12.2820 8.5324
# 4 -13.2365 -18.9220 -8.4237 40.1386 -7.7531 2.4719
# 5 17.5674 11.7416 12.2820 -7.7531 45.7751 -1.1708
# 6 4.7084 10.6803 8.5324 2.4719 -1.1708 51.5655
#
#
#
# Elastic Compliance Matrix: (Units=1/GPa)
#
#
# Indices 1 2 3 4 5 6 
#
# 1 0.008719 -0.003634 -0.000961 0.000560 -0.002060 0.000042
# 2 -0.003634 0.010415 -0.004052 0.002995 0.000285 -0.001292
# 3 -0.000961 -0.004052 0.012694 0.000124 -0.002008 -0.001225
# 4 0.000560 0.002995 0.000124 0.027344 0.003565 -0.001922
# 5 -0.002060 0.000285 -0.002008 0.003565 0.023728 0.000829
# 6 0.000042 -0.001292 -0.001225 -0.001922 0.000829 0.019970
#
#
# Mechanical properties :
#
#
# Convention : Reuss Voigt Hill
#
# Bulk Modulus (GPa) = 68.80465 82.27400 75.53933
# Shear Modulus (GPa) = 39.99765 43.44508 41.72137
#
# Velocity S-wave (km/s) = 4.38045 4.56533 4.47385
# Velocity P-wave (km/s) = 7.65458 8.20119 7.93260
#
# Compressibility (1/GPa) = 0.01453390
#
# Stress axis : x y z
#
# Youngs Moduli (GPa) = 114.69028 96.01966 78.77788
#
# Poissons Ratio (x) = 0.34891 0.07572
# Poissons Ratio (y) = 0.41676 0.31920
# Poissons Ratio (z) = 0.11023 0.38907
#
# Static dielectric constant tensor:
#      x y z
#    x 1.777180 -0.173040 -0.171670 
#    y -0.173040 2.270920 0.423710 
#    z -0.171670 0.423710 2.033310 
# 
# From -- ./inp_files/129375.got.cif
#   From: 2010.05.17/outbox.cif.g08.bks.cpg/sg2_65_cif.got.tgz:129375.got - 2010.06.03 11:33:40.
