data_PCOD9066252
_publ_section_title
;
Structure prediction by ZEFSAII (Michael W. Deem and Ramdas Pophale) SiO2 
 PCOD9066252
Probable space group: P -1
;
_chemical_formula_sum "Si O2"
_cell_formula_units_Z 15
_cell_length_a 5.688643
_cell_length_b 16.599753
_cell_length_c 14.951596
_cell_angle_alpha 33.339087
_cell_angle_beta 123.465978
_cell_angle_gamma 133.577026
_cell_volume 561.081817
_symmetry_space_group_name_H-M "P -1"
_symmetry_group_IT_number 2
_symmetry_cell_setting 'triclinic'
loop_
_space_group_symop_operation_xyz
x,y,z
-x,-y,-z
loop_
_atom_site_type_symbol
_atom_site_label
_atom_site_fract_x
_atom_site_fract_y
_atom_site_fract_z
Si Si1 0.994572 0.390817 0.015383
Si Si2 0.517065 0.688365 0.728329
Si Si3 0.454669 0.584139 0.324712
Si Si4 0.188277 0.030046 0.258133
Si Si5 0.500000 0.000000 0.500000
Si Si6 0.650901 0.714307 0.530422
Si Si7 0.273899 0.820246 0.003986
Si Si8 0.822534 0.161730 0.748561
O O1 0.164529 0.286232 0.179157
O O2 0.699087 0.259712 0.012119
O O3 0.228275 0.529450 0.863585
O O4 0.000000 0.500000 0.000000
O O5 0.546580 0.654076 0.663635
O O6 0.505553 0.858571 0.569696
O O7 0.500000 0.500000 0.500000
O O8 0.288843 0.425077 0.372841
O O9 0.821139 0.721374 0.247017
O O10 0.265710 0.687862 0.196554
O O11 0.521218 0.117454 0.301874
O O12 0.023579 0.142680 0.096332
O O13 0.152544 0.914930 0.271752
O O14 0.975752 0.898058 0.418602
O O15 0.370681 0.737081 0.402946
O O16 0.595305 0.001989 0.910403
#
# Coordination Sequence:
#
# PCOD9066252 Si02
#       8
#     2   2   2   2   1   2   2   2
#     4  11  26  45  68 104 148 192 235 287 365 427
#     4  11  26  42  72 108 141 191 236 294 354 436
#     4  12  26  49  76 105 141 193 244 311 358 420
#     4  11  25  45  72 107 144 190 234 296 360 437
#     4  12  24  44  74 102 148 184 236 290 360 432
#     4  11  25  46  75 107 143 184 246 301 360 427
#     4  11  27  46  72 103 147 191 237 299 360 434
#     4  11  25  48  71 105 142 189 243 295 372 420
#
# _framework density 26.734068000000001
#
# number of rings (size 3 to 8) (size 9 to 14) (size 15 to 20)
#    0.000    0.800    4.000    1.600    7.467    2.133 
#    2.400    0.000    0.000    0.000    0.000    0.000 
#    0.000    0.000    0.000    0.000    0.000    0.000 
#
# Total GULP energy -83895.293998 kJ/mol
# GULP energy per Si atom -5593.019600 kJ/mol
# Density = 2.667322 g / cm^3
# Si number density = 26.734068 Si / 1000 Ang^3
#
#
#
# Elastic Constant Matrix: (Units=GPa)
#
#
# Indices 1 2 3 4 5 6 
#
# 1 81.3018 6.2095 58.1973 -2.6052 13.0061 -6.3723
# 2 6.2095 65.0334 26.3193 -19.7509 -7.1758 -0.8014
# 3 58.1973 26.3193 183.2384 7.5600 37.8728 -1.3275
# 4 -2.6052 -19.7509 7.5600 39.4745 -0.8235 -5.1637
# 5 13.0061 -7.1758 37.8728 -0.8235 55.9924 1.5417
# 6 -6.3723 -0.8014 -1.3275 -5.1637 1.5417 36.3299
#
#
#
# Elastic Compliance Matrix: (Units=1/GPa)
#
#
# Indices 1 2 3 4 5 6 
#
# 1 0.016568 0.001861 -0.005694 0.003542 0.000205 0.003234
# 2 0.001861 0.021988 -0.005548 0.012597 0.006265 0.002133
# 3 -0.005694 -0.005548 0.009478 -0.005256 -0.005841 -0.001274
# 4 0.003542 0.012597 -0.005256 0.033666 0.004696 0.005293
# 5 0.000205 0.006265 -0.005841 0.004696 0.022644 -0.000333
# 6 0.003234 0.002133 -0.001274 0.005293 -0.000333 0.028860
#
#
# Mechanical properties :
#
#
# Convention : Reuss Voigt Hill
#
# Bulk Modulus (GPa) = 34.16487 56.78066 45.47277
# Shear Modulus (GPa) = 30.91685 42.28252 36.59969
#
# Velocity S-wave (km/s) = 3.40436 3.98124 3.70405
# Velocity P-wave (km/s) = 5.31603 6.51298 5.94471
#
# Compressibility (1/GPa) = 0.02926983
#
# Stress axis : x y z
#
# Youngs Moduli (GPa) = 60.35683 45.47993 105.50978
#
# Poissons Ratio (x) = -0.08463 0.60082
# Poissons Ratio (y) = -0.11232 0.58541
# Poissons Ratio (z) = 0.34370 0.25234
#
# Static dielectric constant tensor:
#      x y z
#    x 1.921530 -0.281350 -0.176090 
#    y -0.281350 1.777230 -0.055220 
#    z -0.176090 -0.055220 2.105610 
# 
# From -- ./inp_files/105260.got.cif
#   From: 2010.05.17/outbox.cif.g08.bks.cpg/sg2_53_cif.got.tgz:105260.got - 2010.06.03 11:33:40.
