data_PCOD9066057
_publ_section_title
;
Structure prediction by ZEFSAII (Michael W. Deem and Ramdas Pophale) SiO2 
 PCOD9066057
Probable space group: P -1
;
_chemical_formula_sum "Si O2"
_cell_formula_units_Z 14
_cell_length_a 8.118843
_cell_length_b 5.277562
_cell_length_c 16.594821
_cell_angle_alpha 86.922780
_cell_angle_beta 77.037100
_cell_angle_gamma 52.905758
_cell_volume 549.656357
_symmetry_space_group_name_H-M "P -1"
_symmetry_group_IT_number 2
_symmetry_cell_setting 'triclinic'
loop_
_space_group_symop_operation_xyz
x,y,z
-x,-y,-z
loop_
_atom_site_type_symbol
_atom_site_label
_atom_site_fract_x
_atom_site_fract_y
_atom_site_fract_z
Si Si1 0.747374 0.214880 0.125255
Si Si2 0.026480 0.715074 0.680716
Si Si3 0.760143 0.651682 0.577778
Si Si4 0.850491 0.838795 0.968717
Si Si5 0.746267 0.192307 0.480189
Si Si6 0.632367 0.978010 0.275095
Si Si7 0.363319 0.953152 0.172765
O O1 0.552059 0.586049 0.140452
O O2 0.981088 0.112384 0.084828
O O3 0.757228 0.085956 0.215204
O O4 0.711816 0.072154 0.053055
O O5 0.142263 0.828309 0.614967
O O6 0.205575 0.392249 0.713638
O O7 0.913679 0.623342 0.630911
O O8 0.835027 0.977057 0.755283
O O9 0.170407 0.677773 0.463999
O O10 0.748141 0.896958 0.511912
O O11 0.525449 0.824247 0.637658
O O12 0.723129 0.861200 0.904919
O O13 0.000000 0.500000 0.000000
O O14 0.500000 0.500000 0.500000
O O15 0.471644 0.050480 0.219531
#
# Coordination Sequence:
#
# PCOD9066057 Si02
#       7
#     2   2   2   2   2   2   2
#     4  11  25  44  73 105 143 186 243 295 374 441
#     4  11  25  47  73 103 151 195 250 308 378 446
#     4  11  27  48  76 109 152 200 260 315 382 439
#     4  11  25  47  75 104 143 189 237 299 369 452
#     4  12  25  50  76 111 149 205 256 321 372 448
#     4  11  26  47  69 107 143 196 239 313 368 446
#     4  11  25  46  69 107 145 187 240 304 367 449
#
# _framework density 25.470462999999999
#
# number of rings (size 3 to 8) (size 9 to 14) (size 15 to 20)
#    0.000    0.857    1.429    4.286    4.000    8.000 
#    5.143    0.000    0.000    0.000    0.000    0.000 
#    0.000    0.000    0.000    0.000    0.000    0.000 
#
# Total GULP energy -78469.860591 kJ/mol
# GULP energy per Si atom -5604.990042 kJ/mol
# Density = 2.541249 g / cm^3
# Si number density = 25.470463 Si / 1000 Ang^3
#
#
#
# Elastic Constant Matrix: (Units=GPa)
#
#
# Indices 1 2 3 4 5 6 
#
# 1 94.5045 -0.1485 39.6698 -4.4046 -2.6992 -6.5758
# 2 -0.1485 89.1206 40.1270 7.4389 -2.0302 13.4774
# 3 39.6698 40.1270 138.2744 1.6473 -14.9616 1.1145
# 4 -4.4046 7.4389 1.6473 65.1857 -10.8618 0.6805
# 5 -2.6992 -2.0302 -14.9616 -10.8618 61.6894 0.6229
# 6 -6.5758 13.4774 1.1145 0.6805 0.6229 35.6992
#
#
#
# Elastic Compliance Matrix: (Units=1/GPa)
#
#
# Indices 1 2 3 4 5 6 
#
# 1 0.012441 0.001505 -0.004060 0.000705 -0.000285 0.001842
# 2 0.001505 0.014116 -0.004556 -0.001474 -0.000785 -0.004868
# 3 -0.004060 -0.004556 0.009941 0.000344 0.002138 0.000618
# 4 0.000705 -0.001474 0.000344 0.016025 0.002884 0.000320
# 5 -0.000285 -0.000785 0.002138 0.002884 0.017200 -0.000178
# 6 0.001842 -0.004868 0.000618 0.000320 -0.000178 0.030167
#
#
# Mechanical properties :
#
#
# Convention : Reuss Voigt Hill
#
# Bulk Modulus (GPa) = 44.89259 53.46624 49.17941
# Shear Modulus (GPa) = 41.13930 48.66493 44.90212
#
# Velocity S-wave (km/s) = 4.02329 4.37583 4.20326
# Velocity P-wave (km/s) = 6.26467 6.82404 6.55033
#
# Compressibility (1/GPa) = 0.02227539
#
# Stress axis : x y z
#
# Youngs Moduli (GPa) = 80.37938 70.84108 100.59055
#
# Poissons Ratio (x) = -0.10661 0.40840
# Poissons Ratio (y) = -0.12097 0.45833
# Poissons Ratio (z) = 0.32635 0.32278
#
# Static dielectric constant tensor:
#      x y z
#    x 2.172500 0.084620 0.087750 
#    y 0.084620 2.107900 0.165510 
#    z 0.087750 0.165510 2.167060 
# 
# From -- ./inp_files/351104.got.cif
#   From: 2010.05.17/outbox.cif.g08.bks.cpg/sg2_176_cif.got.tgz:351104.got - 2010.06.03 11:33:40.
