data_PCOD9066600
_publ_section_title
;
Structure prediction by ZEFSAII (Michael W. Deem and Ramdas Pophale) SiO2 
 PCOD9066600
Probable space group: P -1
;
_chemical_formula_sum "Si O2"
_cell_formula_units_Z 15
_cell_length_a 15.106249
_cell_length_b 11.362232
_cell_length_c 6.321015
_cell_angle_alpha 56.442835
_cell_angle_beta 60.018112
_cell_angle_gamma 46.128429
_cell_volume 639.374753
_symmetry_space_group_name_H-M "P -1"
_symmetry_group_IT_number 2
_symmetry_cell_setting 'triclinic'
loop_
_space_group_symop_operation_xyz
x,y,z
-x,-y,-z
loop_
_atom_site_type_symbol
_atom_site_label
_atom_site_fract_x
_atom_site_fract_y
_atom_site_fract_z
Si Si1 0.330818 0.532473 0.499203
Si Si2 0.399978 0.159290 0.320346
Si Si3 0.094225 0.894322 0.304187
Si Si4 0.202807 0.344234 0.708179
Si Si5 0.483700 0.663080 0.149328
Si Si6 0.097936 0.116207 0.741139
Si Si7 0.700511 0.962683 0.776970
Si Si8 0.000000 0.500000 0.500000
O O1 0.203049 0.719481 0.455606
O O2 0.288897 0.406803 0.621166
O O3 0.421070 0.570696 0.227454
O O4 0.404786 0.467807 0.694777
O O5 0.263597 0.266351 0.481481
O O6 0.385852 0.083493 0.196674
O O7 0.500000 0.000000 0.500000
O O8 0.449601 0.278605 0.138820
O O9 0.017309 0.868439 0.249536
O O10 0.000000 0.000000 0.500000
O O11 0.142544 0.989793 0.016138
O O12 0.062524 0.500429 0.660313
O O13 0.227287 0.192129 0.983299
O O14 0.381620 0.845168 0.213840
O O15 0.205794 0.051012 0.500111
O O16 0.040587 0.308116 0.697635
#
# Coordination Sequence:
#
# PCOD9066600 Si02
#       8
#     2   2   2   2   2   2   2   1
#     4  11  25  48  69 105 144 193 234 293 363 420
#     4  12  24  42  74 109 141 190 246 289 357 428
#     4  11  26  49  74 100 146 187 233 295 360 434
#     4  12  26  47  74 104 148 186 241 303 358 428
#     4  11  25  46  72 105 145 192 242 290 356 429
#     4  11  27  46  72 108 135 186 242 289 367 433
#     4  12  25  48  75 104 144 190 237 304 362 422
#     4  12  26  48  72 112 138 184 246 306 358 426
#
# _framework density 23.460419000000002
#
# number of rings (size 3 to 8) (size 9 to 14) (size 15 to 20)
#    0.000    0.533    5.333    2.000    5.600    3.200 
#    4.800    0.000    0.000    0.000    0.000    0.000 
#    0.000    0.000    0.000    0.000    0.000    0.000 
#
# Total GULP energy -83527.956001 kJ/mol
# GULP energy per Si atom -5568.530400 kJ/mol
# Density = 2.340702 g / cm^3
# Si number density = 23.460419 Si / 1000 Ang^3
#
#
#
# Elastic Constant Matrix: (Units=GPa)
#
#
# Indices 1 2 3 4 5 6 
#
# 1 125.2326 7.4559 13.7492 -16.5152 -6.3808 6.0289
# 2 7.4559 67.6926 53.5442 -23.8883 4.7355 0.9665
# 3 13.7492 53.5442 152.7613 -22.1057 -18.8125 -9.2848
# 4 -16.5152 -23.8883 -22.1057 38.9559 -6.0365 5.2371
# 5 -6.3808 4.7355 -18.8125 -6.0365 34.6446 -14.3713
# 6 6.0289 0.9665 -9.2848 5.2371 -14.3713 30.2578
#
#
#
# Elastic Compliance Matrix: (Units=1/GPa)
#
#
# Indices 1 2 3 4 5 6 
#
# 1 0.008731 0.000933 -0.000458 0.004476 0.001118 -0.002154
# 2 0.000933 0.028073 -0.010568 0.011319 -0.012502 -0.012223
# 3 -0.000458 -0.010568 0.012609 0.001073 0.012578 0.010086
# 4 0.004476 0.011319 0.001073 0.036455 0.003999 -0.005334
# 5 0.001118 -0.012502 0.012578 0.003999 0.049433 0.026823
# 6 -0.002154 -0.012223 0.010086 -0.005334 0.026823 0.050627
#
#
# Mechanical properties :
#
#
# Convention : Reuss Voigt Hill
#
# Bulk Modulus (GPa) = 34.21654 55.02055 44.61855
# Shear Modulus (GPa) = 23.16360 38.83415 30.99887
#
# Velocity S-wave (km/s) = 3.14562 4.07296 3.63895
# Velocity P-wave (km/s) = 5.27349 6.75441 6.05936
#
# Compressibility (1/GPa) = 0.02922563
#
# Stress axis : x y z
#
# Youngs Moduli (GPa) = 114.53583 35.62161 79.30833
#
# Poissons Ratio (x) = -0.03324 0.03635
# Poissons Ratio (y) = -0.10687 0.83816
# Poissons Ratio (z) = 0.05249 0.37646
#
# Static dielectric constant tensor:
#      x y z
#    x 2.037860 0.101760 -0.029510 
#    y 0.101760 1.762720 -0.004850 
#    z -0.029510 -0.004850 1.879220 
# 
# From -- ./inp_files/94278.got.cif
#   From: 2010.05.17/outbox.cif.g08.bks.cpg/sg2_48_cif.got.tgz:94278.got - 2010.06.03 11:33:40.
