data_PCOD9066828
_publ_section_title
;
Structure prediction by ZEFSAII (Michael W. Deem and Ramdas Pophale) SiO2 
 PCOD9066828
Probable space group: P -1
;
_chemical_formula_sum "Si O2"
_cell_formula_units_Z 10
_cell_length_a 8.319883
_cell_length_b 5.026754
_cell_length_c 11.992884
_cell_angle_alpha 76.435007
_cell_angle_beta 125.330931
_cell_angle_gamma 94.362009
_cell_volume 396.651999
_symmetry_space_group_name_H-M "P -1"
_symmetry_group_IT_number 2
_symmetry_cell_setting 'triclinic'
loop_
_space_group_symop_operation_xyz
x,y,z
-x,-y,-z
loop_
_atom_site_type_symbol
_atom_site_label
_atom_site_fract_x
_atom_site_fract_y
_atom_site_fract_z
Si Si1 0.668189 0.327261 0.024491
Si Si2 0.680024 0.009716 0.481744
Si Si3 0.662995 0.830910 0.238010
Si Si4 0.997674 0.297118 0.914592
Si Si5 0.080410 0.557246 0.363014
O O1 0.825592 0.548088 0.082168
O O2 0.709269 0.053710 0.139070
O O3 0.500000 0.500000 0.000000
O O4 0.558623 0.262437 0.870791
O O5 0.638789 0.963839 0.338159
O O6 0.850308 0.762223 0.595588
O O7 0.500000 0.000000 0.500000
O O8 0.770397 0.298718 0.509482
O O9 0.861064 0.625379 0.320815
O O10 0.869918 0.301968 0.750937
O O11 0.000000 0.500000 0.000000
O O12 0.000000 0.000000 0.000000
#
# Coordination Sequence:
#
# PCOD9066828 Si02
#       5
#     2   2   2   2   2
#     4  11  25  46  80 116 159 203 266 319 392 468
#     4  12  29  49  77 113 159 205 259 328 393 464
#     4  11  26  48  80 117 157 207 265 321 388 475
#     4  12  27  47  76 113 160 203 252 325 390 461
#     4  12  26  51  74 113 153 209 263 312 397 468
#
# _framework density 25.211016999999998
#
# number of rings (size 3 to 8) (size 9 to 14) (size 15 to 20)
#    0.000    0.400    2.000    5.400    8.400    1.600 
#    0.000    0.000    0.000    0.000    0.000    0.000 
#    0.000    0.000    0.000    0.000    0.000    0.000 
#
# Total GULP energy -55683.916129 kJ/mol
# GULP energy per Si atom -5568.391613 kJ/mol
# Density = 2.515364 g / cm^3
# Si number density = 25.211017 Si / 1000 Ang^3
#
#
#
# Elastic Constant Matrix: (Units=GPa)
#
#
# Indices 1 2 3 4 5 6 
#
# 1 66.4474 18.3242 24.7868 1.5406 -22.1726 -30.5056
# 2 18.3242 122.2359 15.4497 7.8449 -6.0829 -5.3720
# 3 24.7868 15.4497 119.4124 32.6755 -34.1605 -6.7291
# 4 1.5406 7.8449 32.6755 56.8445 -15.7307 -8.8918
# 5 -22.1726 -6.0829 -34.1605 -15.7307 42.3679 2.1469
# 6 -30.5056 -5.3720 -6.7291 -8.8918 2.1469 49.9363
#
#
#
# Elastic Compliance Matrix: (Units=1/GPa)
#
#
# Indices 1 2 3 4 5 6 
#
# 1 0.030542 -0.003176 -0.002741 0.008410 0.015489 0.018778
# 2 -0.003176 0.008692 -0.000531 -0.001361 -0.001284 -0.001264
# 3 -0.002741 -0.000531 0.012236 -0.005304 0.006451 -0.001305
# 4 0.008410 -0.001361 -0.005304 0.024244 0.008513 0.008227
# 5 0.015489 -0.001284 0.006451 0.008513 0.039379 0.010016
# 6 0.018778 -0.001264 -0.001305 0.008227 0.010016 0.032220
#
#
# Mechanical properties :
#
#
# Convention : Reuss Voigt Hill
#
# Bulk Modulus (GPa) = 25.92460 47.24634 36.58547
# Shear Modulus (GPa) = 28.89066 46.46540 37.67803
#
# Velocity S-wave (km/s) = 3.38887 4.29774 3.87008
# Velocity P-wave (km/s) = 5.06142 6.58851 5.87479
#
# Compressibility (1/GPa) = 0.03857340
#
# Stress axis : x y z
#
# Youngs Moduli (GPa) = 32.74159 115.04739 81.72925
#
# Poissons Ratio (x) = 0.36537 0.22402
# Poissons Ratio (y) = 0.10398 0.04344
# Poissons Ratio (z) = 0.08974 0.06114
#
# Static dielectric constant tensor:
#      x y z
#    x 2.124960 -0.099210 -0.281810 
#    y -0.099210 1.900140 0.106090 
#    z -0.281810 0.106090 2.623080 
# 
# From -- ./inp_files/129056.got.cif
#   From: 2010.05.17/outbox.cif.g08.bks.cpg/sg2_65_cif.got.tgz:129056.got - 2010.06.03 11:33:40.
