data_PCOD9066447
_publ_section_title
;
Structure prediction by ZEFSAII (Michael W. Deem and Ramdas Pophale) SiO2 
 PCOD9066447
Probable space group: P -1
;
_chemical_formula_sum "Si O2"
_cell_formula_units_Z 14
_cell_length_a 9.374041
_cell_length_b 11.721497
_cell_length_c 16.881213
_cell_angle_alpha 150.395086
_cell_angle_beta 70.578280
_cell_angle_gamma 128.652169
_cell_volume 599.670536
_symmetry_space_group_name_H-M "P -1"
_symmetry_group_IT_number 2
_symmetry_cell_setting 'triclinic'
loop_
_space_group_symop_operation_xyz
x,y,z
-x,-y,-z
loop_
_atom_site_type_symbol
_atom_site_label
_atom_site_fract_x
_atom_site_fract_y
_atom_site_fract_z
Si Si1 0.787421 0.814935 0.875831
Si Si2 0.095909 0.903878 0.301908
Si Si3 0.639277 0.067088 0.149019
Si Si4 0.588795 0.854489 0.209022
Si Si5 0.099058 0.815864 0.508535
Si Si6 0.210179 0.874489 0.088908
Si Si7 0.582191 0.923534 0.533702
O O1 0.658822 0.440642 0.654160
O O2 0.840299 0.009096 0.902833
O O3 0.628633 0.809190 0.951633
O O4 0.000000 0.000000 0.000000
O O5 0.177340 0.962227 0.232235
O O6 0.298368 0.119269 0.453766
O O7 0.958245 0.984130 0.381729
O O8 0.948731 0.521338 0.120331
O O9 0.878033 0.429856 0.307381
O O10 0.614855 0.998331 0.205556
O O11 0.453289 0.037728 0.137306
O O12 0.807756 0.087397 0.361289
O O13 0.425810 0.836868 0.278535
O O14 0.500000 0.500000 0.000000
O O15 0.282164 0.929094 0.482742
#
# Coordination Sequence:
#
# PCOD9066447 Si02
#       7
#     2   2   2   2   2   2   2
#     4  12  28  47  78 110 153 194 252 310 374 439
#     4  11  25  45  79 111 148 198 252 306 375 440
#     4  12  26  49  71 111 149 201 249 303 374 444
#     4  12  27  47  75 106 153 196 252 307 375 443
#     4  12  27  45  77 110 152 195 250 310 369 448
#     4  11  25  47  75 110 152 197 247 309 372 447
#     4  12  26  50  74 111 148 198 250 303 380 441
#
# _framework density 23.346153999999999
#
# number of rings (size 3 to 8) (size 9 to 14) (size 15 to 20)
#    0.000    0.286    1.429    6.857    6.000    3.429 
#    0.000    0.000    0.000    0.000    0.000    0.000 
#    0.000    0.000    0.000    0.000    0.000    0.000 
#
# Total GULP energy -78575.787071 kJ/mol
# GULP energy per Si atom -5612.556219 kJ/mol
# Density = 2.329302 g / cm^3
# Si number density = 23.346154 Si / 1000 Ang^3
#
#
#
# Elastic Constant Matrix: (Units=GPa)
#
#
# Indices 1 2 3 4 5 6 
#
# 1 127.8869 46.5436 32.4615 6.2765 0.8771 -29.0728
# 2 46.5436 111.4831 37.4988 -5.7491 -7.2069 -16.2762
# 3 32.4615 37.4988 89.0152 -5.3905 -1.4332 -3.5422
# 4 6.2765 -5.7491 -5.3905 26.6041 9.3714 4.3268
# 5 0.8771 -7.2069 -1.4332 9.3714 47.7831 -12.9515
# 6 -29.0728 -16.2762 -3.5422 4.3268 -12.9515 43.5505
#
#
#
# Elastic Compliance Matrix: (Units=1/GPa)
#
#
# Indices 1 2 3 4 5 6 
#
# 1 0.011729 -0.002851 -0.003096 -0.006223 0.002627 0.007912
# 2 -0.002851 0.012075 -0.003821 0.001236 0.002291 0.002857
# 3 -0.003096 -0.003821 0.014051 0.003896 -0.001745 -0.003258
# 4 -0.006223 0.001236 0.003896 0.046104 -0.011726 -0.011443
# 5 0.002627 0.002291 -0.001745 -0.011726 0.026602 0.011544
# 6 0.007912 0.002857 -0.003258 -0.011443 0.011544 0.033616
#
#
# Mechanical properties :
#
#
# Convention : Reuss Voigt Hill
#
# Bulk Modulus (GPa) = 54.59253 62.37699 58.48476
# Shear Modulus (GPa) = 29.44306 37.71297 33.57802
#
# Velocity S-wave (km/s) = 3.55512 4.02354 3.79656
# Velocity P-wave (km/s) = 6.34717 6.95424 6.65763
#
# Compressibility (1/GPa) = 0.01831752
#
# Stress axis : x y z
#
# Youngs Moduli (GPa) = 85.25935 82.81756 71.16964
#
# Poissons Ratio (x) = 0.23615 0.22032
# Poissons Ratio (y) = 0.24312 0.27196
# Poissons Ratio (z) = 0.26394 0.31647
#
# Static dielectric constant tensor:
#      x y z
#    x 1.868870 0.003580 0.004220 
#    y 0.003580 1.839830 -0.009300 
#    z 0.004220 -0.009300 1.865910 
# 
# From -- ./inp_files/190582.got.cif
#   From: 2010.05.17/outbox.cif.g08.bks.cpg/sg2_96_cif.got.tgz:190582.got - 2010.06.03 11:33:40.
