data_PCOD9066494
_publ_section_title
;
Structure prediction by ZEFSAII (Michael W. Deem and Ramdas Pophale) SiO2 
 PCOD9066494
Probable space group: P -1
;
_chemical_formula_sum "Si O2"
_cell_formula_units_Z 16
_cell_length_a 19.974167
_cell_length_b 5.485986
_cell_length_c 16.526150
_cell_angle_alpha 111.891539
_cell_angle_beta 23.404412
_cell_angle_gamma 112.369810
_cell_volume 663.820527
_symmetry_space_group_name_H-M "P -1"
_symmetry_group_IT_number 2
_symmetry_cell_setting 'triclinic'
loop_
_space_group_symop_operation_xyz
x,y,z
-x,-y,-z
loop_
_atom_site_type_symbol
_atom_site_label
_atom_site_fract_x
_atom_site_fract_y
_atom_site_fract_z
Si Si1 0.324425 0.570926 0.239209
Si Si2 0.679921 0.856570 0.439237
Si Si3 0.288126 0.627590 0.457278
Si Si4 0.933132 0.294545 0.804452
Si Si5 0.584576 0.414135 0.186156
Si Si6 0.665794 0.851450 0.280983
Si Si7 0.124355 0.004858 0.438816
Si Si8 0.038168 0.734833 0.050021
O O1 0.341247 0.744007 0.324721
O O2 0.237706 0.284255 0.330754
O O3 0.222545 0.746632 0.312773
O O4 0.500000 0.500000 0.000000
O O5 0.509392 0.776300 0.666144
O O6 0.680682 0.713184 0.334480
O O7 0.848772 0.797824 0.291198
O O8 0.702096 0.172795 0.453120
O O9 0.436739 0.444440 0.289604
O O10 0.091765 0.518427 0.653119
O O11 0.878704 0.297491 0.958858
O O12 0.013096 0.043636 0.647916
O O13 0.763105 0.331271 0.947812
O O14 0.636175 0.681288 0.212634
O O15 0.500000 0.000000 0.500000
O O16 0.840493 0.037258 0.099817
O O17 0.000000 0.000000 0.500000
O O18 0.000000 0.500000 0.000000
#
# Coordination Sequence:
#
# PCOD9066494 Si02
#       8
#     2   2   2   2   2   2   2   2
#     4  11  26  48  80 112 152 193 247 302 377 455
#     4  12  23  43  67  92 139 184 240 297 363 434
#     4  11  25  46  70 102 142 184 240 298 366 436
#     4  11  25  46  70 103 144 185 247 295 370 445
#     4  12  25  43  68 101 138 192 238 304 366 434
#     4  12  23  40  60  99 137 182 246 300 360 439
#     4  11  26  50  77 114 152 195 244 312 376 446
#     4  12  23  41  68  96 138 188 235 300 368 431
#
# _framework density 24.102900999999999
#
# number of rings (size 3 to 8) (size 9 to 14) (size 15 to 20)
#    0.000    0.500    2.500    6.000    3.500    2.000 
#    0.000    0.000    0.000    0.000    0.000    0.000 
#    0.000    0.000    0.000    0.000    0.000    0.000 
#
# Total GULP energy -89339.589743 kJ/mol
# GULP energy per Si atom -5583.724359 kJ/mol
# Density = 2.404804 g / cm^3
# Si number density = 24.102901 Si / 1000 Ang^3
#
#
#
# Elastic Constant Matrix: (Units=GPa)
#
#
# Indices 1 2 3 4 5 6 
#
# 1 102.9328 5.7262 35.0444 0.5133 -1.2490 -11.6480
# 2 5.7262 54.1081 41.9388 -3.9638 -10.0882 -3.8981
# 3 35.0444 41.9388 166.2751 6.7618 -29.2305 -3.2281
# 4 0.5133 -3.9638 6.7618 42.7382 -0.1668 -10.0487
# 5 -1.2490 -10.0882 -29.2305 -0.1668 43.2211 9.7510
# 6 -11.6480 -3.8981 -3.2281 -10.0487 9.7510 34.6757
#
#
#
# Elastic Compliance Matrix: (Units=1/GPa)
#
#
# Indices 1 2 3 4 5 6 
#
# 1 0.011200 0.001186 -0.003080 0.001578 -0.002556 0.004785
# 2 0.001186 0.023865 -0.006259 0.004013 0.000599 0.003493
# 3 -0.003080 -0.006259 0.009243 -0.002735 0.005410 -0.003192
# 4 0.001578 0.004013 -0.002735 0.026325 -0.002831 0.009151
# 5 -0.002556 0.000599 0.005410 -0.002831 0.028937 -0.009245
# 6 0.004785 0.003493 -0.003192 0.009151 -0.009245 0.035793
#
#
# Mechanical properties :
#
#
# Convention : Reuss Voigt Hill
#
# Bulk Modulus (GPa) = 35.71402 54.30386 45.00894
# Shear Modulus (GPa) = 31.05520 40.16743 35.61131
#
# Velocity S-wave (km/s) = 3.59338 4.08670 3.84796
# Velocity P-wave (km/s) = 5.66269 6.69680 6.20134
#
# Compressibility (1/GPa) = 0.02800021
#
# Stress axis : x y z
#
# Youngs Moduli (GPa) = 89.28216 41.90253 108.19562
#
# Poissons Ratio (x) = -0.04970 0.33329
# Poissons Ratio (y) = -0.10589 0.67724
# Poissons Ratio (z) = 0.27503 0.26229
#
# Static dielectric constant tensor:
#      x y z
#    x 2.065000 -0.008130 -0.008820 
#    y -0.008130 2.098140 0.077510 
#    z -0.008820 0.077510 1.952780 
# 
# From -- ./inp_files/117382.got.cif
#   From: 2010.05.17/outbox.cif.g08.bks.cpg/sg2_59_cif.got.tgz:117382.got - 2010.06.03 11:33:40.
