data_PCOD9066245
_publ_section_title
;
Structure prediction by ZEFSAII (Michael W. Deem and Ramdas Pophale) SiO2 
 PCOD9066245
Probable space group: P -1
;
_chemical_formula_sum "Si O2"
_cell_formula_units_Z 16
_cell_length_a 6.439605
_cell_length_b 16.899451
_cell_length_c 9.139488
_cell_angle_alpha 50.949994
_cell_angle_beta 105.022880
_cell_angle_gamma 90.936783
_cell_volume 731.555344
_symmetry_space_group_name_H-M "P -1"
_symmetry_group_IT_number 2
_symmetry_cell_setting 'triclinic'
loop_
_space_group_symop_operation_xyz
x,y,z
-x,-y,-z
loop_
_atom_site_type_symbol
_atom_site_label
_atom_site_fract_x
_atom_site_fract_y
_atom_site_fract_z
Si Si1 0.544513 0.689945 0.439611
Si Si2 0.544172 0.479747 0.860912
Si Si3 0.039944 0.004659 0.170321
Si Si4 0.129441 0.079048 0.511527
Si Si5 0.115747 0.761810 0.091022
Si Si6 0.177930 0.396881 0.696087
Si Si7 0.475659 0.839587 0.520101
Si Si8 0.237855 0.733327 0.832163
O O1 0.564479 0.582682 0.657705
O O2 0.296216 0.728697 0.288893
O O3 0.704905 0.661066 0.361618
O O4 0.570511 0.777141 0.463234
O O5 0.359945 0.431648 0.794488
O O6 0.500000 0.500000 0.000000
O O7 0.757731 0.388105 0.012283
O O8 0.255260 0.921991 0.348468
O O9 0.845392 0.968101 0.267207
O O10 0.034728 0.124682 0.060371
O O11 0.000000 0.000000 0.000000
O O12 0.354386 0.093402 0.468272
O O13 0.982181 0.193870 0.349079
O O14 0.000000 0.000000 0.500000
O O15 0.957613 0.679262 0.159539
O O16 0.256405 0.765754 0.965077
O O17 0.000000 0.500000 0.500000
O O18 0.420263 0.759546 0.724575
#
# Coordination Sequence:
#
# PCOD9066245 Si02
#       8
#     2   2   2   2   2   2   2   2
#     4  12  25  47  71 106 146 186 237 299 357 429
#     4  12  25  46  71 104 144 187 238 296 356 427
#     4  11  25  45  72 106 143 182 235 297 347 430
#     4  11  26  47  68 103 144 185 237 293 354 427
#     4  12  25  46  74 105 142 187 240 288 358 430
#     4  12  27  45  76 105 143 192 238 296 365 424
#     4  11  27  45  74 106 143 188 237 297 364 417
#     4  11  25  46  71 102 143 183 241 292 352 431
#
# _framework density 21.871210999999999
#
# number of rings (size 3 to 8) (size 9 to 14) (size 15 to 20)
#    0.000    0.500    6.250    1.125    3.500    5.500 
#    0.000    1.875    0.000    0.000    0.000    0.000 
#    0.000    0.000    0.000    0.000    0.000    0.000 
#
# Total GULP energy -89346.584681 kJ/mol
# GULP energy per Si atom -5584.161543 kJ/mol
# Density = 2.182143 g / cm^3
# Si number density = 21.871211 Si / 1000 Ang^3
#
#
#
# Elastic Constant Matrix: (Units=GPa)
#
#
# Indices 1 2 3 4 5 6 
#
# 1 69.3226 30.8625 21.8494 -1.8915 -8.7118 -0.7049
# 2 30.8625 124.2800 41.8834 -3.7007 -1.2678 -18.3978
# 3 21.8494 41.8834 140.5196 -13.3686 -7.1608 -5.8468
# 4 -1.8915 -3.7007 -13.3686 55.0828 -11.9508 -1.8077
# 5 -8.7118 -1.2678 -7.1608 -11.9508 22.1756 -2.9553
# 6 -0.7049 -18.3978 -5.8468 -1.8077 -2.9553 27.7045
#
#
#
# Elastic Compliance Matrix: (Units=1/GPa)
#
#
# Indices 1 2 3 4 5 6 
#
# 1 0.017482 -0.004115 -0.001069 0.001500 0.006872 -0.001683
# 2 -0.004115 0.010815 -0.002355 0.000037 -0.000874 0.006489
# 3 -0.001069 -0.002355 0.008463 0.002694 0.003733 0.000769
# 4 0.001500 0.000037 0.002694 0.021966 0.013770 0.003534
# 5 0.006872 -0.000874 0.003733 0.013770 0.057357 0.007399
# 6 -0.001683 0.006489 0.000769 0.003534 0.007399 0.041544
#
#
# Mechanical properties :
#
#
# Convention : Reuss Voigt Hill
#
# Bulk Modulus (GPa) = 46.12115 58.14586 52.13350
# Shear Modulus (GPa) = 27.78851 36.96103 32.37477
#
# Velocity S-wave (km/s) = 3.56835 4.11535 3.85157
# Velocity P-wave (km/s) = 6.17340 7.01603 6.60816
#
# Compressibility (1/GPa) = 0.02168203
#
# Stress axis : x y z
#
# Youngs Moduli (GPa) = 57.20257 92.46709 118.16200
#
# Poissons Ratio (x) = 0.38054 0.12628
# Poissons Ratio (y) = 0.23541 0.27821
# Poissons Ratio (z) = 0.06113 0.21771
#
# Static dielectric constant tensor:
#      x y z
#    x 1.807480 -0.036000 -0.001170 
#    y -0.036000 1.898290 0.043120 
#    z -0.001170 0.043120 1.748450 
# 
# From -- ./inp_files/138543.got.cif
#   From: 2010.05.17/outbox.cif.g08.bks.cpg/sg2_70_cif.got.tgz:138543.got - 2010.06.03 11:33:40.
