data_PCOD9066967
_publ_section_title
;
Structure prediction by ZEFSAII (Michael W. Deem and Ramdas Pophale) SiO2 
 PCOD9066967
Probable space group: P -1
;
_chemical_formula_sum "Si O2"
_cell_formula_units_Z 14
_cell_length_a 6.530833
_cell_length_b 14.164654
_cell_length_c 11.613877
_cell_angle_alpha 89.257689
_cell_angle_beta 49.410025
_cell_angle_gamma 62.620164
_cell_volume 655.938841
_symmetry_space_group_name_H-M "P -1"
_symmetry_group_IT_number 2
_symmetry_cell_setting 'triclinic'
loop_
_space_group_symop_operation_xyz
x,y,z
-x,-y,-z
loop_
_atom_site_type_symbol
_atom_site_label
_atom_site_fract_x
_atom_site_fract_y
_atom_site_fract_z
Si Si1 0.896874 0.413732 0.054107
Si Si2 0.847991 0.795017 0.884746
Si Si3 0.664182 0.365024 0.475512
Si Si4 0.130739 0.573785 0.408143
Si Si5 0.637399 0.027765 0.572167
Si Si6 0.181136 0.306694 0.719619
Si Si7 0.326725 0.991445 0.900133
O O1 0.925175 0.361715 0.918400
O O2 0.526323 0.482240 0.239471
O O3 0.000000 0.500000 0.000000
O O4 0.148107 0.305487 0.049092
O O5 0.187415 0.721637 0.685591
O O6 0.557910 0.880990 0.900684
O O7 0.802561 0.885916 0.993381
O O8 0.500000 0.500000 0.500000
O O9 0.946938 0.337840 0.461843
O O10 0.413868 0.351226 0.637332
O O11 0.000000 0.500000 0.500000
O O12 0.985551 0.645725 0.343572
O O13 0.409982 0.167797 0.646977
O O14 0.523694 0.980370 0.714201
O O15 0.500000 0.000000 0.500000
O O16 0.000000 0.000000 0.500000
O O17 0.000000 0.000000 0.000000
#
# Coordination Sequence:
#
# PCOD9066967 Si02
#       7
#     2   2   2   2   2   2   2
#     4  12  24  47  72 105 152 194 245 318 385 468
#     4  11  25  47  74 104 152 197 258 314 392 464
#     4  12  23  46  72 107 150 197 247 309 384 472
#     4  12  26  43  69 108 147 195 247 298 385 466
#     4  12  31  53  80 116 156 204 266 332 394 453
#     4  12  26  46  74 107 151 198 248 320 390 457
#     4  11  28  50  77 109 147 206 266 322 388 465
#
# _framework density 21.343453
#
# number of rings (size 3 to 8) (size 9 to 14) (size 15 to 20)
#    0.000    0.286    5.714    1.286   10.000    2.286 
#    0.000    0.000    0.000    0.000    0.000    0.000 
#    0.000    0.000    0.000    0.000    0.000    0.000 
#
# Total GULP energy -77982.684626 kJ/mol
# GULP energy per Si atom -5570.191759 kJ/mol
# Density = 2.129487 g / cm^3
# Si number density = 21.343453 Si / 1000 Ang^3
#
#
#
# Elastic Constant Matrix: (Units=GPa)
#
#
# Indices 1 2 3 4 5 6 
#
# 1 108.9197 54.9477 43.2802 -8.4191 6.4007 -12.9584
# 2 54.9477 183.4250 44.2520 -7.0837 -6.4607 -15.8086
# 3 43.2802 44.2520 101.9801 -11.5493 4.0613 -1.2293
# 4 -8.4191 -7.0837 -11.5493 42.2521 3.8048 5.5488
# 5 6.4007 -6.4607 4.0613 3.8048 39.2605 -12.5105
# 6 -12.9584 -15.8086 -1.2293 5.5488 -12.5105 22.6079
#
#
#
# Elastic Compliance Matrix: (Units=1/GPa)
#
#
# Indices 1 2 3 4 5 6 
#
# 1 0.012715 -0.002343 -0.004262 0.000345 -0.000427 0.005097
# 2 -0.002343 0.007350 -0.002393 -0.001033 0.003871 0.006062
# 3 -0.004262 -0.002393 0.013100 0.003429 -0.003326 -0.006086
# 4 0.000345 -0.001033 0.003429 0.026448 -0.006460 -0.010404
# 5 -0.000427 0.003871 -0.003326 -0.006460 0.034455 0.022933
# 6 0.005097 0.006062 -0.006086 -0.010404 0.022933 0.066306
#
#
# Mechanical properties :
#
#
# Convention : Reuss Voigt Hill
#
# Bulk Modulus (GPa) = 65.92387 75.47605 70.69996
# Shear Modulus (GPa) = 27.25883 37.61376 32.43629
#
# Velocity S-wave (km/s) = 3.57760 4.20254 3.90260
# Velocity P-wave (km/s) = 6.92964 7.68036 7.31463
#
# Compressibility (1/GPa) = 0.01516901
#
# Stress axis : x y z
#
# Youngs Moduli (GPa) = 78.64882 136.05501 76.33347
#
# Poissons Ratio (x) = 0.31880 0.32532
# Poissons Ratio (y) = 0.18429 0.18267
# Poissons Ratio (z) = 0.33519 0.32558
#
# Static dielectric constant tensor:
#      x y z
#    x 1.911330 -0.042660 0.020640 
#    y -0.042660 1.741910 0.011320 
#    z 0.020640 0.011320 1.763380 
# 
# From -- ./inp_files/367745.got.cif
#   From: 2010.05.17/outbox.cif.g08.bks.cpg/sg2_184_cif.got.tgz:367745.got - 2010.06.03 11:33:40.
