data_PCOD9066613
_publ_section_title
;
Structure prediction by ZEFSAII (Michael W. Deem and Ramdas Pophale) SiO2 
 PCOD9066613
Probable space group: P -1
;
_chemical_formula_sum "Si O2"
_cell_formula_units_Z 14
_cell_length_a 11.013070
_cell_length_b 9.293699
_cell_length_c 8.433991
_cell_angle_alpha 133.078372
_cell_angle_beta 67.926575
_cell_angle_gamma 116.372200
_cell_volume 561.436845
_symmetry_space_group_name_H-M "P -1"
_symmetry_group_IT_number 2
_symmetry_cell_setting 'triclinic'
loop_
_space_group_symop_operation_xyz
x,y,z
-x,-y,-z
loop_
_atom_site_type_symbol
_atom_site_label
_atom_site_fract_x
_atom_site_fract_y
_atom_site_fract_z
Si Si1 0.949540 0.747382 0.501296
Si Si2 0.762207 0.566458 0.954828
Si Si3 0.718593 0.896784 0.591891
Si Si4 0.731986 0.393716 0.514118
Si Si5 0.212546 0.981764 0.711681
Si Si6 0.500000 0.000000 0.000000
Si Si7 0.000000 0.500000 0.000000
Si Si8 0.543619 0.470838 0.243355
O O1 0.860783 0.898573 0.605616
O O2 0.846329 0.535645 0.455334
O O3 0.019158 0.675753 0.262284
O O4 0.055686 0.855961 0.666642
O O5 0.784113 0.432143 0.697023
O O6 0.876491 0.579891 0.040504
O O7 0.616125 0.478789 0.043328
O O8 0.772562 0.794512 0.057224
O O9 0.631999 0.009252 0.823998
O O10 0.645260 0.653914 0.427520
O O11 0.728956 0.975023 0.463655
O O12 0.712658 0.151353 0.316687
O O13 0.595451 0.463545 0.639180
O O14 0.475702 0.751539 0.843718
#
# Coordination Sequence:
#
# PCOD9066613 Si02
#       8
#     2   2   2   2   2   1   1   2
#     4  12  25  48  72 107 147 190 243 304 348 429
#     4  11  26  46  75 107 143 195 238 297 365 434
#     4  11  25  46  72 108 142 189 246 294 354 443
#     4  12  26  47  70 108 152 183 240 312 352 427
#     4  11  25  46  73 103 146 192 240 294 368 424
#     4  12  24  40  74 106 140 192 236 296 362 426
#     4  12  24  46  78  98 146 196 236 298 354 420
#     4  11  25  47  70 106 149 184 245 296 362 429
#
# _framework density 24.936019000000002
#
# number of rings (size 3 to 8) (size 9 to 14) (size 15 to 20)
#    0.000    0.571    5.714    2.571    0.000    4.000 
#    0.000    0.000    0.000    0.000    0.000    0.000 
#    0.000    0.000    0.000    0.000    0.000    0.000 
#
# Total GULP energy -77953.501071 kJ/mol
# GULP energy per Si atom -5568.107219 kJ/mol
# Density = 2.487926 g / cm^3
# Si number density = 24.936019 Si / 1000 Ang^3
#
#
#
# Elastic Constant Matrix: (Units=GPa)
#
#
# Indices 1 2 3 4 5 6 
#
# 1 70.5881 33.9680 5.8742 20.3908 -17.8641 -13.6731
# 2 33.9680 144.7087 8.8307 39.3242 -24.5076 -10.1667
# 3 5.8742 8.8307 59.7008 14.7907 -26.5437 -7.2781
# 4 20.3908 39.3242 14.7907 27.3207 -13.5368 0.1547
# 5 -17.8641 -24.5076 -26.5437 -13.5368 35.2064 6.5472
# 6 -13.6731 -10.1667 -7.2781 0.1547 6.5472 22.7515
#
#
#
# Elastic Compliance Matrix: (Units=1/GPa)
#
#
# Indices 1 2 3 4 5 6 
#
# 1 0.023811 0.002309 0.008503 -0.021330 0.008994 0.015618
# 2 0.002309 0.013454 0.006726 -0.021972 0.005659 0.008072
# 3 0.008503 0.006726 0.031750 -0.022333 0.022104 0.012063
# 4 -0.021330 -0.021972 -0.022333 0.096261 -0.000299 -0.030349
# 5 0.008994 0.005659 0.022104 -0.000299 0.053531 -0.000398
# 6 0.015618 0.008072 0.012063 -0.030349 -0.000398 0.061126
#
#
# Mechanical properties :
#
#
# Convention : Reuss Voigt Hill
#
# Bulk Modulus (GPa) = 9.60694 41.37148 25.48921
# Shear Modulus (GPa) = 17.88557 32.14405 25.01481
#
# Velocity S-wave (km/s) = 2.68107 3.59424 3.17071
# Velocity P-wave (km/s) = 3.66677 5.81824 4.86298
#
# Compressibility (1/GPa) = 0.10409145
#
# Stress axis : x y z
#
# Youngs Moduli (GPa) = 41.99723 74.32502 31.49610
#
# Poissons Ratio (x) = -0.17159 -0.26781
# Poissons Ratio (y) = -0.09696 -0.21186
# Poissons Ratio (z) = -0.35710 -0.49994
#
# Static dielectric constant tensor:
#      x y z
#    x 2.019240 0.007450 0.028190 
#    y 0.007450 2.007330 -0.029380 
#    z 0.028190 -0.029380 1.859410 
# 
# From -- ./inp_files/236161.got.cif
#   From: 2010.05.17/outbox.cif.g08.bks.cpg/sg2_119_cif.got.tgz:236161.got - 2010.06.03 11:33:40.
