data_PCOD9066269
_publ_section_title
;
Structure prediction by ZEFSAII (Michael W. Deem and Ramdas Pophale) SiO2 
 PCOD9066269
Probable space group: P -1
;
_chemical_formula_sum "Si O2"
_cell_formula_units_Z 16
_cell_length_a 11.168668
_cell_length_b 17.603426
_cell_length_c 15.029029
_cell_angle_alpha 151.672260
_cell_angle_beta 131.167369
_cell_angle_gamma 30.290396
_cell_volume 640.013235
_symmetry_space_group_name_H-M "P -1"
_symmetry_group_IT_number 2
_symmetry_cell_setting 'triclinic'
loop_
_space_group_symop_operation_xyz
x,y,z
-x,-y,-z
loop_
_atom_site_type_symbol
_atom_site_label
_atom_site_fract_x
_atom_site_fract_y
_atom_site_fract_z
Si Si1 0.976247 0.193760 0.883103
Si Si2 0.222792 0.958765 0.058496
Si Si3 0.239459 0.929761 0.566176
Si Si4 0.891956 0.689407 0.226387
Si Si5 0.511031 0.729900 0.139820
Si Si6 0.297642 0.103728 0.083778
Si Si7 0.760741 0.503891 0.470379
Si Si8 0.059487 0.768266 0.539081
O O1 0.085117 0.930336 0.686788
O O2 0.674884 0.452717 0.975359
O O3 0.138730 0.109594 0.788086
O O4 0.040016 0.258078 0.062067
O O5 0.336224 0.921590 0.980938
O O6 0.042774 0.248950 0.303017
O O7 0.440386 0.752108 0.025550
O O8 0.000000 0.000000 0.000000
O O9 0.518402 0.635164 0.427892
O O10 0.264731 0.034831 0.607408
O O11 0.000000 0.000000 0.500000
O O12 0.705894 0.723267 0.226374
O O13 0.086939 0.619212 0.319149
O O14 0.000000 0.500000 0.000000
O O15 0.242730 0.987861 0.323306
O O16 0.272121 0.282224 0.312962
O O17 0.500000 0.000000 0.000000
O O18 0.767158 0.416118 0.480631
#
# Coordination Sequence:
#
# PCOD9066269 Si02
#       8
#     2   2   2   2   2   2   2   2
#     4  12  25  48  72 108 143 191 242 303 368 429
#     4  11  27  49  73 111 147 200 245 300 371 443
#     4  12  26  48  71 108 143 192 241 303 368 434
#     4  12  25  44  73 104 147 188 242 298 365 437
#     4  11  25  45  73 103 145 189 244 297 365 434
#     4  12  25  48  76 110 152 189 250 305 370 439
#     4  11  26  47  74 107 149 195 243 303 368 440
#     4  11  26  48  70 110 144 193 243 300 367 441
#
# _framework density 24.999483999999999
#
# number of rings (size 3 to 8) (size 9 to 14) (size 15 to 20)
#    0.000    0.500    3.750    4.125    1.750    3.500 
#    2.250    0.000    0.000    0.000    0.000    0.000 
#    0.000    0.000    0.000    0.000    0.000    0.000 
#
# Total GULP energy -89526.195149 kJ/mol
# GULP energy per Si atom -5595.387197 kJ/mol
# Density = 2.494258 g / cm^3
# Si number density = 24.999484 Si / 1000 Ang^3
#
#
#
# Elastic Constant Matrix: (Units=GPa)
#
#
# Indices 1 2 3 4 5 6 
#
# 1 132.6657 36.1488 17.1240 5.7687 15.4866 27.8136
# 2 36.1488 185.1551 27.7069 6.5979 13.0652 24.8043
# 3 17.1240 27.7069 56.0354 -11.8181 4.0792 -4.5051
# 4 5.7687 6.5979 -11.8181 34.6720 -1.9148 1.0432
# 5 15.4866 13.0652 4.0792 -1.9148 40.0030 -2.4617
# 6 27.8136 24.8043 -4.5051 1.0432 -2.4617 29.3663
#
#
#
# Elastic Compliance Matrix: (Units=1/GPa)
#
#
# Indices 1 2 3 4 5 6 
#
# 1 0.011394 0.000729 -0.005267 -0.003733 -0.005061 -0.012507
# 2 0.000729 0.007349 -0.004936 -0.003123 -0.002807 -0.007780
# 3 -0.005267 -0.004936 0.024870 0.010039 0.002384 0.012817
# 4 -0.003733 -0.003123 0.010039 0.033465 0.003463 0.006815
# 5 -0.005061 -0.002807 0.002384 0.003463 0.028399 0.009788
# 6 -0.012507 -0.007780 0.012817 0.006815 0.009788 0.055014
#
#
# Mechanical properties :
#
#
# Convention : Reuss Voigt Hill
#
# Bulk Modulus (GPa) = 40.54311 59.53504 50.03907
# Shear Modulus (GPa) = 26.64375 40.33336 33.48855
#
# Velocity S-wave (km/s) = 3.26816 4.02103 3.66398
# Velocity P-wave (km/s) = 5.52213 6.73977 6.16110
#
# Compressibility (1/GPa) = 0.02466511
#
# Stress axis : x y z
#
# Youngs Moduli (GPa) = 87.76467 136.07767 40.20860
#
# Poissons Ratio (x) = -0.09924 0.21178
# Poissons Ratio (y) = -0.06401 0.19848
# Poissons Ratio (z) = 0.46226 0.67172
#
# Static dielectric constant tensor:
#      x y z
#    x 2.012660 0.016660 0.012690 
#    y 0.016660 1.983550 0.005160 
#    z 0.012690 0.005160 2.035280 
# 
# From -- ./inp_files/523485.got.cif
#   From: 2010.05.17/outbox.cif.g08.bks.cpg/sg2_262_cif.got.tgz:523485.got - 2010.06.03 11:33:40.
