data_PCOD9066602
_publ_section_title
;
Structure prediction by ZEFSAII (Michael W. Deem and Ramdas Pophale) SiO2 
 PCOD9066602
Probable space group: P -1
;
_chemical_formula_sum "Si O2"
_cell_formula_units_Z 13
_cell_length_a 4.886787
_cell_length_b 5.606813
_cell_length_c 17.584808
_cell_angle_alpha 104.407731
_cell_angle_beta 105.210718
_cell_angle_gamma 88.483633
_cell_volume 449.921426
_symmetry_space_group_name_H-M "P -1"
_symmetry_group_IT_number 2
_symmetry_cell_setting 'triclinic'
loop_
_space_group_symop_operation_xyz
x,y,z
-x,-y,-z
loop_
_atom_site_type_symbol
_atom_site_label
_atom_site_fract_x
_atom_site_fract_y
_atom_site_fract_z
Si Si1 0.489094 0.295453 0.208313
Si Si2 0.152992 0.987123 0.288475
Si Si3 0.151611 0.564247 0.633068
Si Si4 0.074228 0.623891 0.121761
Si Si5 0.746847 0.101973 0.544723
Si Si6 0.500000 0.500000 0.500000
Si Si7 0.549527 0.876297 0.074252
O O1 0.337435 0.154536 0.256517
O O2 0.686852 0.505137 0.282169
O O3 0.250804 0.391870 0.141122
O O4 0.661171 0.104448 0.154861
O O5 0.938559 0.165244 0.328477
O O6 0.049713 0.763489 0.210942
O O7 0.285079 0.874534 0.363871
O O8 0.357747 0.568383 0.578127
O O9 0.865367 0.413737 0.571155
O O10 0.267623 0.779354 0.088790
O O11 0.759642 0.648984 0.068392
O O12 0.440403 0.186919 0.489770
O O13 0.000000 0.000000 0.500000
O O14 0.500000 0.000000 0.000000
#
# Coordination Sequence:
#
# PCOD9066602 Si02
#       7
#     2   2   2   2   2   1   2
#     4  11  26  47  77 113 157 209 271 317 398 478
#     4  11  25  46  72 105 151 202 269 327 390 475
#     4  12  25  46  72 102 152 201 267 332 393 483
#     4  11  25  46  81 114 160 213 260 323 395 470
#     4  12  27  46  71 103 144 196 262 332 401 460
#     4  12  28  46  66 108 144 204 262 330 402 476
#     4  11  26  48  78 123 166 205 260 324 396 477
#
# _framework density 28.893933000000001
#
# number of rings (size 3 to 8) (size 9 to 14) (size 15 to 20)
#    0.000    0.615    1.538    5.538    4.308    4.923 
#    0.000    0.000    0.000    0.000    0.000    0.000 
#    0.000    0.000    0.000    0.000    0.000    0.000 
#
# Total GULP energy -72737.069163 kJ/mol
# GULP energy per Si atom -5595.159166 kJ/mol
# Density = 2.882817 g / cm^3
# Si number density = 28.893933 Si / 1000 Ang^3
#
#
#
# Elastic Constant Matrix: (Units=GPa)
#
#
# Indices 1 2 3 4 5 6 
#
# 1 178.4199 30.0133 65.9695 -11.4145 -24.9922 9.0630
# 2 30.0133 152.9884 53.6833 -15.1734 -9.6760 -21.3882
# 3 65.9695 53.6833 238.8679 -24.8109 -12.0117 13.1025
# 4 -11.4145 -15.1734 -24.8109 64.1517 17.2688 1.4751
# 5 -24.9922 -9.6760 -12.0117 17.2688 49.4047 -10.8082
# 6 9.0630 -21.3882 13.1025 1.4751 -10.8082 51.1755
#
#
#
# Elastic Compliance Matrix: (Units=1/GPa)
#
#
# Indices 1 2 3 4 5 6 
#
# 1 0.006704 -0.000680 -0.001564 -0.000343 0.002900 -0.000449
# 2 -0.000680 0.008013 -0.001704 0.000610 0.001519 0.004209
# 3 -0.001564 -0.001704 0.005237 0.001621 -0.000857 -0.002004
# 4 -0.000343 0.000610 0.001621 0.018068 -0.006407 -0.001973
# 5 0.002900 0.001519 -0.000857 -0.006407 0.025322 0.005873
# 6 -0.000449 0.004209 -0.002004 -0.001973 0.005873 0.023189
#
#
# Mechanical properties :
#
#
# Convention : Reuss Voigt Hill
#
# Bulk Modulus (GPa) = 82.93532 96.62316 89.77924
# Shear Modulus (GPa) = 50.78824 60.98704 55.88764
#
# Velocity S-wave (km/s) = 4.19710 4.59924 4.40276
# Velocity P-wave (km/s) = 7.22864 7.85603 7.54886
#
# Compressibility (1/GPa) = 0.01205759
#
# Stress axis : x y z
#
# Youngs Moduli (GPa) = 149.15472 124.80170 190.96672
#
# Poissons Ratio (x) = 0.08484 0.29868
# Poissons Ratio (y) = 0.10140 0.32545
# Poissons Ratio (z) = 0.23328 0.21269
#
# Static dielectric constant tensor:
#      x y z
#    x 1.893680 0.548060 -0.076390 
#    y 0.548060 1.807700 0.307940 
#    z -0.076390 0.307940 1.905260 
# 
# From -- ./inp_files/478234.got.cif
#   From: 2010.05.17/outbox.cif.g08.bks.cpg/sg2_240_cif.got.tgz:478234.got - 2010.06.03 11:33:40.
