data_PCOD9066880
_publ_section_title
;
Structure prediction by ZEFSAII (Michael W. Deem and Ramdas Pophale) SiO2 
 PCOD9066880
Probable space group: P -1
;
_chemical_formula_sum "Si O2"
_cell_formula_units_Z 16
_cell_length_a 11.284471
_cell_length_b 19.337810
_cell_length_c 8.759058
_cell_angle_alpha 135.862951
_cell_angle_beta 104.654790
_cell_angle_gamma 41.392326
_cell_volume 690.638730
_symmetry_space_group_name_H-M "P -1"
_symmetry_group_IT_number 2
_symmetry_cell_setting 'triclinic'
loop_
_space_group_symop_operation_xyz
x,y,z
-x,-y,-z
loop_
_atom_site_type_symbol
_atom_site_label
_atom_site_fract_x
_atom_site_fract_y
_atom_site_fract_z
Si Si1 0.302337 0.515844 0.618946
Si Si2 0.051711 0.686543 0.274680
Si Si3 0.242377 0.429967 0.188326
Si Si4 0.772649 0.236759 0.469126
Si Si5 0.588928 0.045354 0.541596
Si Si6 0.434675 0.940265 0.807990
Si Si7 0.004855 0.882814 0.981572
Si Si8 0.101216 0.500170 0.724297
O O1 0.368479 0.416556 0.325483
O O2 0.518191 0.373197 0.572243
O O3 0.103109 0.582367 0.725721
O O4 0.199418 0.693989 0.840173
O O5 0.069853 0.617621 0.333076
O O6 0.228913 0.655916 0.280221
O O7 0.089223 0.572122 0.988067
O O8 0.819271 0.898606 0.482175
O O9 0.101852 0.439818 0.244130
O O10 0.416313 0.251934 0.854662
O O11 0.919876 0.045302 0.280437
O O12 0.892106 0.174278 0.244214
O O13 0.613846 0.021115 0.328794
O O14 0.500000 0.000000 0.500000
O O15 0.659754 0.719729 0.554537
O O16 0.216968 0.036602 0.966814
O O17 0.500000 0.000000 0.000000
#
# Coordination Sequence:
#
# PCOD9066880 Si02
#       8
#     2   2   2   2   2   2   2   2
#     4  12  26  47  76 107 141 195 246 294 370 423
#     4  12  26  48  72 106 149 195 239 299 357 437
#     4  12  26  45  76 107 150 189 238 305 359 439
#     4  11  27  47  75 103 144 198 250 297 352 431
#     4  12  27  44  74 109 148 192 236 290 379 431
#     4  12  27  47  77 110 148 188 240 307 364 433
#     4  11  25  47  71 106 143 184 253 296 351 428
#     4  12  25  47  69 110 151 181 242 303 370 426
#
# _framework density 23.16696
#
# number of rings (size 3 to 8) (size 9 to 14) (size 15 to 20)
#    0.000    0.250    5.000    3.375    7.000    0.500 
#    0.000    1.250    0.000    0.000    0.000    0.000 
#    0.000    0.000    0.000    0.000    0.000    0.000 
#
# Total GULP energy -89561.113647 kJ/mol
# GULP energy per Si atom -5597.569603 kJ/mol
# Density = 2.311423 g / cm^3
# Si number density = 23.166960 Si / 1000 Ang^3
#
#
#
# Elastic Constant Matrix: (Units=GPa)
#
#
# Indices 1 2 3 4 5 6 
#
# 1 92.5014 12.3074 9.6355 8.2363 14.8674 0.8083
# 2 12.3074 68.3186 12.2214 14.3310 11.4026 5.9092
# 3 9.6355 12.2214 24.2797 41.9952 -1.0496 -0.9610
# 4 8.2363 14.3310 41.9952 29.1008 7.7626 8.4163
# 5 14.8674 11.4026 -1.0496 7.7626 34.3775 3.7835
# 6 0.8083 5.9092 -0.9610 8.4163 3.7835 37.7355
#
#
#
# Elastic Compliance Matrix: (Units=1/GPa)
#
#
# Indices 1 2 3 4 5 6 
#
# 1 0.011808 -0.001017 0.000577 -0.002830 -0.004220 0.000975
# 2 -0.001017 0.016755 -0.001916 -0.003672 -0.004192 -0.001412
# 3 0.000577 -0.001916 -0.021779 0.036463 -0.007673 -0.007630
# 4 -0.002830 -0.003672 0.036463 -0.019064 0.007300 0.005084
# 5 -0.004220 -0.004192 -0.007673 0.007300 0.030881 -0.004173
# 6 0.000975 -0.001412 -0.007630 0.005084 -0.004173 0.025791
#
#
# Mechanical properties :
#
#
# Convention : Reuss Voigt Hill
#
# Bulk Modulus (GPa) = 482.64275 28.15869 255.40072
# Shear Modulus (GPa) = 100.41533 30.30511 65.36022
#
# Velocity S-wave (km/s) = 6.59077 3.62071 5.31732
# Velocity P-wave (km/s) = 16.33102 5.44615 12.17298
#
# Compressibility (1/GPa) = 0.00207193
#
# Stress axis : x y z
#
# Youngs Moduli (GPa) = 84.69152 59.68293 -45.91578
#
# Poissons Ratio (x) = 0.06068 0.02648
# Poissons Ratio (y) = 0.08610 -0.08798
# Poissons Ratio (z) = -0.04885 0.11435
#
# Static dielectric constant tensor:
#      x y z
#    x 1.875160 0.014140 -0.030210 
#    y 0.014140 1.901990 -0.026210 
#    z -0.030210 -0.026210 1.862630 
# 
# From -- ./inp_files/283394.got.cif
#   From: 2010.05.17/outbox.cif.g08.bks.cpg/sg2_142_cif.got.tgz:283394.got - 2010.06.03 11:33:40.
