data_PCOD9066539
_publ_section_title
;
Structure prediction by ZEFSAII (Michael W. Deem and Ramdas Pophale) SiO2 
 PCOD9066539
Probable space group: P -1
;
_chemical_formula_sum "Si O2"
_cell_formula_units_Z 16
_cell_length_a 9.771680
_cell_length_b 15.035563
_cell_length_c 8.754182
_cell_angle_alpha 77.221182
_cell_angle_beta 102.245065
_cell_angle_gamma 44.572460
_cell_volume 740.863325
_symmetry_space_group_name_H-M "P -1"
_symmetry_group_IT_number 2
_symmetry_cell_setting 'triclinic'
loop_
_space_group_symop_operation_xyz
x,y,z
-x,-y,-z
loop_
_atom_site_type_symbol
_atom_site_label
_atom_site_fract_x
_atom_site_fract_y
_atom_site_fract_z
Si Si1 0.898247 0.293488 0.025639
Si Si2 0.200749 0.866800 0.983732
Si Si3 0.679493 0.846571 0.002186
Si Si4 0.002702 0.202990 0.419875
Si Si5 0.881965 0.684863 0.417387
Si Si6 0.375881 0.349682 0.611906
Si Si7 0.357309 0.881851 0.719430
Si Si8 0.516183 0.366349 0.328781
O O1 0.130956 0.190311 0.024135
O O2 0.952352 0.280909 0.221002
O O3 0.823140 0.227303 0.022802
O O4 0.692968 0.463582 0.849332
O O5 0.438339 0.758630 0.171197
O O6 0.204856 0.923606 0.809515
O O7 0.000000 0.000000 0.000000
O O8 0.546969 0.850879 0.849576
O O9 0.817847 0.717011 0.211323
O O10 0.500000 0.000000 0.000000
O O11 0.121438 0.211626 0.560700
O O12 0.759611 0.291819 0.392358
O O13 0.183751 0.026253 0.512157
O O14 0.704159 0.707931 0.446220
O O15 0.142619 0.514439 0.561029
O O16 0.472186 0.363001 0.495328
O O17 0.467041 0.736963 0.720843
#
# Coordination Sequence:
#
# PCOD9066539 Si02
#       8
#     2   2   2   2   2   2   2   2
#     4  12  29  46  72 106 144 190 231 291 361 417
#     4  12  26  45  73 103 142 186 238 291 350 415
#     4  12  25  49  71 101 139 184 241 292 348 416
#     4  12  27  46  73 104 147 184 236 288 355 420
#     4  11  25  46  71 103 139 184 237 293 344 422
#     4  11  26  44  73 104 139 185 237 287 355 414
#     4  12  27  46  72 103 144 188 235 294 349 422
#     4  12  27  47  72 106 146 184 234 292 355 426
#
# _framework density 21.596426000000001
#
# number of rings (size 3 to 8) (size 9 to 14) (size 15 to 20)
#    0.000    0.250    5.000    3.000    7.000    2.000 
#    0.000    0.000    0.000    0.000    0.000    0.000 
#    0.000    0.000    0.000    0.000    0.000    0.000 
#
# Total GULP energy -89599.358196 kJ/mol
# GULP energy per Si atom -5599.959887 kJ/mol
# Density = 2.154727 g / cm^3
# Si number density = 21.596426 Si / 1000 Ang^3
#
#
#
# Elastic Constant Matrix: (Units=GPa)
#
#
# Indices 1 2 3 4 5 6 
#
# 1 88.2117 11.8651 14.1981 -9.2347 12.0736 -2.0915
# 2 11.8651 30.9370 -7.4454 -10.1834 11.0106 5.3471
# 3 14.1981 -7.4454 67.7231 -6.4452 -3.2114 -4.7208
# 4 -9.2347 -10.1834 -6.4452 28.4066 -2.6600 0.6014
# 5 12.0736 11.0106 -3.2114 -2.6600 31.0251 5.3961
# 6 -2.0915 5.3471 -4.7208 0.6014 5.3961 33.9884
#
#
#
# Elastic Compliance Matrix: (Units=1/GPa)
#
#
# Indices 1 2 3 4 5 6 
#
# 1 0.013169 -0.004052 -0.003127 0.001696 -0.004151 0.001642
# 2 -0.004052 0.045549 0.006429 0.015475 -0.011738 -0.004932
# 3 -0.003127 0.006429 0.016725 0.005154 0.000956 0.000876
# 4 0.001696 0.015475 0.005154 0.042364 -0.001620 -0.002107
# 5 -0.004151 -0.011738 0.000956 -0.001620 0.038738 -0.004397
# 6 0.001642 -0.004932 0.000876 -0.002107 -0.004397 0.031156
#
#
# Mechanical properties :
#
#
# Convention : Reuss Voigt Hill
#
# Bulk Modulus (GPa) = 13.52369 24.90084 19.21227
# Shear Modulus (GPa) = 23.38092 29.90097 26.64095
#
# Velocity S-wave (km/s) = 3.29390 3.72497 3.51605
# Velocity P-wave (km/s) = 4.55434 5.48230 5.03972
#
# Compressibility (1/GPa) = 0.07394430
#
# Stress axis : x y z
#
# Youngs Moduli (GPa) = 75.93407 21.95434 59.78924
#
# Poissons Ratio (x) = 0.08895 0.18698
# Poissons Ratio (y) = 0.30767 -0.38441
# Poissons Ratio (z) = 0.23747 -0.14115
#
# Static dielectric constant tensor:
#      x y z
#    x 1.783130 0.018220 0.001430 
#    y 0.018220 1.785960 -0.012150 
#    z 0.001430 -0.012150 1.784140 
# 
# From -- ./inp_files/184157.got.cif
#   From: 2010.05.17/outbox.cif.g08.bks.cpg/sg2_93_cif.got.tgz:184157.got - 2010.06.03 11:33:40.
