data_PCOD9066404
_publ_section_title
;
Structure prediction by ZEFSAII (Michael W. Deem and Ramdas Pophale) SiO2 
 PCOD9066404
Probable space group: P -1
;
_chemical_formula_sum "Si O2"
_cell_formula_units_Z 16
_cell_length_a 6.285732
_cell_length_b 23.011521
_cell_length_c 9.047643
_cell_angle_alpha 129.535173
_cell_angle_beta 107.205631
_cell_angle_gamma 46.366496
_cell_volume 705.970626
_symmetry_space_group_name_H-M "P -1"
_symmetry_group_IT_number 2
_symmetry_cell_setting 'triclinic'
loop_
_space_group_symop_operation_xyz
x,y,z
-x,-y,-z
loop_
_atom_site_type_symbol
_atom_site_label
_atom_site_fract_x
_atom_site_fract_y
_atom_site_fract_z
Si Si1 0.699451 0.196323 0.425240
Si Si2 0.825555 0.723842 0.104833
Si Si3 0.822400 0.616180 0.202123
Si Si4 0.708338 0.206782 0.112269
Si Si5 0.704680 0.017638 0.147796
Si Si6 0.759454 0.340501 0.174569
Si Si7 0.377824 0.077377 0.469224
Si Si8 0.894572 0.468725 0.559957
O O1 0.528283 0.278489 0.658759
O O2 0.628938 0.246943 0.329779
O O3 0.060481 0.120985 0.406312
O O4 0.622301 0.124624 0.279077
O O5 0.907335 0.650094 0.136951
O O6 0.681349 0.827465 0.323848
O O7 0.578977 0.749732 0.977110
O O8 0.115619 0.682642 0.001975
O O9 0.931385 0.595817 0.361171
O O10 0.000000 0.500000 0.000000
O O11 0.871354 0.240338 0.120644
O O12 0.945375 0.083275 0.974508
O O13 0.638145 0.020793 0.310222
O O14 0.500000 0.000000 0.000000
O O15 0.839338 0.401515 0.363033
O O16 0.399174 0.422381 0.255004
O O17 0.500000 0.000000 0.500000
O O18 0.000000 0.500000 0.500000
#
# Coordination Sequence:
#
# PCOD9066404 Si02
#       8
#     2   2   2   2   2   2   2   2
#     4  12  28  49  75 112 153 201 259 316 376 464
#     4  12  28  46  73 114 151 200 252 313 383 449
#     4  12  27  47  74 106 160 195 251 318 384 438
#     4  12  27  46  80 106 154 200 257 314 379 462
#     4  12  27  48  76 112 149 202 256 309 387 460
#     4  11  25  45  77 104 146 200 257 305 384 451
#     4  12  28  47  75 111 158 197 251 316 387 453
#     4  11  25  49  74 109 147 199 256 318 375 456
#
# _framework density 22.663833
#
# number of rings (size 3 to 8) (size 9 to 14) (size 15 to 20)
#    0.000    0.250    2.500    5.625   12.250    2.500 
#    0.000    0.000    0.000    0.000    0.000    0.000 
#    0.000    0.000    0.000    0.000    0.000    0.000 
#
# Total GULP energy -89308.963825 kJ/mol
# GULP energy per Si atom -5581.810239 kJ/mol
# Density = 2.261225 g / cm^3
# Si number density = 22.663833 Si / 1000 Ang^3
#
#
#
# Elastic Constant Matrix: (Units=GPa)
#
#
# Indices 1 2 3 4 5 6 
#
# 1 80.4352 36.6063 37.6616 -15.6381 -10.3363 23.6511
# 2 36.6063 115.8362 29.3669 -15.2451 2.0170 35.1187
# 3 37.6616 29.3669 132.6244 2.2397 -24.5925 16.0648
# 4 -15.6381 -15.2451 2.2397 54.4750 8.0229 -4.7067
# 5 -10.3363 2.0170 -24.5925 8.0229 61.5373 -5.1928
# 6 23.6511 35.1187 16.0648 -4.7067 -5.1928 46.2216
#
#
#
# Elastic Compliance Matrix: (Units=1/GPa)
#
#
# Indices 1 2 3 4 5 6 
#
# 1 0.017798 -0.002500 -0.003807 0.004014 0.000570 -0.005411
# 2 -0.002500 0.012555 -0.001638 0.002561 -0.002470 -0.007707
# 3 -0.003807 -0.001638 0.009699 -0.002484 0.003612 -0.000026
# 4 0.004014 0.002561 -0.002484 0.020682 -0.003216 -0.001392
# 5 0.000570 -0.002470 0.003612 -0.003216 0.018465 0.002077
# 6 -0.005411 -0.007707 -0.000026 -0.001392 0.002077 0.030360
#
#
# Mechanical properties :
#
#
# Convention : Reuss Voigt Hill
#
# Bulk Modulus (GPa) = 41.38883 59.57393 50.48138
# Shear Modulus (GPa) = 37.45264 47.46417 42.45840
#
# Velocity S-wave (km/s) = 4.06954 4.58128 4.33297
# Velocity P-wave (km/s) = 6.35478 7.37070 6.88151
#
# Compressibility (1/GPa) = 0.02416111
#
# Stress axis : x y z
#
# Youngs Moduli (GPa) = 56.18732 79.64987 103.10724
#
# Poissons Ratio (x) = 0.19914 0.39253
# Poissons Ratio (y) = 0.14048 0.16886
# Poissons Ratio (z) = 0.21391 0.13045
#
# Static dielectric constant tensor:
#      x y z
#    x 1.873050 -0.066430 0.043160 
#    y -0.066430 1.822130 0.099810 
#    z 0.043160 0.099810 1.695120 
# 
# From -- ./inp_files/141514.got.cif
#   From: 2010.05.17/outbox.cif.g08.bks.cpg/sg2_71_cif.got.tgz:141514.got - 2010.06.03 11:33:40.
