data_PCOD9066919
_publ_section_title
;
Structure prediction by ZEFSAII (Michael W. Deem and Ramdas Pophale) SiO2 
 PCOD9066919
Probable space group: P -1
;
_chemical_formula_sum "Si O2"
_cell_formula_units_Z 16
_cell_length_a 18.245661
_cell_length_b 5.278116
_cell_length_c 7.912884
_cell_angle_alpha 60.810737
_cell_angle_beta 96.399508
_cell_angle_gamma 93.837903
_cell_volume 661.049602
_symmetry_space_group_name_H-M "P -1"
_symmetry_group_IT_number 2
_symmetry_cell_setting 'triclinic'
loop_
_space_group_symop_operation_xyz
x,y,z
-x,-y,-z
loop_
_atom_site_type_symbol
_atom_site_label
_atom_site_fract_x
_atom_site_fract_y
_atom_site_fract_z
Si Si1 0.433454 0.197685 0.474966
Si Si2 0.927773 0.681528 0.970460
Si Si3 0.239326 0.495479 0.002803
Si Si4 0.531898 0.215266 0.800651
Si Si5 0.124103 0.947836 0.472495
Si Si6 0.070000 0.323146 0.641379
Si Si7 0.695236 0.144403 0.786239
Si Si8 0.718350 0.147362 0.432346
O O1 0.462399 0.285607 0.640145
O O2 0.435592 0.464235 0.258374
O O3 0.500000 0.000000 0.500000
O O4 0.355889 0.042524 0.529969
O O5 0.849967 0.501171 0.006893
O O6 0.936615 0.787941 0.132076
O O7 0.915161 0.924062 0.744733
O O8 0.000000 0.500000 0.000000
O O9 0.269987 0.652738 0.791449
O O10 0.274660 0.668182 0.112185
O O11 0.263609 0.161962 0.106504
O O12 0.607332 0.082637 0.790255
O O13 0.500000 0.000000 0.000000
O O14 0.086659 0.076786 0.588882
O O15 0.126650 0.598414 0.575244
O O16 0.208853 0.046890 0.473667
O O17 0.000000 0.500000 0.500000
O O18 0.711730 0.303573 0.561318
#
# Coordination Sequence:
#
# PCOD9066919 Si02
#       8
#     2   2   2   2   2   2   2   2
#     4  11  25  47  72 114 150 204 259 321 388 466
#     4  12  28  51  79 115 155 201 263 321 391 472
#     4  12  30  48  77 117 149 209 262 323 392 472
#     4  11  26  46  77 110 157 205 262 323 396 469
#     4  12  29  48  78 113 153 207 254 324 386 470
#     4  12  28  51  78 113 153 199 257 317 397 463
#     4  12  28  50  78 113 155 205 268 316 393 466
#     4  12  27  50  81 105 164 202 262 325 395 462
#
# _framework density 24.203928999999999
#
# number of rings (size 3 to 8) (size 9 to 14) (size 15 to 20)
#    0.000    0.250    5.000    1.875    5.250    4.000 
#    0.000    0.000    0.000    0.000    0.000    0.000 
#    0.000    0.000    0.000    0.000    0.000    0.000 
#
# Total GULP energy -89519.970568 kJ/mol
# GULP energy per Si atom -5594.998161 kJ/mol
# Density = 2.414884 g / cm^3
# Si number density = 24.203929 Si / 1000 Ang^3
#
#
#
# Elastic Constant Matrix: (Units=GPa)
#
#
# Indices 1 2 3 4 5 6 
#
# 1 173.0552 32.9827 33.1267 0.1195 -5.9649 6.0474
# 2 32.9827 104.8715 60.9340 6.0218 -3.1252 10.8857
# 3 33.1267 60.9340 182.4433 15.1388 -22.6091 6.9036
# 4 0.1195 6.0218 15.1388 51.8911 3.9033 5.5015
# 5 -5.9649 -3.1252 -22.6091 3.9033 48.7226 1.9374
# 6 6.0474 10.8857 6.9036 5.5015 1.9374 38.1605
#
#
#
# Elastic Compliance Matrix: (Units=1/GPa)
#
#
# Indices 1 2 3 4 5 6 
#
# 1 0.006219 -0.001586 -0.000562 0.000358 0.000390 -0.000503
# 2 -0.001586 0.012562 -0.003955 0.000057 -0.001126 -0.002568
# 3 -0.000562 -0.003955 0.007478 -0.001968 0.003306 -0.000020
# 4 0.000358 0.000057 -0.001968 0.020285 -0.002391 -0.002520
# 5 0.000390 -0.001126 0.003306 -0.002391 0.022270 -0.001125
# 6 -0.000503 -0.002568 -0.000020 -0.002520 -0.001125 0.027441
#
#
# Mechanical properties :
#
#
# Convention : Reuss Voigt Hill
#
# Bulk Modulus (GPa) = 71.15648 79.38409 75.27029
# Shear Modulus (GPa) = 44.19130 49.97662 47.08396
#
# Velocity S-wave (km/s) = 4.27756 4.54895 4.41534
# Velocity P-wave (km/s) = 7.33889 7.77559 7.56039
#
# Compressibility (1/GPa) = 0.01405353
#
# Stress axis : x y z
#
# Youngs Moduli (GPa) = 160.79408 79.60624 133.73204
#
# Poissons Ratio (x) = 0.12628 0.07512
# Poissons Ratio (y) = 0.25507 0.52885
# Poissons Ratio (z) = 0.09032 0.31481
#
# Static dielectric constant tensor:
#      x y z
#    x 2.016570 0.053880 0.006490 
#    y 0.053880 2.054210 0.023520 
#    z 0.006490 0.023520 1.968320 
# 
# From -- ./inp_files/322217.got.cif
#   From: 2010.05.17/outbox.cif.g08.bks.cpg/sg2_162_cif.got.tgz:322217.got - 2010.06.03 11:33:40.
