data_PCOD9066715
_publ_section_title
;
Structure prediction by ZEFSAII (Michael W. Deem and Ramdas Pophale) SiO2 
 PCOD9066715
Probable space group: P -1
;
_chemical_formula_sum "Si O2"
_cell_formula_units_Z 12
_cell_length_a 9.720093
_cell_length_b 10.176599
_cell_length_c 8.337480
_cell_angle_alpha 138.290796
_cell_angle_beta 101.925098
_cell_angle_gamma 94.821051
_cell_volume 499.622376
_symmetry_space_group_name_H-M "P -1"
_symmetry_group_IT_number 2
_symmetry_cell_setting 'triclinic'
loop_
_space_group_symop_operation_xyz
x,y,z
-x,-y,-z
loop_
_atom_site_type_symbol
_atom_site_label
_atom_site_fract_x
_atom_site_fract_y
_atom_site_fract_z
Si Si1 0.517501 0.272122 0.660904
Si Si2 0.221687 0.168043 0.043657
Si Si3 0.287397 0.451655 0.633857
Si Si4 0.854685 0.502120 0.871986
Si Si5 0.496211 0.118921 0.870826
Si Si6 0.959371 0.305767 0.438271
O O1 0.422496 0.414430 0.724785
O O2 0.696136 0.399962 0.831166
O O3 0.461358 0.161431 0.716351
O O4 0.492041 0.108961 0.357353
O O5 0.366566 0.141247 0.971538
O O6 0.114195 0.933565 0.858356
O O7 0.269572 0.335545 0.352839
O O8 0.139145 0.272716 0.992341
O O9 0.126221 0.343335 0.581132
O O10 0.345344 0.706135 0.873668
O O11 0.852093 0.349098 0.582553
O O12 0.000000 0.500000 0.000000
O O13 0.000000 0.500000 0.500000
#
# Coordination Sequence:
#
# PCOD9066715 Si02
#       6
#     2   2   2   2   2   2
#     4  11  26  47  74 109 146 195 247 303 364 431
#     4  12  27  47  75 112 146 196 246 302 370 434
#     4  12  26  44  77 106 149 192 243 306 361 435
#     4  12  27  48  75 109 151 193 244 301 371 441
#     4  11  25  46  74 109 147 191 249 300 364 434
#     4  12  28  49  71 110 152 191 246 302 368 439
#
# _framework density 24.018139999999999
#
# number of rings (size 3 to 8) (size 9 to 14) (size 15 to 20)
#    0.000    0.333    5.000    2.500    4.667    4.000 
#    0.000    0.000    0.000    0.000    0.000    0.000 
#    0.000    0.000    0.000    0.000    0.000    0.000 
#
# Total GULP energy -67184.238653 kJ/mol
# GULP energy per Si atom -5598.686554 kJ/mol
# Density = 2.396347 g / cm^3
# Si number density = 24.018140 Si / 1000 Ang^3
#
#
#
# Elastic Constant Matrix: (Units=GPa)
#
#
# Indices 1 2 3 4 5 6 
#
# 1 124.1424 4.0479 19.6918 1.5691 -3.1232 8.7990
# 2 4.0479 62.9398 14.4717 6.1934 6.2659 -6.2420
# 3 19.6918 14.4717 134.4743 26.0834 -5.5551 1.9738
# 4 1.5691 6.1934 26.0834 36.8982 0.0540 -1.2086
# 5 -3.1232 6.2659 -5.5551 0.0540 50.9173 -2.0526
# 6 8.7990 -6.2420 1.9738 -1.2086 -2.0526 34.6626
#
#
#
# Elastic Compliance Matrix: (Units=1/GPa)
#
#
# Indices 1 2 3 4 5 6 
#
# 1 0.008422 -0.000559 -0.001231 0.000535 0.000365 -0.002128
# 2 -0.000559 0.016966 -0.001566 -0.001612 -0.002166 0.003102
# 3 -0.001231 -0.001566 0.009019 -0.006083 0.001082 -0.000631
# 4 0.000535 -0.001612 -0.006083 0.031683 -0.000426 0.001000
# 5 0.000365 -0.002166 0.001082 -0.000426 0.020073 0.000629
# 6 -0.002128 0.003102 -0.000631 0.001000 0.000629 0.030056
#
#
# Mechanical properties :
#
#
# Convention : Reuss Voigt Hill
#
# Bulk Modulus (GPa) = 36.10698 44.21993 40.16345
# Shear Modulus (GPa) = 37.83237 43.38528 40.60883
#
# Velocity S-wave (km/s) = 3.97313 4.25473 4.11634
# Velocity P-wave (km/s) = 6.00946 6.52595 6.27302
#
# Compressibility (1/GPa) = 0.02769547
#
# Stress axis : x y z
#
# Youngs Moduli (GPa) = 118.73741 58.94072 110.87809
#
# Poissons Ratio (x) = 0.03293 0.13646
# Poissons Ratio (y) = 0.06634 0.17368
# Poissons Ratio (z) = 0.14613 0.09232
#
# Static dielectric constant tensor:
#      x y z
#    x 1.906580 -0.023770 -0.004200 
#    y -0.023770 1.965420 -0.002830 
#    z -0.004200 -0.002830 1.935530 
# 
# From -- ./inp_files/159884.got.cif
#   From: 2010.05.17/outbox.cif.g08.bks.cpg/sg2_80_cif.got.tgz:159884.got - 2010.06.03 11:33:40.
