data_PCOD9066243
_publ_section_title
;
Structure prediction by ZEFSAII (Michael W. Deem and Ramdas Pophale) SiO2 
 PCOD9066243
Probable space group: P -1
;
_chemical_formula_sum "Si O2"
_cell_formula_units_Z 16
_cell_length_a 15.690350
_cell_length_b 9.570311
_cell_length_c 11.558257
_cell_angle_alpha 51.867038
_cell_angle_beta 73.865165
_cell_angle_gamma 116.465234
_cell_volume 756.381774
_symmetry_space_group_name_H-M "P -1"
_symmetry_group_IT_number 2
_symmetry_cell_setting 'triclinic'
loop_
_space_group_symop_operation_xyz
x,y,z
-x,-y,-z
loop_
_atom_site_type_symbol
_atom_site_label
_atom_site_fract_x
_atom_site_fract_y
_atom_site_fract_z
Si Si1 0.392536 0.320112 0.019938
Si Si2 0.029895 0.691920 0.489035
Si Si3 0.570890 0.310730 0.825741
Si Si4 0.363813 0.420493 0.586310
Si Si5 0.103663 0.711235 0.031182
Si Si6 0.620503 0.352672 0.297569
Si Si7 0.109395 0.452783 0.976025
Si Si8 0.906698 0.858390 0.487591
O O1 0.212413 0.009053 0.277997
O O2 0.500000 0.500000 0.000000
O O3 0.447838 0.245831 0.958229
O O4 0.412120 0.531007 0.829973
O O5 0.000000 0.500000 0.500000
O O6 0.942757 0.477868 0.744239
O O7 0.957729 0.764623 0.448486
O O8 0.625303 0.466123 0.599521
O O9 0.723508 0.559136 0.721111
O O10 0.500000 0.000000 0.000000
O O11 0.500000 0.500000 0.500000
O O12 0.377712 0.579155 0.605888
O O13 0.209478 0.051724 0.845528
O O14 0.183459 0.710657 0.907924
O O15 0.951707 0.536025 0.114703
O O16 0.500000 0.000000 0.500000
O O17 0.781632 0.527598 0.112269
O O18 0.963874 0.126269 0.262412
O O19 0.000000 0.000000 0.500000
#
# Coordination Sequence:
#
# PCOD9066243 Si02
#       8
#     2   2   2   2   2   2   2   2
#     4  12  28  47  72 110 151 188 246 304 365 440
#     4  12  26  46  73 104 146 188 240 298 364 433
#     4  12  29  48  75 109 147 200 244 300 377 438
#     4  12  26  49  73 105 150 189 244 307 368 447
#     4  11  26  45  75 103 143 191 241 301 367 432
#     4  12  28  46  74 107 147 195 246 302 374 440
#     4  11  25  45  72 106 139 189 249 297 361 438
#     4  12  24  46  72 107 144 190 245 298 359 442
#
# _framework density 21.153338999999999
#
# number of rings (size 3 to 8) (size 9 to 14) (size 15 to 20)
#    0.000    0.250    5.000    3.000    5.250    1.500 
#    0.000    0.000    0.000    0.000    0.000    0.000 
#    0.000    0.000    0.000    0.000    0.000    0.000 
#
# Total GULP energy -89594.005420 kJ/mol
# GULP energy per Si atom -5599.625339 kJ/mol
# Density = 2.110519 g / cm^3
# Si number density = 21.153339 Si / 1000 Ang^3
#
#
#
# Elastic Constant Matrix: (Units=GPa)
#
#
# Indices 1 2 3 4 5 6 
#
# 1 98.7900 24.2471 13.3508 2.9362 5.2631 -15.8876
# 2 24.2471 121.3926 18.8968 -4.2603 8.6570 -16.2050
# 3 13.3508 18.8968 89.1083 -17.6440 8.2712 -0.8113
# 4 2.9362 -4.2603 -17.6440 33.3745 -3.5963 3.1838
# 5 5.2631 8.6570 8.2712 -3.5963 40.5863 1.9963
# 6 -15.8876 -16.2050 -0.8113 3.1838 1.9963 46.1123
#
#
#
# Elastic Compliance Matrix: (Units=1/GPa)
#
#
# Indices 1 2 3 4 5 6 
#
# 1 0.011461 -0.001538 -0.001763 -0.002611 -0.001208 0.003610
# 2 -0.001538 0.009271 -0.001550 0.000064 -0.001593 0.002765
# 3 -0.001763 -0.001550 0.013319 0.006967 -0.001472 -0.001335
# 4 -0.002611 0.000064 0.006967 0.034419 0.002113 -0.003223
# 5 -0.001208 -0.001593 -0.001472 0.002113 0.025734 -0.002262
# 6 0.003610 0.002765 -0.001335 -0.003223 -0.002262 0.024199
#
#
# Mechanical properties :
#
#
# Convention : Reuss Voigt Hill
#
# Bulk Modulus (GPa) = 41.07001 46.92001 43.99501
# Shear Modulus (GPa) = 36.70484 40.86770 38.78627
#
# Velocity S-wave (km/s) = 4.17007 4.40019 4.28667
# Velocity P-wave (km/s) = 6.53020 6.93142 6.73380
#
# Compressibility (1/GPa) = 0.02434867
#
# Stress axis : x y z
#
# Youngs Moduli (GPa) = 87.25410 107.86010 75.07949
#
# Poissons Ratio (x) = 0.16593 0.13236
# Poissons Ratio (y) = 0.13423 0.11637
# Poissons Ratio (z) = 0.15382 0.16718
#
# Static dielectric constant tensor:
#      x y z
#    x 1.738010 -0.000820 -0.021170 
#    y -0.000820 1.779700 -0.002990 
#    z -0.021170 -0.002990 1.754710 
# 
# From -- ./inp_files/207086.got.cif
#   From: 2010.05.17/outbox.cif.g08.bks.cpg/sg2_104_cif.got.tgz:207086.got - 2010.06.03 11:33:40.
