data_PCOD9066934
_publ_section_title
;
Structure prediction by ZEFSAII (Michael W. Deem and Ramdas Pophale) SiO2 
 PCOD9066934
Probable space group: P -1
;
_chemical_formula_sum "Si O2"
_cell_formula_units_Z 16
_cell_length_a 17.063444
_cell_length_b 19.851300
_cell_length_c 10.842228
_cell_angle_alpha 139.226432
_cell_angle_beta 30.946899
_cell_angle_gamma 158.818188
_cell_volume 664.402128
_symmetry_space_group_name_H-M "P -1"
_symmetry_group_IT_number 2
_symmetry_cell_setting 'triclinic'
loop_
_space_group_symop_operation_xyz
x,y,z
-x,-y,-z
loop_
_atom_site_type_symbol
_atom_site_label
_atom_site_fract_x
_atom_site_fract_y
_atom_site_fract_z
Si Si1 0.529413 0.218071 0.739609
Si Si2 0.619721 0.587869 0.100377
Si Si3 0.342308 0.479655 0.582228
Si Si4 0.958285 0.995811 0.232522
Si Si5 0.687756 0.095532 0.000042
Si Si6 0.049695 0.406238 0.420443
Si Si7 0.254268 0.940002 0.539221
Si Si8 0.725167 0.893408 0.662897
O O1 0.783116 0.323949 0.628529
O O2 0.682219 0.364700 0.622210
O O3 0.362580 0.024134 0.646666
O O4 0.285761 0.153501 0.030311
O O5 0.413126 0.477819 0.345828
O O6 0.784755 0.791001 0.162958
O O7 0.500000 0.500000 0.000000
O O8 0.835142 0.613889 0.861160
O O9 0.500000 0.500000 0.500000
O O10 0.476097 0.669449 0.679832
O O11 0.013002 0.296300 0.805050
O O12 0.826117 0.974438 0.500506
O O13 0.913144 0.053744 0.267576
O O14 0.655237 0.961767 0.913208
O O15 0.500000 0.000000 0.000000
O O16 0.539436 0.087212 0.282800
O O17 0.942803 0.273462 0.492320
O O18 0.000000 0.000000 0.500000
#
# Coordination Sequence:
#
# PCOD9066934 Si02
#       8
#     2   2   2   2   2   2   2   2
#     4  11  26  45  68 108 141 185 247 297 371 447
#     4  11  26  46  77 109 152 192 254 309 385 445
#     4  11  27  48  79 112 148 206 257 308 378 463
#     4  11  25  47  73 105 147 194 247 310 374 458
#     4  12  28  48  74 109 150 197 253 315 378 449
#     4  11  27  42  71 107 143 192 235 309 373 434
#     4  12  26  46  71 102 149 186 245 305 375 435
#     4  11  25  48  74 107 144 200 255 310 375 452
#
# _framework density 24.081800999999999
#
# number of rings (size 3 to 8) (size 9 to 14) (size 15 to 20)
#    0.000    0.750    3.750    1.500    8.750    1.500 
#    0.000    0.000    0.000    0.000    0.000    0.000 
#    0.000    0.000    0.000    0.000    0.000    0.000 
#
# Total GULP energy -89481.173397 kJ/mol
# GULP energy per Si atom -5592.573337 kJ/mol
# Density = 2.402699 g / cm^3
# Si number density = 24.081801 Si / 1000 Ang^3
#
#
#
# Elastic Constant Matrix: (Units=GPa)
#
#
# Indices 1 2 3 4 5 6 
#
# 1 69.5453 25.1282 34.9205 -14.1183 -17.3153 -12.5824
# 2 25.1282 122.4741 53.3256 -15.5963 -7.2348 -16.1140
# 3 34.9205 53.3256 173.1460 -24.5718 -15.3594 -9.6700
# 4 -14.1183 -15.5963 -24.5718 48.2017 -4.2975 -0.1223
# 5 -17.3153 -7.2348 -15.3594 -4.2975 50.8153 -0.4707
# 6 -12.5824 -16.1140 -9.6700 -0.1223 -0.4707 30.2703
#
#
#
# Elastic Compliance Matrix: (Units=1/GPa)
#
#
# Indices 1 2 3 4 5 6 
#
# 1 0.019676 -0.001270 -0.001910 0.004970 0.006432 0.007013
# 2 -0.001270 0.010269 -0.002373 0.001797 0.000503 0.004196
# 3 -0.001910 -0.002373 0.007407 0.002581 0.001472 0.000343
# 4 0.004970 0.001797 0.002581 0.024541 0.004842 0.004021
# 5 0.006432 0.000503 0.001472 0.004842 0.022832 0.003786
# 6 0.007013 0.004196 0.000343 0.004021 0.003786 0.038369
#
#
# Mechanical properties :
#
#
# Convention : Reuss Voigt Hill
#
# Bulk Modulus (GPa) = 38.09823 65.76822 51.93323
# Shear Modulus (GPa) = 34.97776 42.64353 38.81065
#
# Velocity S-wave (km/s) = 3.81524 4.21263 4.01885
# Velocity P-wave (km/s) = 5.93825 7.14362 6.56864
#
# Compressibility (1/GPa) = 0.02624794
#
# Stress axis : x y z
#
# Youngs Moduli (GPa) = 50.82341 97.37873 135.00097
#
# Poissons Ratio (x) = 0.12367 0.25781
# Poissons Ratio (y) = 0.06454 0.32031
# Poissons Ratio (z) = 0.09706 0.23104
#
# Static dielectric constant tensor:
#      x y z
#    x 1.967330 -0.014550 0.021640 
#    y -0.014550 1.913620 -0.002040 
#    z 0.021640 -0.002040 1.917220 
# 
# From -- ./inp_files/467133.got.cif
#   From: 2010.05.17/outbox.cif.g08.bks.cpg/sg2_234_cif.got.tgz:467133.got - 2010.06.03 11:33:40.
