data_PCOD9066853
_publ_section_title
;
Structure prediction by ZEFSAII (Michael W. Deem and Ramdas Pophale) SiO2 
 PCOD9066853
Probable space group: P -1
;
_chemical_formula_sum "Si O2"
_cell_formula_units_Z 12
_cell_length_a 15.384501
_cell_length_b 18.560708
_cell_length_c 8.985452
_cell_angle_alpha 45.524920
_cell_angle_beta 142.623420
_cell_angle_gamma 159.865996
_cell_volume 523.270744
_symmetry_space_group_name_H-M "P -1"
_symmetry_group_IT_number 2
_symmetry_cell_setting 'triclinic'
loop_
_space_group_symop_operation_xyz
x,y,z
-x,-y,-z
loop_
_atom_site_type_symbol
_atom_site_label
_atom_site_fract_x
_atom_site_fract_y
_atom_site_fract_z
Si Si1 0.774991 0.134867 0.573247
Si Si2 0.333734 0.210013 0.840383
Si Si3 0.898621 0.432018 0.288838
Si Si4 0.431698 0.858162 0.215787
Si Si5 0.374429 0.431389 0.091458
Si Si6 0.651635 0.786039 0.493615
O O1 0.928160 0.333094 0.431275
O O2 0.500000 0.000000 0.500000
O O3 0.644977 0.995833 0.454101
O O4 0.016057 0.226735 0.871359
O O5 0.505127 0.400256 0.893721
O O6 0.318648 0.220959 0.628785
O O7 0.546984 0.244992 0.084928
O O8 0.983326 0.990546 0.727056
O O9 0.000000 0.500000 0.500000
O O10 0.096266 0.628383 0.165578
O O11 0.505468 0.803268 0.301476
O O12 0.500000 0.000000 0.000000
O O13 0.500264 0.408212 0.369937
O O14 0.500000 0.500000 0.000000
#
# Coordination Sequence:
#
# PCOD9066853 Si02
#       6
#     2   2   2   2   2   2
#     4  12  24  43  72 107 141 186 236 292 357 420
#     4  11  25  47  70 101 144 187 235 285 359 419
#     4  12  24  46  76 105 142 189 236 294 357 423
#     4  12  28  48  71 108 145 187 243 298 354 426
#     4  12  25  41  70 104 139 181 234 291 347 422
#     4  11  27  46  71 100 145 189 232 291 358 422
#
# _framework density 22.932677999999999
#
# number of rings (size 3 to 8) (size 9 to 14) (size 15 to 20)
#    0.000    0.333    3.333    4.500    0.000   10.667 
#    0.000    0.000    0.000    0.000    0.000    0.000 
#    0.000    0.000    0.000    0.000    0.000    0.000 
#
# Total GULP energy -67041.194469 kJ/mol
# GULP energy per Si atom -5586.766206 kJ/mol
# Density = 2.288048 g / cm^3
# Si number density = 22.932678 Si / 1000 Ang^3
#
#
#
# Elastic Constant Matrix: (Units=GPa)
#
#
# Indices 1 2 3 4 5 6 
#
# 1 111.4878 18.8163 5.9021 2.3206 0.0436 -14.2110
# 2 18.8163 51.5908 8.7697 -7.9626 6.8846 -0.9136
# 3 5.9021 8.7697 67.6899 -0.8308 9.3476 -1.3209
# 4 2.3206 -7.9626 -0.8308 50.8877 -8.9479 3.2250
# 5 0.0436 6.8846 9.3476 -8.9479 45.4071 8.4598
# 6 -14.2110 -0.9136 -1.3209 3.2250 8.4598 40.5403
#
#
#
# Elastic Compliance Matrix: (Units=1/GPa)
#
#
# Indices 1 2 3 4 5 6 
#
# 1 0.010105 -0.003734 -0.000299 -0.001336 -0.000320 0.003621
# 2 -0.003734 0.021884 -0.002195 0.003236 -0.002093 -0.000708
# 3 -0.000299 -0.002195 0.015539 -0.000708 -0.003206 0.001077
# 4 -0.001336 0.003236 -0.000708 0.021170 0.004391 -0.003019
# 5 -0.000320 -0.002093 -0.003206 0.004391 0.024950 -0.005820
# 6 0.003621 -0.000708 0.001077 -0.003019 -0.005820 0.027410
#
#
# Mechanical properties :
#
#
# Convention : Reuss Voigt Hill
#
# Bulk Modulus (GPa) = 28.51198 33.08272 30.79735
# Shear Modulus (GPa) = 34.43408 40.51906 37.47657
#
# Velocity S-wave (km/s) = 3.87916 4.20798 4.04691
# Velocity P-wave (km/s) = 5.70296 6.16983 5.94098
#
# Compressibility (1/GPa) = 0.03507297
#
# Stress axis : x y z
#
# Youngs Moduli (GPa) = 98.95914 45.69446 64.35535
#
# Poissons Ratio (x) = 0.17063 0.01923
# Poissons Ratio (y) = 0.36952 0.14124
# Poissons Ratio (z) = 0.02958 0.10029
#
# Static dielectric constant tensor:
#      x y z
#    x 2.217000 0.525080 -0.394110 
#    y 0.525080 2.511390 -0.436490 
#    z -0.394110 -0.436490 2.144860 
# 
# From -- ./inp_files/28694.got.cif
#   From: 2010.05.17/outbox.cif.g08.bks.cpg/sg2_15_cif.got.tgz:28694.got - 2010.06.03 11:33:40.
