data_PCOD9066995
_publ_section_title
;
Structure prediction by ZEFSAII (Michael W. Deem and Ramdas Pophale) SiO2 
 PCOD9066995
Probable space group: P -1
;
_chemical_formula_sum "Si O2"
_cell_formula_units_Z 15
_cell_length_a 12.475641
_cell_length_b 11.293009
_cell_length_c 9.626364
_cell_angle_alpha 66.525647
_cell_angle_beta 134.055446
_cell_angle_gamma 141.798812
_cell_volume 568.316146
_symmetry_space_group_name_H-M "P -1"
_symmetry_group_IT_number 2
_symmetry_cell_setting 'triclinic'
loop_
_space_group_symop_operation_xyz
x,y,z
-x,-y,-z
loop_
_atom_site_type_symbol
_atom_site_label
_atom_site_fract_x
_atom_site_fract_y
_atom_site_fract_z
Si Si1 0.310699 0.958815 0.554094
Si Si2 0.433537 0.590186 0.818734
Si Si3 0.838369 0.014490 0.875316
Si Si4 0.000000 0.500000 0.500000
Si Si5 0.177590 0.979853 0.711682
Si Si6 0.346172 0.351279 0.605490
Si Si7 0.185067 0.454202 0.108941
Si Si8 0.233807 0.755896 0.997273
O O1 0.718229 0.988413 0.641183
O O2 0.176416 0.950210 0.558269
O O3 0.210022 0.747439 0.558219
O O4 0.582139 0.136678 0.762737
O O5 0.645586 0.834397 0.893142
O O6 0.404157 0.516583 0.668121
O O7 0.196423 0.508005 0.680160
O O8 0.500000 0.500000 0.000000
O O9 0.000000 0.000000 0.000000
O O10 0.011247 0.241570 0.976502
O O11 0.295060 0.928426 0.895467
O O12 0.915066 0.813338 0.613823
O O13 0.304260 0.199786 0.741124
O O14 0.572716 0.452887 0.679497
O O15 0.036162 0.405117 0.127209
O O16 0.234213 0.617336 0.987683
#
# Coordination Sequence:
#
# PCOD9066995 Si02
#       8
#     2   2   2   1   2   2   2   2
#     4  12  27  49  77 116 157 212 262 329 401 471
#     4  12  28  51  80 115 155 213 264 325 410 479
#     4  12  28  49  79 114 165 203 266 334 401 481
#     4  12  28  46  80 114 164 204 264 328 390 480
#     4  11  26  47  78 111 155 205 267 323 385 472
#     4  11  25  47  74 110 149 203 266 319 392 465
#     4  11  26  48  74 115 150 207 262 320 396 469
#     4  11  27  49  77 110 159 207 263 325 395 467
#
# _framework density 26.393761999999999
#
# number of rings (size 3 to 8) (size 9 to 14) (size 15 to 20)
#    0.000    0.533    4.000    2.000    5.600    5.867 
#    0.000    0.000    0.000    0.000    0.000    0.000 
#    0.000    0.000    0.000    0.000    0.000    0.000 
#
# Total GULP energy -83762.600639 kJ/mol
# GULP energy per Si atom -5584.173376 kJ/mol
# Density = 2.633369 g / cm^3
# Si number density = 26.393762 Si / 1000 Ang^3
#
#
#
# Elastic Constant Matrix: (Units=GPa)
#
#
# Indices 1 2 3 4 5 6 
#
# 1 49.8033 20.0686 52.6753 -14.0186 18.8011 -9.7640
# 2 20.0686 209.3562 74.7308 -12.4384 -3.4690 -30.7892
# 3 52.6753 74.7308 192.3064 -12.0132 48.2556 2.9021
# 4 -14.0186 -12.4384 -12.0132 59.1850 6.0300 11.9675
# 5 18.8011 -3.4690 48.2556 6.0300 56.1320 0.8926
# 6 -9.7640 -30.7892 2.9021 11.9675 0.8926 41.7319
#
#
#
# Elastic Compliance Matrix: (Units=1/GPa)
#
#
# Indices 1 2 3 4 5 6 
#
# 1 0.032926 0.001065 -0.008018 0.005340 -0.004764 0.007617
# 2 0.001065 0.006974 -0.004003 -0.000618 0.003491 0.005775
# 3 -0.008018 -0.004003 0.010871 0.001353 -0.006960 -0.005825
# 4 0.005340 -0.000618 0.001353 0.019804 -0.005040 -0.004872
# 5 -0.004764 0.003491 -0.006960 -0.005040 0.026106 0.002832
# 6 0.007617 0.005775 -0.005825 -0.004872 0.002832 0.031747
#
#
# Mechanical properties :
#
#
# Convention : Reuss Voigt Hill
#
# Bulk Modulus (GPa) = 34.65449 82.93503 58.79476
# Shear Modulus (GPa) = 31.25735 51.67585 41.46660
#
# Velocity S-wave (km/s) = 3.44506 4.42960 3.96798
# Velocity P-wave (km/s) = 5.38357 7.59290 6.58160
#
# Compressibility (1/GPa) = 0.02885629
#
# Stress axis : x y z
#
# Youngs Moduli (GPa) = 30.37131 143.38928 91.98763
#
# Poissons Ratio (x) = -0.15265 0.73760
# Poissons Ratio (y) = -0.03233 0.36826
# Poissons Ratio (z) = 0.24353 0.57405
#
# Static dielectric constant tensor:
#      x y z
#    x 2.130750 0.086930 -0.054530 
#    y 0.086930 2.279300 -0.109840 
#    z -0.054530 -0.109840 2.096890 
# 
# From -- ./inp_files/532501.got.cif
#   From: 2010.05.17/outbox.cif.g08.bks.cpg/sg2_267_cif.got.tgz:532501.got - 2010.06.03 11:33:40.
