data_PCOD9066375
_publ_section_title
;
Structure prediction by ZEFSAII (Michael W. Deem and Ramdas Pophale) SiO2 
 PCOD9066375
Probable space group: P -1
;
_chemical_formula_sum "Si O2"
_cell_formula_units_Z 16
_cell_length_a 11.640191
_cell_length_b 5.683742
_cell_length_c 23.244348
_cell_angle_alpha 122.171478
_cell_angle_beta 31.264575
_cell_angle_gamma 111.507415
_cell_volume 661.726219
_symmetry_space_group_name_H-M "P -1"
_symmetry_group_IT_number 2
_symmetry_cell_setting 'triclinic'
loop_
_space_group_symop_operation_xyz
x,y,z
-x,-y,-z
loop_
_atom_site_type_symbol
_atom_site_label
_atom_site_fract_x
_atom_site_fract_y
_atom_site_fract_z
Si Si1 0.215615 0.346120 0.214911
Si Si2 0.044723 0.305570 0.899557
Si Si3 0.026019 0.268405 0.174623
Si Si4 0.939501 0.932880 0.451945
Si Si5 0.374094 0.397149 0.953476
Si Si6 0.660649 0.836343 0.738383
Si Si7 0.474523 0.638248 0.345053
Si Si8 0.437291 0.343779 0.564776
O O1 0.096067 0.177723 0.198447
O O2 0.405248 0.472583 0.116051
O O3 0.343211 0.191605 0.194970
O O4 0.033644 0.607631 0.352995
O O5 0.266052 0.361927 0.780230
O O6 0.071932 0.967830 0.849400
O O7 0.000000 0.500000 0.000000
O O8 0.815320 0.397809 0.974342
O O9 0.832600 0.548891 0.299823
O O10 0.242143 0.321259 0.055066
O O11 0.682310 0.055837 0.561511
O O12 0.000000 0.000000 0.500000
O O13 0.092514 0.109198 0.373456
O O14 0.472010 0.110298 0.838422
O O15 0.612918 0.572755 0.689011
O O16 0.455084 0.558984 0.409805
O O17 0.500000 0.500000 0.500000
O O18 0.500000 0.000000 0.500000
#
# Coordination Sequence:
#
# PCOD9066375 Si02
#       8
#     2   2   2   2   2   2   2   2
#     4  11  25  47  74 108 151 192 259 326 388 476
#     4  12  28  47  75 111 158 205 263 323 394 483
#     4  12  27  47  77 107 154 208 256 325 400 467
#     4  11  25  45  75 112 150 194 257 324 394 472
#     4  11  25  48  71 110 144 195 262 315 397 462
#     4  11  26  45  76 112 143 199 251 328 395 463
#     4  12  25  49  77 111 156 203 263 323 403 473
#     4  12  29  51  76 116 162 217 267 327 400 485
#
# _framework density 24.179181
#
# number of rings (size 3 to 8) (size 9 to 14) (size 15 to 20)
#    0.000    0.500    2.500    4.500    5.250    6.000 
#    0.000    0.000    0.000    0.000    0.000    0.000 
#    0.000    0.000    0.000    0.000    0.000    0.000 
#
# Total GULP energy -89580.931590 kJ/mol
# GULP energy per Si atom -5598.808224 kJ/mol
# Density = 2.412415 g / cm^3
# Si number density = 24.179181 Si / 1000 Ang^3
#
#
#
# Elastic Constant Matrix: (Units=GPa)
#
#
# Indices 1 2 3 4 5 6 
#
# 1 110.9574 18.5579 31.5024 8.5250 21.1198 -2.8853
# 2 18.5579 88.3852 46.7000 7.9760 12.2298 -2.5177
# 3 31.5024 46.7000 138.1248 12.2012 -6.3595 3.0562
# 4 8.5250 7.9760 12.2012 39.5611 -18.3927 3.2396
# 5 21.1198 12.2298 -6.3595 -18.3927 37.8883 2.7700
# 6 -2.8853 -2.5177 3.0562 3.2396 2.7700 25.7365
#
#
#
# Elastic Compliance Matrix: (Units=1/GPa)
#
#
# Indices 1 2 3 4 5 6 
#
# 1 0.012879 0.001773 -0.003484 -0.008329 -0.012705 0.004447
# 2 0.001773 0.016439 -0.005923 -0.007489 -0.011265 0.004665
# 3 -0.003484 -0.005923 0.010226 0.002264 0.006905 -0.003213
# 4 -0.008329 -0.007489 0.002264 0.042020 0.028592 -0.010302
# 5 -0.012705 -0.011265 0.006905 0.028592 0.053076 -0.012658
# 6 0.004447 0.004665 -0.003213 -0.010302 -0.012658 0.042851
#
#
# Mechanical properties :
#
#
# Convention : Reuss Voigt Hill
#
# Bulk Modulus (GPa) = 41.19351 58.99866 50.09609
# Shear Modulus (GPa) = 24.89412 36.68431 30.78921
#
# Velocity S-wave (km/s) = 3.21217 3.89933 3.57231
# Velocity P-wave (km/s) = 5.55258 6.68780 6.14645
#
# Compressibility (1/GPa) = 0.02427567
#
# Stress axis : x y z
#
# Youngs Moduli (GPa) = 77.64615 60.83195 97.79036
#
# Poissons Ratio (x) = -0.10786 0.34074
# Poissons Ratio (y) = -0.13768 0.57918
# Poissons Ratio (z) = 0.27055 0.36029
#
# Static dielectric constant tensor:
#      x y z
#    x 2.026510 -0.036770 0.060680 
#    y -0.036770 1.948330 0.000550 
#    z 0.060680 0.000550 1.896920 
# 
# From -- ./inp_files/95089.got.cif
#   From: 2010.05.17/outbox.cif.g08.bks.cpg/sg2_48_cif.got.tgz:95089.got - 2010.06.03 11:33:40.
