data_PCOD9066566
_publ_section_title
;
Structure prediction by ZEFSAII (Michael W. Deem and Ramdas Pophale) SiO2 
 PCOD9066566
Probable space group: P -1
;
_chemical_formula_sum "Si O2"
_cell_formula_units_Z 15
_cell_length_a 13.973020
_cell_length_b 14.349847
_cell_length_c 13.789973
_cell_angle_alpha 160.179117
_cell_angle_beta 138.516529
_cell_angle_gamma 50.849376
_cell_volume 586.949138
_symmetry_space_group_name_H-M "P -1"
_symmetry_group_IT_number 2
_symmetry_cell_setting 'triclinic'
loop_
_space_group_symop_operation_xyz
x,y,z
-x,-y,-z
loop_
_atom_site_type_symbol
_atom_site_label
_atom_site_fract_x
_atom_site_fract_y
_atom_site_fract_z
Si Si1 0.983091 0.232225 0.135766
Si Si2 0.500000 0.500000 0.000000
Si Si3 0.848447 0.751416 0.108494
Si Si4 0.694539 0.424437 0.248870
Si Si5 0.710249 0.146490 0.492267
Si Si6 0.217523 0.589029 0.986079
Si Si7 0.085734 0.959928 0.760311
Si Si8 0.616081 0.881956 0.761408
O O1 0.123145 0.516557 0.551918
O O2 0.832251 0.278135 0.020198
O O3 0.038694 0.118388 0.968862
O O4 0.000000 0.000000 0.000000
O O5 0.369657 0.462034 0.781842
O O6 0.367076 0.505068 0.989288
O O7 0.859337 0.816009 0.066575
O O8 0.723122 0.850241 0.169607
O O9 0.827944 0.423922 0.799741
O O10 0.000000 0.000000 0.500000
O O11 0.647250 0.594205 0.467798
O O12 0.616253 0.082077 0.863951
O O13 0.546127 0.170672 0.366461
O O14 0.742812 0.194120 0.678907
O O15 0.064566 0.324894 0.644567
O O16 0.243561 0.916988 0.871249
#
# Coordination Sequence:
#
# PCOD9066566 Si02
#       8
#     2   1   2   2   2   2   2   2
#     4  11  26  47  77 110 153 208 260 322 386 468
#     4  12  28  44  76 112 152 200 266 314 394 456
#     4  12  26  46  79 116 150 202 258 319 388 465
#     4  11  25  46  71 108 152 203 253 314 386 456
#     4  12  27  47  79 113 158 199 257 326 387 453
#     4  12  26  49  77 113 154 208 261 323 387 473
#     4  11  26  46  78 109 156 202 261 313 395 465
#     4  11  25  48  73 108 155 200 249 322 383 462
#
# _framework density 25.555878
#
# number of rings (size 3 to 8) (size 9 to 14) (size 15 to 20)
#    0.000    0.533    4.000    2.800    5.600    3.733 
#    0.000    0.000    0.000    0.000    0.000    0.000 
#    0.000    0.000    0.000    0.000    0.000    0.000 
#
# Total GULP energy -83639.147327 kJ/mol
# GULP energy per Si atom -5575.943155 kJ/mol
# Density = 2.549771 g / cm^3
# Si number density = 25.555878 Si / 1000 Ang^3
#
#
#
# Elastic Constant Matrix: (Units=GPa)
#
#
# Indices 1 2 3 4 5 6 
#
# 1 114.8305 45.0094 19.5980 -10.3486 4.2655 -9.5475
# 2 45.0094 87.9714 37.7616 -7.7228 -4.0976 -7.5320
# 3 19.5980 37.7616 72.4561 6.9948 17.3167 -7.5035
# 4 -10.3486 -7.7228 6.9948 45.7086 -6.9079 8.4265
# 5 4.2655 -4.0976 17.3167 -6.9079 31.2801 -13.7913
# 6 -9.5475 -7.5320 -7.5035 8.4265 -13.7913 67.8323
#
#
#
# Elastic Compliance Matrix: (Units=1/GPa)
#
#
# Indices 1 2 3 4 5 6 
#
# 1 0.011140 -0.005899 0.000521 0.001044 -0.002174 0.000399
# 2 -0.005899 0.021191 -0.012877 0.005792 0.012868 0.001995
# 3 0.000521 -0.012877 0.025424 -0.008483 -0.018234 -0.001198
# 4 0.001044 0.005792 -0.008483 0.026217 0.010547 -0.001261
# 5 -0.002174 0.012868 -0.018234 0.010547 0.049874 0.007936
# 6 0.000399 0.001995 -0.001198 -0.001261 0.007936 0.016658
#
#
# Mechanical properties :
#
#
# Convention : Reuss Voigt Hill
#
# Bulk Modulus (GPa) = 47.06544 53.33291 50.19917
# Shear Modulus (GPa) = 25.76080 40.49014 33.12547
#
# Velocity S-wave (km/s) = 3.17837 3.98474 3.60418
# Velocity P-wave (km/s) = 5.65032 6.48732 6.08323
#
# Compressibility (1/GPa) = 0.02124701
#
# Stress axis : x y z
#
# Youngs Moduli (GPa) = 89.77026 47.18936 39.33279
#
# Poissons Ratio (x) = 0.27835 -0.02050
# Poissons Ratio (y) = 0.52952 0.50647
# Poissons Ratio (z) = -0.04680 0.60764
#
# Static dielectric constant tensor:
#      x y z
#    x 2.591940 0.012660 -0.074930 
#    y 0.012660 2.175420 0.009730 
#    z -0.074930 0.009730 2.040540 
# 
# From -- ./inp_files/533993.got.cif
#   From: 2010.05.17/outbox.cif.g08.bks.cpg/sg2_267_cif.got.tgz:533993.got - 2010.06.03 11:33:40.
