data_PCOD9066921
_publ_section_title
;
Structure prediction by ZEFSAII (Michael W. Deem and Ramdas Pophale) SiO2 
 PCOD9066921
Probable space group: P -1
;
_chemical_formula_sum "Si O2"
_cell_formula_units_Z 16
_cell_length_a 8.696287
_cell_length_b 11.994289
_cell_length_c 15.358019
_cell_angle_alpha 63.220383
_cell_angle_beta 59.261691
_cell_angle_gamma 113.470719
_cell_volume 705.009134
_symmetry_space_group_name_H-M "P -1"
_symmetry_group_IT_number 2
_symmetry_cell_setting 'triclinic'
loop_
_space_group_symop_operation_xyz
x,y,z
-x,-y,-z
loop_
_atom_site_type_symbol
_atom_site_label
_atom_site_fract_x
_atom_site_fract_y
_atom_site_fract_z
Si Si1 0.241053 0.469645 0.319315
Si Si2 0.354816 0.699262 0.857802
Si Si3 0.217569 0.426966 0.133739
Si Si4 0.839384 0.005508 0.300668
Si Si5 0.560705 0.096324 0.693380
Si Si6 0.683837 0.904789 0.963858
Si Si7 0.826107 0.199512 0.929552
Si Si8 0.488784 0.635493 0.670665
O O1 0.174546 0.411050 0.255139
O O2 0.534789 0.729431 0.141347
O O3 0.343363 0.401323 0.360142
O O4 0.923506 0.335907 0.500506
O O5 0.512240 0.703088 0.737938
O O6 0.515734 0.925680 0.735330
O O7 0.314443 0.609661 0.993722
O O8 0.000000 0.500000 0.000000
O O9 0.937570 0.194207 0.248852
O O10 0.500000 0.500000 0.000000
O O11 0.629673 0.921942 0.308408
O O12 0.654677 0.823471 0.490534
O O13 0.122675 0.078269 0.160441
O O14 0.402857 0.000414 0.866387
O O15 0.383828 0.810473 0.047466
O O16 0.902639 0.139403 0.855695
O O17 0.133012 0.416526 0.816949
#
# Coordination Sequence:
#
# PCOD9066921 Si02
#       8
#     2   2   2   2   2   2   2   2
#     4  12  26  42  68 100 135 176 218 271 326 392
#     4  12  23  41  69  98 135 177 219 266 330 391
#     4  12  23  41  69  98 135 177 219 266 330 391
#     4  12  26  43  67 100 134 176 221 268 329 391
#     4  12  26  42  68 100 135 176 218 271 326 392
#     4  11  25  47  72  96 128 171 220 278 334 389
#     4  11  25  47  72  96 128 171 220 278 334 389
#     4  12  26  43  67 100 134 176 221 268 329 391
#
# _framework density 22.694739999999999
#
# number of rings (size 3 to 8) (size 9 to 14) (size 15 to 20)
#    0.000    0.250    5.000    3.750    3.500    5.000 
#    0.000    0.000    0.000    0.000    0.000    0.000 
#    0.000    0.000    0.000    0.000    0.000    0.000 
#
# Total GULP energy -89487.212123 kJ/mol
# GULP energy per Si atom -5592.950758 kJ/mol
# Density = 2.264309 g / cm^3
# Si number density = 22.694740 Si / 1000 Ang^3
#
#
#
# Elastic Constant Matrix: (Units=GPa)
#
#
# Indices 1 2 3 4 5 6 
#
# 1 103.1630 -7.2032 9.4756 4.0723 16.4296 -8.4965
# 2 -7.2032 90.1868 -7.0110 -12.2690 -4.1337 -17.2664
# 3 9.4756 -7.0110 109.3554 -3.0123 10.7287 -8.5434
# 4 4.0723 -12.2690 -3.0123 -1.4843 -3.8939 2.6921
# 5 16.4296 -4.1337 10.7287 -3.8939 42.0660 -2.5205
# 6 -8.4965 -17.2664 -8.5434 2.6921 -2.5205 17.7058
#
#
#
# Elastic Compliance Matrix: (Units=1/GPa)
#
#
# Indices 1 2 3 4 5 6 
#
# 1 0.010275 0.003812 0.000439 0.013248 -0.002132 0.006542
# 2 0.003812 0.009822 0.000942 -0.034582 -0.002964 0.016698
# 3 0.000439 0.000942 0.009758 -0.007124 -0.002837 0.006518
# 4 0.013248 -0.034582 -0.007124 -0.252512 -0.029930 0.003328
# 5 -0.002132 -0.002964 -0.002837 -0.029930 0.022414 0.002459
# 6 0.006542 0.016698 0.006518 0.003328 0.002459 0.078891
#
#
# Mechanical properties :
#
#
# Convention : Reuss Voigt Hill
#
# Bulk Modulus (GPa) = 24.84999 32.58087 28.71543
# Shear Modulus (GPa) = -42.25648 32.15377 -5.05135
#
# Velocity S-wave (km/s) = -4.31971 3.76812 -1.49352
# Velocity P-wave (km/s) = 3.72914 5.77225 3.11548
#
# Compressibility (1/GPa) = 0.04024147
#
# Stress axis : x y z
#
# Youngs Moduli (GPa) = 97.32771 101.80953 102.47924
#
# Poissons Ratio (x) = -0.38807 -0.04502
# Poissons Ratio (y) = -0.37099 -0.09656
# Poissons Ratio (z) = -0.04275 -0.09593
#
# Static dielectric constant tensor:
#      x y z
#    x 2.017490 0.086400 0.099450 
#    y 0.086400 1.984510 0.045280 
#    z 0.099450 0.045280 1.866500 
# 
# From -- ./inp_files/223674.got.cif
#   From: 2010.05.17/outbox.cif.g08.bks.cpg/sg2_112_cif.got.tgz:223674.got - 2010.06.03 11:33:40.
