data_PCOD9066832
_publ_section_title
;
Structure prediction by ZEFSAII (Michael W. Deem and Ramdas Pophale) SiO2 
 PCOD9066832
Probable space group: P -1
;
_chemical_formula_sum "Si O2"
_cell_formula_units_Z 14
_cell_length_a 11.054285
_cell_length_b 21.480568
_cell_length_c 12.539307
_cell_angle_alpha 158.801616
_cell_angle_beta 35.549048
_cell_angle_gamma 151.041065
_cell_volume 521.258284
_symmetry_space_group_name_H-M "P -1"
_symmetry_group_IT_number 2
_symmetry_cell_setting 'triclinic'
loop_
_space_group_symop_operation_xyz
x,y,z
-x,-y,-z
loop_
_atom_site_type_symbol
_atom_site_label
_atom_site_fract_x
_atom_site_fract_y
_atom_site_fract_z
Si Si1 0.159386 0.000844 0.757370
Si Si2 0.756256 0.311714 0.259540
Si Si3 0.475558 0.116051 0.363268
Si Si4 0.787525 0.685129 0.106960
Si Si5 0.005498 0.709143 0.220591
Si Si6 0.616865 0.415023 0.198918
Si Si7 0.050404 0.749851 0.642975
O O1 0.403800 0.198705 0.951090
O O2 0.174266 0.921721 0.505455
O O3 0.061588 0.814388 0.614897
O O4 0.972233 0.076020 0.004716
O O5 0.590444 0.247336 0.381489
O O6 0.841559 0.527186 0.486570
O O7 0.009043 0.318297 0.117637
O O8 0.604951 0.114311 0.974934
O O9 0.241318 0.123687 0.576144
O O10 0.688249 0.214905 0.456967
O O11 0.887281 0.684495 0.151314
O O12 0.500000 0.500000 0.000000
O O13 0.764632 0.576981 0.257638
O O14 0.500000 0.500000 0.500000
O O15 0.821320 0.380502 0.047793
#
# Coordination Sequence:
#
# PCOD9066832 Si02
#       7
#     2   2   2   2   2   2   2
#     4  11  27  47  79 120 160 210 259 328 401 471
#     4  11  27  50  77 112 154 206 267 324 391 474
#     4  11  27  49  81 111 153 211 263 328 398 466
#     4  12  28  50  79 115 157 207 269 332 397 469
#     4  11  29  49  75 117 159 205 267 325 400 475
#     4  11  26  49  83 113 158 211 261 324 399 472
#     4  11  25  46  81 115 158 202 268 318 400 475
#
# _framework density 26.858087000000001
#
# number of rings (size 3 to 8) (size 9 to 14) (size 15 to 20)
#    0.000    0.857    1.429    3.000   14.000    0.000 
#    2.571    0.714    0.000    0.000    0.000    0.000 
#    0.000    0.000    0.000    0.000    0.000    0.000 
#
# Total GULP energy -78533.687844 kJ/mol
# GULP energy per Si atom -5609.549132 kJ/mol
# Density = 2.679696 g / cm^3
# Si number density = 26.858087 Si / 1000 Ang^3
#
#
#
# Elastic Constant Matrix: (Units=GPa)
#
#
# Indices 1 2 3 4 5 6 
#
# 1 119.2602 38.7308 66.0080 15.4753 -12.8206 -1.1422
# 2 38.7308 133.1597 44.7303 17.6541 -4.6286 -0.2357
# 3 66.0080 44.7303 164.6057 6.3073 10.3710 -2.6217
# 4 15.4753 17.6541 6.3073 61.2679 11.7987 -5.9831
# 5 -12.8206 -4.6286 10.3710 11.7987 39.4679 0.1124
# 6 -1.1422 -0.2357 -2.6217 -5.9831 0.1124 56.0452
#
#
#
# Elastic Compliance Matrix: (Units=1/GPa)
#
#
# Indices 1 2 3 4 5 6 
#
# 1 0.012740 -0.001323 -0.005019 -0.003584 0.006375 -0.000376
# 2 -0.001323 0.008927 -0.001924 -0.002430 0.001850 -0.000343
# 3 -0.005019 -0.001924 0.008846 0.001875 -0.004743 0.000513
# 4 -0.003584 -0.002430 0.001875 0.019432 -0.007757 0.002095
# 5 0.006375 0.001850 -0.004743 -0.007757 0.031193 -0.000975
# 6 -0.000376 -0.000343 0.000513 0.002095 -0.000975 0.018083
#
#
# Mechanical properties :
#
#
# Convention : Reuss Voigt Hill
#
# Bulk Modulus (GPa) = 71.53629 79.55153 75.54391
# Shear Modulus (GPa) = 41.52352 49.19329 45.35841
#
# Velocity S-wave (km/s) = 3.93623 4.28436 4.11398
# Velocity P-wave (km/s) = 6.88123 7.35920 7.12422
#
# Compressibility (1/GPa) = 0.01397892
#
# Stress axis : x y z
#
# Youngs Moduli (GPa) = 78.49523 112.02226 113.04663
#
# Poissons Ratio (x) = 0.14824 0.56742
# Poissons Ratio (y) = 0.10387 0.21751
# Poissons Ratio (z) = 0.39400 0.21554
#
# Static dielectric constant tensor:
#      x y z
#    x 2.054590 0.016070 0.008980 
#    y 0.016070 2.113480 0.029330 
#    z 0.008980 0.029330 2.205510 
# 
# From -- ./inp_files/524428.got.cif
#   From: 2010.05.17/outbox.cif.g08.bks.cpg/sg2_263_cif.got.tgz:524428.got - 2010.06.03 11:33:40.
