data_PCOD9066906
_publ_section_title
;
Structure prediction by ZEFSAII (Michael W. Deem and Ramdas Pophale) SiO2 
 PCOD9066906
Probable space group: P -1
;
_chemical_formula_sum "Si O2"
_cell_formula_units_Z 12
_cell_length_a 17.823027
_cell_length_b 6.045547
_cell_length_c 8.950524
_cell_angle_alpha 91.480701
_cell_angle_beta 38.347525
_cell_angle_gamma 67.918376
_cell_volume 460.208026
_symmetry_space_group_name_H-M "P -1"
_symmetry_group_IT_number 2
_symmetry_cell_setting 'triclinic'
loop_
_space_group_symop_operation_xyz
x,y,z
-x,-y,-z
loop_
_atom_site_type_symbol
_atom_site_label
_atom_site_fract_x
_atom_site_fract_y
_atom_site_fract_z
Si Si1 0.543800 0.534790 0.770481
Si Si2 0.035456 0.105708 0.593497
Si Si3 0.694758 0.847205 0.858145
Si Si4 0.155468 0.639400 0.634781
Si Si5 0.455401 0.288921 0.675332
Si Si6 0.762796 0.639940 0.188845
O O1 0.730161 0.305802 0.475814
O O2 0.458857 0.498617 0.774651
O O3 0.500000 0.500000 0.000000
O O4 0.480846 0.856616 0.884719
O O5 0.192087 0.069439 0.318140
O O6 0.036090 0.928734 0.728751
O O7 0.000000 0.000000 0.500000
O O8 0.909050 0.439145 0.845413
O O9 0.763341 0.603034 0.624017
O O10 0.658543 0.748057 0.059862
O O11 0.154556 0.482769 0.779885
O O12 0.362473 0.408359 0.665986
O O13 0.635698 0.989415 0.383404
#
# Coordination Sequence:
#
# PCOD9066906 Si02
#       6
#     2   2   2   2   2   2
#     4  12  21  41  74 108 137 181 239 279 342 412
#     4  12  28  50  70 102 140 186 234 285 353 416
#     4  12  23  45  76 100 138 187 231 284 344 414
#     4  12  25  44  74 105 140 184 231 290 342 413
#     4  11  25  47  72 105 141 185 230 288 340 413
#     4  11  26  48  67 106 145 179 232 287 352 403
#
# _framework density 26.075168000000001
#
# number of rings (size 3 to 8) (size 9 to 14) (size 15 to 20)
#    0.000    0.333    5.000    4.000    0.000    4.000 
#    9.000    0.000    0.000    0.000    0.000    0.000 
#    0.000    0.000    0.000    0.000    0.000    0.000 
#
# Total GULP energy -66905.779242 kJ/mol
# GULP energy per Si atom -5575.481603 kJ/mol
# Density = 2.601582 g / cm^3
# Si number density = 26.075168 Si / 1000 Ang^3
#
#
#
# Elastic Constant Matrix: (Units=GPa)
#
#
# Indices 1 2 3 4 5 6 
#
# 1 95.2015 37.2716 24.5568 7.3137 3.2103 -4.7259
# 2 37.2716 62.9120 32.2152 6.8029 6.6653 -14.1400
# 3 24.5568 32.2152 120.5053 22.0887 8.5413 3.1137
# 4 7.3137 6.8029 22.0887 43.8259 7.7593 5.4857
# 5 3.2103 6.6653 8.5413 7.7593 36.3113 4.1378
# 6 -4.7259 -14.1400 3.1137 5.4857 4.1378 45.1887
#
#
#
# Elastic Compliance Matrix: (Units=1/GPa)
#
#
# Indices 1 2 3 4 5 6 
#
# 1 0.013808 -0.008136 -0.000519 -0.000770 0.000677 -0.001034
# 2 -0.008136 0.025476 -0.005026 -0.000412 -0.003581 0.007845
# 3 -0.000519 -0.005026 0.010589 -0.004168 -0.000425 -0.001812
# 4 -0.000770 -0.000412 -0.004168 0.026188 -0.004162 -0.002720
# 5 0.000677 -0.003581 -0.000425 -0.004162 0.029493 -0.003216
# 6 -0.001034 0.007845 -0.001812 -0.002720 -0.003216 0.025226
#
#
# Mechanical properties :
#
#
# Convention : Reuss Voigt Hill
#
# Bulk Modulus (GPa) = 44.42225 51.85621 48.13923
# Shear Modulus (GPa) = 30.18514 37.37021 33.77768
#
# Velocity S-wave (km/s) = 3.40607 3.78983 3.60307
# Velocity P-wave (km/s) = 5.70453 6.25147 5.98425
#
# Compressibility (1/GPa) = 0.02251124
#
# Stress axis : x y z
#
# Youngs Moduli (GPa) = 72.42176 39.25270 94.43986
#
# Poissons Ratio (x) = 0.31934 0.04901
# Poissons Ratio (y) = 0.58920 0.47467
# Poissons Ratio (z) = 0.03758 0.19729
#
# Static dielectric constant tensor:
#      x y z
#    x 2.140280 -0.114790 0.003230 
#    y -0.114790 2.129210 -0.066350 
#    z 0.003230 -0.066350 2.127440 
# 
# From -- ./inp_files/323634.got.cif
#   From: 2010.05.17/outbox.cif.g08.bks.cpg/sg2_162_cif.got.tgz:323634.got - 2010.06.03 11:33:40.
