data_PCOD9066818
_publ_section_title
;
Structure prediction by ZEFSAII (Michael W. Deem and Ramdas Pophale) SiO2 
 PCOD9066818
Probable space group: P -1
;
_chemical_formula_sum "Si O2"
_cell_formula_units_Z 14
_cell_length_a 9.405198
_cell_length_b 22.884588
_cell_length_c 5.667426
_cell_angle_alpha 73.293791
_cell_angle_beta 85.756077
_cell_angle_gamma 143.922657
_cell_volume 577.682416
_symmetry_space_group_name_H-M "P -1"
_symmetry_group_IT_number 2
_symmetry_cell_setting 'triclinic'
loop_
_space_group_symop_operation_xyz
x,y,z
-x,-y,-z
loop_
_atom_site_type_symbol
_atom_site_label
_atom_site_fract_x
_atom_site_fract_y
_atom_site_fract_z
Si Si1 0.304940 0.794748 0.440791
Si Si2 0.190431 0.628699 0.887959
Si Si3 0.020210 0.360164 0.737565
Si Si4 0.415156 0.420021 0.903093
Si Si5 0.674298 0.066010 0.652528
Si Si6 0.950176 0.016660 0.234767
Si Si7 0.776769 0.788300 0.737759
O O1 0.158361 0.677902 0.680373
O O2 0.173598 0.811176 0.496090
O O3 0.267255 0.773516 0.191560
O O4 0.618971 0.912533 0.374341
O O5 0.523135 0.733300 0.717829
O O6 0.000000 0.500000 0.000000
O O7 0.082356 0.615106 0.164317
O O8 0.147488 0.352480 0.885406
O O9 0.302475 0.478555 0.412243
O O10 0.500000 0.500000 0.000000
O O11 0.345650 0.325069 0.089327
O O12 0.922774 0.107332 0.560302
O O13 0.500000 0.000000 0.500000
O O14 0.500000 0.000000 0.000000
O O15 0.143755 0.148939 0.097956
O O16 0.000000 0.000000 0.500000
O O17 0.000000 0.000000 0.000000
#
# Coordination Sequence:
#
# PCOD9066818 Si02
#       7
#     2   2   2   2   2   2   2
#     4  12  27  46  78 108 162 201 266 337 406 475
#     4  12  27  48  77 116 159 210 273 325 411 485
#     4  11  25  46  79 110 160 206 265 334 403 477
#     4  11  25  51  77 116 156 209 267 337 406 481
#     4  12  30  51  81 119 159 210 276 333 409 486
#     4  12  28  50  75 115 158 211 264 329 404 480
#     4  12  26  50  80 114 161 213 271 335 412 488
#
# _framework density 24.234767999999999
#
# number of rings (size 3 to 8) (size 9 to 14) (size 15 to 20)
#    0.000    0.286    2.857    5.143    6.000    4.571 
#    7.714    0.000    0.000    0.000    0.000    0.000 
#    0.000    0.000    0.000    0.000    0.000    0.000 
#
# Total GULP energy -78233.156220 kJ/mol
# GULP energy per Si atom -5588.082587 kJ/mol
# Density = 2.417961 g / cm^3
# Si number density = 24.234768 Si / 1000 Ang^3
#
#
#
# Elastic Constant Matrix: (Units=GPa)
#
#
# Indices 1 2 3 4 5 6 
#
# 1 152.9726 52.3080 42.6092 8.8066 -20.1900 -4.2965
# 2 52.3080 149.0467 19.0238 18.3908 6.0304 -15.6565
# 3 42.6092 19.0238 118.5658 8.4445 -16.6134 -2.9533
# 4 8.8066 18.3908 8.4445 32.8181 -11.8504 -2.6205
# 5 -20.1900 6.0304 -16.6134 -11.8504 43.3608 -1.9552
# 6 -4.2965 -15.6565 -2.9533 -2.6205 -1.9552 65.0721
#
#
#
# Elastic Compliance Matrix: (Units=1/GPa)
#
#
# Indices 1 2 3 4 5 6 
#
# 1 0.008644 -0.003107 -0.002148 0.001417 0.004017 -0.000097
# 2 -0.003107 0.008868 -0.000480 -0.005433 -0.004278 0.001559
# 3 -0.002148 -0.000480 0.009703 -0.000692 0.002606 0.000233
# 4 0.001417 -0.005433 -0.000692 0.037486 0.011423 0.000608
# 5 0.004017 -0.004278 0.002606 0.011423 0.029680 0.000706
# 6 -0.000097 0.001559 0.000233 0.000608 0.000706 0.015793
#
#
# Mechanical properties :
#
#
# Convention : Reuss Voigt Hill
#
# Bulk Modulus (GPa) = 63.51296 72.05190 67.78243
# Shear Modulus (GPa) = 39.40338 48.69314 44.04826
#
# Velocity S-wave (km/s) = 4.03662 4.48730 4.26792
# Velocity P-wave (km/s) = 6.92748 7.52617 7.23302
#
# Compressibility (1/GPa) = 0.01574482
#
# Stress axis : x y z
#
# Youngs Moduli (GPa) = 115.69105 112.76286 103.05649
#
# Poissons Ratio (x) = 0.35033 0.22140
# Poissons Ratio (y) = 0.35943 0.04948
# Poissons Ratio (z) = 0.24854 0.05414
#
# Static dielectric constant tensor:
#      x y z
#    x 1.943520 -0.046160 0.085710 
#    y -0.046160 2.167470 -0.067800 
#    z 0.085710 -0.067800 2.186400 
# 
# From -- ./inp_files/52906.got.cif
#   From: 2010.05.17/outbox.cif.g08.bks.cpg/sg2_27_cif.got.tgz:52906.got - 2010.06.03 11:33:40.
