data_PCOD9066416
_publ_section_title
;
Structure prediction by ZEFSAII (Michael W. Deem and Ramdas Pophale) SiO2 
 PCOD9066416
Probable space group: P -1
;
_chemical_formula_sum "Si O2"
_cell_formula_units_Z 12
_cell_length_a 9.576385
_cell_length_b 9.090639
_cell_length_c 9.489085
_cell_angle_alpha 131.435307
_cell_angle_beta 107.318698
_cell_angle_gamma 102.503255
_cell_volume 482.578905
_symmetry_space_group_name_H-M "P -1"
_symmetry_group_IT_number 2
_symmetry_cell_setting 'triclinic'
loop_
_space_group_symop_operation_xyz
x,y,z
-x,-y,-z
loop_
_atom_site_type_symbol
_atom_site_label
_atom_site_fract_x
_atom_site_fract_y
_atom_site_fract_z
Si Si1 0.032642 0.667118 0.912834
Si Si2 0.442555 0.121866 0.667449
Si Si3 0.959194 0.181848 0.670808
Si Si4 0.559113 0.529722 0.323446
Si Si5 0.645316 0.197148 0.061585
Si Si6 0.789441 0.769201 0.808359
O O1 0.187783 0.810869 0.932097
O O2 0.060007 0.459598 0.832159
O O3 0.841116 0.578738 0.733994
O O4 0.045285 0.803042 0.149175
O O5 0.457378 0.341579 0.732975
O O6 0.500000 0.000000 0.500000
O O7 0.237223 0.931975 0.517417
O O8 0.551357 0.174508 0.872796
O O9 0.000000 0.000000 0.500000
O O10 0.690242 0.447533 0.289527
O O11 0.661662 0.712704 0.600019
O O12 0.356426 0.305032 0.158418
O O13 0.500000 0.000000 0.000000
O O14 0.000000 0.000000 0.000000
#
# Coordination Sequence:
#
# PCOD9066416 Si02
#       6
#     2   2   2   2   2   2
#     4  11  25  47  73 113 153 195 257 321 380 461
#     4  12  25  48  77 105 152 198 253 315 383 456
#     4  11  25  45  77 113 148 199 258 315 389 455
#     4  11  27  47  76 111 151 201 255 316 386 458
#     4  12  28  48  75 112 155 201 254 315 390 457
#     4  11  25  46  78 110 154 198 257 321 387 458
#
# _framework density 24.866399999999999
#
# number of rings (size 3 to 8) (size 9 to 14) (size 15 to 20)
#    0.000    0.667    1.667    4.500   11.667    0.667 
#    3.000    0.000    0.000    0.000    0.000    0.000 
#    0.000    0.000    0.000    0.000    0.000    0.000 
#
# Total GULP energy -66969.767930 kJ/mol
# GULP energy per Si atom -5580.813994 kJ/mol
# Density = 2.480980 g / cm^3
# Si number density = 24.866400 Si / 1000 Ang^3
#
#
#
# Elastic Constant Matrix: (Units=GPa)
#
#
# Indices 1 2 3 4 5 6 
#
# 1 167.2057 13.9702 30.1440 7.6660 -7.4329 -1.9594
# 2 13.9702 106.3672 20.6486 -0.3653 -3.5066 7.4802
# 3 30.1440 20.6486 65.3870 3.0539 -15.1369 3.6009
# 4 7.6660 -0.3653 3.0539 34.9466 -10.6825 7.6570
# 5 -7.4329 -3.5066 -15.1369 -10.6825 54.0067 4.8194
# 6 -1.9594 7.4802 3.6009 7.6570 4.8194 45.8949
#
#
#
# Elastic Compliance Matrix: (Units=1/GPa)
#
#
# Indices 1 2 3 4 5 6 
#
# 1 0.006613 -0.000365 -0.002985 -0.001479 -0.000319 0.000856
# 2 -0.000365 0.010142 -0.002967 0.000816 0.000079 -0.001580
# 3 -0.002985 -0.002967 0.018824 0.000905 0.005012 -0.001798
# 4 -0.001479 0.000816 0.000905 0.032445 0.007094 -0.006425
# 5 -0.000319 0.000079 0.005012 0.007094 0.021631 -0.003875
# 6 0.000856 -0.001580 -0.001798 -0.006425 -0.003875 0.023703
#
#
# Mechanical properties :
#
#
# Convention : Reuss Voigt Hill
#
# Bulk Modulus (GPa) = 43.58509 52.05396 47.81953
# Shear Modulus (GPa) = 37.41365 45.24944 41.33154
#
# Velocity S-wave (km/s) = 3.88311 4.27042 4.08136
# Velocity P-wave (km/s) = 6.13763 6.73010 6.44068
#
# Compressibility (1/GPa) = 0.02294362
#
# Stress axis : x y z
#
# Youngs Moduli (GPa) = 151.21738 98.60117 53.12395
#
# Poissons Ratio (x) = 0.03597 0.15860
# Poissons Ratio (y) = 0.05517 0.15764
# Poissons Ratio (z) = 0.45145 0.29258
#
# Static dielectric constant tensor:
#      x y z
#    x 1.829770 -0.014760 0.370650 
#    y -0.014760 2.236130 -0.042200 
#    z 0.370650 -0.042200 1.310780 
# 
# From -- ./inp_files/160341.got.cif
#   From: 2010.05.17/outbox.cif.g08.bks.cpg/sg2_81_cif.got.tgz:160341.got - 2010.06.03 11:33:40.
