data_PCOD9066810
_publ_section_title
;
Structure prediction by ZEFSAII (Michael W. Deem and Ramdas Pophale) SiO2 
 PCOD9066810
Probable space group: P -1
;
_chemical_formula_sum "Si O2"
_cell_formula_units_Z 12
_cell_length_a 17.634571
_cell_length_b 13.899137
_cell_length_c 12.066742
_cell_angle_alpha 20.902885
_cell_angle_beta 149.567176
_cell_angle_gamma 149.650178
_cell_volume 506.750990
_symmetry_space_group_name_H-M "P -1"
_symmetry_group_IT_number 2
_symmetry_cell_setting 'triclinic'
loop_
_space_group_symop_operation_xyz
x,y,z
-x,-y,-z
loop_
_atom_site_type_symbol
_atom_site_label
_atom_site_fract_x
_atom_site_fract_y
_atom_site_fract_z
Si Si1 0.859198 0.633306 0.178209
Si Si2 0.044461 0.814674 0.661907
Si Si3 0.088557 0.037455 0.884752
Si Si4 0.613302 0.114127 0.626897
Si Si5 0.402963 0.207542 0.629537
Si Si6 0.523596 0.479340 0.844064
O O1 0.845242 0.776179 0.123658
O O2 0.000000 0.500000 0.500000
O O3 0.685324 0.447518 0.129462
O O4 0.918025 0.856097 0.912359
O O5 0.940117 0.801987 0.433068
O O6 0.223846 0.010952 0.645204
O O7 0.000000 0.000000 0.500000
O O8 0.000000 0.500000 0.000000
O O9 0.204304 0.849729 0.210111
O O10 0.500000 0.000000 0.500000
O O11 0.566918 0.371918 0.345462
O O12 0.578026 0.845568 0.956205
O O13 0.500000 0.500000 0.500000
O O14 0.425444 0.313067 0.418153
O O15 0.500000 0.000000 0.000000
#
# Coordination Sequence:
#
# PCOD9066810 Si02
#       6
#     2   2   2   2   2   2
#     4  11  25  46  78 109 145 203 245 319 392 457
#     4  12  30  51  78 114 155 204 260 321 386 454
#     4  11  27  47  74 110 154 194 258 317 385 459
#     4  12  26  45  74 112 150 197 245 311 386 459
#     4  12  28  52  77 109 152 208 260 314 382 462
#     4  12  27  48  74 108 152 197 256 310 385 462
#
# _framework density 23.680268000000002
#
# number of rings (size 3 to 8) (size 9 to 14) (size 15 to 20)
#    0.000    0.333    3.333    3.500   14.000    1.333 
#    0.000    0.000    0.000    0.000    0.000    0.000 
#    0.000    0.000    0.000    0.000    0.000    0.000 
#
# Total GULP energy -67043.105070 kJ/mol
# GULP energy per Si atom -5586.925422 kJ/mol
# Density = 2.362637 g / cm^3
# Si number density = 23.680268 Si / 1000 Ang^3
#
#
#
# Elastic Constant Matrix: (Units=GPa)
#
#
# Indices 1 2 3 4 5 6 
#
# 1 142.2061 46.5731 62.9856 3.9535 -5.3178 26.6940
# 2 46.5731 92.3125 35.6932 -3.4975 -0.1086 36.1018
# 3 62.9856 35.6932 155.8966 -8.6635 -11.1415 7.5230
# 4 3.9535 -3.4975 -8.6635 50.7653 3.0477 -2.8817
# 5 -5.3178 -0.1086 -11.1415 3.0477 51.0542 -13.0819
# 6 26.6940 36.1018 7.5230 -2.8817 -13.0819 38.9186
#
#
#
# Elastic Compliance Matrix: (Units=1/GPa)
#
#
# Indices 1 2 3 4 5 6 
#
# 1 0.010197 -0.001854 -0.003617 -0.001769 -0.000910 -0.005012
# 2 -0.001854 0.020555 -0.003438 0.000240 -0.005798 -0.019062
# 3 -0.003617 -0.003438 0.008706 0.001653 0.002703 0.005018
# 4 -0.001769 0.000240 0.001653 0.020280 -0.000522 0.001998
# 5 -0.000910 -0.005798 0.002703 -0.000522 0.023521 0.013348
# 6 -0.005012 -0.019062 0.005018 0.001998 0.013348 0.050479
#
#
# Mechanical properties :
#
#
# Convention : Reuss Voigt Hill
#
# Bulk Modulus (GPa) = 46.21222 75.65767 60.93495
# Shear Modulus (GPa) = 31.49229 44.49182 37.99206
#
# Velocity S-wave (km/s) = 3.65073 4.33928 4.00981
# Velocity P-wave (km/s) = 6.10965 7.55810 6.87214
#
# Compressibility (1/GPa) = 0.02163930
#
# Stress axis : x y z
#
# Youngs Moduli (GPa) = 98.06593 48.65075 114.86540
#
# Poissons Ratio (x) = 0.09021 0.41545
# Poissons Ratio (y) = 0.18184 0.39492
# Poissons Ratio (z) = 0.35469 0.16727
#
# Static dielectric constant tensor:
#      x y z
#    x 1.624080 -0.541410 0.102760 
#    y -0.541410 0.687650 0.328710 
#    z 0.102760 0.328710 1.838220 
# 
# From -- ./inp_files/47766.got.cif
#   From: 2010.05.17/outbox.cif.g08.bks.cpg/sg2_24_cif.got.tgz:47766.got - 2010.06.03 11:33:40.
