data_PCOD9066933
_publ_section_title
;
Structure prediction by ZEFSAII (Michael W. Deem and Ramdas Pophale) SiO2 
 PCOD9066933
Probable space group: P -1
;
_chemical_formula_sum "Si O2"
_cell_formula_units_Z 16
_cell_length_a 11.952804
_cell_length_b 14.070658
_cell_length_c 6.037702
_cell_angle_alpha 132.858924
_cell_angle_beta 90.489105
_cell_angle_gamma 105.853103
_cell_volume 688.307586
_symmetry_space_group_name_H-M "P -1"
_symmetry_group_IT_number 2
_symmetry_cell_setting 'triclinic'
loop_
_space_group_symop_operation_xyz
x,y,z
-x,-y,-z
loop_
_atom_site_type_symbol
_atom_site_label
_atom_site_fract_x
_atom_site_fract_y
_atom_site_fract_z
Si Si1 0.389799 0.530898 0.149781
Si Si2 0.688410 0.256262 0.802606
Si Si3 0.500845 0.272135 0.144991
Si Si4 0.903917 0.779330 0.773085
Si Si5 0.845124 0.993001 0.781457
Si Si6 0.727512 0.736137 0.088495
Si Si7 0.943137 0.499803 0.247669
Si Si8 0.367372 0.994168 0.924497
O O1 0.359002 0.647703 0.203032
O O2 0.426061 0.593951 0.495907
O O3 0.500000 0.500000 0.000000
O O4 0.276602 0.383372 0.927261
O O5 0.679979 0.118627 0.451509
O O6 0.596080 0.218062 0.946464
O O7 0.822415 0.358641 0.029553
O O8 0.413042 0.296178 0.003193
O O9 0.403793 0.154477 0.106908
O O10 0.873847 0.885803 0.778797
O O11 0.923319 0.645409 0.467525
O O12 0.794559 0.718403 0.845154
O O13 0.030651 0.876306 0.045264
O O14 0.792534 0.895746 0.415922
O O15 0.739612 0.037317 0.949818
O O16 0.000000 0.500000 0.500000
O O17 0.000000 0.500000 0.000000
O O18 0.500000 0.000000 0.000000
#
# Coordination Sequence:
#
# PCOD9066933 Si02
#       8
#     2   2   2   2   2   2   2   2
#     4  12  25  42  70 104 146 182 239 302 375 454
#     4  12  27  46  74 103 148 200 242 312 382 454
#     4  12  25  43  70 107 141 190 241 302 378 451
#     4  11  26  48  76 104 146 194 253 315 376 456
#     4  11  25  47  73 105 144 193 251 312 381 450
#     4  12  24  42  73 107 143 186 245 306 375 451
#     4  12  31  53  78 112 154 205 261 321 385 461
#     4  12  24  47  73 104 152 191 246 310 378 456
#
# _framework density 23.245422000000001
#
# number of rings (size 3 to 8) (size 9 to 14) (size 15 to 20)
#    0.000    0.250    3.750    4.875    7.000    2.000 
#    0.000    0.000    0.000    0.000    0.000    0.000 
#    0.000    0.000    0.000    0.000    0.000    0.000 
#
# Total GULP energy -89438.363161 kJ/mol
# GULP energy per Si atom -5589.897698 kJ/mol
# Density = 2.319251 g / cm^3
# Si number density = 23.245422 Si / 1000 Ang^3
#
#
#
# Elastic Constant Matrix: (Units=GPa)
#
#
# Indices 1 2 3 4 5 6 
#
# 1 104.4188 19.2890 48.3556 -4.4559 -0.0014 4.3216
# 2 19.2890 55.9501 -15.1440 6.4366 7.7969 6.9772
# 3 48.3556 -15.1440 136.5841 13.4659 -1.6970 3.2976
# 4 -4.4559 6.4366 13.4659 38.6163 5.0320 2.9785
# 5 -0.0014 7.7969 -1.6970 5.0320 54.5147 -1.0480
# 6 4.3216 6.9772 3.2976 2.9785 -1.0480 34.7800
#
#
#
# Elastic Compliance Matrix: (Units=1/GPa)
#
#
# Indices 1 2 3 4 5 6 
#
# 1 0.013984 -0.007105 -0.006217 0.004928 0.000366 -0.000134
# 2 -0.007105 0.023451 0.005778 -0.006090 -0.002688 -0.003929
# 3 -0.006217 0.005778 0.010712 -0.005340 -0.000018 -0.000945
# 4 0.004928 -0.006090 -0.005340 0.029726 -0.002068 -0.001492
# 5 0.000366 -0.002688 -0.000018 -0.002068 0.018942 0.001243
# 6 -0.000134 -0.003929 -0.000945 -0.001492 0.001243 0.029812
#
#
# Mechanical properties :
#
#
# Convention : Reuss Voigt Hill
#
# Bulk Modulus (GPa) = 30.24867 44.66158 37.45513
# Shear Modulus (GPa) = 32.73614 41.87904 37.30759
#
# Velocity S-wave (km/s) = 3.75678 4.24913 4.01052
# Velocity P-wave (km/s) = 5.64437 6.58242 6.13136
#
# Compressibility (1/GPa) = 0.03305930
#
# Stress axis : x y z
#
# Youngs Moduli (GPa) = 71.50991 42.64129 93.35190
#
# Poissons Ratio (x) = 0.30296 0.58035
# Poissons Ratio (y) = 0.50807 -0.53934
# Poissons Ratio (z) = 0.44456 -0.24636
#
# Static dielectric constant tensor:
#      x y z
#    x 1.886310 -0.101320 0.048220 
#    y -0.101320 1.949270 -0.081820 
#    z 0.048220 -0.081820 1.858070 
# 
# From -- ./inp_files/78787.got.cif
#   From: 2010.05.17/outbox.cif.g08.bks.cpg/sg2_40_cif.got.tgz:78787.got - 2010.06.03 11:33:40.
