data_PCOD9066820
_publ_section_title
;
Structure prediction by ZEFSAII (Michael W. Deem and Ramdas Pophale) SiO2 
 PCOD9066820
Probable space group: P -1
;
_chemical_formula_sum "Si O2"
_cell_formula_units_Z 13
_cell_length_a 9.690393
_cell_length_b 9.783190
_cell_length_c 8.230923
_cell_angle_alpha 102.861337
_cell_angle_beta 45.583745
_cell_angle_gamma 115.194112
_cell_volume 500.900956
_symmetry_space_group_name_H-M "P -1"
_symmetry_group_IT_number 2
_symmetry_cell_setting 'triclinic'
loop_
_space_group_symop_operation_xyz
x,y,z
-x,-y,-z
loop_
_atom_site_type_symbol
_atom_site_label
_atom_site_fract_x
_atom_site_fract_y
_atom_site_fract_z
Si Si1 0.702863 0.540582 0.693507
Si Si2 0.130206 0.622116 0.225460
Si Si3 0.362824 0.919494 0.305424
Si Si4 0.726083 0.878742 0.829885
Si Si5 0.865810 0.967610 0.265489
Si Si6 0.346004 0.376285 0.718283
Si Si7 0.000000 0.500000 0.000000
O O1 0.779408 0.480743 0.773965
O O2 0.705814 0.707971 0.762769
O O3 0.483322 0.420402 0.779956
O O4 0.876695 0.542426 0.415840
O O5 0.196671 0.774805 0.310872
O O6 0.175123 0.637377 0.003431
O O7 0.361965 0.060505 0.235846
O O8 0.273311 0.933740 0.557975
O O9 0.577118 0.895014 0.101954
O O10 0.960792 0.982831 0.719466
O O11 0.711708 0.792544 0.342567
O O12 0.000000 0.000000 0.000000
O O13 0.500000 0.500000 0.500000
O O14 0.124832 0.392493 0.921059
#
# Coordination Sequence:
#
# PCOD9066820 Si02
#       7
#     2   2   2   2   2   2   1
#     4  11  25  48  80 111 155 208 267 325 408 464
#     4  11  25  46  79 114 151 208 265 333 393 493
#     4  11  25  49  79 109 155 214 271 314 414 488
#     4  11  25  49  79 109 152 217 264 331 397 489
#     4  12  29  47  76 115 162 203 261 335 397 476
#     4  12  27  50  79 116 159 213 265 335 396 486
#     4  12  26  44  78 118 154 194 276 322 408 472
#
# _framework density 25.953237000000001
#
# number of rings (size 3 to 8) (size 9 to 14) (size 15 to 20)
#    0.000    0.615    3.077    3.231    4.308    5.538 
#    0.000    0.000    0.000    0.000    0.000    0.000 
#    0.000    0.000    0.000    0.000    0.000    0.000 
#
# Total GULP energy -72571.863064 kJ/mol
# GULP energy per Si atom -5582.451005 kJ/mol
# Density = 2.589417 g / cm^3
# Si number density = 25.953237 Si / 1000 Ang^3
#
#
#
# Elastic Constant Matrix: (Units=GPa)
#
#
# Indices 1 2 3 4 5 6 
#
# 1 144.5354 68.1924 4.5065 7.1408 -17.3934 3.8799
# 2 68.1924 183.3057 17.9322 23.4735 -2.3303 14.3508
# 3 4.5065 17.9322 81.4079 13.0667 -8.2346 -3.0470
# 4 7.1408 23.4735 13.0667 44.1853 -3.8324 -2.1973
# 5 -17.3934 -2.3303 -8.2346 -3.8324 39.6722 3.1133
# 6 3.8799 14.3508 -3.0470 -2.1973 3.1133 46.2007
#
#
#
# Elastic Compliance Matrix: (Units=1/GPa)
#
#
# Indices 1 2 3 4 5 6 
#
# 1 0.008949 -0.003413 0.000567 0.000542 0.003884 0.000110
# 2 -0.003413 0.007406 -0.001143 -0.003277 -0.001447 -0.002148
# 3 0.000567 -0.001143 0.013302 -0.003152 0.002570 0.000862
# 4 0.000542 -0.003277 -0.003152 0.025458 0.001704 0.001861
# 5 0.003884 -0.001447 0.002570 0.001704 0.027640 -0.001489
# 6 0.000110 -0.002148 0.000862 0.001861 -0.001489 0.022548
#
#
# Mechanical properties :
#
#
# Convention : Reuss Voigt Hill
#
# Bulk Modulus (GPa) = 46.12937 65.61236 55.87086
# Shear Modulus (GPa) = 41.49039 47.25282 44.37160
#
# Velocity S-wave (km/s) = 4.00266 4.27158 4.13931
# Velocity P-wave (km/s) = 6.25894 7.04730 6.66479
#
# Compressibility (1/GPa) = 0.02167816
#
# Stress axis : x y z
#
# Youngs Moduli (GPa) = 111.74222 135.01811 75.17388
#
# Poissons Ratio (x) = 0.46085 -0.04259
# Poissons Ratio (y) = 0.38141 0.08594
# Poissons Ratio (z) = -0.06330 0.15435
#
# Static dielectric constant tensor:
#      x y z
#    x 1.909440 0.122430 -0.060110 
#    y 0.122430 1.909670 0.147930 
#    z -0.060110 0.147930 2.013430 
# 
# From -- ./inp_files/159046.got.cif
#   From: 2010.05.17/outbox.cif.g08.bks.cpg/sg2_80_cif.got.tgz:159046.got - 2010.06.03 11:33:40.
