data_PCOD9066751
_publ_section_title
;
Structure prediction by ZEFSAII (Michael W. Deem and Ramdas Pophale) SiO2 
 PCOD9066751
Probable space group: P -1
;
_chemical_formula_sum "Si O2"
_cell_formula_units_Z 14
_cell_length_a 9.770456
_cell_length_b 9.401946
_cell_length_c 12.247393
_cell_angle_alpha 136.702684
_cell_angle_beta 56.180003
_cell_angle_gamma 114.599881
_cell_volume 640.872038
_symmetry_space_group_name_H-M "P -1"
_symmetry_group_IT_number 2
_symmetry_cell_setting 'triclinic'
loop_
_space_group_symop_operation_xyz
x,y,z
-x,-y,-z
loop_
_atom_site_type_symbol
_atom_site_label
_atom_site_fract_x
_atom_site_fract_y
_atom_site_fract_z
Si Si1 0.823385 0.664761 0.745878
Si Si2 0.826998 0.212596 0.399823
Si Si3 0.636868 0.929878 0.815036
Si Si4 0.082255 0.821397 0.287498
Si Si5 0.488928 0.713773 0.557801
Si Si6 0.758387 0.767553 0.281147
Si Si7 0.307248 0.453168 0.042931
O O1 0.842556 0.419278 0.581928
O O2 0.712782 0.732614 0.731177
O O3 0.744829 0.692119 0.914137
O O4 0.992487 0.795399 0.736933
O O5 0.690963 0.245024 0.385668
O O6 0.777254 0.011191 0.379102
O O7 0.552282 0.883198 0.711134
O O8 0.792434 0.078521 0.801030
O O9 0.500000 0.000000 0.000000
O O10 0.193813 0.656665 0.208361
O O11 0.928487 0.711301 0.233559
O O12 0.000000 0.000000 0.500000
O O13 0.500000 0.500000 0.500000
O O14 0.611229 0.720874 0.404312
O O15 0.724562 0.650181 0.117828
O O16 0.500000 0.500000 0.000000
#
# Coordination Sequence:
#
# PCOD9066751 Si02
#       7
#     2   2   2   2   2   2   2
#     4  11  25  47  72 107 147 193 243 307 374 447
#     4  11  25  46  75 107 145 194 249 302 380 452
#     4  12  27  47  74 107 149 193 247 314 376 446
#     4  12  26  50  78 109 150 200 257 308 382 453
#     4  12  27  45  73 107 149 191 248 310 378 446
#     4  12  27  48  75 109 148 201 247 310 378 450
#     4  12  29  47  74 112 156 195 253 317 373 445
#
# _framework density 21.845234999999999
#
# number of rings (size 3 to 8) (size 9 to 14) (size 15 to 20)
#    0.000    0.286    4.286    3.429   10.000    1.714 
#    0.000    0.000    0.000    0.000    0.000    0.000 
#    0.000    0.000    0.000    0.000    0.000    0.000 
#
# Total GULP energy -78340.512708 kJ/mol
# GULP energy per Si atom -5595.750908 kJ/mol
# Density = 2.179551 g / cm^3
# Si number density = 21.845235 Si / 1000 Ang^3
#
#
#
# Elastic Constant Matrix: (Units=GPa)
#
#
# Indices 1 2 3 4 5 6 
#
# 1 164.1687 28.4328 40.1290 -14.0812 -0.2102 0.4464
# 2 28.4328 120.1173 23.4880 -16.2825 -8.3719 -8.4395
# 3 40.1290 23.4880 68.2902 -23.3848 13.2419 7.7256
# 4 -14.0812 -16.2825 -23.3848 42.3960 -11.2656 -3.4037
# 5 -0.2102 -8.3719 13.2419 -11.2656 35.6780 0.2511
# 6 0.4464 -8.4395 7.7256 -3.4037 0.2511 38.1177
#
#
#
# Elastic Compliance Matrix: (Units=1/GPa)
#
#
# Indices 1 2 3 4 5 6 
#
# 1 0.007293 -0.000691 -0.004347 0.000226 0.001561 0.000653
# 2 -0.000691 0.010106 -0.003158 0.003382 0.004585 0.003158
# 3 -0.004347 -0.003158 0.022752 0.007740 -0.006735 -0.004524
# 4 0.000226 0.003382 0.007740 0.031471 0.007846 0.001936
# 5 0.001561 0.004585 -0.006735 0.007846 0.034071 0.002838
# 6 0.000653 0.003158 -0.004524 0.001936 0.002838 0.027997
#
#
# Mechanical properties :
#
#
# Convention : Reuss Voigt Hill
#
# Bulk Modulus (GPa) = 42.08869 59.63065 50.85967
# Shear Modulus (GPa) = 31.64514 40.60676 36.12595
#
# Velocity S-wave (km/s) = 3.81019 4.31610 4.07101
# Velocity P-wave (km/s) = 6.21814 7.22457 6.74017
#
# Compressibility (1/GPa) = 0.02375935
#
# Stress axis : x y z
#
# Youngs Moduli (GPa) = 137.11442 98.94972 43.95155
#
# Poissons Ratio (x) = 0.06837 0.19106
# Poissons Ratio (y) = 0.09475 0.13881
# Poissons Ratio (z) = 0.59603 0.31250
#
# Static dielectric constant tensor:
#      x y z
#    x 1.800580 0.015190 -0.037630 
#    y 0.015190 1.867390 -0.000090 
#    z -0.037630 -0.000090 1.885760 
# 
# From -- ./inp_files/242741.got.cif
#   From: 2010.05.17/outbox.cif.g08.bks.cpg/sg2_122_cif.got.tgz:242741.got - 2010.06.03 11:33:40.
