data_PCOD9066816
_publ_section_title
;
Structure prediction by ZEFSAII (Michael W. Deem and Ramdas Pophale) SiO2 
 PCOD9066816
Probable space group: P -1
;
_chemical_formula_sum "Si O2"
_cell_formula_units_Z 15
_cell_length_a 13.078450
_cell_length_b 9.138837
_cell_length_c 11.614418
_cell_angle_alpha 140.279811
_cell_angle_beta 45.600927
_cell_angle_gamma 121.105000
_cell_volume 633.111713
_symmetry_space_group_name_H-M "P -1"
_symmetry_group_IT_number 2
_symmetry_cell_setting 'triclinic'
loop_
_space_group_symop_operation_xyz
x,y,z
-x,-y,-z
loop_
_atom_site_type_symbol
_atom_site_label
_atom_site_fract_x
_atom_site_fract_y
_atom_site_fract_z
Si Si1 0.877973 0.075819 0.552704
Si Si2 0.049651 0.406598 0.218636
Si Si3 0.664385 0.056878 0.898672
Si Si4 0.500000 0.500000 0.000000
Si Si5 0.429916 0.454047 0.755918
Si Si6 0.787681 0.913073 0.291687
Si Si7 0.751564 0.841988 0.929395
Si Si8 0.733763 0.282912 0.374945
O O1 0.888362 0.345505 0.688498
O O2 0.730427 0.022118 0.699840
O O3 0.881099 0.952599 0.353862
O O4 0.000000 0.000000 0.500000
O O5 0.101105 0.288368 0.225708
O O6 0.880773 0.410479 0.333594
O O7 0.122665 0.238888 0.963338
O O8 0.747607 0.910458 0.841144
O O9 0.664081 0.329729 0.086430
O O10 0.500000 0.000000 0.000000
O O11 0.556977 0.525776 0.104259
O O12 0.377272 0.319443 0.033071
O O13 0.352239 0.222373 0.649478
O O14 0.590335 0.438952 0.571239
O O15 0.735460 0.152076 0.418276
O O16 0.735201 0.078424 0.157296
#
# Coordination Sequence:
#
# PCOD9066816 Si02
#       8
#     2   2   2   1   2   2   2   2
#     4  12  31  49  78 113 151 208 251 308 387 454
#     4  11  26  54  76 110 150 203 250 323 373 448
#     4  12  28  47  71 109 156 195 245 317 377 441
#     4  12  22  44  76 106 148 198 246 306 378 436
#     4  12  26  46  75 115 152 201 249 318 374 452
#     4  11  25  50  79 110 152 197 263 308 376 450
#     4  11  25  46  79 104 153 195 254 311 377 446
#     4  11  27  43  80 111 145 202 257 310 378 453
#
# _framework density 23.692501
#
# number of rings (size 3 to 8) (size 9 to 14) (size 15 to 20)
#    0.000    0.533    5.333    2.000   11.200    2.667 
#    0.000    0.000    0.000    0.000    0.000    0.000 
#    0.000    0.000    0.000    0.000    0.000    0.000 
#
# Total GULP energy -83851.543168 kJ/mol
# GULP energy per Si atom -5590.102878 kJ/mol
# Density = 2.363858 g / cm^3
# Si number density = 23.692501 Si / 1000 Ang^3
#
#
#
# Elastic Constant Matrix: (Units=GPa)
#
#
# Indices 1 2 3 4 5 6 
#
# 1 106.1436 23.2694 36.6562 6.3503 17.3216 4.4759
# 2 23.2694 98.4768 20.5331 -12.1986 12.6056 9.1788
# 3 36.6562 20.5331 62.2889 5.7375 -7.0254 -8.0911
# 4 6.3503 -12.1986 5.7375 19.6854 10.5180 -10.4010
# 5 17.3216 12.6056 -7.0254 10.5180 33.3452 2.0454
# 6 4.4759 9.1788 -8.0911 -10.4010 2.0454 41.5416
#
#
#
# Elastic Compliance Matrix: (Units=1/GPa)
#
#
# Indices 1 2 3 4 5 6 
#
# 1 0.014708 0.000953 -0.010916 0.003827 -0.011360 -0.002404
# 2 0.000953 0.016522 -0.009658 0.021277 -0.015515 0.000457
# 3 -0.010916 -0.009658 0.030577 -0.022029 0.022550 0.002640
# 4 0.003827 0.021277 -0.022029 0.105783 -0.049236 0.019505
# 5 -0.011360 -0.015515 0.022550 -0.049236 0.062427 -0.006357
# 6 -0.002404 0.000457 0.002640 0.019505 -0.006357 0.029941
#
#
# Mechanical properties :
#
#
# Convention : Reuss Voigt Hill
#
# Bulk Modulus (GPa) = 44.31359 47.53631 45.92495
# Shear Modulus (GPa) = 16.30141 31.34447 23.82294
#
# Velocity S-wave (km/s) = 2.62590 3.64121 3.17441
# Velocity P-wave (km/s) = 5.28564 6.14698 5.73251
#
# Compressibility (1/GPa) = 0.02256644
#
# Stress axis : x y z
#
# Youngs Moduli (GPa) = 67.98883 60.52422 32.70437
#
# Poissons Ratio (x) = -0.05767 0.35699
# Poissons Ratio (y) = -0.06478 0.31585
# Poissons Ratio (z) = 0.74215 0.58452
#
# Static dielectric constant tensor:
#      x y z
#    x 1.859250 0.001260 -0.029790 
#    y 0.001260 1.886270 -0.010940 
#    z -0.029790 -0.010940 1.923970 
# 
# From -- ./inp_files/420164.got.cif
#   From: 2010.05.17/outbox.cif.g08.bks.cpg/sg2_211_cif.got.tgz:420164.got - 2010.06.03 11:33:40.
