data_PCOD9066660
_publ_section_title
;
Structure prediction by ZEFSAII (Michael W. Deem and Ramdas Pophale) SiO2 
 PCOD9066660
Probable space group: P -1
;
_chemical_formula_sum "Si O2"
_cell_formula_units_Z 16
_cell_length_a 10.496610
_cell_length_b 19.247526
_cell_length_c 13.720273
_cell_angle_alpha 29.456493
_cell_angle_beta 32.495171
_cell_angle_gamma 35.961845
_cell_volume 702.188491
_symmetry_space_group_name_H-M "P -1"
_symmetry_group_IT_number 2
_symmetry_cell_setting 'triclinic'
loop_
_space_group_symop_operation_xyz
x,y,z
-x,-y,-z
loop_
_atom_site_type_symbol
_atom_site_label
_atom_site_fract_x
_atom_site_fract_y
_atom_site_fract_z
Si Si1 0.444316 0.613099 0.987970
Si Si2 0.272068 0.004623 0.071992
Si Si3 0.637275 0.834364 0.476046
Si Si4 0.125792 0.767550 0.339021
Si Si5 0.437350 0.510072 0.320074
Si Si6 0.130340 0.033505 0.474739
Si Si7 0.129382 0.308042 0.687172
Si Si8 0.061776 0.637197 0.739373
O O1 0.515151 0.757341 0.731656
O O2 0.500000 0.500000 0.000000
O O3 0.565154 0.541494 0.098699
O O4 0.158448 0.654259 0.152306
O O5 0.284184 0.863349 0.170694
O O6 0.030035 0.017893 0.276606
O O7 0.500000 0.000000 0.000000
O O8 0.240659 0.146290 0.854368
O O9 0.775752 0.707205 0.465963
O O10 0.873077 0.873378 0.324735
O O11 0.415905 0.950488 0.419212
O O12 0.299043 0.659274 0.282347
O O13 0.038946 0.670839 0.597117
O O14 0.240175 0.423871 0.527021
O O15 0.644869 0.401289 0.384002
O O16 0.079459 0.209137 0.305142
O O17 0.000000 0.000000 0.500000
O O18 0.000000 0.500000 0.000000
#
# Coordination Sequence:
#
# PCOD9066660 Si02
#       8
#     2   2   2   2   2   2   2   2
#     4  12  24  43  74 112 151 198 247 313 377 445
#     4  11  25  47  71 107 147 200 255 309 384 455
#     4  12  24  47  75 112 153 192 258 315 373 457
#     4  11  26  47  74 109 153 200 252 321 379 447
#     4  12  24  46  74 109 154 194 257 310 381 454
#     4  11  25  46  73 106 148 200 253 314 375 452
#     4  12  24  45  71 109 147 194 247 305 378 449
#     4  11  26  46  69 106 147 201 252 311 382 445
#
# _framework density 22.785905
#
# number of rings (size 3 to 8) (size 9 to 14) (size 15 to 20)
#    0.000    0.500    3.750    5.250    0.000    5.500 
#    2.250    0.000    0.000    0.000    0.000    0.000 
#    0.000    0.000    0.000    0.000    0.000    0.000 
#
# Total GULP energy -89456.059507 kJ/mol
# GULP energy per Si atom -5591.003719 kJ/mol
# Density = 2.273404 g / cm^3
# Si number density = 22.785905 Si / 1000 Ang^3
#
#
#
# Elastic Constant Matrix: (Units=GPa)
#
#
# Indices 1 2 3 4 5 6 
#
# 1 133.8742 62.6507 29.2411 3.5136 -5.5493 -9.8384
# 2 62.6507 123.3325 41.8253 9.0999 -2.8051 -8.7318
# 3 29.2411 41.8253 106.3411 -11.5916 5.8577 7.4406
# 4 3.5136 9.0999 -11.5916 36.2194 -2.4976 0.4771
# 5 -5.5493 -2.8051 5.8577 -2.4976 40.6715 5.8596
# 6 -9.8384 -8.7318 7.4406 0.4771 5.8596 54.6247
#
#
#
# Elastic Compliance Matrix: (Units=1/GPa)
#
#
# Indices 1 2 3 4 5 6 
#
# 1 0.009983 -0.004595 -0.001083 -0.000104 0.001036 0.001101
# 2 -0.004595 0.012261 -0.004127 -0.003955 0.000326 0.001694
# 3 -0.001083 -0.004127 0.012115 0.004945 -0.001530 -0.002384
# 4 -0.000104 -0.003955 0.004945 0.030295 0.001107 -0.001708
# 5 0.001036 0.000326 -0.001530 0.001107 0.025369 -0.002284
# 6 0.001101 0.001694 -0.002384 -0.001708 -0.002284 0.019360
#
#
# Mechanical properties :
#
#
# Convention : Reuss Voigt Hill
#
# Bulk Modulus (GPa) = 67.79909 70.10910 68.95409
# Shear Modulus (GPa) = 37.33909 41.62518 39.48213
#
# Velocity S-wave (km/s) = 4.05247 4.27874 4.16714
# Velocity P-wave (km/s) = 7.19139 7.43274 7.31306
#
# Compressibility (1/GPa) = 0.01474946
#
# Stress axis : x y z
#
# Youngs Moduli (GPa) = 100.16883 81.56099 82.54421
#
# Poissons Ratio (x) = 0.37475 0.08943
# Poissons Ratio (y) = 0.46024 0.34062
# Poissons Ratio (z) = 0.10852 0.33656
#
# Static dielectric constant tensor:
#      x y z
#    x 1.552520 -0.058020 -0.091330 
#    y -0.058020 1.836300 -0.003380 
#    z -0.091330 -0.003380 1.815310 
# 
# From -- ./inp_files/524033.got.cif
#   From: 2010.05.17/outbox.cif.g08.bks.cpg/sg2_263_cif.got.tgz:524033.got - 2010.06.03 11:33:40.
