data_PCOD9066622
_publ_section_title
;
Structure prediction by ZEFSAII (Michael W. Deem and Ramdas Pophale) SiO2 
 PCOD9066622
Probable space group: P -1
;
_chemical_formula_sum "Si O2"
_cell_formula_units_Z 12
_cell_length_a 13.427750
_cell_length_b 12.594000
_cell_length_c 5.564722
_cell_angle_alpha 126.380328
_cell_angle_beta 68.968715
_cell_angle_gamma 136.811030
_cell_volume 513.884859
_symmetry_space_group_name_H-M "P -1"
_symmetry_group_IT_number 2
_symmetry_cell_setting 'triclinic'
loop_
_space_group_symop_operation_xyz
x,y,z
-x,-y,-z
loop_
_atom_site_type_symbol
_atom_site_label
_atom_site_fract_x
_atom_site_fract_y
_atom_site_fract_z
Si Si1 0.791118 0.889868 0.694499
Si Si2 0.626188 0.113428 0.354827
Si Si3 0.895151 0.735539 0.099188
Si Si4 0.629510 0.592619 0.810828
Si Si5 0.526214 0.790763 0.675271
Si Si6 0.915201 0.451197 0.759176
O O1 0.682852 0.763464 0.839570
O O2 0.682270 0.858908 0.544514
O O3 0.857209 0.807188 0.437216
O O4 0.934350 0.099320 0.900103
O O5 0.590042 0.217847 0.382525
O O6 0.773335 0.242380 0.554710
O O7 0.500000 0.000000 0.500000
O O8 0.599660 0.962782 0.014645
O O9 0.779004 0.670957 0.908671
O O10 0.870221 0.565177 0.965541
O O11 0.569119 0.420949 0.466903
O O12 0.500000 0.500000 0.000000
O O13 0.000000 0.500000 0.500000
O O14 0.000000 0.500000 0.000000
#
# Coordination Sequence:
#
# PCOD9066622 Si02
#       6
#     2   2   2   2   2   2
#     4  11  26  45  73 105 153 194 259 319 392 459
#     4  11  28  45  77 106 149 204 254 320 384 461
#     4  11  26  47  73 108 149 204 252 322 386 465
#     4  12  25  45  76 111 148 199 255 321 395 463
#     4  11  25  46  72 110 152 187 262 309 393 450
#     4  12  30  53  80 113 158 206 263 321 392 466
#
# _framework density 23.351534000000001
#
# number of rings (size 3 to 8) (size 9 to 14) (size 15 to 20)
#    0.000    0.667    3.333    2.000   14.000    0.000 
#    3.000    0.000    0.000    0.000    0.000    0.000 
#    0.000    0.000    0.000    0.000    0.000    0.000 
#
# Total GULP energy -66924.444261 kJ/mol
# GULP energy per Si atom -5577.037022 kJ/mol
# Density = 2.329838 g / cm^3
# Si number density = 23.351534 Si / 1000 Ang^3
#
#
#
# Elastic Constant Matrix: (Units=GPa)
#
#
# Indices 1 2 3 4 5 6 
#
# 1 77.3021 -4.8036 34.5073 5.6195 20.8807 5.0839
# 2 -4.8036 102.9135 38.1609 12.3743 16.7778 24.8400
# 3 34.5073 38.1609 100.7685 17.0905 23.1598 9.6330
# 4 5.6195 12.3743 17.0905 40.1712 13.4160 6.0231
# 5 20.8807 16.7778 23.1598 13.4160 58.5207 15.4831
# 6 5.0839 24.8400 9.6330 6.0231 15.4831 39.9124
#
#
#
# Elastic Compliance Matrix: (Units=1/GPa)
#
#
# Indices 1 2 3 4 5 6 
#
# 1 0.017396 0.004271 -0.006493 0.000799 -0.004611 -0.001638
# 2 0.004271 0.014102 -0.005660 -0.001050 -0.001141 -0.007354
# 3 -0.006493 -0.005660 0.015099 -0.003475 -0.001743 0.001906
# 4 0.000799 -0.001050 -0.003475 0.028352 -0.004841 -0.001010
# 5 -0.004611 -0.001141 -0.001743 -0.004841 0.022524 -0.006289
# 6 -0.001638 -0.007354 0.001906 -0.001010 -0.006289 0.031972
#
#
# Mechanical properties :
#
#
# Convention : Reuss Voigt Hill
#
# Bulk Modulus (GPa) = 32.43424 46.30148 39.36786
# Shear Modulus (GPa) = 32.15723 41.92884 37.04303
#
# Velocity S-wave (km/s) = 3.71495 4.24199 3.98719
# Velocity P-wave (km/s) = 5.68514 6.62297 6.17189
#
# Compressibility (1/GPa) = 0.03083161
#
# Stress axis : x y z
#
# Youngs Moduli (GPa) = 57.48609 70.91169 66.23154
#
# Poissons Ratio (x) = -0.30285 0.43007
# Poissons Ratio (y) = -0.24552 0.37485
# Poissons Ratio (z) = 0.37328 0.40134
#
# Static dielectric constant tensor:
#      x y z
#    x 1.864980 0.028720 0.084010 
#    y 0.028720 1.790320 -0.053510 
#    z 0.084010 -0.053510 1.913100 
# 
# From -- ./inp_files/96188.got.cif
#   From: 2010.05.17/outbox.cif.g08.bks.cpg/sg2_49_cif.got.tgz:96188.got - 2010.06.03 11:33:40.
