data_PCOD9066263
_publ_section_title
;
Structure prediction by ZEFSAII (Michael W. Deem and Ramdas Pophale) SiO2 
 PCOD9066263
Probable space group: P -1
;
_chemical_formula_sum "Si O2"
_cell_formula_units_Z 16
_cell_length_a 9.761912
_cell_length_b 22.367549
_cell_length_c 6.953108
_cell_angle_alpha 55.278097
_cell_angle_beta 44.092458
_cell_angle_gamma 54.649362
_cell_volume 829.278474
_symmetry_space_group_name_H-M "P -1"
_symmetry_group_IT_number 2
_symmetry_cell_setting 'triclinic'
loop_
_space_group_symop_operation_xyz
x,y,z
-x,-y,-z
loop_
_atom_site_type_symbol
_atom_site_label
_atom_site_fract_x
_atom_site_fract_y
_atom_site_fract_z
Si Si1 0.435559 0.537682 0.290639
Si Si2 0.627270 0.921110 0.418206
Si Si3 0.128785 0.706407 0.308468
Si Si4 0.233767 0.446854 0.371569
Si Si5 0.957036 0.921150 0.745647
Si Si6 0.361343 0.819095 0.733344
Si Si7 0.223415 0.276489 0.700534
Si Si8 0.104567 0.187587 0.328148
O O1 0.500000 0.500000 0.500000
O O2 0.254260 0.617530 0.341613
O O3 0.351982 0.479725 0.354762
O O4 0.632004 0.551821 0.957943
O O5 0.458474 0.877353 0.633480
O O6 0.778123 0.867412 0.518832
O O7 0.500000 0.000000 0.500000
O O8 0.759746 0.929593 0.075753
O O9 0.951821 0.723275 0.286853
O O10 0.036945 0.740399 0.542792
O O11 0.287831 0.754684 0.029496
O O12 0.221691 0.362623 0.576876
O O13 0.000000 0.500000 0.500000
O O14 0.953306 0.872595 0.645744
O O15 0.157556 0.870785 0.744415
O O16 0.000000 0.000000 0.500000
O O17 0.551183 0.770666 0.507105
O O18 0.200389 0.232282 0.996369
#
# Coordination Sequence:
#
# PCOD9066263 Si02
#       8
#     2   2   2   2   2   2   2   2
#     4  11  27  44  70 110 140 182 235 279 351 414
#     4  12  28  47  68 106 143 178 232 288 346 420
#     4  12  25  47  69 103 144 174 236 299 330 415
#     4  11  25  45  72  98 148 187 221 290 347 410
#     4  12  28  47  69 104 142 181 229 287 348 421
#     4  12  23  48  71  95 143 179 231 288 340 403
#     4  12  25  47  71 104 136 186 236 287 344 406
#     4  12  25  46  72 101 135 184 235 282 349 410
#
# _framework density 19.293880000000001
#
# number of rings (size 3 to 8) (size 9 to 14) (size 15 to 20)
#    0.000    0.250    7.500    0.750    5.250    5.500 
#    0.000    0.000    0.000    0.000    0.000    0.000 
#    0.000    0.000    0.000    0.000    0.000    0.000 
#
# Total GULP energy -89199.593548 kJ/mol
# GULP energy per Si atom -5574.974597 kJ/mol
# Density = 1.924997 g / cm^3
# Si number density = 19.293880 Si / 1000 Ang^3
#
#
#
# Elastic Constant Matrix: (Units=GPa)
#
#
# Indices 1 2 3 4 5 6 
#
# 1 59.0488 15.0041 38.3674 3.6973 -1.7491 18.5802
# 2 15.0041 148.6129 51.5440 -2.1675 -2.9730 22.0369
# 3 38.3674 51.5440 152.6984 2.8964 4.5338 21.2770
# 4 3.6973 -2.1675 2.8964 46.2644 1.9517 -10.1615
# 5 -1.7491 -2.9730 4.5338 1.9517 30.3476 -3.1853
# 6 18.5802 22.0369 21.2770 -10.1615 -3.1853 41.6552
#
#
#
# Elastic Compliance Matrix: (Units=1/GPa)
#
#
# Indices 1 2 3 4 5 6 
#
# 1 0.022886 0.000611 -0.004692 -0.003517 0.001373 -0.008888
# 2 0.000611 0.008005 -0.002420 -0.000277 0.000855 -0.003274
# 3 -0.004692 -0.002420 0.008807 -0.000515 -0.001937 -0.001399
# 4 -0.003517 -0.000277 -0.000515 0.023638 -0.000867 0.007679
# 5 0.001373 0.000855 -0.001937 -0.000867 0.033700 0.002290
# 6 -0.008888 -0.003274 -0.001399 0.007679 0.002290 0.032466
#
#
# Mechanical properties :
#
#
# Convention : Reuss Voigt Hill
#
# Bulk Modulus (GPa) = 37.45877 63.35455 50.40666
# Shear Modulus (GPa) = 33.02454 40.68309 36.85382
#
# Velocity S-wave (km/s) = 4.14171 4.59693 4.37524
# Velocity P-wave (km/s) = 6.50605 7.81560 7.19070
#
# Compressibility (1/GPa) = 0.02669602
#
# Stress axis : x y z
#
# Youngs Moduli (GPa) = 43.69441 124.92350 113.54796
#
# Poissons Ratio (x) = -0.07632 0.53281
# Poissons Ratio (y) = -0.02669 0.27473
# Poissons Ratio (z) = 0.20503 0.30226
#
# Static dielectric constant tensor:
#      x y z
#    x 1.670420 0.021420 0.005730 
#    y 0.021420 1.662230 0.005280 
#    z 0.005730 0.005280 1.680970 
# 
# From -- ./inp_files/47286.got.cif
#   From: 2010.05.17/outbox.cif.g08.bks.cpg/sg2_24_cif.got.tgz:47286.got - 2010.06.03 11:33:40.
