data_PCOD9066137
_publ_section_title
;
Structure prediction by ZEFSAII (Michael W. Deem and Ramdas Pophale) SiO2 
 PCOD9066137
Probable space group: P -1
;
_chemical_formula_sum "Si O2"
_cell_formula_units_Z 14
_cell_length_a 8.195865
_cell_length_b 8.805798
_cell_length_c 19.864440
_cell_angle_alpha 134.527257
_cell_angle_beta 46.389909
_cell_angle_gamma 147.116756
_cell_volume 535.740938
_symmetry_space_group_name_H-M "P -1"
_symmetry_group_IT_number 2
_symmetry_cell_setting 'triclinic'
loop_
_space_group_symop_operation_xyz
x,y,z
-x,-y,-z
loop_
_atom_site_type_symbol
_atom_site_label
_atom_site_fract_x
_atom_site_fract_y
_atom_site_fract_z
Si Si1 0.885385 0.842436 0.322195
Si Si2 0.725442 0.689805 0.741719
Si Si3 0.303195 0.257198 0.084819
Si Si4 0.975811 0.199711 0.526203
Si Si5 0.344037 0.836385 0.652747
Si Si6 0.890414 0.382922 0.208188
Si Si7 0.046295 0.401007 0.025054
O O1 0.536032 0.595626 0.316813
O O2 0.932503 0.086278 0.427805
O O3 0.940656 0.665446 0.294541
O O4 0.144175 0.021389 0.245805
O O5 0.580409 0.639969 0.840121
O O6 0.048480 0.777975 0.693419
O O7 0.585184 0.355925 0.990670
O O8 0.164917 0.391234 0.143095
O O9 0.042938 0.905259 0.052551
O O10 0.665915 0.115117 0.614929
O O11 0.000000 0.000000 0.500000
O O12 0.264312 0.545137 0.560268
O O13 0.346564 0.839913 0.734482
O O14 0.846042 0.349270 0.129721
O O15 0.000000 0.500000 0.000000
#
# Coordination Sequence:
#
# PCOD9066137 Si02
#       7
#     2   2   2   2   2   2   2
#     4  12  26  43  71  99 137 180 228 284 333 405
#     4  11  25  45  67 103 137 179 229 277 345 394
#     4  11  25  46  68 100 141 175 224 278 333 408
#     4  12  25  45  69 102 137 174 235 279 341 393
#     4  11  26  45  70  97 139 182 224 287 333 408
#     4  11  26  44  71 100 135 183 226 272 344 399
#     4  12  25  45  71 102 136 175 224 281 337 398
#
# _framework density 26.132035999999999
#
# number of rings (size 3 to 8) (size 9 to 14) (size 15 to 20)
#    0.000    0.571    1.429    6.000    2.000   10.286 
#    0.000    0.000    0.000    0.000    0.000    0.000 
#    0.000    0.000    0.000    0.000    0.000    0.000 
#
# Total GULP energy -78455.340583 kJ/mol
# GULP energy per Si atom -5603.952899 kJ/mol
# Density = 2.607256 g / cm^3
# Si number density = 26.132036 Si / 1000 Ang^3
#
#
#
# Elastic Constant Matrix: (Units=GPa)
#
#
# Indices 1 2 3 4 5 6 
#
# 1 104.8036 40.3750 29.5762 -16.6462 2.5960 -12.4612
# 2 40.3750 111.3242 13.3311 -16.3868 0.7742 1.0350
# 3 29.5762 13.3311 103.5917 -17.4332 11.1168 -4.1160
# 4 -16.6462 -16.3868 -17.4332 40.3049 1.3394 -3.9353
# 5 2.5960 0.7742 11.1168 1.3394 45.2526 -2.1697
# 6 -12.4612 1.0350 -4.1160 -3.9353 -2.1697 39.7255
#
#
#
# Elastic Compliance Matrix: (Units=1/GPa)
#
#
# Indices 1 2 3 4 5 6 
#
# 1 0.012710 -0.003913 -0.002463 0.002995 0.000052 0.004133
# 2 -0.003913 0.010797 0.000152 0.002724 -0.000137 -0.001231
# 3 -0.002463 0.000152 0.011348 0.004108 -0.002739 0.000657
# 4 0.002995 0.002724 0.004108 0.029396 -0.001901 0.004102
# 5 0.000052 -0.000137 -0.002739 -0.001901 0.022865 0.000797
# 6 0.004133 -0.001231 0.000657 0.004102 0.000797 0.027019
#
#
# Mechanical properties :
#
#
# Convention : Reuss Voigt Hill
#
# Bulk Modulus (GPa) = 44.62617 54.03158 49.32888
# Shear Modulus (GPa) = 37.29913 40.81906 39.05910
#
# Velocity S-wave (km/s) = 3.78211 3.95654 3.87031
# Velocity P-wave (km/s) = 6.01554 6.44931 6.23619
#
# Compressibility (1/GPa) = 0.02240838
#
# Stress axis : x y z
#
# Youngs Moduli (GPa) = 78.67960 92.61867 88.11922
#
# Poissons Ratio (x) = 0.36238 0.21700
# Poissons Ratio (y) = 0.30784 -0.01338
# Poissons Ratio (z) = 0.19375 -0.01406
#
# Static dielectric constant tensor:
#      x y z
#    x 2.080510 -0.017790 0.023390 
#    y -0.017790 1.957080 0.018770 
#    z 0.023390 0.018770 2.075220 
# 
# From -- ./inp_files/343955.got.cif
#   From: 2010.05.17/outbox.cif.g08.bks.cpg/sg2_172_cif.got.tgz:343955.got - 2010.06.03 11:33:40.
