data_PCOD9066693
_publ_section_title
;
Structure prediction by ZEFSAII (Michael W. Deem and Ramdas Pophale) SiO2 
 PCOD9066693
Probable space group: P -1
;
_chemical_formula_sum "Si O2"
_cell_formula_units_Z 15
_cell_length_a 7.727230
_cell_length_b 8.876362
_cell_length_c 9.550984
_cell_angle_alpha 77.091138
_cell_angle_beta 85.050291
_cell_angle_gamma 93.369389
_cell_volume 634.103240
_symmetry_space_group_name_H-M "P -1"
_symmetry_group_IT_number 2
_symmetry_cell_setting 'triclinic'
loop_
_space_group_symop_operation_xyz
x,y,z
-x,-y,-z
loop_
_atom_site_type_symbol
_atom_site_label
_atom_site_fract_x
_atom_site_fract_y
_atom_site_fract_z
Si Si1 0.291905 0.265279 0.386713
Si Si2 0.500000 0.000000 0.500000
Si Si3 0.503337 0.449325 0.844040
Si Si4 0.845626 0.498796 0.294611
Si Si5 0.654437 0.133783 0.957451
Si Si6 0.137486 0.009263 0.253144
Si Si7 0.207383 0.829109 0.754505
Si Si8 0.068949 0.692412 0.433262
O O1 0.392042 0.418296 0.284097
O O2 0.256305 0.150996 0.279055
O O3 0.107487 0.291243 0.467391
O O4 0.396298 0.159495 0.504681
O O5 0.361415 0.893699 0.629906
O O6 0.310754 0.431881 0.791137
O O7 0.590766 0.287521 0.859143
O O8 0.500000 0.500000 0.000000
O O9 0.877829 0.343564 0.239121
O O10 0.003229 0.623754 0.301547
O O11 0.812560 0.420284 0.467431
O O12 0.806108 0.051956 0.885751
O O13 0.713196 0.180934 0.096970
O O14 0.500000 0.000000 0.000000
O O15 0.942920 0.054683 0.262070
O O16 0.161579 0.862721 0.381260
#
# Coordination Sequence:
#
# PCOD9066693 Si02
#       8
#     2   1   2   2   2   2   2   2
#     4  12  25  45  75 109 152 199 254 315 379 455
#     4  12  22  42  78 108 148 194 250 308 384 442
#     4  12  26  50  75 109 151 201 256 316 384 451
#     4  11  25  46  74 104 153 191 253 312 371 454
#     4  12  29  50  75 111 154 202 261 311 384 464
#     4  12  26  47  76 108 156 202 250 313 384 465
#     4  12  24  50  73 113 149 205 252 312 387 455
#     4  11  26  47  69 116 150 198 254 311 385 449
#
# _framework density 23.655452
#
# number of rings (size 3 to 8) (size 9 to 14) (size 15 to 20)
#    0.000    0.267    5.333    3.200    5.600    1.600 
#    2.400    2.000    0.000    0.000    0.000    0.000 
#    0.000    0.000    0.000    0.000    0.000    0.000 
#
# Total GULP energy -83647.305561 kJ/mol
# GULP energy per Si atom -5576.487037 kJ/mol
# Density = 2.360161 g / cm^3
# Si number density = 23.655452 Si / 1000 Ang^3
#
#
#
# Elastic Constant Matrix: (Units=GPa)
#
#
# Indices 1 2 3 4 5 6 
#
# 1 63.5771 9.0728 23.7389 26.8704 13.6076 -9.6159
# 2 9.0728 126.0785 31.4771 8.1578 11.5329 -2.3043
# 3 23.7389 31.4771 60.8602 22.3623 9.3091 8.1321
# 4 26.8704 8.1578 22.3623 36.3387 1.9199 0.0741
# 5 13.6076 11.5329 9.3091 1.9199 47.8482 5.8572
# 6 -9.6159 -2.3043 8.1321 0.0741 5.8572 25.4363
#
#
#
# Elastic Compliance Matrix: (Units=1/GPa)
#
#
# Indices 1 2 3 4 5 6 
#
# 1 0.029775 0.001780 -0.006723 -0.017847 -0.008787 0.015642
# 2 0.001780 0.009533 -0.005931 0.000299 -0.002142 0.003925
# 3 -0.006723 -0.005931 0.027654 -0.010683 -0.000159 -0.011852
# 4 -0.017847 0.000299 -0.010683 0.046927 0.005783 -0.004773
# 5 -0.008787 -0.002142 -0.000159 0.005783 0.024840 -0.009202
# 6 0.015642 0.003925 -0.011852 -0.004773 -0.009202 0.051505
#
#
# Mechanical properties :
#
#
# Convention : Reuss Voigt Hill
#
# Bulk Modulus (GPa) = 22.11719 42.12148 32.11933
# Shear Modulus (GPa) = 22.02133 34.33977 28.18055
#
# Velocity S-wave (km/s) = 3.05441 3.81420 3.45525
# Velocity P-wave (km/s) = 4.67003 6.10266 5.43377
#
# Compressibility (1/GPa) = 0.04521371
#
# Stress axis : x y z
#
# Youngs Moduli (GPa) = 33.58572 104.90233 36.16053
#
# Poissons Ratio (x) = -0.18676 0.24311
# Poissons Ratio (y) = -0.05979 0.21448
# Poissons Ratio (z) = 0.22580 0.62221
#
# Static dielectric constant tensor:
#      x y z
#    x 1.787250 -0.290070 -0.186070 
#    y -0.290070 1.209060 -0.556700 
#    z -0.186070 -0.556700 1.445770 
# 
# From -- ./inp_files/153909.got.cif
#   From: 2010.05.17/outbox.cif.g08.bks.cpg/sg2_77_cif.got.tgz:153909.got - 2010.06.03 11:33:40.
