data_PCOD9066016
_publ_section_title
;
Structure prediction by ZEFSAII (Michael W. Deem and Ramdas Pophale) SiO2 
 PCOD9066016
Probable space group: P -1
;
_chemical_formula_sum "Si O2"
_cell_formula_units_Z 11
_cell_length_a 5.114682
_cell_length_b 8.987774
_cell_length_c 16.518879
_cell_angle_alpha 56.699340
_cell_angle_beta 52.075526
_cell_angle_gamma 53.202768
_cell_volume 459.571603
_symmetry_space_group_name_H-M "P -1"
_symmetry_group_IT_number 2
_symmetry_cell_setting 'triclinic'
loop_
_space_group_symop_operation_xyz
x,y,z
-x,-y,-z
loop_
_atom_site_type_symbol
_atom_site_label
_atom_site_fract_x
_atom_site_fract_y
_atom_site_fract_z
Si Si1 0.245654 0.888209 0.562022
Si Si2 0.312801 0.571939 0.101000
Si Si3 0.854402 0.479233 0.345149
Si Si4 0.000000 0.500000 0.500000
Si Si5 0.192129 0.843278 0.314610
Si Si6 0.574505 0.811404 0.092733
O O1 0.373605 0.655398 0.592398
O O2 0.500000 0.000000 0.500000
O O3 0.000000 0.000000 0.500000
O O4 0.979350 0.950519 0.671513
O O5 0.564672 0.642124 0.087303
O O6 0.164811 0.448427 0.227859
O O7 0.944112 0.746909 0.091220
O O8 0.500000 0.500000 0.000000
O O9 0.973001 0.431274 0.428496
O O10 0.572634 0.700070 0.323800
O O11 0.032147 0.288252 0.591503
O O12 0.258340 0.857022 0.204151
O O13 0.500000 0.000000 0.000000
#
# Coordination Sequence:
#
# PCOD9066016 Si02
#       6
#     2   2   2   1   2   2
#     4  12  28  43  67 107 141 184 238 288 353 428
#     4  11  25  47  73 105 142 189 241 300 368 423
#     4  11  26  45  73 104 146 193 239 295 364 435
#     4  12  20  44  72 100 144 186 236 290 352 434
#     4  11  25  44  71  99 145 188 235 292 365 424
#     4  11  25  47  72 105 140 190 242 300 365 428
#
# _framework density 23.935334000000001
#
# number of rings (size 3 to 8) (size 9 to 14) (size 15 to 20)
#    0.000    0.727    3.636    2.727    5.091    0.000 
#    3.273    0.000    0.000    0.000    0.000    0.000 
#    0.000    0.000    0.000    0.000    0.000    0.000 
#
# Total GULP energy -61289.533711 kJ/mol
# GULP energy per Si atom -5571.775792 kJ/mol
# Density = 2.388086 g / cm^3
# Si number density = 23.935334 Si / 1000 Ang^3
#
#
#
# Elastic Constant Matrix: (Units=GPa)
#
#
# Indices 1 2 3 4 5 6 
#
# 1 109.1543 9.1614 17.7814 -10.6129 13.3448 20.6841
# 2 9.1614 75.2036 32.5871 6.5535 10.2672 17.3801
# 3 17.7814 32.5871 206.4972 4.1223 17.6150 18.0792
# 4 -10.6129 6.5535 4.1223 46.7742 6.6247 10.0944
# 5 13.3448 10.2672 17.6150 6.6247 36.6823 4.7436
# 6 20.6841 17.3801 18.0792 10.0944 4.7436 22.9728
#
#
#
# Elastic Compliance Matrix: (Units=1/GPa)
#
#
# Indices 1 2 3 4 5 6 
#
# 1 0.013089 0.001927 0.000172 0.006649 -0.004600 -0.015350
# 2 0.001927 0.017138 -0.001428 0.001564 -0.003339 -0.013575
# 3 0.000172 -0.001428 0.005500 0.000756 -0.002011 -0.003320
# 4 0.006649 0.001564 0.000756 0.027440 -0.005766 -0.018632
# 5 -0.004600 -0.003339 -0.002011 -0.005766 0.031318 0.004317
# 6 -0.015350 -0.013575 -0.003320 -0.018632 0.004317 0.077529
#
#
# Mechanical properties :
#
#
# Convention : Reuss Voigt Hill
#
# Bulk Modulus (GPa) = 26.97625 56.65718 41.81672
# Shear Modulus (GPa) = 27.31807 43.37420 35.34613
#
# Velocity S-wave (km/s) = 3.38202 4.26154 3.84700
# Velocity P-wave (km/s) = 5.15225 6.92363 6.10255
#
# Compressibility (1/GPa) = 0.03706964
#
# Stress axis : x y z
#
# Youngs Moduli (GPa) = 76.39910 58.34918 181.80418
#
# Poissons Ratio (x) = -0.11243 -0.03134
# Poissons Ratio (y) = -0.14721 0.25969
# Poissons Ratio (z) = -0.01317 0.08335
#
# Static dielectric constant tensor:
#      x y z
#    x 1.767420 0.060880 -0.032450 
#    y 0.060880 1.929360 0.052360 
#    z -0.032450 0.052360 1.895650 
# 
# From -- ./inp_files/21607.got.cif
#   From: 2010.05.17/outbox.cif.g08.bks.cpg/sg2_11_cif.got.tgz:21607.got - 2010.06.03 11:33:40.
