data_PCOD9066050
_publ_section_title
;
Structure prediction by ZEFSAII (Michael W. Deem and Ramdas Pophale) SiO2 
 PCOD9066050
Probable space group: P -1
;
_chemical_formula_sum "Si O2"
_cell_formula_units_Z 16
_cell_length_a 11.060282
_cell_length_b 19.100200
_cell_length_c 8.008665
_cell_angle_alpha 33.845524
_cell_angle_beta 133.792625
_cell_angle_gamma 127.627235
_cell_volume 677.498153
_symmetry_space_group_name_H-M "P -1"
_symmetry_group_IT_number 2
_symmetry_cell_setting 'triclinic'
loop_
_space_group_symop_operation_xyz
x,y,z
-x,-y,-z
loop_
_atom_site_type_symbol
_atom_site_label
_atom_site_fract_x
_atom_site_fract_y
_atom_site_fract_z
Si Si1 0.086791 0.883746 0.741726
Si Si2 0.822264 0.545321 0.796670
Si Si3 0.401509 0.764224 0.299151
Si Si4 0.758949 0.752300 0.810406
Si Si5 0.196794 0.506513 0.725972
Si Si6 0.168367 0.938258 0.330263
Si Si7 0.709963 0.796508 0.042984
Si Si8 0.643878 0.291074 0.029544
O O1 0.934557 0.775036 0.833166
O O2 0.000000 0.000000 0.500000
O O3 0.133846 0.905175 0.554349
O O4 0.267020 0.860957 0.036469
O O5 0.801369 0.690854 0.441544
O O6 0.795530 0.525125 0.008080
O O7 0.698801 0.438974 0.797611
O O8 0.000000 0.500000 0.000000
O O9 0.591898 0.796925 0.477314
O O10 0.308336 0.634831 0.538274
O O11 0.400356 0.747236 0.129460
O O12 0.725536 0.602460 0.088678
O O13 0.788958 0.809030 0.909987
O O14 0.000000 0.500000 0.500000
O O15 0.224742 0.804984 0.583653
O O16 0.297845 0.061316 0.177763
O O17 0.000000 0.000000 0.000000
O O18 0.521244 0.736620 0.964355
#
# Coordination Sequence:
#
# PCOD9066050 Si02
#       8
#     2   2   2   2   2   2   2   2
#     4  11  25  47  68 101 138 183 238 284 341 422
#     4  12  26  42  73 102 139 183 231 284 355 411
#     4  11  25  44  73 102 140 182 232 288 350 411
#     4  12  25  44  74 101 141 182 233 288 354 408
#     4  12  24  44  72 105 140 180 231 290 348 421
#     4  11  26  44  72  98 141 184 230 284 356 411
#     4  12  25  46  68 105 140 182 232 289 347 421
#     4  11  25  47  67 105 141 179 236 287 344 425
#
# _framework density 23.616299000000001
#
# number of rings (size 3 to 8) (size 9 to 14) (size 15 to 20)
#    0.000    0.500    2.500    5.625    5.250    2.500 
#    0.000    0.000    0.000    0.000    0.000    0.000 
#    0.000    0.000    0.000    0.000    0.000    0.000 
#
# Total GULP energy -89388.308828 kJ/mol
# GULP energy per Si atom -5586.769302 kJ/mol
# Density = 2.356255 g / cm^3
# Si number density = 23.616299 Si / 1000 Ang^3
#
#
#
# Elastic Constant Matrix: (Units=GPa)
#
#
# Indices 1 2 3 4 5 6 
#
# 1 61.4877 1.4127 22.9734 -6.6242 0.1775 15.1727
# 2 1.4127 35.2774 9.9020 -5.6301 -3.6113 5.5019
# 3 22.9734 9.9020 118.5960 2.9522 10.2745 3.8250
# 4 -6.6242 -5.6301 2.9522 34.2344 3.9153 1.5235
# 5 0.1775 -3.6113 10.2745 3.9153 44.5583 -0.3222
# 6 15.1727 5.5019 3.8250 1.5235 -0.3222 39.2307
#
#
#
# Elastic Compliance Matrix: (Units=1/GPa)
#
#
# Indices 1 2 3 4 5 6 
#
# 1 0.020206 0.002407 -0.004030 0.004944 0.000552 -0.007947
# 2 0.002407 0.031185 -0.003283 0.005796 0.002728 -0.005187
# 3 -0.004030 -0.003283 0.009699 -0.001942 -0.002308 0.001130
# 4 0.004944 0.005796 -0.001942 0.031675 -0.001913 -0.003781
# 5 0.000552 0.002728 -0.002308 -0.001913 0.023361 -0.000105
# 6 -0.007947 -0.005187 0.001130 -0.003781 -0.000105 0.029327
#
#
# Mechanical properties :
#
#
# Convention : Reuss Voigt Hill
#
# Bulk Modulus (GPa) = 19.50188 31.54858 25.52523
# Shear Modulus (GPa) = 29.00964 35.67621 32.34293
#
# Velocity S-wave (km/s) = 3.50862 3.89094 3.70471
# Velocity P-wave (km/s) = 4.96886 5.79428 5.39737
#
# Compressibility (1/GPa) = 0.05127710
#
# Stress axis : x y z
#
# Youngs Moduli (GPa) = 49.49132 32.06640 103.10846
#
# Poissons Ratio (x) = -0.07718 0.41548
# Poissons Ratio (y) = -0.11911 0.33854
# Poissons Ratio (z) = 0.19943 0.10529
#
# Static dielectric constant tensor:
#      x y z
#    x 1.908400 0.085890 0.021380 
#    y 0.085890 2.355930 -0.048650 
#    z 0.021380 -0.048650 1.982740 
# 
# From -- ./inp_files/282664.got.cif
#   From: 2010.05.17/outbox.cif.g08.bks.cpg/sg2_142_cif.got.tgz:282664.got - 2010.06.03 11:33:40.
