data_PCOD9066148
_publ_section_title
;
Structure prediction by ZEFSAII (Michael W. Deem and Ramdas Pophale) SiO2 
 PCOD9066148
Probable space group: P -1
;
_chemical_formula_sum "Si O2"
_cell_formula_units_Z 12
_cell_length_a 12.064926
_cell_length_b 14.455858
_cell_length_c 8.784457
_cell_angle_alpha 33.935047
_cell_angle_beta 58.252139
_cell_angle_gamma 44.982020
_cell_volume 597.405257
_symmetry_space_group_name_H-M "P -1"
_symmetry_group_IT_number 2
_symmetry_cell_setting 'triclinic'
loop_
_space_group_symop_operation_xyz
x,y,z
-x,-y,-z
loop_
_atom_site_type_symbol
_atom_site_label
_atom_site_fract_x
_atom_site_fract_y
_atom_site_fract_z
Si Si1 0.845312 0.708064 0.887193
Si Si2 0.027128 0.128857 0.186831
Si Si3 0.355561 0.401066 0.636081
Si Si4 0.832417 0.536973 0.619868
Si Si5 0.302314 0.817646 0.194652
Si Si6 0.324686 0.078381 0.571744
O O1 0.889052 0.788226 0.889227
O O2 0.779600 0.863503 0.583725
O O3 0.715570 0.669798 0.088501
O O4 0.000000 0.500000 0.000000
O O5 0.142427 0.982883 0.170305
O O6 0.000000 0.000000 0.500000
O O7 0.875196 0.329617 0.948733
O O8 0.279116 0.406357 0.523372
O O9 0.304907 0.624122 0.410711
O O10 0.546092 0.257781 0.702963
O O11 0.749849 0.718972 0.550973
O O12 0.000000 0.500000 0.500000
O O13 0.322697 0.917275 0.896331
O O14 0.500000 0.000000 0.500000
#
# Coordination Sequence:
#
# PCOD9066148 Si02
#       6
#     2   2   2   2   2   2
#     4  12  23  43  67  97 138 174 222 278 334 404
#     4  12  27  44  69 101 133 180 230 278 339 403
#     4  11  25  45  68  97 139 179 221 284 335 399
#     4  12  24  46  68  99 136 177 228 278 335 399
#     4  11  26  46  67 100 138 178 227 279 339 401
#     4  12  25  42  69 102 133 176 223 273 340 402
#
# _framework density 20.086867000000002
#
# number of rings (size 3 to 8) (size 9 to 14) (size 15 to 20)
#    0.000    0.333    6.667    1.000    4.667    2.000 
#    0.000    1.667    0.000    0.000    0.000    0.000 
#    0.000    0.000    0.000    0.000    0.000    0.000 
#
# Total GULP energy -67157.734226 kJ/mol
# GULP energy per Si atom -5596.477852 kJ/mol
# Density = 2.004115 g / cm^3
# Si number density = 20.086867 Si / 1000 Ang^3
#
#
#
# Elastic Constant Matrix: (Units=GPa)
#
#
# Indices 1 2 3 4 5 6 
#
# 1 59.8781 -11.8475 14.8021 4.7401 25.8839 6.4210
# 2 -11.8475 78.2008 9.3254 3.0190 -7.1325 1.4459
# 3 14.8021 9.3254 138.8502 9.4826 4.2578 4.8250
# 4 4.7401 3.0190 9.4826 32.3446 -2.0706 2.2099
# 5 25.8839 -7.1325 4.2578 -2.0706 42.0675 6.7898
# 6 6.4210 1.4459 4.8250 2.2099 6.7898 18.6060
#
#
#
# Elastic Compliance Matrix: (Units=1/GPa)
#
#
# Indices 1 2 3 4 5 6 
#
# 1 0.024468 0.002855 -0.002006 -0.004000 -0.014161 -0.002503
# 2 0.002855 0.013514 -0.001092 -0.001169 0.000901 -0.001942
# 3 -0.002006 -0.001092 0.007636 -0.001742 0.000373 -0.001132
# 4 -0.004000 -0.001169 -0.001742 0.032669 0.004636 -0.003649
# 5 -0.014161 0.000901 0.000373 0.004636 0.034167 -0.008299
# 6 -0.002503 -0.001942 -0.001132 -0.003649 -0.008299 0.058516
#
#
# Mechanical properties :
#
#
# Convention : Reuss Voigt Hill
#
# Bulk Modulus (GPa) = 22.15735 33.49879 27.82807
# Shear Modulus (GPa) = 26.80973 36.24688 31.52830
#
# Velocity S-wave (km/s) = 3.65730 4.25256 3.96611
# Velocity P-wave (km/s) = 5.37487 6.38948 5.90401
#
# Compressibility (1/GPa) = 0.04513174
#
# Stress axis : x y z
#
# Youngs Moduli (GPa) = 40.87013 73.99935 130.95804
#
# Poissons Ratio (x) = -0.21128 0.26267
# Poissons Ratio (y) = -0.11669 0.14304
# Poissons Ratio (z) = 0.08198 0.08083
#
# Static dielectric constant tensor:
#      x y z
#    x 1.699800 -0.021350 0.015350 
#    y -0.021350 1.673390 -0.004190 
#    z 0.015350 -0.004190 1.713470 
# 
# From -- ./inp_files/144494.got.cif
#   From: 2010.05.17/outbox.cif.g08.bks.cpg/sg2_73_cif.got.tgz:144494.got - 2010.06.03 11:33:40.
