data_PCOD9066072
_publ_section_title
;
Structure prediction by ZEFSAII (Michael W. Deem and Ramdas Pophale) SiO2 
 PCOD9066072
Probable space group: P -1
;
_chemical_formula_sum "Si O2"
_cell_formula_units_Z 14
_cell_length_a 8.996762
_cell_length_b 8.798798
_cell_length_c 11.070335
_cell_angle_alpha 64.763365
_cell_angle_beta 71.071080
_cell_angle_gamma 46.919634
_cell_volume 578.249549
_symmetry_space_group_name_H-M "P -1"
_symmetry_group_IT_number 2
_symmetry_cell_setting 'triclinic'
loop_
_space_group_symop_operation_xyz
x,y,z
-x,-y,-z
loop_
_atom_site_type_symbol
_atom_site_label
_atom_site_fract_x
_atom_site_fract_y
_atom_site_fract_z
Si Si1 0.354273 0.843552 0.152916
Si Si2 0.753966 0.521410 0.295675
Si Si3 0.268323 0.119035 0.489709
Si Si4 0.257395 0.676151 0.033051
Si Si5 0.775726 0.176563 0.549813
Si Si6 0.027499 0.289844 0.099003
Si Si7 0.993346 0.373992 0.690352
O O1 0.587625 0.659619 0.187799
O O2 0.268431 0.841427 0.048166
O O3 0.251568 0.814279 0.302523
O O4 0.265814 0.088910 0.100338
O O5 0.700421 0.409247 0.440428
O O6 0.815226 0.656078 0.291642
O O7 0.955616 0.321287 0.243669
O O8 0.108080 0.186271 0.619494
O O9 0.156541 0.370285 0.395973
O O10 0.500000 0.000000 0.500000
O O11 0.310901 0.935192 0.448781
O O12 0.145312 0.632113 0.175801
O O13 0.500000 0.500000 0.000000
O O14 0.119322 0.732475 0.933346
O O15 0.000000 0.000000 0.500000
O O16 0.000000 0.500000 0.000000
#
# Coordination Sequence:
#
# PCOD9066072 Si02
#       7
#     2   2   2   2   2   2   2
#     4  12  27  47  76 105 145 196 242 310 378 430
#     4  12  25  47  74 108 146 192 245 301 380 447
#     4  11  25  44  73 113 149 190 243 304 380 442
#     4  12  27  50  73 104 149 202 254 302 363 441
#     4  12  23  45  75 107 148 187 236 307 378 437
#     4  12  26  51  72 105 147 191 251 306 358 443
#     4  11  25  46  71 106 154 191 242 313 365 438
#
# _framework density 24.210999000000001
#
# number of rings (size 3 to 8) (size 9 to 14) (size 15 to 20)
#    0.000    0.286    5.714    2.571    4.000    0.571 
#    2.571    0.000    0.000    0.000    0.000    0.000 
#    0.000    0.000    0.000    0.000    0.000    0.000 
#
# Total GULP energy -78046.276085 kJ/mol
# GULP energy per Si atom -5574.734006 kJ/mol
# Density = 2.415589 g / cm^3
# Si number density = 24.210999 Si / 1000 Ang^3
#
#
#
# Elastic Constant Matrix: (Units=GPa)
#
#
# Indices 1 2 3 4 5 6 
#
# 1 84.9169 14.6916 -23.8975 -4.2731 6.5349 -14.1109
# 2 14.6916 101.7858 11.6517 2.1766 -4.4091 -10.2881
# 3 -23.8975 11.6517 57.7689 8.5935 -17.0464 0.9432
# 4 -4.2731 2.1766 8.5935 47.0467 -3.0573 0.1775
# 5 6.5349 -4.4091 -17.0464 -3.0573 38.0463 14.2827
# 6 -14.1109 -10.2881 0.9432 0.1775 14.2827 35.3040
#
#
#
# Elastic Compliance Matrix: (Units=1/GPa)
#
#
# Indices 1 2 3 4 5 6 
#
# 1 0.015055 -0.002324 0.005802 0.000224 -0.002575 0.006226
# 2 -0.002324 0.010786 -0.003423 -0.000153 -0.000899 0.002670
# 3 0.005802 -0.003423 0.023985 -0.003004 0.010435 -0.003526
# 4 0.000224 -0.000153 -0.003004 0.021859 0.000411 -0.000151
# 5 -0.002575 -0.000899 0.010435 0.000411 0.037636 -0.016798
# 6 0.006226 0.002670 -0.003526 -0.000151 -0.016798 0.038483
#
#
# Mechanical properties :
#
#
# Convention : Reuss Voigt Hill
#
# Bulk Modulus (GPa) = 20.02609 27.70700 23.86655
# Shear Modulus (GPa) = 30.42472 40.21445 35.31958
#
# Velocity S-wave (km/s) = 3.54877 4.07996 3.82360
# Velocity P-wave (km/s) = 5.00811 5.80203 5.41963
#
# Compressibility (1/GPa) = 0.04993486
#
# Stress axis : x y z
#
# Youngs Moduli (GPa) = 66.42259 92.71180 41.69348
#
# Poissons Ratio (x) = 0.21549 -0.24190
# Poissons Ratio (y) = 0.15438 0.14272
# Poissons Ratio (z) = -0.38538 0.31736
#
# Static dielectric constant tensor:
#      x y z
#    x 2.039950 0.071880 -0.010310 
#    y 0.071880 2.047470 -0.032060 
#    z -0.010310 -0.032060 2.017780 
# 
# From -- ./inp_files/296982.got.cif
#   From: 2010.05.17/outbox.cif.g08.bks.cpg/sg2_149_cif.got.tgz:296982.got - 2010.06.03 11:33:40.
