data_PCOD9066801
_publ_section_title
;
Structure prediction by ZEFSAII (Michael W. Deem and Ramdas Pophale) SiO2 
 PCOD9066801
Probable space group: P -1
;
_chemical_formula_sum "Si O2"
_cell_formula_units_Z 16
_cell_length_a 9.397982
_cell_length_b 12.097151
_cell_length_c 7.960458
_cell_angle_alpha 107.139090
_cell_angle_beta 92.065579
_cell_angle_gamma 129.385485
_cell_volume 637.212361
_symmetry_space_group_name_H-M "P -1"
_symmetry_group_IT_number 2
_symmetry_cell_setting 'triclinic'
loop_
_space_group_symop_operation_xyz
x,y,z
-x,-y,-z
loop_
_atom_site_type_symbol
_atom_site_label
_atom_site_fract_x
_atom_site_fract_y
_atom_site_fract_z
Si Si1 0.355403 0.483356 0.858444
Si Si2 0.663473 0.127703 0.697242
Si Si3 0.185565 0.012158 0.190190
Si Si4 0.008183 0.324706 0.330836
Si Si5 0.035208 0.463163 0.744999
Si Si6 0.648509 0.660339 0.677428
Si Si7 0.664941 0.964135 0.162542
Si Si8 0.843360 0.860398 0.304776
O O1 0.193969 0.492552 0.888442
O O2 0.513551 0.625760 0.808352
O O3 0.235531 0.305288 0.709392
O O4 0.500000 0.500000 0.000000
O O5 0.821197 0.304843 0.717155
O O6 0.500000 0.000000 0.500000
O O7 0.772626 0.071281 0.725387
O O8 0.549434 0.108225 0.848792
O O9 0.281076 0.183398 0.333037
O O10 0.956613 0.903160 0.151105
O O11 0.270180 0.031879 0.020441
O O12 0.080631 0.429943 0.549304
O O13 0.168295 0.321638 0.272384
O O14 0.960926 0.397686 0.225073
O O15 0.819522 0.149116 0.296444
O O16 0.500000 0.500000 0.500000
O O17 0.688164 0.871182 0.252961
O O18 0.000000 0.000000 0.500000
#
# Coordination Sequence:
#
# PCOD9066801 Si02
#       8
#     2   2   2   2   2   2   2   2
#     4  12  27  46  72 109 150 192 243 312 381 440
#     4  12  26  46  76 109 146 201 254 305 374 451
#     4  12  27  47  73 104 155 193 249 319 370 445
#     4  11  25  46  77 109 148 193 248 312 380 445
#     4  11  25  50  72 111 152 193 251 314 368 453
#     4  12  26  45  75 107 143 197 250 299 376 449
#     4  12  26  46  72 110 149 195 245 308 387 437
#     4  12  24  48  76 105 144 196 258 313 364 448
#
# _framework density 25.109366999999999
#
# number of rings (size 3 to 8) (size 9 to 14) (size 15 to 20)
#    0.000    0.250    5.000    3.750    7.000    0.000 
#    2.250    1.250    0.000    0.000    0.000    0.000 
#    0.000    0.000    0.000    0.000    0.000    0.000 
#
# Total GULP energy -89592.306317 kJ/mol
# GULP energy per Si atom -5599.519145 kJ/mol
# Density = 2.505222 g / cm^3
# Si number density = 25.109367 Si / 1000 Ang^3
#
#
#
# Elastic Constant Matrix: (Units=GPa)
#
#
# Indices 1 2 3 4 5 6 
#
# 1 123.4555 50.3854 0.8208 5.6213 6.8234 2.8665
# 2 50.3854 145.2545 -11.8082 -3.3576 0.2482 -5.0024
# 3 0.8208 -11.8082 55.8671 4.8913 -6.2892 6.2061
# 4 5.6213 -3.3576 4.8913 29.6019 3.0520 -6.3480
# 5 6.8234 0.2482 -6.2892 3.0520 38.7471 -10.6919
# 6 2.8665 -5.0024 6.2061 -6.3480 -10.6919 60.5629
#
#
#
# Elastic Compliance Matrix: (Units=1/GPa)
#
#
# Indices 1 2 3 4 5 6 
#
# 1 0.009795 -0.003553 -0.000788 -0.002196 -0.002005 -0.001260
# 2 -0.003553 0.008321 0.001685 0.001453 0.001011 0.001014
# 3 -0.000788 0.001685 0.019094 -0.003474 0.003058 -0.001604
# 4 -0.002196 0.001453 -0.003474 0.035996 -0.001914 0.004015
# 5 -0.002005 0.001011 0.003058 -0.001914 0.028077 0.004621
# 6 -0.001260 0.001014 -0.001604 0.004015 0.004621 0.018056
#
#
# Mechanical properties :
#
#
# Convention : Reuss Voigt Hill
#
# Bulk Modulus (GPa) = 31.35004 44.81924 38.08464
# Shear Modulus (GPa) = 36.95939 44.79432 40.87686
#
# Velocity S-wave (km/s) = 3.84074 4.22829 4.03917
# Velocity P-wave (km/s) = 5.67282 6.45959 6.07895
#
# Compressibility (1/GPa) = 0.03189789
#
# Stress axis : x y z
#
# Youngs Moduli (GPa) = 102.08959 120.18492 52.37263
#
# Poissons Ratio (x) = 0.42697 0.04128
# Poissons Ratio (y) = 0.36268 -0.08824
# Poissons Ratio (z) = 0.08047 -0.20249
#
# Static dielectric constant tensor:
#      x y z
#    x 2.630970 -0.146840 0.162020 
#    y -0.146840 1.993000 -0.106500 
#    z 0.162020 -0.106500 2.226630 
# 
# From -- ./inp_files/188591.got.cif
#   From: 2010.05.17/outbox.cif.g08.bks.cpg/sg2_95_cif.got.tgz:188591.got - 2010.06.03 11:33:40.
