data_PCOD9066462
_publ_section_title
;
Structure prediction by ZEFSAII (Michael W. Deem and Ramdas Pophale) SiO2 
 PCOD9066462
Probable space group: P -1
;
_chemical_formula_sum "Si O2"
_cell_formula_units_Z 14
_cell_length_a 13.441048
_cell_length_b 10.393320
_cell_length_c 15.793295
_cell_angle_alpha 125.341386
_cell_angle_beta 27.276722
_cell_angle_gamma 136.777915
_cell_volume 675.382355
_symmetry_space_group_name_H-M "P -1"
_symmetry_group_IT_number 2
_symmetry_cell_setting 'triclinic'
loop_
_space_group_symop_operation_xyz
x,y,z
-x,-y,-z
loop_
_atom_site_type_symbol
_atom_site_label
_atom_site_fract_x
_atom_site_fract_y
_atom_site_fract_z
Si Si1 0.795965 0.984700 0.578793
Si Si2 0.383730 0.219842 0.678119
Si Si3 0.228392 0.295522 0.649109
Si Si4 0.132065 0.788966 0.700523
Si Si5 0.649371 0.188791 0.018988
Si Si6 0.012304 0.317169 0.417182
Si Si7 0.590856 0.501154 0.093251
O O1 0.786150 0.859419 0.461273
O O2 0.511821 0.882765 0.798668
O O3 0.000000 0.000000 0.500000
O O4 0.896336 0.190193 0.541331
O O5 0.241234 0.243935 0.716570
O O6 0.663220 0.264374 0.451530
O O7 0.421500 0.361088 0.777596
O O8 0.227057 0.998163 0.741785
O O9 0.500000 0.500000 0.500000
O O10 0.958206 0.278800 0.830897
O O11 0.136618 0.799619 0.599108
O O12 0.842938 0.629069 0.891749
O O13 0.615586 0.346935 0.064777
O O14 0.500000 0.000000 0.000000
O O15 0.315594 0.388673 0.208741
O O16 0.000000 0.500000 0.500000
#
# Coordination Sequence:
#
# PCOD9066462 Si02
#       7
#     2   2   2   2   2   2   2
#     4  12  25  49  73 100 149 186 239 299 351 430
#     4  11  25  46  67 104 144 181 230 288 366 419
#     4  12  26  45  74 107 142 185 242 299 354 428
#     4  11  25  46  71 102 142 184 230 291 360 426
#     4  12  27  45  74 105 138 196 241 289 362 422
#     4  12  25  45  74 107 137 190 238 291 355 423
#     4  12  25  44  73 102 142 183 239 292 353 427
#
# _framework density 20.728999000000002
#
# number of rings (size 3 to 8) (size 9 to 14) (size 15 to 20)
#    0.000    0.286    5.714    2.571    2.000    4.571 
#    0.000    0.000    0.000    0.000    0.000    0.000 
#    0.000    0.000    0.000    0.000    0.000    0.000 
#
# Total GULP energy -78366.291579 kJ/mol
# GULP energy per Si atom -5597.592256 kJ/mol
# Density = 2.068182 g / cm^3
# Si number density = 20.728999 Si / 1000 Ang^3
#
#
#
# Elastic Constant Matrix: (Units=GPa)
#
#
# Indices 1 2 3 4 5 6 
#
# 1 74.8432 30.4851 8.2564 5.2794 -19.6641 -3.7112
# 2 30.4851 104.7554 32.5707 4.7471 -10.0644 -24.4073
# 3 8.2564 32.5707 109.8414 -18.8827 -28.5886 -22.3659
# 4 5.2794 4.7471 -18.8827 39.3514 1.3417 3.7255
# 5 -19.6641 -10.0644 -28.5886 1.3417 43.6545 0.1912
# 6 -3.7112 -24.4073 -22.3659 3.7255 0.1912 36.6374
#
#
#
# Elastic Compliance Matrix: (Units=1/GPa)
#
#
# Indices 1 2 3 4 5 6 
#
# 1 0.017301 -0.004897 0.002021 -0.001014 0.008020 -0.000215
# 2 -0.004897 0.013591 -0.003010 -0.003060 -0.000981 0.007037
# 3 0.002021 -0.003010 0.014758 0.006227 0.009661 0.006525
# 4 -0.001014 -0.003060 0.006227 0.028958 0.002031 -0.001295
# 5 0.008020 -0.000981 0.009661 0.002031 0.032533 0.005681
# 6 -0.000215 0.007037 0.006525 -0.001295 0.005681 0.036046
#
#
# Mechanical properties :
#
#
# Convention : Reuss Voigt Hill
#
# Bulk Modulus (GPa) = 29.51795 48.00715 38.76255
# Shear Modulus (GPa) = 30.07469 38.47053 34.27261
#
# Velocity S-wave (km/s) = 3.81314 4.31267 4.07057
# Velocity P-wave (km/s) = 5.80151 6.92882 6.39007
#
# Compressibility (1/GPa) = 0.03387769
#
# Stress axis : x y z
#
# Youngs Moduli (GPa) = 57.80085 73.57827 67.75780
#
# Poissons Ratio (x) = 0.36029 -0.13693
# Poissons Ratio (y) = 0.28303 0.20398
# Poissons Ratio (z) = -0.11681 0.22150
#
# Static dielectric constant tensor:
#      x y z
#    x 1.724980 -0.016180 -0.035600 
#    y -0.016180 1.804190 0.067820 
#    z -0.035600 0.067820 1.820330 
# 
# From -- ./inp_files/241545.got.cif
#   From: 2010.05.17/outbox.cif.g08.bks.cpg/sg2_121_cif.got.tgz:241545.got - 2010.06.03 11:33:40.
