data_PCOD9066270
_publ_section_title
;
Structure prediction by ZEFSAII (Michael W. Deem and Ramdas Pophale) SiO2 
 PCOD9066270
Probable space group: P -1
;
_chemical_formula_sum "Si O2"
_cell_formula_units_Z 11
_cell_length_a 4.768422
_cell_length_b 12.345756
_cell_length_c 7.322843
_cell_angle_alpha 87.111579
_cell_angle_beta 71.109315
_cell_angle_gamma 89.065845
_cell_volume 407.356349
_symmetry_space_group_name_H-M "P -1"
_symmetry_group_IT_number 2
_symmetry_cell_setting 'triclinic'
loop_
_space_group_symop_operation_xyz
x,y,z
-x,-y,-z
loop_
_atom_site_type_symbol
_atom_site_label
_atom_site_fract_x
_atom_site_fract_y
_atom_site_fract_z
Si Si1 0.103178 0.086397 0.178264
Si Si2 0.500000 0.500000 0.000000
Si Si3 0.414430 0.868751 0.227371
Si Si4 0.642335 0.600901 0.657968
Si Si5 0.504699 0.172437 0.376737
Si Si6 0.800151 0.374809 0.723475
O O1 0.204716 0.154863 0.329197
O O2 0.762754 0.113484 0.215845
O O3 0.182687 0.962962 0.220223
O O4 0.305880 0.119075 0.964095
O O5 0.319591 0.391567 0.134232
O O6 0.194995 0.577536 0.079884
O O7 0.506364 0.878214 0.417873
O O8 0.439182 0.698543 0.627550
O O9 0.548774 0.470828 0.711702
O O10 0.923905 0.607277 0.467525
O O11 0.714547 0.251525 0.753295
#
# Coordination Sequence:
#
# PCOD9066270 Si02
#       6
#     2   1   2   2   2   2
#     4  11  28  47  72 111 144 192 248 289 362 429
#     4   8  16  36  64  98 142 180 230 296 344 430
#     4  11  25  45  73 103 150 190 241 303 354 429
#     4   9  20  37  69 103 141 180 239 287 360 425
#     4  12  25  47  75 107 146 192 237 303 356 434
#     4   9  19  39  66 104 135 190 229 294 356 421
#
# _framework density 27.003381000000001
#
# number of rings (size 3 to 8) (size 9 to 14) (size 15 to 20)
#    1.091    0.727    0.000    3.273    0.000    9.455 
#    0.000    0.909    0.000    0.000    0.000    0.000 
#    0.000    0.000    0.000    0.000    0.000    0.000 
#
# Total GULP energy -61282.773464 kJ/mol
# GULP energy per Si atom -5571.161224 kJ/mol
# Density = 2.694192 g / cm^3
# Si number density = 27.003381 Si / 1000 Ang^3
#
#
#
# Elastic Constant Matrix: (Units=GPa)
#
#
# Indices 1 2 3 4 5 6 
#
# 1 66.3413 25.0137 33.9413 -2.8737 1.7917 -1.3254
# 2 25.0137 212.8301 67.7848 -19.2613 -10.0377 -15.5562
# 3 33.9413 67.7848 145.8619 -10.5045 -16.0367 -15.8948
# 4 -2.8737 -19.2613 -10.5045 49.1674 -2.3023 0.3605
# 5 1.7917 -10.0377 -16.0367 -2.3023 24.0825 5.2514
# 6 -1.3254 -15.5562 -15.8948 0.3605 5.2514 27.9265
#
#
#
# Elastic Compliance Matrix: (Units=1/GPa)
#
#
# Indices 1 2 3 4 5 6 
#
# 1 0.017745 -0.001068 -0.004299 -0.000494 -0.004376 -0.001370
# 2 -0.001068 0.005809 -0.002018 0.001812 0.000929 0.001838
# 3 -0.004299 -0.002018 0.009838 0.001291 0.005449 0.003230
# 4 -0.000494 0.001812 0.001291 0.021455 0.003533 0.000780
# 5 -0.004376 0.000929 0.005449 0.003533 0.047413 -0.005550
# 6 -0.001370 0.001838 0.003230 0.000780 -0.005550 0.039639
#
#
# Mechanical properties :
#
#
# Convention : Reuss Voigt Hill
#
# Bulk Modulus (GPa) = 53.69872 75.39033 64.54453
# Shear Modulus (GPa) = 30.69795 40.12152 35.40974
#
# Velocity S-wave (km/s) = 3.37533 3.85878 3.62513
# Velocity P-wave (km/s) = 5.92618 6.91615 6.44021
#
# Compressibility (1/GPa) = 0.01862242
#
# Stress axis : x y z
#
# Youngs Moduli (GPa) = 56.35387 172.14626 101.64538
#
# Poissons Ratio (x) = 0.18379 0.43698
# Poissons Ratio (y) = 0.06016 0.20513
# Poissons Ratio (z) = 0.24227 0.34741
#
# Static dielectric constant tensor:
#      x y z
#    x 1.695340 -0.140930 -0.671460 
#    y -0.140930 2.061630 -0.302510 
#    z -0.671460 -0.302510 1.061260 
# 
# From -- ./inp_files/111858.got.cif
#   From: 2010.05.17/outbox.cif.g08.bks.cpg/sg2_56_cif.got.tgz:111858.got - 2010.06.03 11:33:40.
