data_PCOD9066238
_publ_section_title
;
Structure prediction by ZEFSAII (Michael W. Deem and Ramdas Pophale) SiO2 
 PCOD9066238
Probable space group: P -1
;
_chemical_formula_sum "Si O2"
_cell_formula_units_Z 14
_cell_length_a 9.399595
_cell_length_b 5.800412
_cell_length_c 21.154113
_cell_angle_alpha 44.973560
_cell_angle_beta 46.120410
_cell_angle_gamma 51.537969
_cell_volume 567.616253
_symmetry_space_group_name_H-M "P -1"
_symmetry_group_IT_number 2
_symmetry_cell_setting 'triclinic'
loop_
_space_group_symop_operation_xyz
x,y,z
-x,-y,-z
loop_
_atom_site_type_symbol
_atom_site_label
_atom_site_fract_x
_atom_site_fract_y
_atom_site_fract_z
Si Si1 0.585731 0.802505 0.946474
Si Si2 0.033796 0.509437 0.913396
Si Si3 0.564624 0.810624 0.201827
Si Si4 0.901047 0.875799 0.285916
Si Si5 0.467599 0.114202 0.389885
Si Si6 0.245492 0.256815 0.298471
Si Si7 0.922136 0.880807 0.425854
O O1 0.820294 0.616971 0.922959
O O2 0.547555 0.100933 0.848184
O O3 0.500000 0.500000 0.000000
O O4 0.500000 0.000000 0.000000
O O5 0.199995 0.213924 0.883637
O O6 0.135090 0.817209 0.810503
O O7 0.000000 0.500000 0.000000
O O8 0.531656 0.469619 0.311103
O O9 0.445458 0.116065 0.222549
O O10 0.948277 0.936397 0.332734
O O11 0.107106 0.617432 0.250177
O O12 0.674155 0.819044 0.371440
O O13 0.324574 0.204561 0.355068
O O14 0.318900 0.017031 0.505607
O O15 0.071932 0.056933 0.381920
O O16 0.000000 0.500000 0.500000
#
# Coordination Sequence:
#
# PCOD9066238 Si02
#       7
#     2   2   2   2   2   2   2
#     4  12  28  49  79 112 149 200 257 320 389 457
#     4  11  25  52  75 108 150 196 250 312 387 454
#     4  11  26  46  74 106 150 191 248 307 377 452
#     4  11  27  45  73 107 147 187 251 302 370 449
#     4  11  25  45  72 104 147 192 243 299 369 447
#     4  12  24  43  72 106 145 192 246 302 367 440
#     4  12  23  46  71 101 149 194 239 302 370 443
#
# _framework density 24.664550999999999
#
# number of rings (size 3 to 8) (size 9 to 14) (size 15 to 20)
#    0.000    0.571    4.286    2.571    4.000    4.571 
#    2.571    0.000    0.000    0.000    0.000    0.000 
#    0.000    0.000    0.000    0.000    0.000    0.000 
#
# Total GULP energy -78223.256038 kJ/mol
# GULP energy per Si atom -5587.375431 kJ/mol
# Density = 2.460841 g / cm^3
# Si number density = 24.664551 Si / 1000 Ang^3
#
#
#
# Elastic Constant Matrix: (Units=GPa)
#
#
# Indices 1 2 3 4 5 6 
#
# 1 69.3236 17.7915 5.8541 11.2880 -20.6579 -30.7277
# 2 17.7915 131.3324 38.3634 44.7266 -12.1849 -31.6991
# 3 5.8541 38.3634 95.3954 35.0629 5.6770 2.9144
# 4 11.2880 44.7266 35.0629 47.3073 -11.9571 -13.4547
# 5 -20.6579 -12.1849 5.6770 -11.9571 42.9083 10.7152
# 6 -30.7277 -31.6991 2.9144 -13.4547 10.7152 44.4115
#
#
#
# Elastic Compliance Matrix: (Units=1/GPa)
#
#
# Indices 1 2 3 4 5 6 
#
# 1 0.024152 0.002053 -0.004395 0.002755 0.009301 0.017055
# 2 0.002053 0.012957 -0.002544 -0.008377 0.000636 0.008144
# 3 -0.004395 -0.002544 0.017443 -0.013610 -0.006821 -0.008479
# 4 0.002755 -0.008377 -0.013610 0.043345 0.011005 0.007296
# 5 0.009301 0.000636 -0.006821 0.011005 0.031145 0.003156
# 6 0.017055 0.008144 -0.008479 0.007296 0.003156 0.042135
#
#
# Mechanical properties :
#
#
# Convention : Reuss Voigt Hill
#
# Bulk Modulus (GPa) = 22.33150 46.67436 34.50293
# Shear Modulus (GPa) = 25.52651 42.52824 34.02738
#
# Velocity S-wave (km/s) = 3.22055 4.15693 3.71834
# Velocity P-wave (km/s) = 4.78571 6.48112 5.69684
#
# Compressibility (1/GPa) = 0.04477980
#
# Stress axis : x y z
#
# Youngs Moduli (GPa) = 41.40474 77.17787 57.33042
#
# Poissons Ratio (x) = -0.15846 0.25195
# Poissons Ratio (y) = -0.08501 0.14586
# Poissons Ratio (z) = 0.18196 0.19636
#
# Static dielectric constant tensor:
#      x y z
#    x 1.910280 0.021220 -0.021830 
#    y 0.021220 2.117750 0.116230 
#    z -0.021830 0.116230 1.824590 
# 
# From -- ./inp_files/48764.got.cif
#   From: 2010.05.17/outbox.cif.g08.bks.cpg/sg2_25_cif.got.tgz:48764.got - 2010.06.03 11:33:40.
