data_PCOD9066772
_publ_section_title
;
Structure prediction by ZEFSAII (Michael W. Deem and Ramdas Pophale) SiO2 
 PCOD9066772
Probable space group: P -1
;
_chemical_formula_sum "Si O2"
_cell_formula_units_Z 16
_cell_length_a 12.544266
_cell_length_b 9.757502
_cell_length_c 21.106753
_cell_angle_alpha 36.116312
_cell_angle_beta 154.077445
_cell_angle_gamma 135.382514
_cell_volume 664.599839
_symmetry_space_group_name_H-M "P -1"
_symmetry_group_IT_number 2
_symmetry_cell_setting 'triclinic'
loop_
_space_group_symop_operation_xyz
x,y,z
-x,-y,-z
loop_
_atom_site_type_symbol
_atom_site_label
_atom_site_fract_x
_atom_site_fract_y
_atom_site_fract_z
Si Si1 0.254786 0.194376 0.625232
Si Si2 0.613094 0.729895 0.002310
Si Si3 0.423559 0.755276 0.022682
Si Si4 0.584123 0.758161 0.441441
Si Si5 0.771688 0.641165 0.853648
Si Si6 0.663256 0.289360 0.486751
Si Si7 0.873352 0.089092 0.807183
Si Si8 0.924398 0.005116 0.620891
O O1 0.237128 0.228761 0.527556
O O2 0.349790 0.429956 0.617305
O O3 0.018698 0.147714 0.557742
O O4 0.438330 0.965334 0.814625
O O5 0.877381 0.785550 0.096774
O O6 0.500000 0.500000 0.000000
O O7 0.613453 0.690925 0.092600
O O8 0.147541 0.823695 0.826357
O O9 0.401098 0.534740 0.137878
O O10 0.500000 0.000000 0.000000
O O11 0.500000 0.500000 0.500000
O O12 0.319224 0.893160 0.245026
O O13 0.710147 0.860135 0.532076
O O14 0.605681 0.762752 0.664156
O O15 0.888336 0.820167 0.896788
O O16 0.000000 0.500000 0.000000
O O17 0.756126 0.203761 0.637158
O O18 0.844269 0.176248 0.571684
#
# Coordination Sequence:
#
# PCOD9066772 Si02
#       8
#     2   2   2   2   2   2   2   2
#     4  11  26  47  72 103 145 193 242 291 364 429
#     4  11  28  50  72 103 144 195 242 295 360 434
#     4  11  25  48  72 106 146 190 240 294 360 427
#     4  12  27  46  70 108 148 188 238 299 366 428
#     4  12  25  43  74 109 147 187 235 301 365 429
#     4  12  24  45  74 109 143 182 247 297 361 426
#     4  12  27  46  73 108 146 190 243 302 362 432
#     4  11  25  46  76 104 143 188 243 299 358 427
#
# _framework density 24.074636999999999
#
# number of rings (size 3 to 8) (size 9 to 14) (size 15 to 20)
#    0.000    0.500    2.500    5.625    7.000    3.500 
#    0.000    0.000    0.000    0.000    0.000    0.000 
#    0.000    0.000    0.000    0.000    0.000    0.000 
#
# Total GULP energy -89518.951968 kJ/mol
# GULP energy per Si atom -5594.934498 kJ/mol
# Density = 2.401984 g / cm^3
# Si number density = 24.074637 Si / 1000 Ang^3
#
#
#
# Elastic Constant Matrix: (Units=GPa)
#
#
# Indices 1 2 3 4 5 6 
#
# 1 121.0728 25.9536 14.7850 -0.9325 -0.9089 -8.2108
# 2 25.9536 163.4859 11.9013 -2.0113 -1.5587 -4.5015
# 3 14.7850 11.9013 60.3829 0.3726 4.5471 4.8777
# 4 -0.9325 -2.0113 0.3726 40.6712 2.6126 7.0787
# 5 -0.9089 -1.5587 4.5471 2.6126 39.0588 -7.5162
# 6 -8.2108 -4.5015 4.8777 7.0787 -7.5162 36.8346
#
#
#
# Elastic Compliance Matrix: (Units=1/GPa)
#
#
# Indices 1 2 3 4 5 6 
#
# 1 0.008951 -0.001189 -0.002216 -0.000306 0.000898 0.002386
# 2 -0.001189 0.006410 -0.001069 0.000141 0.000484 0.000731
# 3 -0.002216 -0.001069 0.017828 0.000562 -0.002917 -0.003689
# 4 -0.000306 0.000141 0.000562 0.025753 -0.002879 -0.005662
# 5 0.000898 0.000484 -0.002917 -0.002879 0.027485 0.006807
# 6 0.002386 0.000731 -0.003689 -0.005662 0.006807 0.030735
#
#
# Mechanical properties :
#
#
# Convention : Reuss Voigt Hill
#
# Bulk Modulus (GPa) = 41.25050 50.02461 45.63756
# Shear Modulus (GPa) = 37.26072 42.79971 40.03021
#
# Velocity S-wave (km/s) = 3.93837 4.22096 4.08211
# Velocity P-wave (km/s) = 6.15245 6.67678 6.41997
#
# Compressibility (1/GPa) = 0.02424213
#
# Stress axis : x y z
#
# Youngs Moduli (GPa) = 111.71718 156.01114 56.09054
#
# Poissons Ratio (x) = 0.18553 0.12429
# Poissons Ratio (y) = 0.13286 0.05994
# Poissons Ratio (z) = 0.24754 0.16671
#
# Static dielectric constant tensor:
#      x y z
#    x 2.146200 0.307500 -0.103350 
#    y 0.307500 2.330100 -0.120430 
#    z -0.103350 -0.120430 2.035250 
# 
# From -- ./inp_files/594000.got.cif
#   From: 2010.05.17/outbox.cif.g08.bks.cpg/sg2_297_cif.got.tgz:594000.got - 2010.06.03 11:33:40.
