data_PCOD9066686
_publ_section_title
;
Structure prediction by ZEFSAII (Michael W. Deem and Ramdas Pophale) SiO2 
 PCOD9066686
Probable space group: P -1
;
_chemical_formula_sum "Si O2"
_cell_formula_units_Z 14
_cell_length_a 6.335454
_cell_length_b 21.877292
_cell_length_c 9.351028
_cell_angle_alpha 142.082253
_cell_angle_beta 83.464471
_cell_angle_gamma 119.581994
_cell_volume 593.423955
_symmetry_space_group_name_H-M "P -1"
_symmetry_group_IT_number 2
_symmetry_cell_setting 'triclinic'
loop_
_space_group_symop_operation_xyz
x,y,z
-x,-y,-z
loop_
_atom_site_type_symbol
_atom_site_label
_atom_site_fract_x
_atom_site_fract_y
_atom_site_fract_z
Si Si1 0.643737 0.151337 0.427502
Si Si2 0.990034 0.431767 0.231517
Si Si3 0.926276 0.747317 0.949852
Si Si4 0.480892 0.887282 0.972531
Si Si5 0.372756 0.224362 0.760378
Si Si6 0.569194 0.690069 0.618128
Si Si7 0.744883 0.656203 0.258827
O O1 0.408539 0.129158 0.504901
O O2 0.946442 0.294893 0.699192
O O3 0.675364 0.044453 0.263408
O O4 0.575002 0.140190 0.244360
O O5 0.249104 0.560707 0.362387
O O6 0.000000 0.500000 0.500000
O O7 0.061234 0.341795 0.108353
O O8 0.676470 0.339889 0.023489
O O9 0.867103 0.826150 0.196908
O O10 0.204839 0.827501 0.977927
O O11 0.670870 0.662543 0.698968
O O12 0.590829 0.813881 0.876049
O O13 0.331306 0.289802 0.757577
O O14 0.761671 0.719191 0.524289
O O15 0.500000 0.500000 0.000000
#
# Coordination Sequence:
#
# PCOD9066686 Si02
#       7
#     2   2   2   2   2   2   2
#     4  11  26  48  69 106 145 183 242 289 346 423
#     4  12  25  42  72 105 148 184 235 293 352 423
#     4  12  24  45  71 105 137 187 232 287 359 410
#     4  11  25  46  74 101 143 193 234 289 347 425
#     4  12  26  45  70 105 144 183 233 299 353 411
#     4  12  24  43  73 106 139 187 237 288 354 423
#     4  12  27  43  73 107 143 182 234 299 360 414
#
# _framework density 23.591901
#
# number of rings (size 3 to 8) (size 9 to 14) (size 15 to 20)
#    0.000    0.286    5.714    3.000    4.000    3.429 
#    0.000    5.000    0.000    0.000    0.000    0.000 
#    0.000    0.000    0.000    0.000    0.000    0.000 
#
# Total GULP energy -78353.763086 kJ/mol
# GULP energy per Si atom -5596.697363 kJ/mol
# Density = 2.353820 g / cm^3
# Si number density = 23.591901 Si / 1000 Ang^3
#
#
#
# Elastic Constant Matrix: (Units=GPa)
#
#
# Indices 1 2 3 4 5 6 
#
# 1 86.2845 21.6688 27.4407 -21.7461 -26.5217 9.7495
# 2 21.6688 62.5581 26.3945 -20.5315 -15.2252 7.3848
# 3 27.4407 26.3945 68.9979 -15.5450 -21.6141 2.8354
# 4 -21.7461 -20.5315 -15.5450 42.0847 7.4255 -4.2202
# 5 -26.5217 -15.2252 -21.6141 7.4255 38.1550 -19.5947
# 6 9.7495 7.3848 2.8354 -4.2202 -19.5947 46.8717
#
#
#
# Elastic Compliance Matrix: (Units=1/GPa)
#
#
# Indices 1 2 3 4 5 6 
#
# 1 0.016772 -0.000791 -0.002035 0.005948 0.009732 0.001363
# 2 -0.000791 0.021899 -0.005288 0.007659 0.003226 -0.000928
# 3 -0.002035 -0.005288 0.020922 0.002765 0.010075 0.004452
# 4 0.005948 0.007659 0.002765 0.031134 0.003562 0.001681
# 5 0.009732 0.003226 0.010075 0.003562 0.048168 0.017315
# 6 0.001363 -0.000928 0.004452 0.001681 0.017315 0.028318
#
#
# Mechanical properties :
#
#
# Convention : Reuss Voigt Hill
#
# Bulk Modulus (GPa) = 23.06050 40.98317 32.02183
# Shear Modulus (GPa) = 25.26604 34.91140 30.08872
#
# Velocity S-wave (km/s) = 3.27611 3.85100 3.57513
# Velocity P-wave (km/s) = 4.90983 6.09778 5.53577
#
# Compressibility (1/GPa) = 0.04336420
#
# Stress axis : x y z
#
# Youngs Moduli (GPa) = 59.62337 45.66474 47.79751
#
# Poissons Ratio (x) = 0.03612 0.09726
# Poissons Ratio (y) = 0.04716 0.25277
# Poissons Ratio (z) = 0.12132 0.24149
#
# Static dielectric constant tensor:
#      x y z
#    x 1.899480 0.060130 -0.017650 
#    y 0.060130 1.895150 -0.020040 
#    z -0.017650 -0.020040 1.904480 
# 
# From -- ./inp_files/68089.got.cif
#   From: 2010.05.17/outbox.cif.g08.bks.cpg/sg2_35_cif.got.tgz:68089.got - 2010.06.03 11:33:40.
