data_PCOD9066789
_publ_section_title
;
Structure prediction by ZEFSAII (Michael W. Deem and Ramdas Pophale) SiO2 
 PCOD9066789
Probable space group: P -1
;
_chemical_formula_sum "Si O2"
_cell_formula_units_Z 16
_cell_length_a 5.479144
_cell_length_b 18.905413
_cell_length_c 9.338560
_cell_angle_alpha 44.002684
_cell_angle_beta 83.970407
_cell_angle_gamma 74.543558
_cell_volume 642.251300
_symmetry_space_group_name_H-M "P -1"
_symmetry_group_IT_number 2
_symmetry_cell_setting 'triclinic'
loop_
_space_group_symop_operation_xyz
x,y,z
-x,-y,-z
loop_
_atom_site_type_symbol
_atom_site_label
_atom_site_fract_x
_atom_site_fract_y
_atom_site_fract_z
Si Si1 0.978418 0.596353 0.537854
Si Si2 0.229496 0.748474 0.240967
Si Si3 0.283973 0.439976 0.127969
Si Si4 0.273814 0.247715 0.214814
Si Si5 0.283816 0.937987 0.128040
Si Si6 0.673352 0.619663 0.239700
Si Si7 0.986053 0.156634 0.183404
Si Si8 0.341884 0.943287 0.444026
O O1 0.755458 0.576130 0.678013
O O2 0.889286 0.618086 0.347289
O O3 0.053652 0.701828 0.424547
O O4 0.211673 0.489791 0.689699
O O5 0.359308 0.826455 0.201780
O O6 0.421356 0.643477 0.314760
O O7 0.087529 0.810041 0.021962
O O8 0.328164 0.327663 0.210649
O O9 0.500000 0.500000 0.000000
O O10 0.000000 0.500000 0.000000
O O11 0.001542 0.249507 0.157989
O O12 0.374274 0.131504 0.446562
O O13 0.388453 0.284766 0.008788
O O14 0.257666 0.921750 0.322178
O O15 0.500000 0.000000 0.000000
O O16 0.000000 0.000000 0.000000
O O17 0.803352 0.098094 0.358803
O O18 0.263693 0.069697 0.278484
#
# Coordination Sequence:
#
# PCOD9066789 Si02
#       8
#     2   2   2   2   2   2   2   2
#     4  11  27  49  77 111 159 206 264 328 407 470
#     4  12  26  47  83 113 163 207 269 329 410 476
#     4  12  31  52  79 116 163 211 268 330 397 481
#     4  12  26  46  81 109 160 202 269 320 408 466
#     4  12  31  51  80 116 164 211 268 329 398 478
#     4  11  25  46  76 117 150 205 264 328 398 482
#     4  11  25  48  77 116 152 201 268 329 395 478
#     4  11  27  47  77 111 157 207 263 327 404 467
#
# _framework density 24.912369000000002
#
# number of rings (size 3 to 8) (size 9 to 14) (size 15 to 20)
#    0.000    0.500    5.000    0.750   12.250    2.000 
#    0.000    0.000    0.000    0.000    0.000    0.000 
#    0.000    0.000    0.000    0.000    0.000    0.000 
#
# Total GULP energy -89367.652087 kJ/mol
# GULP energy per Si atom -5585.478255 kJ/mol
# Density = 2.485567 g / cm^3
# Si number density = 24.912369 Si / 1000 Ang^3
#
#
#
# Elastic Constant Matrix: (Units=GPa)
#
#
# Indices 1 2 3 4 5 6 
#
# 1 97.2494 39.3144 40.5031 -13.7578 -9.0071 11.5613
# 2 39.3144 119.4921 45.0907 4.1249 -4.8016 21.8710
# 3 40.5031 45.0907 128.9045 8.3354 2.5202 2.9012
# 4 -13.7578 4.1249 8.3354 21.5599 10.7575 -3.1000
# 5 -9.0071 -4.8016 2.5202 10.7575 51.0927 0.5149
# 6 11.5613 21.8710 2.9012 -3.1000 0.5149 34.7813
#
#
#
# Elastic Compliance Matrix: (Units=1/GPa)
#
#
# Indices 1 2 3 4 5 6 
#
# 1 0.015400 -0.003577 -0.004328 0.011929 0.000095 -0.001447
# 2 -0.003577 0.012012 -0.002612 -0.005447 0.001841 -0.006659
# 3 -0.004328 -0.002612 0.010379 -0.005882 -0.000299 0.001696
# 4 0.011929 -0.005447 -0.005882 0.063958 -0.011644 0.005823
# 5 0.000095 0.001841 -0.000299 -0.011644 0.022254 -0.002532
# 6 -0.001447 -0.006659 0.001696 0.005823 -0.002532 0.033835
#
#
# Mechanical properties :
#
#
# Convention : Reuss Voigt Hill
#
# Bulk Modulus (GPa) = 59.67450 66.16249 62.91850
# Shear Modulus (GPa) = 27.10653 36.20262 31.65458
#
# Velocity S-wave (km/s) = 3.30218 3.81622 3.56847
# Velocity P-wave (km/s) = 6.20846 6.78482 6.50303
#
# Compressibility (1/GPa) = 0.01675758
#
# Stress axis : x y z
#
# Youngs Moduli (GPa) = 64.93558 83.25028 96.34465
#
# Poissons Ratio (x) = 0.29775 0.41702
# Poissons Ratio (y) = 0.23224 0.25164
# Poissons Ratio (z) = 0.28107 0.21744
#
# Static dielectric constant tensor:
#      x y z
#    x 2.119500 -0.053930 0.026250 
#    y -0.053930 2.051210 -0.055810 
#    z 0.026250 -0.055810 1.960120 
# 
# From -- ./inp_files/138546.got.cif
#   From: 2010.05.17/outbox.cif.g08.bks.cpg/sg2_70_cif.got.tgz:138546.got - 2010.06.03 11:33:40.
