data_PCOD9066242
_publ_section_title
;
Structure prediction by ZEFSAII (Michael W. Deem and Ramdas Pophale) SiO2 
 PCOD9066242
Probable space group: P -1
;
_chemical_formula_sum "Si O2"
_cell_formula_units_Z 14
_cell_length_a 8.594206
_cell_length_b 10.931107
_cell_length_c 16.838902
_cell_angle_alpha 33.715730
_cell_angle_beta 140.869462
_cell_angle_gamma 123.723762
_cell_volume 535.524756
_symmetry_space_group_name_H-M "P -1"
_symmetry_group_IT_number 2
_symmetry_cell_setting 'triclinic'
loop_
_space_group_symop_operation_xyz
x,y,z
-x,-y,-z
loop_
_atom_site_type_symbol
_atom_site_label
_atom_site_fract_x
_atom_site_fract_y
_atom_site_fract_z
Si Si1 0.983016 0.769678 0.282806
Si Si2 0.061378 0.966459 0.726901
Si Si3 0.244529 0.345261 0.510215
Si Si4 0.719429 0.533996 0.128619
Si Si5 0.301052 0.967190 0.202796
Si Si6 0.394858 0.160451 0.447176
Si Si7 0.500169 0.590366 0.180364
O O1 0.152490 0.534157 0.440210
O O2 0.027573 0.949396 0.137677
O O3 0.073567 0.849574 0.358858
O O4 0.706010 0.730557 0.209132
O O5 0.207217 0.105386 0.655897
O O6 0.896841 0.849082 0.669143
O O7 0.245095 0.772859 0.955753
O O8 0.546794 0.264957 0.655518
O O9 0.025903 0.417128 0.316122
O O10 0.623067 0.473263 0.209670
O O11 0.500000 0.500000 0.000000
O O12 0.710111 0.800340 0.971600
O O13 0.472467 0.948186 0.361024
O O14 0.426288 0.412509 0.306416
O O15 0.500000 0.000000 0.500000
#
# Coordination Sequence:
#
# PCOD9066242 Si02
#       7
#     2   2   2   2   2   2   2
#     4  11  26  47  74 104 148 195 240 302 359 433
#     4  12  24  47  76 107 148 187 249 299 363 433
#     4  11  26  46  73 108 145 196 241 298 367 429
#     4  11  25  45  72 105 152 189 235 305 368 427
#     4  12  26  47  75 108 149 187 246 302 363 429
#     4  12  25  45  75 109 142 194 240 302 364 432
#     4  11  26  46  73 110 144 191 247 293 368 432
#
# _framework density 26.142582000000001
#
# number of rings (size 3 to 8) (size 9 to 14) (size 15 to 20)
#    0.000    0.571    2.857    5.143    4.000    4.571 
#    2.571    0.000    0.000    0.000    0.000    0.000 
#    0.000    0.000    0.000    0.000    0.000    0.000 
#
# Total GULP energy -78321.240744 kJ/mol
# GULP energy per Si atom -5594.374339 kJ/mol
# Density = 2.608308 g / cm^3
# Si number density = 26.142582 Si / 1000 Ang^3
#
#
#
# Elastic Constant Matrix: (Units=GPa)
#
#
# Indices 1 2 3 4 5 6 
#
# 1 47.2163 2.8885 1.7808 -3.3506 -5.7328 1.0041
# 2 2.8885 140.3384 14.6702 25.4390 -2.5090 2.0136
# 3 1.7808 14.6702 98.9690 1.3094 -3.5328 -1.2266
# 4 -3.3506 25.4390 1.3094 47.8683 3.3837 -12.2181
# 5 -5.7328 -2.5090 -3.5328 3.3837 28.3270 -6.0353
# 6 1.0041 2.0136 -1.2266 -12.2181 -6.0353 38.1119
#
#
#
# Elastic Compliance Matrix: (Units=1/GPa)
#
#
# Indices 1 2 3 4 5 6 
#
# 1 0.021858 -0.000690 -0.000153 0.001778 0.004281 0.000703
# 2 -0.000690 0.008186 -0.001138 -0.004903 0.000619 -0.001925
# 3 -0.000153 -0.001138 0.010324 0.000408 0.001262 0.000727
# 4 0.001778 -0.004903 0.000408 0.025820 -0.001342 0.008290
# 5 0.004281 0.000619 0.001262 -0.001342 0.037699 0.005435
# 6 0.000703 -0.001925 0.000727 0.008290 0.005435 0.029864
#
#
# Mechanical properties :
#
#
# Convention : Reuss Voigt Hill
#
# Bulk Modulus (GPa) = 27.46714 36.13363 31.80038
# Shear Modulus (GPa) = 33.36711 40.67371 37.02041
#
# Velocity S-wave (km/s) = 3.57648 3.94869 3.76719
# Velocity P-wave (km/s) = 5.25209 5.88569 5.57789
#
# Compressibility (1/GPa) = 0.03640715
#
# Stress axis : x y z
#
# Youngs Moduli (GPa) = 45.74978 122.15757 96.85923
#
# Poissons Ratio (x) = 0.08425 0.01483
# Poissons Ratio (y) = 0.03155 0.11022
# Poissons Ratio (z) = 0.00700 0.13900
#
# Static dielectric constant tensor:
#      x y z
#    x 2.158270 0.019500 0.077650 
#    y 0.019500 2.060010 0.045900 
#    z 0.077650 0.045900 2.035240 
# 
# From -- ./inp_files/559617.got.cif
#   From: 2010.05.17/outbox.cif.g08.bks.cpg/sg2_280_cif.got.tgz:559617.got - 2010.06.03 11:33:40.
