data_PCOD9066876
_publ_section_title
;
Structure prediction by ZEFSAII (Michael W. Deem and Ramdas Pophale) SiO2 
 PCOD9066876
Probable space group: P -1
;
_chemical_formula_sum "Si O2"
_cell_formula_units_Z 16
_cell_length_a 9.311794
_cell_length_b 26.362205
_cell_length_c 9.488539
_cell_angle_alpha 43.949473
_cell_angle_beta 45.590117
_cell_angle_gamma 29.572224
_cell_volume 779.153081
_symmetry_space_group_name_H-M "P -1"
_symmetry_group_IT_number 2
_symmetry_cell_setting 'triclinic'
loop_
_space_group_symop_operation_xyz
x,y,z
-x,-y,-z
loop_
_atom_site_type_symbol
_atom_site_label
_atom_site_fract_x
_atom_site_fract_y
_atom_site_fract_z
Si Si1 0.376251 0.991823 0.461189
Si Si2 0.927528 0.742903 0.538212
Si Si3 0.198759 0.475566 0.282538
Si Si4 0.246872 0.157243 0.009528
Si Si5 0.204773 0.387527 0.170233
Si Si6 0.160549 0.781398 0.083767
Si Si7 0.874932 0.343553 0.116293
Si Si8 0.072761 0.995532 0.122284
O O1 0.623987 0.869973 0.476262
O O2 0.094712 0.020552 0.642203
O O3 0.500000 0.000000 0.500000
O O4 0.289589 0.072406 0.240664
O O5 0.914521 0.663338 0.653114
O O6 0.172311 0.724721 0.323662
O O7 0.975524 0.725366 0.707119
O O8 0.221712 0.409723 0.275276
O O9 0.530044 0.412341 0.226459
O O10 0.000000 0.500000 0.500000
O O11 0.076751 0.582744 0.080458
O O12 0.024718 0.267600 0.029508
O O13 0.096326 0.180807 0.917600
O O14 0.577968 0.100798 0.891222
O O15 0.530126 0.300254 0.049192
O O16 0.000000 0.500000 0.000000
O O17 0.061663 0.888897 0.981515
O O18 0.000000 0.000000 0.000000
#
# Coordination Sequence:
#
# PCOD9066876 Si02
#       8
#     2   2   2   2   2   2   2   2
#     4  12  23  43  69 105 144 188 239 289 346 424
#     4  12  25  44  73 100 145 191 236 291 362 423
#     4  11  27  49  74 104 139 186 242 297 370 424
#     4  12  26  45  70 107 150 190 239 297 358 423
#     4  12  27  48  72 107 142 185 244 302 357 431
#     4  12  28  47  69 108 151 187 240 302 360 419
#     4  11  25  47  71 105 146 184 238 302 352 437
#     4  12  24  43  73 101 143 196 241 283 352 434
#
# _framework density 20.535119000000002
#
# number of rings (size 3 to 8) (size 9 to 14) (size 15 to 20)
#    0.000    0.250    7.500    0.375    3.500    3.000 
#    0.000    0.000    0.000    0.000    0.000    0.000 
#    0.000    0.000    0.000    0.000    0.000    0.000 
#
# Total GULP energy -89547.142002 kJ/mol
# GULP energy per Si atom -5596.696375 kJ/mol
# Density = 2.048838 g / cm^3
# Si number density = 20.535119 Si / 1000 Ang^3
#
#
#
# Elastic Constant Matrix: (Units=GPa)
#
#
# Indices 1 2 3 4 5 6 
#
# 1 74.2488 17.3437 10.5488 15.1378 -8.0869 17.6541
# 2 17.3437 92.5342 19.9463 19.4133 -9.4310 8.7908
# 3 10.5488 19.9463 92.4522 27.6074 -23.2604 2.5241
# 4 15.1378 19.4133 27.6074 40.6430 -1.5126 -2.4592
# 5 -8.0869 -9.4310 -23.2604 -1.5126 36.5662 4.3332
# 6 17.6541 8.7908 2.5241 -2.4592 4.3332 35.0299
#
#
#
# Elastic Compliance Matrix: (Units=1/GPa)
#
#
# Indices 1 2 3 4 5 6 
#
# 1 0.018220 -0.000472 0.002518 -0.008676 0.006412 -0.010647
# 2 -0.000472 0.012887 0.000089 -0.006145 0.003480 -0.003864
# 3 0.002518 0.000089 0.017349 -0.012626 0.011671 -0.004872
# 4 -0.008676 -0.006145 -0.012626 0.039595 -0.011199 0.010989
# 5 0.006412 0.003480 0.011671 -0.011199 0.037858 -0.010415
# 6 -0.010647 -0.003864 -0.004872 0.010989 -0.010415 0.037294
#
#
# Mechanical properties :
#
#
# Convention : Reuss Voigt Hill
#
# Bulk Modulus (GPa) = 18.96598 39.43477 29.20037
# Shear Modulus (GPa) = 28.32715 36.54093 32.43404
#
# Velocity S-wave (km/s) = 3.71812 4.22291 3.97853
# Velocity P-wave (km/s) = 5.26199 6.55916 5.94605
#
# Compressibility (1/GPa) = 0.05272598
#
# Stress axis : x y z
#
# Youngs Moduli (GPa) = 54.88542 77.59787 57.63880
#
# Poissons Ratio (x) = 0.03666 -0.14513
# Poissons Ratio (y) = 0.02593 -0.00516
# Poissons Ratio (z) = -0.13819 -0.00694
#
# Static dielectric constant tensor:
#      x y z
#    x 1.679960 -0.004960 -0.029300 
#    y -0.004960 1.738660 0.012650 
#    z -0.029300 0.012650 1.695820 
# 
# From -- ./inp_files/187094.got.cif
#   From: 2010.05.17/outbox.cif.g08.bks.cpg/sg2_94_cif.got.tgz:187094.got - 2010.06.03 11:33:40.
