data_PCOD9066198
_publ_section_title
;
Structure prediction by ZEFSAII (Michael W. Deem and Ramdas Pophale) SiO2 
 PCOD9066198
Probable space group: P -1
;
_chemical_formula_sum "Si O2"
_cell_formula_units_Z 14
_cell_length_a 22.211087
_cell_length_b 5.547797
_cell_length_c 5.712868
_cell_angle_alpha 100.766080
_cell_angle_beta 96.087191
_cell_angle_gamma 122.449268
_cell_volume 565.234483
_symmetry_space_group_name_H-M "P -1"
_symmetry_group_IT_number 2
_symmetry_cell_setting 'triclinic'
loop_
_space_group_symop_operation_xyz
x,y,z
-x,-y,-z
loop_
_atom_site_type_symbol
_atom_site_label
_atom_site_fract_x
_atom_site_fract_y
_atom_site_fract_z
Si Si1 0.654627 0.381517 0.334326
Si Si2 0.985762 0.832229 0.210396
Si Si3 0.790361 0.775729 0.159282
Si Si4 0.839273 0.466033 0.845339
Si Si5 0.299488 0.139059 0.182766
Si Si6 0.412751 0.291805 0.900582
Si Si7 0.076759 0.686518 0.430905
O O1 0.729478 0.498082 0.239784
O O2 0.677228 0.561203 0.618992
O O3 0.612582 0.511747 0.204658
O O4 0.612022 0.025827 0.281697
O O5 0.047499 0.763625 0.208737
O O6 0.899287 0.554746 0.097350
O O7 0.000000 0.000000 0.500000
O O8 0.000000 0.000000 0.000000
O O9 0.862544 0.008773 0.369206
O O10 0.815767 0.686700 0.925507
O O11 0.748045 0.915514 0.078224
O O12 0.884415 0.477604 0.644257
O O13 0.761160 0.144957 0.744847
O O14 0.373297 0.191036 0.121669
O O15 0.500000 0.500000 0.000000
O O16 0.000000 0.500000 0.500000
#
# Coordination Sequence:
#
# PCOD9066198 Si02
#       7
#     2   2   2   2   2   2   2
#     4  11  25  47  75 112 151 195 249 304 378 465
#     4  12  27  46  70 105 147 202 260 337 404 473
#     4  11  25  45  71 103 144 192 253 314 379 465
#     4  12  25  44  73  97 143 196 249 319 383 464
#     4  11  26  44  74 109 144 195 247 302 385 459
#     4  11  26  48  77 113 154 193 243 308 373 463
#     4  12  26  48  71 104 144 198 265 327 400 463
#
# _framework density 24.768481999999999
#
# number of rings (size 3 to 8) (size 9 to 14) (size 15 to 20)
#    0.000    0.571    4.286    2.571    4.000    1.143 
#    2.571    0.000    0.000    0.000    0.000    0.000 
#    0.000    0.000    0.000    0.000    0.000    0.000 
#
# Total GULP energy -78180.747676 kJ/mol
# GULP energy per Si atom -5584.339120 kJ/mol
# Density = 2.471211 g / cm^3
# Si number density = 24.768482 Si / 1000 Ang^3
#
#
#
# Elastic Constant Matrix: (Units=GPa)
#
#
# Indices 1 2 3 4 5 6 
#
# 1 162.9040 64.4630 49.6653 18.6834 0.2001 30.0296
# 2 64.4630 135.3145 49.0391 32.3633 3.5172 24.9818
# 3 49.6653 49.0391 97.8345 19.5763 -9.5301 11.7475
# 4 18.6834 32.3633 19.5763 43.8274 -5.7608 2.0783
# 5 0.2001 3.5172 -9.5301 -5.7608 39.2451 5.9925
# 6 30.0296 24.9818 11.7475 2.0783 5.9925 50.5977
#
#
#
# Elastic Compliance Matrix: (Units=1/GPa)
#
#
# Indices 1 2 3 4 5 6 
#
# 1 0.008552 -0.002376 -0.002653 -0.000560 -0.000060 -0.003257
# 2 -0.002376 0.011914 -0.003321 -0.006457 -0.002327 -0.003160
# 3 -0.002653 -0.003321 0.014059 -0.002225 0.003455 -0.000367
# 4 -0.000560 -0.006457 -0.002225 0.029227 0.003970 0.002366
# 5 -0.000060 -0.002327 0.003455 0.003970 0.027577 -0.003047
# 6 -0.003257 -0.003160 -0.000367 0.002366 -0.003047 0.023606
#
#
# Mechanical properties :
#
#
# Convention : Reuss Voigt Hill
#
# Bulk Modulus (GPa) = 56.10251 80.26529 68.18390
# Shear Modulus (GPa) = 36.34343 42.25974 39.30159
#
# Velocity S-wave (km/s) = 3.83472 4.13509 3.98773
# Velocity P-wave (km/s) = 6.50436 7.43473 6.98505
#
# Compressibility (1/GPa) = 0.01782452
#
# Stress axis : x y z
#
# Youngs Moduli (GPa) = 116.92721 83.93499 71.13052
#
# Poissons Ratio (x) = 0.19943 0.18874
# Poissons Ratio (y) = 0.27783 0.23621
# Poissons Ratio (z) = 0.31026 0.27873
#
# Static dielectric constant tensor:
#      x y z
#    x 1.215880 1.618720 0.098380 
#    y 1.618720 -1.481860 -0.302080 
#    z 0.098380 -0.302080 1.999390 
# 
# From -- ./inp_files/114822.got.cif
#   From: 2010.05.17/outbox.cif.g08.bks.cpg/sg2_58_cif.got.tgz:114822.got - 2010.06.03 11:33:40.
