data_PCOD9066728
_publ_section_title
;
Structure prediction by ZEFSAII (Michael W. Deem and Ramdas Pophale) SiO2 
 PCOD9066728
Probable space group: P -1
;
_chemical_formula_sum "Si O2"
_cell_formula_units_Z 14
_cell_length_a 8.744272
_cell_length_b 16.749636
_cell_length_c 8.547323
_cell_angle_alpha 127.978396
_cell_angle_beta 147.142612
_cell_angle_gamma 68.971043
_cell_volume 497.457859
_symmetry_space_group_name_H-M "P -1"
_symmetry_group_IT_number 2
_symmetry_cell_setting 'triclinic'
loop_
_space_group_symop_operation_xyz
x,y,z
-x,-y,-z
loop_
_atom_site_type_symbol
_atom_site_label
_atom_site_fract_x
_atom_site_fract_y
_atom_site_fract_z
Si Si1 0.737136 0.056730 0.419148
Si Si2 0.296672 0.107556 0.353379
Si Si3 0.108135 0.145884 0.570745
Si Si4 0.709407 0.388222 0.148854
Si Si5 0.897350 0.343495 0.571718
Si Si6 0.594426 0.441741 0.650664
Si Si7 0.831560 0.698488 0.645843
O O1 0.538464 0.078801 0.417841
O O2 0.998115 0.156602 0.673645
O O3 0.874316 0.971970 0.506793
O O4 0.500000 0.000000 0.000000
O O5 0.326926 0.155887 0.616107
O O6 0.193091 0.186346 0.250080
O O7 0.000000 0.000000 0.000000
O O8 0.949057 0.230157 0.468303
O O9 0.000000 0.500000 0.500000
O O10 0.676134 0.360215 0.269651
O O11 0.834988 0.298844 0.082285
O O12 0.404837 0.371869 0.775659
O O13 0.755860 0.360963 0.634510
O O14 0.181704 0.457115 0.938431
O O15 0.500000 0.500000 0.500000
O O16 0.300160 0.370059 0.399221
#
# Coordination Sequence:
#
# PCOD9066728 Si02
#       7
#     2   2   2   2   2   2   2
#     4  11  25  48  75 104 156 201 261 328 399 472
#     4  12  26  50  77 114 155 207 271 331 399 473
#     4  11  25  47  74 113 148 205 262 326 401 471
#     4  12  25  48  77 110 156 200 262 322 392 476
#     4  11  25  46  74 111 153 202 258 325 400 476
#     4  11  26  47  74 113 158 205 254 328 400 488
#     4  12  28  47  78 113 150 211 260 326 399 475
#
# _framework density 28.143087000000001
#
# number of rings (size 3 to 8) (size 9 to 14) (size 15 to 20)
#    0.000    0.571    4.286    2.571    4.000    5.714 
#    0.000    0.000    0.000    0.000    0.000    0.000 
#    0.000    0.000    0.000    0.000    0.000    0.000 
#
# Total GULP energy -77974.977443 kJ/mol
# GULP energy per Si atom -5569.641246 kJ/mol
# Density = 2.807903 g / cm^3
# Si number density = 28.143087 Si / 1000 Ang^3
#
#
#
# Elastic Constant Matrix: (Units=GPa)
#
#
# Indices 1 2 3 4 5 6 
#
# 1 258.2520 87.0831 23.7050 6.1194 8.5263 -7.4956
# 2 87.0831 159.2798 9.8753 -2.9252 -16.3215 5.6612
# 3 23.7050 9.8753 116.6941 -0.6521 -17.7407 4.9055
# 4 6.1194 -2.9252 -0.6521 22.2905 1.0776 -7.9697
# 5 8.5263 -16.3215 -17.7407 1.0776 28.8490 3.6934
# 6 -7.4956 5.6612 4.9055 -7.9697 3.6934 73.2873
#
#
#
# Elastic Compliance Matrix: (Units=1/GPa)
#
#
# Indices 1 2 3 4 5 6 
#
# 1 0.005354 -0.003353 -0.001537 -0.001385 -0.004499 0.000986
# 2 -0.003353 0.008807 0.001018 0.001322 0.006715 -0.001286
# 3 -0.001537 0.001018 0.009961 0.000040 0.007317 -0.001267
# 4 -0.001385 0.001322 0.000040 0.047247 -0.001217 0.004953
# 5 -0.004499 0.006715 0.007317 -0.001217 0.044831 -0.003860
# 6 0.000986 -0.001286 -0.001267 0.004953 -0.003860 0.014663
#
#
# Mechanical properties :
#
#
# Convention : Reuss Voigt Hill
#
# Bulk Modulus (GPa) = 61.05908 86.17253 73.61580
# Shear Modulus (GPa) = 34.70627 52.45618 43.58123
#
# Velocity S-wave (km/s) = 3.51552 4.32199 3.93944
# Velocity P-wave (km/s) = 6.18235 7.45600 6.84885
#
# Compressibility (1/GPa) = 0.01637758
#
# Stress axis : x y z
#
# Youngs Moduli (GPa) = 186.77583 113.55113 100.38859
#
# Poissons Ratio (x) = 0.38078 0.15430
# Poissons Ratio (y) = 0.62634 -0.10222
# Poissons Ratio (z) = 0.28707 -0.11562
#
# Static dielectric constant tensor:
#      x y z
#    x 2.289540 -0.011110 -0.054500 
#    y -0.011110 2.146490 -0.027290 
#    z -0.054500 -0.027290 2.533040 
# 
# From -- ./inp_files/213712.got.cif
#   From: 2010.05.17/outbox.cif.g08.bks.cpg/sg2_107_cif.got.tgz:213712.got - 2010.06.03 11:33:40.
