data_PCOD9066626
_publ_section_title
;
Structure prediction by ZEFSAII (Michael W. Deem and Ramdas Pophale) SiO2 
 PCOD9066626
Probable space group: P -1
;
_chemical_formula_sum "Si O2"
_cell_formula_units_Z 10
_cell_length_a 15.907863
_cell_length_b 5.099255
_cell_length_c 19.169058
_cell_angle_alpha 72.983714
_cell_angle_beta 162.189803
_cell_angle_gamma 115.271792
_cell_volume 391.992457
_symmetry_space_group_name_H-M "P -1"
_symmetry_group_IT_number 2
_symmetry_cell_setting 'triclinic'
loop_
_space_group_symop_operation_xyz
x,y,z
-x,-y,-z
loop_
_atom_site_type_symbol
_atom_site_label
_atom_site_fract_x
_atom_site_fract_y
_atom_site_fract_z
Si Si1 0.596111 0.820685 0.358211
Si Si2 0.947465 0.923657 0.750385
Si Si3 0.795830 0.642728 0.283131
Si Si4 0.324379 0.626759 0.021616
Si Si5 0.057375 0.836461 0.993115
O O1 0.412659 0.992328 0.228897
O O2 0.674149 0.698894 0.499061
O O3 0.387448 0.565017 0.155574
O O4 0.920005 0.066277 0.556385
O O5 0.046276 0.292371 0.798464
O O6 0.240794 0.899601 0.950130
O O7 0.866929 0.810996 0.774387
O O8 0.000000 0.500000 0.500000
O O9 0.500000 0.500000 0.000000
O O10 0.625129 0.730863 0.202152
O O11 0.000000 0.500000 0.000000
O O12 0.000000 0.000000 0.000000
#
# Coordination Sequence:
#
# PCOD9066626 Si02
#       5
#     2   2   2   2   2
#     4  11  26  45  77 106 153 201 256 321 383 468
#     4  11  25  46  75 108 145 199 253 314 390 464
#     4  12  26  47  80 118 163 210 258 316 394 474
#     4  11  25  46  72 111 158 194 252 308 383 469
#     4  11  25  47  71 104 145 192 258 324 389 456
#
# _framework density 25.510695999999999
#
# number of rings (size 3 to 8) (size 9 to 14) (size 15 to 20)
#    0.000    0.800    2.000    5.400    2.800    7.200 
#    0.000    0.000    0.000    0.000    0.000    0.000 
#    0.000    0.000    0.000    0.000    0.000    0.000 
#
# Total GULP energy -55738.089868 kJ/mol
# GULP energy per Si atom -5573.808987 kJ/mol
# Density = 2.545263 g / cm^3
# Si number density = 25.510696 Si / 1000 Ang^3
#
#
#
# Elastic Constant Matrix: (Units=GPa)
#
#
# Indices 1 2 3 4 5 6 
#
# 1 237.9466 37.8842 51.2890 -18.4332 -17.0949 -31.1630
# 2 37.8842 79.3492 -1.0812 -7.0936 -1.5771 -19.7998
# 3 51.2890 -1.0812 97.4527 -3.3673 -17.6276 -15.1028
# 4 -18.4332 -7.0936 -3.3673 24.3958 5.7188 1.3479
# 5 -17.0949 -1.5771 -17.6276 5.7188 58.7770 -8.0530
# 6 -31.1630 -19.7998 -15.1028 1.3479 -8.0530 52.1836
#
#
#
# Elastic Compliance Matrix: (Units=1/GPa)
#
#
# Indices 1 2 3 4 5 6 
#
# 1 0.005575 -0.001920 -0.002399 0.003022 0.000824 0.001956
# 2 -0.001920 0.015149 0.002282 0.002740 0.000998 0.005345
# 3 -0.002399 0.002282 0.012790 -0.000470 0.003756 0.003727
# 4 0.003022 0.002740 -0.000470 0.044746 -0.003401 0.001027
# 5 0.000824 0.000998 0.003756 -0.003401 0.019428 0.005044
# 6 0.001956 0.005345 0.003727 0.001027 0.005044 0.024190
#
#
# Mechanical properties :
#
#
# Convention : Reuss Voigt Hill
#
# Bulk Modulus (GPa) = 33.96684 65.65917 49.81300
# Shear Modulus (GPa) = 36.82877 48.84840 42.83859
#
# Velocity S-wave (km/s) = 3.80367 4.38061 4.10230
# Velocity P-wave (km/s) = 5.71264 7.16799 6.48130
#
# Compressibility (1/GPa) = 0.02944048
#
# Stress axis : x y z
#
# Youngs Moduli (GPa) = 179.38070 66.01223 78.18756
#
# Poissons Ratio (x) = 0.12673 0.18754
# Poissons Ratio (y) = 0.34437 -0.17843
# Poissons Ratio (z) = 0.43027 -0.15064
#
# Static dielectric constant tensor:
#      x y z
#    x 1.969460 0.077700 -0.004370 
#    y 0.077700 2.033190 -0.076300 
#    z -0.004370 -0.076300 2.354430 
# 
# From -- ./inp_files/359171.got.cif
#   From: 2010.05.17/outbox.cif.g08.bks.cpg/sg2_180_cif.got.tgz:359171.got - 2010.06.03 11:33:40.
