data_PCOD9066370
_publ_section_title
;
Structure prediction by ZEFSAII (Michael W. Deem and Ramdas Pophale) SiO2 
 PCOD9066370
Probable space group: P -1
;
_chemical_formula_sum "Si O2"
_cell_formula_units_Z 13
_cell_length_a 8.230970
_cell_length_b 8.697462
_cell_length_c 13.117425
_cell_angle_alpha 48.431108
_cell_angle_beta 100.943224
_cell_angle_gamma 122.747617
_cell_volume 569.165923
_symmetry_space_group_name_H-M "P -1"
_symmetry_group_IT_number 2
_symmetry_cell_setting 'triclinic'
loop_
_space_group_symop_operation_xyz
x,y,z
-x,-y,-z
loop_
_atom_site_type_symbol
_atom_site_label
_atom_site_fract_x
_atom_site_fract_y
_atom_site_fract_z
Si Si1 0.344074 0.796762 0.743300
Si Si2 0.842150 0.643838 0.435839
Si Si3 0.724576 0.064536 0.994644
Si Si4 0.786708 0.167440 0.722171
Si Si5 0.000000 0.500000 0.000000
Si Si6 0.390988 0.475483 0.736400
Si Si7 0.232115 0.132560 0.493657
O O1 0.346413 0.579727 0.783202
O O2 0.179706 0.687031 0.859573
O O3 0.561984 0.986291 0.734755
O O4 0.295218 0.940243 0.592308
O O5 0.852473 0.451277 0.593058
O O6 0.708203 0.494238 0.388643
O O7 0.743526 0.755221 0.439849
O O8 0.060188 0.847866 0.326163
O O9 0.797627 0.113646 0.864536
O O10 0.873958 0.298021 0.979648
O O11 0.500000 0.000000 0.000000
O O12 0.699234 0.813161 0.139048
O O13 0.627811 0.647467 0.665147
O O14 0.000000 0.000000 0.500000
#
# Coordination Sequence:
#
# PCOD9066370 Si02
#       7
#     2   2   2   2   1   2   2
#     4  12  27  48  75 112 153 200 257 313 378 458
#     4  11  25  45  75 108 149 199 249 315 383 443
#     4  12  27  51  77 110 153 200 256 315 380 454
#     4  11  25  47  77 110 154 195 254 319 377 451
#     4  12  28  48  80 106 152 202 254 312 384 448
#     4  12  27  49  78 107 155 203 250 314 384 455
#     4  12  27  43  76 112 151 200 257 311 379 454
#
# _framework density 22.840440000000001
#
# number of rings (size 3 to 8) (size 9 to 14) (size 15 to 20)
#    0.000    0.308    3.077    4.615    8.615    4.308 
#    2.769    0.000    0.000    0.000    0.000    0.000 
#    0.000    0.000    0.000    0.000    0.000    0.000 
#
# Total GULP energy -72594.546272 kJ/mol
# GULP energy per Si atom -5584.195867 kJ/mol
# Density = 2.278845 g / cm^3
# Si number density = 22.840440 Si / 1000 Ang^3
#
#
#
# Elastic Constant Matrix: (Units=GPa)
#
#
# Indices 1 2 3 4 5 6 
#
# 1 50.4896 12.9324 18.3795 -13.7325 1.4835 3.3208
# 2 12.9324 99.3479 6.7930 -4.6925 9.4769 19.4923
# 3 18.3795 6.7930 91.3631 1.3720 -17.5603 9.3439
# 4 -13.7325 -4.6925 1.3720 27.9932 4.3805 -12.9309
# 5 1.4835 9.4769 -17.5603 4.3805 22.5833 -2.8975
# 6 3.3208 19.4923 9.3439 -12.9309 -2.8975 36.1245
#
#
#
# Elastic Compliance Matrix: (Units=1/GPa)
#
#
# Indices 1 2 3 4 5 6 
#
# 1 0.028492 -0.002634 -0.008460 0.018706 -0.010091 0.006877
# 2 -0.002634 0.012432 -0.000841 -0.001553 -0.006335 -0.007312
# 3 -0.008460 -0.000841 0.016239 -0.009850 0.014765 -0.005311
# 4 0.018706 -0.001553 -0.009850 0.057371 -0.016688 0.020864
# 5 -0.010091 -0.006335 0.014765 -0.016688 0.062261 -0.000453
# 6 0.006877 -0.007312 -0.005311 0.020864 -0.000453 0.039801
#
#
# Mechanical properties :
#
#
# Convention : Reuss Voigt Hill
#
# Bulk Modulus (GPa) = 30.03523 35.26782 32.65153
# Shear Modulus (GPa) = 19.87583 30.87991 25.37787
#
# Velocity S-wave (km/s) = 2.95312 3.68092 3.33692
# Velocity P-wave (km/s) = 4.98061 5.79138 5.40123
#
# Compressibility (1/GPa) = 0.03329423
#
# Stress axis : x y z
#
# Youngs Moduli (GPa) = 35.09740 80.44044 61.58187
#
# Poissons Ratio (x) = 0.21184 0.52096
# Poissons Ratio (y) = 0.09243 0.05178
# Poissons Ratio (z) = 0.29691 0.06764
#
# Static dielectric constant tensor:
#      x y z
#    x 1.881960 0.007200 0.005740 
#    y 0.007200 1.843440 -0.002180 
#    z 0.005740 -0.002180 1.808150 
# 
# From -- ./inp_files/156437.got.cif
#   From: 2010.05.17/outbox.cif.g08.bks.cpg/sg2_79_cif.got.tgz:156437.got - 2010.06.03 11:33:40.
