data_PCOD9066011
_publ_section_title
;
Structure prediction by ZEFSAII (Michael W. Deem and Ramdas Pophale) SiO2 
 PCOD9066011
Probable space group: P -1
;
_chemical_formula_sum "Si O2"
_cell_formula_units_Z 14
_cell_length_a 29.967344
_cell_length_b 8.995146
_cell_length_c 6.578815
_cell_angle_alpha 56.409465
_cell_angle_beta 47.942670
_cell_angle_gamma 27.937624
_cell_volume 613.085778
_symmetry_space_group_name_H-M "P -1"
_symmetry_group_IT_number 2
_symmetry_cell_setting 'triclinic'
loop_
_space_group_symop_operation_xyz
x,y,z
-x,-y,-z
loop_
_atom_site_type_symbol
_atom_site_label
_atom_site_fract_x
_atom_site_fract_y
_atom_site_fract_z
Si Si1 0.883681 0.871807 0.609519
Si Si2 0.322404 0.311411 0.914563
Si Si3 0.579255 0.136378 0.404452
Si Si4 0.890530 0.236649 0.534496
Si Si5 0.223165 0.159947 0.749265
Si Si6 0.719407 0.226425 0.491310
Si Si7 0.485069 0.341504 0.936448
O O1 0.000000 0.500000 0.500000
O O2 0.891819 0.046300 0.554513
O O3 0.820087 0.037800 0.464479
O O4 0.821024 0.890283 0.937311
O O5 0.208253 0.528950 0.181940
O O6 0.414575 0.001535 0.007461
O O7 0.316122 0.538134 0.740793
O O8 0.356989 0.158692 0.702563
O O9 0.497070 0.258648 0.725699
O O10 0.517015 0.436711 0.233036
O O11 0.670566 0.018972 0.338312
O O12 0.863013 0.469140 0.294096
O O13 0.000000 0.000000 0.500000
O O14 0.249870 0.020440 0.548627
O O15 0.622514 0.441856 0.781801
#
# Coordination Sequence:
#
# PCOD9066011 Si02
#       7
#     2   2   2   2   2   2   2
#     4  12  29  51  76 111 144 189 247 300 365 436
#     4  12  26  46  70 109 149 189 246 301 361 429
#     4  11  25  44  73 104 148 194 244 297 355 434
#     4  12  28  50  78 108 145 191 246 300 365 436
#     4  12  26  50  77 106 150 194 240 301 365 425
#     4  12  27  46  74 107 151 191 241 304 358 431
#     4  11  25  44  71 108 146 194 244 291 365 429
#
# _framework density 22.835301000000001
#
# number of rings (size 3 to 8) (size 9 to 14) (size 15 to 20)
#    0.000    0.286    4.286    3.429    8.000    2.286 
#    0.000    0.000    0.000    0.000    0.000    0.000 
#    0.000    0.000    0.000    0.000    0.000    0.000 
#
# Total GULP energy -78437.054815 kJ/mol
# GULP energy per Si atom -5602.646773 kJ/mol
# Density = 2.278333 g / cm^3
# Si number density = 22.835301 Si / 1000 Ang^3
#
#
#
# Elastic Constant Matrix: (Units=GPa)
#
#
# Indices 1 2 3 4 5 6 
#
# 1 93.4263 53.9892 29.5404 -11.6794 5.0750 5.0334
# 2 53.9892 161.8457 35.8645 -7.4663 -1.7941 1.2789
# 3 29.5404 35.8645 76.5414 -5.5278 6.6652 0.2034
# 4 -11.6794 -7.4663 -5.5278 47.5526 7.1743 -0.5103
# 5 5.0750 -1.7941 6.6652 7.1743 22.7664 1.3015
# 6 5.0334 1.2789 0.2034 -0.5103 1.3015 47.9719
#
#
#
# Elastic Compliance Matrix: (Units=1/GPa)
#
#
# Indices 1 2 3 4 5 6 
#
# 1 0.014743 -0.004086 -0.003235 0.003129 -0.003573 -0.001294
# 2 -0.004086 0.008092 -0.002449 -0.000374 0.002375 0.000155
# 3 -0.003235 -0.002449 0.015960 0.001376 -0.004605 0.000477
# 4 0.003129 -0.000374 0.001376 0.023174 -0.008441 0.000151
# 5 -0.003573 0.002375 -0.004605 -0.008441 0.048979 -0.001087
# 6 -0.001294 0.000155 0.000477 0.000151 -0.001087 0.021006
#
#
# Mechanical properties :
#
#
# Convention : Reuss Voigt Hill
#
# Bulk Modulus (GPa) = 51.93376 63.40019 57.66697
# Shear Modulus (GPa) = 31.66327 37.81947 34.74137
#
# Velocity S-wave (km/s) = 3.72774 4.07404 3.90473
# Velocity P-wave (km/s) = 6.42808 7.06787 6.75555
#
# Compressibility (1/GPa) = 0.01925530
#
# Stress axis : x y z
#
# Youngs Moduli (GPa) = 67.83059 123.57380 62.65723
#
# Poissons Ratio (x) = 0.50495 0.20267
# Poissons Ratio (y) = 0.27717 0.15345
# Poissons Ratio (z) = 0.21940 0.30263
#
# Static dielectric constant tensor:
#      x y z
#    x 1.850020 0.005520 0.012240 
#    y 0.005520 1.815920 -0.016450 
#    z 0.012240 -0.016450 1.867620 
# 
# From -- ./inp_files/128208.got.cif
#   From: 2010.05.17/outbox.cif.g08.bks.cpg/sg2_65_cif.got.tgz:128208.got - 2010.06.03 11:33:40.
