data_PCOD9066725
_publ_section_title
;
Structure prediction by ZEFSAII (Michael W. Deem and Ramdas Pophale) SiO2 
 PCOD9066725
Probable space group: P -1
;
_chemical_formula_sum "Si O2"
_cell_formula_units_Z 16
_cell_length_a 18.862169
_cell_length_b 7.240126
_cell_length_c 5.048354
_cell_angle_alpha 88.319630
_cell_angle_beta 80.958206
_cell_angle_gamma 110.306884
_cell_volume 635.918731
_symmetry_space_group_name_H-M "P -1"
_symmetry_group_IT_number 2
_symmetry_cell_setting 'triclinic'
loop_
_space_group_symop_operation_xyz
x,y,z
-x,-y,-z
loop_
_atom_site_type_symbol
_atom_site_label
_atom_site_fract_x
_atom_site_fract_y
_atom_site_fract_z
Si Si1 0.531334 0.411560 0.738348
Si Si2 0.324364 0.015902 0.355543
Si Si3 0.781527 0.399198 0.622553
Si Si4 0.932135 0.301983 0.620754
Si Si5 0.764759 0.755981 0.322148
Si Si6 0.415277 0.000875 0.782654
Si Si7 0.659204 0.441438 0.032945
Si Si8 0.071726 0.938256 0.874439
O O1 0.500000 0.500000 0.500000
O O2 0.497296 0.171192 0.779672
O O3 0.500000 0.500000 0.000000
O O4 0.642262 0.974597 0.957495
O O5 0.266520 0.127420 0.448521
O O6 0.394086 0.074881 0.514366
O O7 0.379861 0.528845 0.222416
O O8 0.279181 0.789551 0.473526
O O9 0.855392 0.346637 0.623028
O O10 0.793854 0.597800 0.452668
O O11 0.738380 0.411619 0.917414
O O12 0.933064 0.129024 0.425833
O O13 0.000000 0.500000 0.500000
O O14 0.936355 0.244355 0.922892
O O15 0.841754 0.905261 0.132616
O O16 0.690941 0.634705 0.188620
O O17 0.399692 0.765103 0.802282
O O18 0.000000 0.000000 0.000000
#
# Coordination Sequence:
#
# PCOD9066725 Si02
#       8
#     2   2   2   2   2   2   2   2
#     4  12  28  48  74 110 151 201 264 326 389 462
#     4  11  25  46  74 111 149 200 250 317 377 462
#     4  11  27  47  74 116 155 201 255 319 387 457
#     4  12  28  52  81 113 163 204 259 319 386 461
#     4  12  27  46  79 113 161 198 262 314 393 461
#     4  11  25  49  75 103 151 195 261 311 389 457
#     4  11  28  46  76 111 153 206 259 317 397 461
#     4  12  29  50  81 117 159 206 259 317 384 464
#
# _framework density 25.160450000000001
#
# number of rings (size 3 to 8) (size 9 to 14) (size 15 to 20)
#    0.000    0.500    2.500    3.375   15.750    0.000 
#    0.000    3.125    0.000    0.000    0.000    0.000 
#    0.000    0.000    0.000    0.000    0.000    0.000 
#
# Total GULP energy -89591.073857 kJ/mol
# GULP energy per Si atom -5599.442116 kJ/mol
# Density = 2.510318 g / cm^3
# Si number density = 25.160450 Si / 1000 Ang^3
#
#
#
# Elastic Constant Matrix: (Units=GPa)
#
#
# Indices 1 2 3 4 5 6 
#
# 1 97.3924 22.1114 18.7736 9.3721 -17.9017 -10.7114
# 2 22.1114 109.8804 23.3955 -10.0331 -13.9637 11.9211
# 3 18.7736 23.3955 90.7277 -5.8986 0.1943 -1.1514
# 4 9.3721 -10.0331 -5.8986 45.5246 1.8513 -6.3339
# 5 -17.9017 -13.9637 0.1943 1.8513 38.8858 -2.3898
# 6 -10.7114 11.9211 -1.1514 -6.3339 -2.3898 47.2222
#
#
#
# Elastic Compliance Matrix: (Units=1/GPa)
#
#
# Indices 1 2 3 4 5 6 
#
# 1 0.012854 -0.002028 -0.002314 -0.003170 0.005550 0.003227
# 2 -0.002028 0.010830 -0.002285 0.002003 0.002696 -0.002845
# 3 -0.002314 -0.002285 0.012211 0.001703 -0.001998 0.000477
# 4 -0.003170 0.002003 0.001703 0.023616 -0.001756 0.001896
# 5 0.005550 0.002696 -0.001998 -0.001756 0.029443 0.001784
# 6 0.003227 -0.002845 0.000477 0.001896 0.001784 0.022983
#
#
# Mechanical properties :
#
#
# Convention : Reuss Voigt Hill
#
# Bulk Modulus (GPa) = 44.16668 47.39571 45.78120
# Shear Modulus (GPa) = 37.66853 41.90784 39.78818
#
# Velocity S-wave (km/s) = 3.87348 4.08563 3.98097
# Velocity P-wave (km/s) = 6.13166 6.41364 6.27423
#
# Compressibility (1/GPa) = 0.02264150
#
# Stress axis : x y z
#
# Youngs Moduli (GPa) = 77.79455 92.34025 81.89396
#
# Poissons Ratio (x) = 0.18729 0.18949
# Poissons Ratio (y) = 0.15779 0.18709
# Poissons Ratio (z) = 0.18000 0.21095
#
# Static dielectric constant tensor:
#      x y z
#    x 2.295030 0.180780 0.038180 
#    y 0.180780 2.156020 0.040670 
#    z 0.038180 0.040670 1.991360 
# 
# From -- ./inp_files/121562.got.cif
#   From: 2010.05.17/outbox.cif.g08.bks.cpg/sg2_61_cif.got.tgz:121562.got - 2010.06.03 11:33:40.
