data_PCOD9066536
_publ_section_title
;
Structure prediction by ZEFSAII (Michael W. Deem and Ramdas Pophale) SiO2 
 PCOD9066536
Probable space group: P -1
;
_chemical_formula_sum "Si O2"
_cell_formula_units_Z 14
_cell_length_a 8.537338
_cell_length_b 11.584647
_cell_length_c 6.600627
_cell_angle_alpha 80.733049
_cell_angle_beta 101.026053
_cell_angle_gamma 101.420398
_cell_volume 622.910348
_symmetry_space_group_name_H-M "P -1"
_symmetry_group_IT_number 2
_symmetry_cell_setting 'triclinic'
loop_
_space_group_symop_operation_xyz
x,y,z
-x,-y,-z
loop_
_atom_site_type_symbol
_atom_site_label
_atom_site_fract_x
_atom_site_fract_y
_atom_site_fract_z
Si Si1 0.118208 0.098860 0.627685
Si Si2 0.465798 0.631601 0.986759
Si Si3 0.681160 0.017136 0.954596
Si Si4 0.345354 0.744568 0.294483
Si Si5 0.102333 0.547806 0.817443
Si Si6 0.995092 0.330688 0.606546
Si Si7 0.615251 0.824820 0.654180
O O1 0.247236 0.170130 0.482422
O O2 0.027259 0.198280 0.672254
O O3 0.206506 0.034686 0.841802
O O4 0.000000 0.000000 0.500000
O O5 0.277283 0.622410 0.883366
O O6 0.581600 0.720781 0.843073
O O7 0.500000 0.500000 0.000000
O O8 0.462622 0.679921 0.202360
O O9 0.667014 0.943856 0.763494
O O10 0.721619 0.156488 0.883260
O O11 0.500000 0.000000 0.000000
O O12 0.185977 0.660974 0.361648
O O13 0.449319 0.809909 0.487617
O O14 0.004617 0.628262 0.636483
O O15 0.117737 0.429148 0.728574
O O16 0.000000 0.500000 0.000000
#
# Coordination Sequence:
#
# PCOD9066536 Si02
#       7
#     2   2   2   2   2   2   2
#     4  12  30  47  75 114 146 190 246 308 363 437
#     4  12  28  44  75 109 143 193 249 299 365 431
#     4  12  26  46  76 107 146 191 240 297 376 433
#     4  12  25  48  75 106 146 195 243 299 368 444
#     4  11  25  46  71 102 145 195 238 301 361 431
#     4  11  27  46  71 105 147 190 245 294 371 427
#     4  12  26  48  74 105 149 192 241 304 364 437
#
# _framework density 22.475145999999999
#
# number of rings (size 3 to 8) (size 9 to 14) (size 15 to 20)
#    0.000    0.286    5.714    1.286   10.000    2.857 
#    0.000    0.000    0.000    0.000    0.000    0.000 
#    0.000    0.000    0.000    0.000    0.000    0.000 
#
# Total GULP energy -78322.289468 kJ/mol
# GULP energy per Si atom -5594.449248 kJ/mol
# Density = 2.242399 g / cm^3
# Si number density = 22.475146 Si / 1000 Ang^3
#
#
#
# Elastic Constant Matrix: (Units=GPa)
#
#
# Indices 1 2 3 4 5 6 
#
# 1 62.0289 16.2385 28.0008 -0.3153 -10.7434 5.6536
# 2 16.2385 112.5609 30.5438 -0.6961 13.1899 -12.9696
# 3 28.0008 30.5438 108.9377 1.1183 3.3057 -11.4960
# 4 -0.3153 -0.6961 1.1183 45.1929 16.6308 1.3866
# 5 -10.7434 13.1899 3.3057 16.6308 40.9372 -4.2291
# 6 5.6536 -12.9696 -11.4960 1.3866 -4.2291 47.4958
#
#
#
# Elastic Compliance Matrix: (Units=1/GPa)
#
#
# Indices 1 2 3 4 5 6 
#
# 1 0.020819 -0.002930 -0.005130 -0.002378 0.007396 -0.003792
# 2 -0.002930 0.010622 -0.001859 0.001782 -0.004523 0.002345
# 3 -0.005130 -0.001859 0.011349 0.000094 -0.001421 0.002721
# 4 -0.002378 0.001782 0.000094 0.026635 -0.012136 -0.001066
# 5 0.007396 -0.004523 -0.001421 -0.012136 0.032957 0.000829
# 6 -0.003792 0.002345 0.002721 -0.001066 0.000829 0.022910
#
#
# Mechanical properties :
#
#
# Convention : Reuss Voigt Hill
#
# Bulk Modulus (GPa) = 43.56777 48.12150 45.84464
# Shear Modulus (GPa) = 32.72717 40.64150 36.68433
#
# Velocity S-wave (km/s) = 3.82009 4.25701 4.04445
# Velocity P-wave (km/s) = 6.23574 6.75428 6.50018
#
# Compressibility (1/GPa) = 0.02295275
#
# Stress axis : x y z
#
# Youngs Moduli (GPa) = 48.03370 94.14162 88.11697
#
# Poissons Ratio (x) = 0.27581 0.45203
# Poissons Ratio (y) = 0.14072 0.16380
# Poissons Ratio (z) = 0.24641 0.17499
#
# Static dielectric constant tensor:
#      x y z
#    x 1.876310 0.019320 -0.058670 
#    y 0.019320 1.882490 0.002750 
#    z -0.058670 0.002750 1.871190 
# 
# From -- ./inp_files/27294.got.cif
#   From: 2010.05.17/outbox.cif.g08.bks.cpg/sg2_14_cif.got.tgz:27294.got - 2010.06.03 11:33:40.
