data_PCOD9066982
_publ_section_title
;
Structure prediction by ZEFSAII (Michael W. Deem and Ramdas Pophale) SiO2 
 PCOD9066982
Probable space group: P -1
;
_chemical_formula_sum "Si O2"
_cell_formula_units_Z 12
_cell_length_a 8.808978
_cell_length_b 9.213972
_cell_length_c 8.687014
_cell_angle_alpha 69.459963
_cell_angle_beta 48.535108
_cell_angle_gamma 71.456996
_cell_volume 491.072965
_symmetry_space_group_name_H-M "P -1"
_symmetry_group_IT_number 2
_symmetry_cell_setting 'triclinic'
loop_
_space_group_symop_operation_xyz
x,y,z
-x,-y,-z
loop_
_atom_site_type_symbol
_atom_site_label
_atom_site_fract_x
_atom_site_fract_y
_atom_site_fract_z
Si Si1 0.958074 0.683289 0.463033
Si Si2 0.193847 0.867287 0.436998
Si Si3 0.474488 0.345022 0.171038
Si Si4 0.867954 0.706260 0.166080
Si Si5 0.272414 0.602506 0.744353
Si Si6 0.428350 0.996750 0.735679
O O1 0.749731 0.704942 0.693242
O O2 0.895694 0.732661 0.317100
O O3 0.000000 0.500000 0.500000
O O4 0.151899 0.757947 0.363606
O O5 0.216854 0.740817 0.607757
O O6 0.388062 0.954493 0.302483
O O7 0.000000 0.000000 0.500000
O O8 0.521966 0.390398 0.298898
O O9 0.612061 0.177819 0.130913
O O10 0.500000 0.500000 0.000000
O O11 0.733342 0.568952 0.259571
O O12 0.758506 0.876652 0.133435
O O13 0.086307 0.638836 0.976128
O O14 0.500000 0.000000 0.500000
#
# Coordination Sequence:
#
# PCOD9066982 Si02
#       6
#     2   2   2   2   2   2
#     4  12  24  44  75 108 145 193 244 295 366 437
#     4  12  24  45  75 106 146 191 243 302 362 437
#     4  12  27  48  74 107 149 189 247 305 364 433
#     4  11  25  47  74 108 146 196 244 299 369 435
#     4  11  26  47  72 107 152 193 244 303 366 435
#     4  12  24  49  74 107 144 193 247 299 365 437
#
# _framework density 24.436287
#
# number of rings (size 3 to 8) (size 9 to 14) (size 15 to 20)
#    0.000    0.333    6.667    1.000    4.667    2.000 
#    3.000    1.667    0.000    0.000    0.000    0.000 
#    0.000    0.000    0.000    0.000    0.000    0.000 
#
# Total GULP energy -67002.796535 kJ/mol
# GULP energy per Si atom -5583.566378 kJ/mol
# Density = 2.438067 g / cm^3
# Si number density = 24.436287 Si / 1000 Ang^3
#
#
#
# Elastic Constant Matrix: (Units=GPa)
#
#
# Indices 1 2 3 4 5 6 
#
# 1 138.9874 26.3912 7.9485 -17.8480 1.5645 28.1694
# 2 26.3912 174.4081 22.3470 -20.5338 7.4479 1.6126
# 3 7.9485 22.3470 61.5282 -10.4590 2.9717 4.7612
# 4 -17.8480 -20.5338 -10.4590 32.6858 -10.3519 -5.8101
# 5 1.5645 7.4479 2.9717 -10.3519 20.3755 -8.0639
# 6 28.1694 1.6126 4.7612 -5.8101 -8.0639 59.7160
#
#
#
# Elastic Compliance Matrix: (Units=1/GPa)
#
#
# Indices 1 2 3 4 5 6 
#
# 1 0.008548 -0.000858 0.000087 0.003489 -0.000040 -0.003682
# 2 -0.000858 0.006453 -0.001750 0.003067 -0.000227 0.000638
# 3 0.000087 -0.001750 0.017708 0.004406 -0.000104 -0.000991
# 4 0.003489 0.003067 0.004406 0.043817 0.022285 0.005192
# 5 -0.000040 -0.000227 -0.000104 0.022285 0.064838 0.010957
# 6 -0.003682 0.000638 -0.000991 0.005192 0.010957 0.020529
#
#
# Mechanical properties :
#
#
# Convention : Reuss Voigt Hill
#
# Bulk Modulus (GPa) = 36.14457 54.25525 45.19991
# Shear Modulus (GPa) = 28.38409 43.77128 36.07768
#
# Velocity S-wave (km/s) = 3.41186 4.23690 3.84656
# Velocity P-wave (km/s) = 5.50858 6.79603 6.18589
#
# Compressibility (1/GPa) = 0.02766667
#
# Stress axis : x y z
#
# Youngs Moduli (GPa) = 116.99272 154.97711 56.47307
#
# Poissons Ratio (x) = 0.13298 -0.00493
# Poissons Ratio (y) = 0.10039 0.09882
# Poissons Ratio (z) = -0.01022 0.27118
#
# Static dielectric constant tensor:
#      x y z
#    x 2.078760 -0.221990 0.110560 
#    y -0.221990 2.353520 -0.287200 
#    z 0.110560 -0.287200 2.416780 
# 
# From -- ./inp_files/157026.got.cif
#   From: 2010.05.17/outbox.cif.g08.bks.cpg/sg2_79_cif.got.tgz:157026.got - 2010.06.03 11:33:40.
