data_PCOD9066394
_publ_section_title
;
Structure prediction by ZEFSAII (Michael W. Deem and Ramdas Pophale) SiO2 
 PCOD9066394
Probable space group: P -1
;
_chemical_formula_sum "Si O2"
_cell_formula_units_Z 11
_cell_length_a 10.678969
_cell_length_b 6.294641
_cell_length_c 17.038545
_cell_angle_alpha 123.701809
_cell_angle_beta 147.086737
_cell_angle_gamma 46.262184
_cell_volume 448.696142
_symmetry_space_group_name_H-M "P -1"
_symmetry_group_IT_number 2
_symmetry_cell_setting 'triclinic'
loop_
_space_group_symop_operation_xyz
x,y,z
-x,-y,-z
loop_
_atom_site_type_symbol
_atom_site_label
_atom_site_fract_x
_atom_site_fract_y
_atom_site_fract_z
Si Si1 0.775843 0.139501 0.990649
Si Si2 0.500000 0.500000 0.500000
Si Si3 0.795253 0.709445 0.802523
Si Si4 0.220142 0.027883 0.874306
Si Si5 0.281587 0.547930 0.715696
Si Si6 0.870821 0.350846 0.514150
O O1 0.562239 0.396607 0.876264
O O2 0.742250 0.859667 0.890829
O O3 0.053946 0.129866 0.121800
O O4 0.738906 0.170257 0.069475
O O5 0.556324 0.730543 0.630333
O O6 0.708823 0.482928 0.536084
O O7 0.993958 0.360095 0.838580
O O8 0.137988 0.894441 0.731472
O O9 0.500000 0.000000 0.000000
O O10 0.311511 0.504647 0.629739
O O11 0.107491 0.422955 0.638336
O O12 0.000000 0.000000 0.500000
#
# Coordination Sequence:
#
# PCOD9066394 Si02
#       6
#     2   1   2   2   2   2
#     4  11  25  46  72 103 146 187 246 304 365 433
#     4  12  26  44  76 100 150 190 242 298 372 436
#     4  11  26  45  68 108 141 193 239 306 363 440
#     4  12  25  41  74 105 139 187 241 301 366 428
#     4  11  25  45  76 109 146 192 250 303 367 440
#     4  11  26  48  74 109 150 199 243 305 373 444
#
# _framework density 24.515477000000001
#
# number of rings (size 3 to 8) (size 9 to 14) (size 15 to 20)
#    0.000    0.727    1.818    4.364    7.636    4.364 
#    0.000   13.636    0.000    0.000    0.000    0.000 
#    0.000    0.000    0.000    0.000    0.000    0.000 
#
# Total GULP energy -61284.422372 kJ/mol
# GULP energy per Si atom -5571.311125 kJ/mol
# Density = 2.445968 g / cm^3
# Si number density = 24.515477 Si / 1000 Ang^3
#
#
#
# Elastic Constant Matrix: (Units=GPa)
#
#
# Indices 1 2 3 4 5 6 
#
# 1 90.7395 -4.5583 8.6021 -22.1219 -12.0436 3.4610
# 2 -4.5583 91.2303 9.9598 17.9567 -6.1278 -11.5117
# 3 8.6021 9.9598 111.7318 26.5026 1.3090 7.1765
# 4 -22.1219 17.9567 26.5026 38.6294 6.4445 -3.9654
# 5 -12.0436 -6.1278 1.3090 6.4445 30.1300 14.3101
# 6 3.4610 -11.5117 7.1765 -3.9654 14.3101 26.3915
#
#
#
# Elastic Compliance Matrix: (Units=1/GPa)
#
#
# Indices 1 2 3 4 5 6 
#
# 1 0.014419 -0.000851 -0.003260 0.009826 0.004825 -0.002516
# 2 -0.000851 0.012762 0.000223 -0.006529 0.001939 0.003585
# 3 -0.003260 0.000223 0.012368 -0.011805 0.003933 -0.006745
# 4 0.009826 -0.006529 -0.011805 0.046144 -0.012943 0.013025
# 5 0.004825 0.001939 0.003933 -0.012943 0.053121 -0.031604
# 6 -0.002516 0.003585 -0.006745 0.013025 -0.031604 0.060712
#
#
# Mechanical properties :
#
#
# Convention : Reuss Voigt Hill
#
# Bulk Modulus (GPa) = 31.47221 35.74544 33.60883
# Shear Modulus (GPa) = 22.94710 37.67671 30.31190
#
# Velocity S-wave (km/s) = 3.06277 3.92453 3.52012
# Velocity P-wave (km/s) = 5.03716 5.92860 5.50097
#
# Compressibility (1/GPa) = 0.03177406
#
# Stress axis : x y z
#
# Youngs Moduli (GPa) = 69.35398 78.35782 80.85200
#
# Poissons Ratio (x) = 0.06669 0.26357
# Poissons Ratio (y) = 0.05902 -0.01807
# Poissons Ratio (z) = 0.22609 -0.01751
#
# Static dielectric constant tensor:
#      x y z
#    x 1.929430 -0.078100 -0.036720 
#    y -0.078100 2.012760 -0.018880 
#    z -0.036720 -0.018880 1.958210 
# 
# From -- ./inp_files/21740.got.cif
#   From: 2010.05.17/outbox.cif.g08.bks.cpg/sg2_11_cif.got.tgz:21740.got - 2010.06.03 11:33:40.
