data_PCOD9066908
_publ_section_title
;
Structure prediction by ZEFSAII (Michael W. Deem and Ramdas Pophale) SiO2 
 PCOD9066908
Probable space group: P -1
;
_chemical_formula_sum "Si O2"
_cell_formula_units_Z 16
_cell_length_a 12.292804
_cell_length_b 13.250616
_cell_length_c 11.581071
_cell_angle_alpha 139.066038
_cell_angle_beta 101.983297
_cell_angle_gamma 109.900547
_cell_volume 762.809391
_symmetry_space_group_name_H-M "P -1"
_symmetry_group_IT_number 2
_symmetry_cell_setting 'triclinic'
loop_
_space_group_symop_operation_xyz
x,y,z
-x,-y,-z
loop_
_atom_site_type_symbol
_atom_site_label
_atom_site_fract_x
_atom_site_fract_y
_atom_site_fract_z
Si Si1 0.624056 0.034255 0.908708
Si Si2 0.195885 0.200866 0.410826
Si Si3 0.326859 0.611796 0.633265
Si Si4 0.933947 0.034613 0.407734
Si Si5 0.448445 0.501977 0.118877
Si Si6 0.560460 0.154736 0.534229
Si Si7 0.027527 0.708527 0.854735
Si Si8 0.077658 0.616323 0.242977
O O1 0.487695 0.776347 0.721224
O O2 0.579399 0.984942 0.720916
O O3 0.612052 0.193996 0.093087
O O4 0.820636 0.188059 0.106441
O O5 0.261615 0.390112 0.491973
O O6 0.374776 0.336235 0.629063
O O7 0.064863 0.139429 0.421289
O O8 0.088438 0.942012 0.111785
O O9 0.160375 0.491669 0.420056
O O10 0.938242 0.219721 0.596981
O O11 0.000000 0.000000 0.500000
O O12 0.728237 0.773478 0.115614
O O13 0.399836 0.629785 0.228397
O O14 0.500000 0.500000 0.000000
O O15 0.725029 0.238892 0.591213
O O16 0.500000 0.000000 0.500000
O O17 0.019821 0.585558 0.855064
O O18 0.000000 0.500000 0.000000
#
# Coordination Sequence:
#
# PCOD9066908 Si02
#       8
#     2   2   2   2   2   2   2   2
#     4  11  25  47  72 105 142 188 243 297 353 428
#     4  12  27  45  72 105 146 192 240 296 361 428
#     4  11  27  46  72 102 147 190 246 295 351 433
#     4  12  26  46  71 106 147 187 237 295 366 433
#     4  12  26  45  72 108 151 187 236 298 360 435
#     4  12  25  45  74 108 146 187 237 297 363 429
#     4  12  24  48  72 103 143 187 246 294 359 423
#     4  12  26  44  73 107 145 188 238 301 362 432
#
# _framework density 20.975097000000002
#
# number of rings (size 3 to 8) (size 9 to 14) (size 15 to 20)
#    0.000    0.250    3.750    5.250    3.500    1.500 
#    0.000    0.000    0.000    0.000    0.000    0.000 
#    0.000    0.000    0.000    0.000    0.000    0.000 
#
# Total GULP energy -89540.506903 kJ/mol
# GULP energy per Si atom -5596.281681 kJ/mol
# Density = 2.092736 g / cm^3
# Si number density = 20.975097 Si / 1000 Ang^3
#
#
#
# Elastic Constant Matrix: (Units=GPa)
#
#
# Indices 1 2 3 4 5 6 
#
# 1 110.8617 38.7963 20.4285 27.8257 0.9847 5.5986
# 2 38.7963 137.7203 49.1451 30.5283 -10.7261 4.0986
# 3 20.4285 49.1451 92.9757 22.7132 -8.3129 2.6115
# 4 27.8257 30.5283 22.7132 40.3064 -1.3745 1.8695
# 5 0.9847 -10.7261 -8.3129 -1.3745 55.7654 17.2196
# 6 5.5986 4.0986 2.6115 1.8695 17.2196 27.5767
#
#
#
# Elastic Compliance Matrix: (Units=1/GPa)
#
#
# Indices 1 2 3 4 5 6 
#
# 1 0.011320 -0.001745 0.000030 -0.006451 -0.000241 -0.001454
# 2 -0.001745 0.010243 -0.003771 -0.004287 0.001851 -0.001676
# 3 0.000030 -0.003771 0.014166 -0.005018 0.001735 -0.001530
# 4 -0.006451 -0.004287 -0.005018 0.035290 -0.000741 0.000492
# 5 -0.000241 0.001851 0.001735 -0.000741 0.023090 -0.014758
# 6 -0.001454 -0.001676 -0.001530 0.000492 -0.014758 0.046134
#
#
# Mechanical properties :
#
#
# Convention : Reuss Voigt Hill
#
# Bulk Modulus (GPa) = 40.39187 62.03305 51.21246
# Shear Modulus (GPa) = 31.35470 40.27554 35.81512
#
# Velocity S-wave (km/s) = 3.87053 4.38672 4.13668
# Velocity P-wave (km/s) = 6.26686 7.43616 6.87641
#
# Compressibility (1/GPa) = 0.02475746
#
# Stress axis : x y z
#
# Youngs Moduli (GPa) = 88.33815 97.63043 70.59285
#
# Poissons Ratio (x) = 0.17040 -0.00215
# Poissons Ratio (y) = 0.15418 0.26619
# Poissons Ratio (z) = -0.00269 0.36814
#
# Static dielectric constant tensor:
#      x y z
#    x 1.688190 -0.006460 0.014050 
#    y -0.006460 1.779400 -0.011450 
#    z 0.014050 -0.011450 1.755050 
# 
# From -- ./inp_files/429116.got.cif
#   From: 2010.05.17/outbox.cif.g08.bks.cpg/sg2_215_cif.got.tgz:429116.got - 2010.06.03 11:33:40.
