data_PCOD9066120
_publ_section_title
;
Structure prediction by ZEFSAII (Michael W. Deem and Ramdas Pophale) SiO2 
 PCOD9066120
Probable space group: P -1
;
_chemical_formula_sum "Si O2"
_cell_formula_units_Z 16
_cell_length_a 8.634070
_cell_length_b 8.415295
_cell_length_c 13.008871
_cell_angle_alpha 101.456174
_cell_angle_beta 115.322778
_cell_angle_gamma 57.961097
_cell_volume 723.753977
_symmetry_space_group_name_H-M "P -1"
_symmetry_group_IT_number 2
_symmetry_cell_setting 'triclinic'
loop_
_space_group_symop_operation_xyz
x,y,z
-x,-y,-z
loop_
_atom_site_type_symbol
_atom_site_label
_atom_site_fract_x
_atom_site_fract_y
_atom_site_fract_z
Si Si1 0.872822 0.993727 0.183916
Si Si2 0.210785 0.324579 0.174218
Si Si3 0.409854 0.718040 0.022008
Si Si4 0.076362 0.117350 0.598608
Si Si5 0.305780 0.489612 0.413559
Si Si6 0.201739 0.331370 0.934851
Si Si7 0.372147 0.185831 0.555678
Si Si8 0.722718 0.076430 0.787545
O O1 0.878806 0.812255 0.112707
O O2 0.807932 0.000527 0.283509
O O3 0.087730 0.972685 0.234053
O O4 0.724149 0.168584 0.096893
O O5 0.312797 0.397559 0.293314
O O6 0.972340 0.468702 0.128565
O O7 0.260922 0.116426 0.192290
O O8 0.257826 0.338344 0.070189
O O9 0.599597 0.746783 0.084699
O O10 0.285515 0.801774 0.100884
O O11 0.500000 0.500000 0.000000
O O12 0.887491 0.306123 0.610967
O O13 0.208528 0.166733 0.570328
O O14 0.000000 0.000000 0.500000
O O15 0.500000 0.500000 0.500000
O O16 0.283726 0.360161 0.476185
O O17 0.525664 0.191590 0.679773
O O18 0.500000 0.000000 0.500000
#
# Coordination Sequence:
#
# PCOD9066120 Si02
#       8
#     2   2   2   2   2   2   2   2
#     4  12  25  47  72 103 146 186 245 294 365 433
#     4  11  25  44  77  99 147 182 242 289 374 421
#     4  12  28  44  70 106 146 186 243 293 365 428
#     4  12  28  47  72 106 144 192 245 304 367 435
#     4  12  26  48  76 109 143 191 246 303 366 439
#     4  11  25  45  73 108 141 188 234 303 361 434
#     4  12  26  47  73 104 145 190 243 300 367 431
#     4  12  26  45  71 103 145 191 235 297 364 435
#
# _framework density 22.106959
#
# number of rings (size 3 to 8) (size 9 to 14) (size 15 to 20)
#    0.000    0.250    3.750    4.875    5.250    1.000 
#    0.000    0.000    0.000    0.000    0.000    0.000 
#    0.000    0.000    0.000    0.000    0.000    0.000 
#
# Total GULP energy -89658.904165 kJ/mol
# GULP energy per Si atom -5603.681510 kJ/mol
# Density = 2.205664 g / cm^3
# Si number density = 22.106959 Si / 1000 Ang^3
#
#
#
# Elastic Constant Matrix: (Units=GPa)
#
#
# Indices 1 2 3 4 5 6 
#
# 1 75.3968 -18.8809 2.9736 9.4793 2.8459 -1.3352
# 2 -18.8809 98.8892 31.9845 5.1720 -6.7081 7.1543
# 3 2.9736 31.9845 144.3220 4.1340 -10.5241 13.0651
# 4 9.4793 5.1720 4.1340 37.8955 1.7688 2.0012
# 5 2.8459 -6.7081 -10.5241 1.7688 32.6770 0.7238
# 6 -1.3352 7.1543 13.0651 2.0012 0.7238 22.1763
#
#
#
# Elastic Compliance Matrix: (Units=1/GPa)
#
#
# Indices 1 2 3 4 5 6 
#
# 1 0.014660 0.003232 -0.001034 -0.004004 -0.000748 0.000835
# 2 0.003232 0.011853 -0.002326 -0.002133 0.001565 -0.002117
# 3 -0.001034 -0.002326 0.008008 -0.000189 0.002292 -0.004088
# 4 -0.004004 -0.002133 -0.000189 0.027878 -0.001617 -0.001905
# 5 -0.000748 0.001565 0.002292 -0.001617 0.031877 -0.002795
# 6 0.000835 -0.002117 -0.004088 -0.001905 -0.002795 0.048498
#
#
# Mechanical properties :
#
#
# Convention : Reuss Voigt Hill
#
# Bulk Modulus (GPa) = 29.18536 38.97359 34.07947
# Shear Modulus (GPa) = 32.37262 38.71847 35.54554
#
# Velocity S-wave (km/s) = 3.83085 4.18953 4.01420
# Velocity P-wave (km/s) = 5.72693 6.40864 6.07736
#
# Compressibility (1/GPa) = 0.03426375
#
# Stress axis : x y z
#
# Youngs Moduli (GPa) = 68.21437 84.36888 124.86795
#
# Poissons Ratio (x) = -0.27265 0.12907
# Poissons Ratio (y) = -0.22044 0.29050
# Poissons Ratio (z) = 0.07051 0.19628
#
# Static dielectric constant tensor:
#      x y z
#    x 1.803580 0.001940 0.006370 
#    y 0.001940 1.795460 0.014950 
#    z 0.006370 0.014950 1.812260 
# 
# From -- ./inp_files/218980.got.cif
#   From: 2010.05.17/outbox.cif.g08.bks.cpg/sg2_110_cif.got.tgz:218980.got - 2010.06.03 11:33:40.
