data_PCOD9066205
_publ_section_title
;
Structure prediction by ZEFSAII (Michael W. Deem and Ramdas Pophale) SiO2 
 PCOD9066205
Probable space group: P -1
;
_chemical_formula_sum "Si O2"
_cell_formula_units_Z 12
_cell_length_a 13.281233
_cell_length_b 4.722300
_cell_length_c 7.516174
_cell_angle_alpha 107.735819
_cell_angle_beta 93.499638
_cell_angle_gamma 84.242533
_cell_volume 446.497991
_symmetry_space_group_name_H-M "P -1"
_symmetry_group_IT_number 2
_symmetry_cell_setting 'triclinic'
loop_
_space_group_symop_operation_xyz
x,y,z
-x,-y,-z
loop_
_atom_site_type_symbol
_atom_site_label
_atom_site_fract_x
_atom_site_fract_y
_atom_site_fract_z
Si Si1 0.601081 0.219204 0.767582
Si Si2 0.072247 0.827134 0.629845
Si Si3 0.059994 0.622659 0.198289
Si Si4 0.578852 0.664808 0.415593
Si Si5 0.724820 0.745634 0.911776
Si Si6 0.785060 0.653321 0.294766
O O1 0.601462 0.982432 0.562183
O O2 0.678455 0.062103 0.890175
O O3 0.479364 0.295008 0.774413
O O4 0.644365 0.528449 0.792977
O O5 0.049777 0.636093 0.416280
O O6 0.131996 0.627391 0.746623
O O7 0.149748 0.064584 0.607593
O O8 0.978774 0.020290 0.752156
O O9 0.168030 0.428983 0.161068
O O10 0.000000 0.500000 0.000000
O O11 0.500000 0.500000 0.500000
O O12 0.694417 0.536861 0.380270
O O13 0.732653 0.748658 0.123556
#
# Coordination Sequence:
#
# PCOD9066205 Si02
#       6
#     2   2   2   2   2   2
#     4  11  25  45  71 105 142 194 242 303 373 431
#     4  11  27  49  73 112 152 196 243 308 366 441
#     4  11  25  49  77 110 149 198 250 299 371 441
#     4  11  25  47  73 104 144 195 250 299 373 441
#     4  12  25  45  71 109 146 192 243 309 363 439
#     4  12  27  47  74 108 152 191 247 307 371 437
#
# _framework density 26.875820999999998
#
# number of rings (size 3 to 8) (size 9 to 14) (size 15 to 20)
#    0.000    0.667    3.333    3.000    4.667    6.000 
#    0.000    0.000    0.000    0.000    0.000    0.000 
#    0.000    0.000    0.000    0.000    0.000    0.000 
#
# Total GULP energy -66847.980353 kJ/mol
# GULP energy per Si atom -5570.665029 kJ/mol
# Density = 2.681465 g / cm^3
# Si number density = 26.875821 Si / 1000 Ang^3
#
#
#
# Elastic Constant Matrix: (Units=GPa)
#
#
# Indices 1 2 3 4 5 6 
#
# 1 143.1999 20.5071 34.9541 -9.0776 4.0820 -12.0302
# 2 20.5071 117.3597 0.9513 -19.1317 -3.7849 -15.3985
# 3 34.9541 0.9513 107.9846 -5.5730 25.8505 15.5619
# 4 -9.0776 -19.1317 -5.5730 43.0591 -8.5435 16.6872
# 5 4.0820 -3.7849 25.8505 -8.5435 40.7768 -7.4359
# 6 -12.0302 -15.3985 15.5619 16.6872 -7.4359 45.1403
#
#
#
# Elastic Compliance Matrix: (Units=1/GPa)
#
#
# Indices 1 2 3 4 5 6 
#
# 1 0.008236 -0.000898 -0.003657 -0.000097 0.002032 0.003520
# 2 -0.000898 0.009659 -0.000542 0.003635 0.002513 0.002313
# 3 -0.003657 -0.000542 0.014095 0.002147 -0.009704 -0.008411
# 4 -0.000097 0.003635 0.002147 0.029610 0.003382 -0.009915
# 5 0.002032 0.002513 -0.009704 0.003382 0.033044 0.008937
# 6 0.003520 0.002313 -0.008411 -0.009915 0.008937 0.031917
#
#
# Mechanical properties :
#
#
# Convention : Reuss Voigt Hill
#
# Bulk Modulus (GPa) = 45.87777 53.48547 49.68162
# Shear Modulus (GPa) = 34.71766 46.60402 40.66084
#
# Velocity S-wave (km/s) = 3.59803 4.16871 3.89384
# Velocity P-wave (km/s) = 5.86246 6.56620 6.22429
#
# Compressibility (1/GPa) = 0.02179705
#
# Stress axis : x y z
#
# Youngs Moduli (GPa) = 121.41735 103.52914 70.94812
#
# Poissons Ratio (x) = 0.09296 0.25944
# Poissons Ratio (y) = 0.10902 0.03844
# Poissons Ratio (z) = 0.44399 0.05609
#
# Static dielectric constant tensor:
#      x y z
#    x 2.296930 0.006230 -0.044360 
#    y 0.006230 2.205830 -0.060140 
#    z -0.044360 -0.060140 2.079050 
# 
# From -- ./inp_files/286620.got.cif
#   From: 2010.05.17/outbox.cif.g08.bks.cpg/sg2_144_cif.got.tgz:286620.got - 2010.06.03 11:33:40.
