data_PCOD9066844
_publ_section_title
;
Structure prediction by ZEFSAII (Michael W. Deem and Ramdas Pophale) SiO2 
 PCOD9066844
Probable space group: P -1
;
_chemical_formula_sum "Si O2"
_cell_formula_units_Z 12
_cell_length_a 9.352785
_cell_length_b 11.273544
_cell_length_c 14.396900
_cell_angle_alpha 150.170940
_cell_angle_beta 73.640333
_cell_angle_gamma 124.598838
_cell_volume 532.713355
_symmetry_space_group_name_H-M "P -1"
_symmetry_group_IT_number 2
_symmetry_cell_setting 'triclinic'
loop_
_space_group_symop_operation_xyz
x,y,z
-x,-y,-z
loop_
_atom_site_type_symbol
_atom_site_label
_atom_site_fract_x
_atom_site_fract_y
_atom_site_fract_z
Si Si1 0.492762 0.762381 0.054802
Si Si2 0.832546 0.348903 0.846272
Si Si3 0.933994 0.181951 0.250234
Si Si4 0.540443 0.299876 0.301368
Si Si5 0.230394 0.244804 0.589910
Si Si6 0.885461 0.122679 0.998199
O O1 0.334740 0.645528 0.085706
O O2 0.706076 0.876614 0.118374
O O3 0.551119 0.084112 0.218982
O O4 0.375998 0.489759 0.811600
O O5 0.955012 0.557917 0.875053
O O6 0.727025 0.980631 0.599505
O O7 0.000000 0.500000 0.000000
O O8 0.923317 0.191926 0.147266
O O9 0.000000 0.500000 0.500000
O O10 0.080463 0.117993 0.198814
O O11 0.500000 0.500000 0.500000
O O12 0.728808 0.548942 0.367771
O O13 0.340671 0.048870 0.104015
O O14 0.000000 0.000000 0.500000
#
# Coordination Sequence:
#
# PCOD9066844 Si02
#       6
#     2   2   2   2   2   2
#     4  12  25  43  70 103 137 181 232 280 350 413
#     4  12  24  43  67 108 141 171 225 291 347 407
#     4  11  27  47  72  96 137 192 238 277 339 413
#     4  12  22  42  73 102 140 179 229 289 348 409
#     4  12  24  38  66 105 142 173 220 290 347 402
#     4  11  25  47  69 102 141 179 234 287 336 419
#
# _framework density 22.526184000000001
#
# number of rings (size 3 to 8) (size 9 to 14) (size 15 to 20)
#    0.000    0.333    6.667    1.500    2.333    2.000 
#    0.000    1.667    0.000    0.000    0.000    0.000 
#    0.000    0.000    0.000    0.000    0.000    0.000 
#
# Total GULP energy -67252.581784 kJ/mol
# GULP energy per Si atom -5604.381815 kJ/mol
# Density = 2.247491 g / cm^3
# Si number density = 22.526184 Si / 1000 Ang^3
#
#
#
# Elastic Constant Matrix: (Units=GPa)
#
#
# Indices 1 2 3 4 5 6 
#
# 1 71.3342 19.1319 5.5882 3.6261 -3.9703 9.3977
# 2 19.1319 130.9138 16.4093 23.4607 2.1210 23.8408
# 3 5.5882 16.4093 127.7415 -9.3331 -22.4097 7.5283
# 4 3.6261 23.4607 -9.3331 37.4154 10.3607 -7.3034
# 5 -3.9703 2.1210 -22.4097 10.3607 37.1117 9.1720
# 6 9.3977 23.8408 7.5283 -7.3034 9.1720 32.6584
#
#
#
# Elastic Compliance Matrix: (Units=1/GPa)
#
#
# Indices 1 2 3 4 5 6 
#
# 1 0.015364 -0.000670 0.000263 -0.003333 0.004236 -0.005928
# 2 -0.000670 0.012087 -0.000737 -0.011545 0.005098 -0.012474
# 3 0.000263 -0.000737 0.009261 0.000304 0.006419 -0.003407
# 4 -0.003333 -0.011545 0.000304 0.043996 -0.017763 0.024144
# 5 0.004236 0.005098 0.006419 -0.017763 0.041384 -0.022015
# 6 -0.005928 -0.012474 -0.003407 0.024144 -0.022015 0.053800
#
#
# Mechanical properties :
#
#
# Convention : Reuss Voigt Hill
#
# Bulk Modulus (GPa) = 29.05054 45.80538 37.42796
# Shear Modulus (GPa) = 26.36377 40.69444 33.52911
#
# Velocity S-wave (km/s) = 3.42477 4.25495 3.86223
# Velocity P-wave (km/s) = 5.34444 6.67217 6.04487
#
# Compressibility (1/GPa) = 0.03442277
#
# Stress axis : x y z
#
# Youngs Moduli (GPa) = 65.08811 82.73412 107.98347
#
# Poissons Ratio (x) = 0.05543 -0.02839
# Poissons Ratio (y) = 0.04361 0.07961
# Poissons Ratio (z) = -0.01711 0.06100
#
# Static dielectric constant tensor:
#      x y z
#    x 1.848440 0.018280 -0.024790 
#    y 0.018280 1.827400 -0.007420 
#    z -0.024790 -0.007420 1.812850 
# 
# From -- ./inp_files/149080.got.cif
#   From: 2010.05.17/outbox.cif.g08.bks.cpg/sg2_75_cif.got.tgz:149080.got - 2010.06.03 11:33:40.
