data_PCOD9066443
_publ_section_title
;
Structure prediction by ZEFSAII (Michael W. Deem and Ramdas Pophale) SiO2 
 PCOD9066443
Probable space group: P -1
;
_chemical_formula_sum "Si O2"
_cell_formula_units_Z 16
_cell_length_a 9.087312
_cell_length_b 16.229519
_cell_length_c 11.495120
_cell_angle_alpha 147.402805
_cell_angle_beta 128.563110
_cell_angle_gamma 46.173386
_cell_volume 655.413002
_symmetry_space_group_name_H-M "P -1"
_symmetry_group_IT_number 2
_symmetry_cell_setting 'triclinic'
loop_
_space_group_symop_operation_xyz
x,y,z
-x,-y,-z
loop_
_atom_site_type_symbol
_atom_site_label
_atom_site_fract_x
_atom_site_fract_y
_atom_site_fract_z
Si Si1 0.662260 0.285294 0.617656
Si Si2 0.774838 0.042949 0.893682
Si Si3 0.452007 0.106399 0.218478
Si Si4 0.607354 0.423133 0.337134
Si Si5 0.935299 0.671549 0.098167
Si Si6 0.887268 0.592493 0.721836
Si Si7 0.661276 0.579982 0.210044
Si Si8 0.274798 0.138781 0.562073
O O1 0.671409 0.127054 0.362907
O O2 0.549241 0.448076 0.677531
O O3 0.485172 0.282531 0.612175
O O4 0.858494 0.296482 0.784448
O O5 0.637712 0.971514 0.817566
O O6 0.825081 0.947726 0.680047
O O7 0.652566 0.242575 0.089968
O O8 0.000000 0.000000 0.000000
O O9 0.260478 0.273499 0.280269
O O10 0.500000 0.000000 0.000000
O O11 0.500000 0.500000 0.500000
O O12 0.826526 0.436930 0.480284
O O13 0.806102 0.820130 0.298099
O O14 0.840448 0.652572 0.905483
O O15 0.000000 0.500000 0.000000
O O16 0.130388 0.543416 0.773542
O O17 0.728744 0.684487 0.274681
O O18 0.500000 0.500000 0.000000
O O19 0.500000 0.000000 0.500000
#
# Coordination Sequence:
#
# PCOD9066443 Si02
#       8
#     2   2   2   2   2   2   2   2
#     4  11  25  46  74 105 145 190 252 299 364 450
#     4  12  28  47  71 109 152 185 241 312 373 426
#     4  11  27  47  72 103 149 192 244 310 369 434
#     4  11  26  44  78 105 140 198 255 298 366 445
#     4  12  25  47  79 108 147 196 248 305 365 454
#     4  11  25  45  79 107 142 198 258 297 369 449
#     4  12  24  47  72 110 146 192 246 303 367 448
#     4  12  30  48  74 112 153 190 244 312 379 430
#
# _framework density 24.412089999999999
#
# number of rings (size 3 to 8) (size 9 to 14) (size 15 to 20)
#    0.000    0.500    3.750    3.000   12.250    1.000 
#    0.000    1.250    0.000    0.000    0.000    0.000 
#    0.000    0.000    0.000    0.000    0.000    0.000 
#
# Total GULP energy -89310.426141 kJ/mol
# GULP energy per Si atom -5581.901634 kJ/mol
# Density = 2.435653 g / cm^3
# Si number density = 24.412090 Si / 1000 Ang^3
#
#
#
# Elastic Constant Matrix: (Units=GPa)
#
#
# Indices 1 2 3 4 5 6 
#
# 1 86.1710 11.2520 27.2894 1.8238 -9.8661 -9.0831
# 2 11.2520 43.9213 27.6229 -16.0889 10.2474 -6.4624
# 3 27.2894 27.6229 174.6986 -11.9026 12.1847 4.1544
# 4 1.8238 -16.0889 -11.9026 43.5173 -10.3335 2.0517
# 5 -9.8661 10.2474 12.1847 -10.3335 48.6885 -6.4374
# 6 -9.0831 -6.4624 4.1544 2.0517 -6.4374 34.4293
#
#
#
# Elastic Compliance Matrix: (Units=1/GPa)
#
#
# Indices 1 2 3 4 5 6 
#
# 1 0.013627 -0.003056 -0.002137 -0.001490 0.004171 0.004148
# 2 -0.003056 0.030724 -0.003582 0.009448 -0.003635 0.004150
# 3 -0.002137 -0.003582 0.006819 0.000357 -0.001625 -0.002384
# 4 -0.001490 0.009448 0.000357 0.027445 0.003492 0.000355
# 5 0.004171 -0.003635 -0.001625 0.003492 0.023942 0.004883
# 6 0.004148 0.004150 -0.002384 0.000355 0.004883 0.032098
#
#
# Mechanical properties :
#
#
# Convention : Reuss Voigt Hill
#
# Bulk Modulus (GPa) = 29.74446 48.56883 39.15665
# Shear Modulus (GPa) = 30.59787 41.23544 35.91666
#
# Velocity S-wave (km/s) = 3.54417 4.11437 3.83987
# Velocity P-wave (km/s) = 5.38135 6.51992 5.97780
#
# Compressibility (1/GPa) = 0.03361970
#
# Stress axis : x y z
#
# Youngs Moduli (GPa) = 73.38440 32.54837 146.65804
#
# Poissons Ratio (x) = 0.09947 0.31334
# Poissons Ratio (y) = 0.22428 0.52532
# Poissons Ratio (z) = 0.15679 0.11659
#
# Static dielectric constant tensor:
#      x y z
#    x 2.044590 0.025540 -0.126100 
#    y 0.025540 2.017990 -0.062770 
#    z -0.126100 -0.062770 2.334540 
# 
# From -- ./inp_files/403619.got.cif
#   From: 2010.05.17/outbox.cif.g08.bks.cpg/sg2_202_cif.got.tgz:403619.got - 2010.06.03 11:33:40.
