data_PCOD9066931
_publ_section_title
;
Structure prediction by ZEFSAII (Michael W. Deem and Ramdas Pophale) SiO2 
 PCOD9066931
Probable space group: P -1
;
_chemical_formula_sum "Si O2"
_cell_formula_units_Z 12
_cell_length_a 11.569287
_cell_length_b 5.316339
_cell_length_c 9.562029
_cell_angle_alpha 122.884962
_cell_angle_beta 105.631857
_cell_angle_gamma 70.518693
_cell_volume 462.699714
_symmetry_space_group_name_H-M "P -1"
_symmetry_group_IT_number 2
_symmetry_cell_setting 'triclinic'
loop_
_space_group_symop_operation_xyz
x,y,z
-x,-y,-z
loop_
_atom_site_type_symbol
_atom_site_label
_atom_site_fract_x
_atom_site_fract_y
_atom_site_fract_z
Si Si1 0.223011 0.352618 0.946593
Si Si2 0.647797 0.897015 0.825933
Si Si3 0.342470 0.603348 0.543447
Si Si4 0.906405 0.007487 0.844367
Si Si5 0.077480 0.881705 0.625754
Si Si6 0.598622 0.728220 0.251292
O O1 0.291718 0.461765 0.868948
O O2 0.133530 0.147513 0.798658
O O3 0.332352 0.160766 0.020624
O O4 0.145230 0.630397 0.097173
O O5 0.622469 0.608068 0.643943
O O6 0.781459 0.919178 0.821002
O O7 0.535687 0.179029 0.834793
O O8 0.198863 0.638165 0.545652
O O9 0.406595 0.437185 0.653575
O O10 0.362070 0.943481 0.622702
O O11 0.983533 0.808059 0.687267
O O12 0.000000 0.000000 0.000000
O O13 0.000000 0.000000 0.500000
#
# Coordination Sequence:
#
# PCOD9066931 Si02
#       6
#     2   2   2   2   2   2
#     4  11  26  46  70 105 145 189 245 300 362 431
#     4  12  27  45  75 104 144 195 235 305 364 427
#     4  11  27  49  75 109 144 191 248 301 357 430
#     4  12  26  44  70 105 146 185 244 297 363 436
#     4  11  25  47  73 103 146 193 242 300 361 432
#     4  11  27  50  75 107 147 190 249 298 361 429
#
# _framework density 25.934747999999999
#
# number of rings (size 3 to 8) (size 9 to 14) (size 15 to 20)
#    0.000    0.667    1.667    4.000   14.000    1.333 
#    0.000    0.000    0.000    0.000    0.000    0.000 
#    0.000    0.000    0.000    0.000    0.000    0.000 
#
# Total GULP energy -67306.993253 kJ/mol
# GULP energy per Si atom -5608.916104 kJ/mol
# Density = 2.587572 g / cm^3
# Si number density = 25.934748 Si / 1000 Ang^3
#
#
#
# Elastic Constant Matrix: (Units=GPa)
#
#
# Indices 1 2 3 4 5 6 
#
# 1 163.7380 19.4870 19.7202 -6.1300 -17.5700 -9.9007
# 2 19.4870 97.8538 31.6174 -16.0698 4.0888 -14.8300
# 3 19.7202 31.6174 100.9952 -14.5784 -8.9165 -2.1397
# 4 -6.1300 -16.0698 -14.5784 57.9613 -7.0928 6.0914
# 5 -17.5700 4.0888 -8.9165 -7.0928 34.5057 -6.4836
# 6 -9.9007 -14.8300 -2.1397 6.0914 -6.4836 48.4072
#
#
#
# Elastic Compliance Matrix: (Units=1/GPa)
#
#
# Indices 1 2 3 4 5 6 
#
# 1 0.006822 -0.001012 -0.000554 0.000616 0.003859 0.001500
# 2 -0.001012 0.012396 -0.003519 0.001897 -0.001952 0.002935
# 3 -0.000554 -0.003519 0.011765 0.002415 0.003579 -0.000496
# 4 0.000616 0.001897 0.002415 0.019101 0.004453 -0.000993
# 5 0.003859 -0.001952 0.003579 0.004453 0.033829 0.004320
# 6 0.001500 0.002935 -0.000496 -0.000993 0.004320 0.022546
#
#
# Mechanical properties :
#
#
# Convention : Reuss Voigt Hill
#
# Bulk Modulus (GPa) = 48.04748 56.02627 52.03688
# Shear Modulus (GPa) = 40.46366 47.62568 44.04467
#
# Velocity S-wave (km/s) = 3.95423 4.28993 4.12550
# Velocity P-wave (km/s) = 6.27810 6.79615 6.54225
#
# Compressibility (1/GPa) = 0.02081274
#
# Stress axis : x y z
#
# Youngs Moduli (GPa) = 146.57589 80.67123 84.99528
#
# Poissons Ratio (x) = 0.08168 0.04706
# Poissons Ratio (y) = 0.14840 0.29913
# Poissons Ratio (z) = 0.08116 0.28391
#
# Static dielectric constant tensor:
#      x y z
#    x 2.281390 0.038190 -0.399420 
#    y 0.038190 2.041180 0.019300 
#    z -0.399420 0.019300 2.661410 
# 
# From -- ./inp_files/22327.got.cif
#   From: 2010.05.17/outbox.cif.g08.bks.cpg/sg2_12_cif.got.tgz:22327.got - 2010.06.03 11:33:40.
