data_PCOD9066585
_publ_section_title
;
Structure prediction by ZEFSAII (Michael W. Deem and Ramdas Pophale) SiO2 
 PCOD9066585
Probable space group: P -1
;
_chemical_formula_sum "Si O2"
_cell_formula_units_Z 16
_cell_length_a 11.405025
_cell_length_b 15.384225
_cell_length_c 9.194631
_cell_angle_alpha 147.442830
_cell_angle_beta 78.360171
_cell_angle_gamma 116.178523
_cell_volume 729.195159
_symmetry_space_group_name_H-M "P -1"
_symmetry_group_IT_number 2
_symmetry_cell_setting 'triclinic'
loop_
_space_group_symop_operation_xyz
x,y,z
-x,-y,-z
loop_
_atom_site_type_symbol
_atom_site_label
_atom_site_fract_x
_atom_site_fract_y
_atom_site_fract_z
Si Si1 0.360658 0.750350 0.285735
Si Si2 0.902172 0.792475 0.669057
Si Si3 0.650642 0.894095 0.254275
Si Si4 0.087901 0.398137 0.855924
Si Si5 0.598529 0.701637 0.686414
Si Si6 0.113692 0.188747 0.818376
Si Si7 0.877689 0.541636 0.570394
Si Si8 0.591774 0.219236 0.335894
O O1 0.503765 0.801015 0.243969
O O2 0.379054 0.766608 0.479337
O O3 0.304176 0.887229 0.443978
O O4 0.245044 0.544913 0.976273
O O5 0.965664 0.784837 0.487891
O O6 0.746270 0.752362 0.657375
O O7 0.886535 0.611763 0.503226
O O8 0.000000 0.000000 0.000000
O O9 0.751910 0.832996 0.217871
O O10 0.629370 0.838641 0.010656
O O11 0.112260 0.345836 0.936269
O O12 0.000000 0.500000 0.000000
O O13 0.500000 0.500000 0.500000
O O14 0.510057 0.708645 0.585182
O O15 0.093012 0.267803 0.086286
O O16 0.000000 0.000000 0.500000
O O17 0.734596 0.358674 0.406501
O O18 0.000000 0.500000 0.500000
O O19 0.500000 0.000000 0.000000
#
# Coordination Sequence:
#
# PCOD9066585 Si02
#       8
#     2   2   2   2   2   2   2   2
#     4  11  26  46  71 107 142 187 240 300 365 430
#     4  12  28  46  75 108 142 193 241 300 365 431
#     4  11  25  46  72 103 144 184 242 299 358 438
#     4  12  27  45  72 103 145 189 237 292 361 428
#     4  12  24  47  71 101 144 185 243 297 362 426
#     4  12  25  47  72 103 143 191 235 298 363 429
#     4  12  27  48  71 107 148 188 246 299 361 437
#     4  12  26  45  74 105 143 195 239 300 362 434
#
# _framework density 21.941998000000002
#
# number of rings (size 3 to 8) (size 9 to 14) (size 15 to 20)
#    0.000    0.250    5.000    3.000    5.250    1.500 
#    0.000    0.000    0.000    0.000    0.000    0.000 
#    0.000    0.000    0.000    0.000    0.000    0.000 
#
# Total GULP energy -89311.504915 kJ/mol
# GULP energy per Si atom -5581.969057 kJ/mol
# Density = 2.189206 g / cm^3
# Si number density = 21.941998 Si / 1000 Ang^3
#
#
#
# Elastic Constant Matrix: (Units=GPa)
#
#
# Indices 1 2 3 4 5 6 
#
# 1 164.1831 38.5099 17.2725 12.3450 -18.5680 -10.7653
# 2 38.5099 85.9654 -5.2490 -1.2991 -3.5315 -16.9545
# 3 17.2725 -5.2490 94.9792 0.6306 6.1364 5.6251
# 4 12.3450 -1.2991 0.6306 36.3351 0.3530 2.8924
# 5 -18.5680 -3.5315 6.1364 0.3530 33.6501 5.1993
# 6 -10.7653 -16.9545 5.6251 2.8924 5.1993 40.7958
#
#
#
# Elastic Compliance Matrix: (Units=1/GPa)
#
#
# Indices 1 2 3 4 5 6 
#
# 1 0.007811 -0.003368 -0.001896 -0.002829 0.004242 0.000583
# 2 -0.003368 0.014145 0.001183 0.001252 -0.001362 0.004912
# 3 -0.001896 0.001183 0.011188 0.000618 -0.002777 -0.001241
# 4 -0.002829 0.001252 0.000618 0.028703 -0.001511 -0.002154
# 5 0.004242 -0.001362 -0.002777 -0.001511 0.032925 -0.003153
# 6 0.000583 0.004912 -0.001241 -0.002154 -0.003153 0.027433
#
#
# Mechanical properties :
#
#
# Convention : Reuss Voigt Hill
#
# Bulk Modulus (GPa) = 40.03104 49.57718 44.80411
# Shear Modulus (GPa) = 36.05022 41.79581 38.92301
#
# Velocity S-wave (km/s) = 4.05776 4.36917 4.21634
# Velocity P-wave (km/s) = 6.34331 6.93517 6.64583
#
# Compressibility (1/GPa) = 0.02498061
#
# Stress axis : x y z
#
# Youngs Moduli (GPa) = 128.02412 70.69413 89.38375
#
# Poissons Ratio (x) = 0.23813 0.16951
# Poissons Ratio (y) = 0.43124 -0.10575
# Poissons Ratio (z) = 0.24279 -0.08364
#
# Static dielectric constant tensor:
#      x y z
#    x 1.738440 -0.051950 -0.025460 
#    y -0.051950 1.873240 0.062680 
#    z -0.025460 0.062680 1.864420 
# 
# From -- ./inp_files/245600.got.cif
#   From: 2010.05.17/outbox.cif.g08.bks.cpg/sg2_123_cif.got.tgz:245600.got - 2010.06.03 11:33:40.
