data_PCOD9066942
_publ_section_title
;
Structure prediction by ZEFSAII (Michael W. Deem and Ramdas Pophale) SiO2 
 PCOD9066942
Probable space group: P -1
;
_chemical_formula_sum "Si O2"
_cell_formula_units_Z 14
_cell_length_a 11.986391
_cell_length_b 5.811529
_cell_length_c 12.322087
_cell_angle_alpha 113.696831
_cell_angle_beta 131.371334
_cell_angle_gamma 68.287429
_cell_volume 582.992364
_symmetry_space_group_name_H-M "P -1"
_symmetry_group_IT_number 2
_symmetry_cell_setting 'triclinic'
loop_
_space_group_symop_operation_xyz
x,y,z
-x,-y,-z
loop_
_atom_site_type_symbol
_atom_site_label
_atom_site_fract_x
_atom_site_fract_y
_atom_site_fract_z
Si Si1 0.978108 0.004519 0.309637
Si Si2 0.673633 0.185830 0.836685
Si Si3 0.236469 0.883581 0.633770
Si Si4 0.850593 0.792604 0.732688
Si Si5 0.902162 0.560600 0.058206
Si Si6 0.562021 0.564969 0.435255
Si Si7 0.525612 0.803656 0.084004
O O1 0.878436 0.841335 0.141661
O O2 0.102934 0.905097 0.463023
O O3 0.850046 0.189522 0.327632
O O4 0.089291 0.066887 0.300819
O O5 0.555753 0.245853 0.674240
O O6 0.591171 0.114971 0.877460
O O7 0.804806 0.966077 0.840630
O O8 0.752399 0.436601 0.941397
O O9 0.374601 0.679350 0.643055
O O10 0.310265 0.139756 0.755082
O O11 0.705571 0.689392 0.579908
O O12 0.984032 0.574604 0.805150
O O13 0.000000 0.500000 0.000000
O O14 0.500000 0.500000 0.500000
O O15 0.500000 0.500000 0.000000
O O16 0.500000 0.000000 0.000000
#
# Coordination Sequence:
#
# PCOD9066942 Si02
#       7
#     2   2   2   2   2   2   2
#     4  11  25  47  73 109 146 199 253 318 387 471
#     4  12  26  45  75 113 152 202 261 331 392 468
#     4  11  25  48  75 108 155 197 256 318 388 470
#     4  12  25  45  76 105 146 196 259 312 394 459
#     4  12  25  47  73 111 153 194 258 319 393 466
#     4  12  24  47  78 112 153 201 261 323 395 475
#     4  12  28  50  76 111 159 209 264 324 404 475
#
# _framework density 24.014036999999998
#
# number of rings (size 3 to 8) (size 9 to 14) (size 15 to 20)
#    0.000    0.286    2.857    6.000    2.000    1.714 
#    2.571    0.000    0.000    0.000    0.000    0.000 
#    0.000    0.000    0.000    0.000    0.000    0.000 
#
# Total GULP energy -78193.587357 kJ/mol
# GULP energy per Si atom -5585.256240 kJ/mol
# Density = 2.395938 g / cm^3
# Si number density = 24.014037 Si / 1000 Ang^3
#
#
#
# Elastic Constant Matrix: (Units=GPa)
#
#
# Indices 1 2 3 4 5 6 
#
# 1 177.7804 18.3007 32.7896 18.5423 -15.0735 3.3881
# 2 18.3007 44.7787 23.9339 12.7310 -2.1858 -0.2482
# 3 32.7896 23.9339 135.7518 11.9634 22.1059 22.7510
# 4 18.5423 12.7310 11.9634 43.1827 5.8500 10.9958
# 5 -15.0735 -2.1858 22.1059 5.8500 61.7535 11.4672
# 6 3.3881 -0.2482 22.7510 10.9958 11.4672 33.9068
#
#
#
# Elastic Compliance Matrix: (Units=1/GPa)
#
#
# Indices 1 2 3 4 5 6 
#
# 1 0.006464 -0.000958 -0.001623 -0.002471 0.002272 0.000469
# 2 -0.000958 0.028046 -0.005341 -0.008158 0.002380 0.005725
# 3 -0.001623 -0.005341 0.010109 0.001445 -0.003219 -0.006040
# 4 -0.002471 -0.008158 0.001445 0.028930 -0.002414 -0.009348
# 5 0.002272 0.002380 -0.003219 -0.002414 0.018892 -0.003656
# 6 0.000469 0.005725 -0.006040 -0.009348 -0.003656 0.037808
#
#
# Mechanical properties :
#
#
# Convention : Reuss Voigt Hill
#
# Bulk Modulus (GPa) = 34.75432 56.48436 45.61934
# Shear Modulus (GPa) = 32.11553 46.65436 39.38495
#
# Velocity S-wave (km/s) = 3.66097 4.41250 4.05418
# Velocity P-wave (km/s) = 5.68983 7.03794 6.39948
#
# Compressibility (1/GPa) = 0.02877340
#
# Stress axis : x y z
#
# Youngs Moduli (GPa) = 154.69433 35.65587 98.91812
#
# Poissons Ratio (x) = 0.03417 0.16057
# Poissons Ratio (y) = 0.14825 0.52837
# Poissons Ratio (z) = 0.25112 0.19045
#
# Static dielectric constant tensor:
#      x y z
#    x 1.731360 -0.000630 -0.037580 
#    y -0.000630 2.030500 0.069470 
#    z -0.037580 0.069470 1.906030 
# 
# From -- ./inp_files/68951.got.cif
#   From: 2010.05.17/outbox.cif.g08.bks.cpg/sg2_35_cif.got.tgz:68951.got - 2010.06.03 11:33:40.
