data_PCOD9066971
_publ_section_title
;
Structure prediction by ZEFSAII (Michael W. Deem and Ramdas Pophale) SiO2 
 PCOD9066971
Probable space group: P -1
;
_chemical_formula_sum "Si O2"
_cell_formula_units_Z 14
_cell_length_a 6.058251
_cell_length_b 19.054745
_cell_length_c 6.100422
_cell_angle_alpha 69.933446
_cell_angle_beta 99.383545
_cell_angle_gamma 119.707714
_cell_volume 574.511089
_symmetry_space_group_name_H-M "P -1"
_symmetry_group_IT_number 2
_symmetry_cell_setting 'triclinic'
loop_
_space_group_symop_operation_xyz
x,y,z
-x,-y,-z
loop_
_atom_site_type_symbol
_atom_site_label
_atom_site_fract_x
_atom_site_fract_y
_atom_site_fract_z
Si Si1 0.033113 0.627517 0.911812
Si Si2 0.903334 0.039377 0.751920
Si Si3 0.504546 0.763303 0.100496
Si Si4 0.261746 0.321256 0.488770
Si Si5 0.228854 0.816602 0.294527
Si Si6 0.787637 0.462287 0.320533
Si Si7 0.664115 0.875836 0.632610
O O1 0.148467 0.600345 0.751210
O O2 0.880004 0.677108 0.758700
O O3 0.271485 0.680946 0.048687
O O4 0.834053 0.540937 0.089717
O O5 0.827653 0.105449 0.775533
O O6 0.123323 0.090987 0.555457
O O7 0.693603 0.959966 0.668197
O O8 0.000000 0.000000 0.000000
O O9 0.611221 0.736643 0.356657
O O10 0.397666 0.824237 0.106113
O O11 0.694882 0.814713 0.881083
O O12 0.506181 0.413853 0.430752
O O13 0.017368 0.276448 0.656982
O O14 0.391922 0.823922 0.530245
O O15 0.000000 0.500000 0.500000
#
# Coordination Sequence:
#
# PCOD9066971 Si02
#       7
#     2   2   2   2   2   2   2
#     4  11  26  49  74 106 149 198 246 311 373 436
#     4  11  26  49  76 107 147 201 246 304 375 442
#     4  12  27  48  73 111 154 191 250 310 367 450
#     4  12  25  46  76 104 150 197 246 302 376 431
#     4  12  26  45  72 111 147 195 247 309 369 441
#     4  11  25  49  74 108 149 194 256 309 362 448
#     4  11  25  47  74 105 150 196 248 304 372 443
#
# _framework density 24.368545000000001
#
# number of rings (size 3 to 8) (size 9 to 14) (size 15 to 20)
#    0.000    0.571    2.857    4.286    2.000    7.429 
#    2.571    0.000    0.000    0.000    0.000    0.000 
#    0.000    0.000    0.000    0.000    0.000    0.000 
#
# Total GULP energy -78258.216525 kJ/mol
# GULP energy per Si atom -5589.872609 kJ/mol
# Density = 2.431308 g / cm^3
# Si number density = 24.368545 Si / 1000 Ang^3
#
#
#
# Elastic Constant Matrix: (Units=GPa)
#
#
# Indices 1 2 3 4 5 6 
#
# 1 78.9608 48.3127 59.0424 -7.3125 4.2424 2.4443
# 2 48.3127 118.1857 45.1877 4.1678 -9.9649 14.5871
# 3 59.0424 45.1877 120.9225 -28.3130 2.8361 -14.6310
# 4 -7.3125 4.1678 -28.3130 55.5193 4.4131 -2.0356
# 5 4.2424 -9.9649 2.8361 4.4131 37.4428 -7.0753
# 6 2.4443 14.5871 -14.6310 -2.0356 -7.0753 55.4493
#
#
#
# Elastic Compliance Matrix: (Units=1/GPa)
#
#
# Indices 1 2 3 4 5 6 
#
# 1 0.023944 -0.005904 -0.010025 -0.001306 -0.003879 -0.002691
# 2 -0.005904 0.013194 -0.003550 -0.004052 0.004217 -0.003758
# 3 -0.010025 -0.003550 0.017112 0.007967 -0.000897 0.006069
# 4 -0.001306 -0.004052 0.007967 0.022618 -0.003518 0.003607
# 5 -0.003879 0.004217 -0.000897 -0.003518 0.029210 0.002423
# 6 -0.002691 -0.003758 0.006069 0.003607 0.002423 0.021185
#
#
# Mechanical properties :
#
#
# Convention : Reuss Voigt Hill
#
# Bulk Modulus (GPa) = 65.39414 69.23942 67.31678
# Shear Modulus (GPa) = 29.18541 40.71736 34.95139
#
# Velocity S-wave (km/s) = 3.46449 4.09210 3.79130
# Velocity P-wave (km/s) = 6.54960 7.12756 6.84469
#
# Compressibility (1/GPa) = 0.01529189
#
# Stress axis : x y z
#
# Youngs Moduli (GPa) = 41.76458 75.79001 58.43846
#
# Poissons Ratio (x) = 0.44745 0.58585
# Poissons Ratio (y) = 0.24657 0.20747
# Poissons Ratio (z) = 0.41869 0.26907
#
# Static dielectric constant tensor:
#      x y z
#    x 1.950660 0.011880 0.003070 
#    y 0.011880 1.936340 -0.004390 
#    z 0.003070 -0.004390 1.922510 
# 
# From -- ./inp_files/10423.got.cif
#   From: 2010.05.17/outbox.cif.g08.bks.cpg/sg2_6_cif.got.tgz:10423.got - 2010.06.03 11:33:40.
