data_PCOD9066045
_publ_section_title
;
Structure prediction by ZEFSAII (Michael W. Deem and Ramdas Pophale) SiO2 
 PCOD9066045
Probable space group: P -1
;
_chemical_formula_sum "Si O2"
_cell_formula_units_Z 12
_cell_length_a 16.341288
_cell_length_b 14.559157
_cell_length_c 10.430393
_cell_angle_alpha 37.589801
_cell_angle_beta 151.241298
_cell_angle_gamma 153.939308
_cell_volume 524.380720
_symmetry_space_group_name_H-M "P -1"
_symmetry_group_IT_number 2
_symmetry_cell_setting 'triclinic'
loop_
_space_group_symop_operation_xyz
x,y,z
-x,-y,-z
loop_
_atom_site_type_symbol
_atom_site_label
_atom_site_fract_x
_atom_site_fract_y
_atom_site_fract_z
Si Si1 0.678994 0.357251 0.988965
Si Si2 0.165113 0.005487 0.626581
Si Si3 0.908223 0.172595 0.545866
Si Si4 0.395136 0.543339 0.950115
Si Si5 0.545718 0.756717 0.669455
Si Si6 0.106273 0.672551 0.064273
O O1 0.763054 0.234615 0.241577
O O2 0.643697 0.389194 0.049768
O O3 0.891626 0.576800 0.970604
O O4 0.429004 0.229243 0.717608
O O5 0.053685 0.893558 0.461164
O O6 0.206323 0.878540 0.903629
O O7 0.000000 0.000000 0.500000
O O8 0.148203 0.368879 0.728124
O O9 0.760141 0.976927 0.655739
O O10 0.562748 0.733586 0.869916
O O11 0.481785 0.426990 0.225235
O O12 0.313507 0.711974 0.375990
O O13 0.000000 0.500000 0.000000
#
# Coordination Sequence:
#
# PCOD9066045 Si02
#       6
#     2   2   2   2   2   2
#     4  12  26  44  73 104 139 180 235 283 345 412
#     4  12  29  46  72 106 138 180 237 287 344 413
#     4  12  24  49  70 102 142 184 230 286 346 408
#     4  11  27  45  70 106 140 183 234 281 344 413
#     4  11  25  44  72  98 146 182 228 284 347 404
#     4  12  24  46  73 100 143 187 224 286 351 406
#
# _framework density 22.884136999999999
#
# number of rings (size 3 to 8) (size 9 to 14) (size 15 to 20)
#    0.000    0.333    5.000    2.500    9.333    2.667 
#    0.000    0.000    0.000    0.000    0.000    0.000 
#    0.000    0.000    0.000    0.000    0.000    0.000 
#
# Total GULP energy -67232.395342 kJ/mol
# GULP energy per Si atom -5602.699612 kJ/mol
# Density = 2.283205 g / cm^3
# Si number density = 22.884137 Si / 1000 Ang^3
#
#
#
# Elastic Constant Matrix: (Units=GPa)
#
#
# Indices 1 2 3 4 5 6 
#
# 1 128.5994 8.6657 -3.7261 5.4229 -10.8870 -4.8022
# 2 8.6657 63.6801 19.5262 0.5358 -10.2941 24.4037
# 3 -3.7261 19.5262 65.1462 19.5091 3.2140 5.3064
# 4 5.4229 0.5358 19.5091 32.5694 11.7136 -15.2788
# 5 -10.8870 -10.2941 3.2140 11.7136 33.7630 0.7347
# 6 -4.8022 24.4037 5.3064 -15.2788 0.7347 40.1600
#
#
#
# Elastic Compliance Matrix: (Units=1/GPa)
#
#
# Indices 1 2 3 4 5 6 
#
# 1 0.008346 -0.001046 0.001730 -0.003694 0.003490 -0.000064
# 2 -0.001046 0.027426 -0.003157 -0.013415 0.013452 -0.021724
# 3 0.001730 -0.003157 0.022596 -0.019170 0.004274 -0.008231
# 4 -0.003694 -0.013415 -0.019170 0.071210 -0.028985 0.037865
# 5 0.003490 0.013452 0.004274 -0.028985 0.044933 -0.020171
# 6 -0.000064 -0.021724 -0.008231 0.037865 -0.020171 0.053955
#
#
# Mechanical properties :
#
#
# Convention : Reuss Voigt Hill
#
# Bulk Modulus (GPa) = 18.71924 34.03971 26.37947
# Shear Modulus (GPa) = 19.90292 36.82914 28.36603
#
# Velocity S-wave (km/s) = 2.95231 4.01605 3.52454
# Velocity P-wave (km/s) = 4.45189 6.03424 5.30242
#
# Compressibility (1/GPa) = 0.05342098
#
# Stress axis : x y z
#
# Youngs Moduli (GPa) = 119.82364 36.46126 44.25637
#
# Poissons Ratio (x) = 0.03815 -0.07658
# Poissons Ratio (y) = 0.12537 0.13973
# Poissons Ratio (z) = -0.20733 0.11512
#
# Static dielectric constant tensor:
#      x y z
#    x 1.827190 0.024990 0.023900 
#    y 0.024990 1.870960 0.012220 
#    z 0.023900 0.012220 1.838110 
# 
# From -- ./inp_files/148553.got.cif
#   From: 2010.05.17/outbox.cif.g08.bks.cpg/sg2_75_cif.got.tgz:148553.got - 2010.06.03 11:33:40.
