data_PCOD9066757
_publ_section_title
;
Structure prediction by ZEFSAII (Michael W. Deem and Ramdas Pophale) SiO2 
 PCOD9066757
Probable space group: P -1
;
_chemical_formula_sum "Si O2"
_cell_formula_units_Z 16
_cell_length_a 18.336725
_cell_length_b 14.955009
_cell_length_c 9.825171
_cell_angle_alpha 38.602736
_cell_angle_beta 37.375896
_cell_angle_gamma 27.598759
_cell_volume 728.576393
_symmetry_space_group_name_H-M "P -1"
_symmetry_group_IT_number 2
_symmetry_cell_setting 'triclinic'
loop_
_space_group_symop_operation_xyz
x,y,z
-x,-y,-z
loop_
_atom_site_type_symbol
_atom_site_label
_atom_site_fract_x
_atom_site_fract_y
_atom_site_fract_z
Si Si1 0.938140 0.545050 0.884454
Si Si2 0.968508 0.883654 0.104221
Si Si3 0.395595 0.757068 0.717553
Si Si4 0.564562 0.609621 0.920592
Si Si5 0.634910 0.012935 0.767053
Si Si6 0.123602 0.477736 0.446511
Si Si7 0.903517 0.258894 0.220162
Si Si8 0.266033 0.875609 0.258950
O O1 0.810138 0.780651 0.763160
O O2 0.099369 0.420090 0.693902
O O3 0.850533 0.466239 0.077421
O O4 0.000000 0.500000 0.000000
O O5 0.040882 0.702124 0.309586
O O6 0.768272 0.044207 0.198385
O O7 0.057078 0.800047 0.926728
O O8 0.000000 0.000000 0.000000
O O9 0.539357 0.641641 0.756569
O O10 0.413063 0.842276 0.458721
O O11 0.374540 0.606128 0.889442
O O12 0.690046 0.635255 0.742385
O O13 0.394531 0.765124 0.074333
O O14 0.658913 0.089898 0.773686
O O15 0.500000 0.000000 0.000000
O O16 0.000000 0.500000 0.500000
O O17 0.771570 0.253346 0.477272
O O18 0.082161 0.087101 0.236203
#
# Coordination Sequence:
#
# PCOD9066757 Si02
#       8
#     2   2   2   2   2   2   2   2
#     4  12  27  47  74 108 148 194 242 299 372 439
#     4  12  22  44  73 103 143 187 243 295 359 433
#     4  11  25  47  71 108 146 189 244 303 360 436
#     4  11  27  46  74 108 145 192 245 302 365 428
#     4  12  29  47  72 109 149 193 242 304 370 437
#     4  12  27  45  73 107 142 191 245 301 364 435
#     4  11  25  46  75 109 144 191 247 301 368 440
#     4  11  26  47  75 105 146 192 244 305 360 435
#
# _framework density 21.960633999999999
#
# number of rings (size 3 to 8) (size 9 to 14) (size 15 to 20)
#    0.000    0.500    6.250    0.750    5.250    1.500 
#    0.000    1.875    0.000    0.000    0.000    0.000 
#    0.000    0.000    0.000    0.000    0.000    0.000 
#
# Total GULP energy -89441.605953 kJ/mol
# GULP energy per Si atom -5590.100372 kJ/mol
# Density = 2.191065 g / cm^3
# Si number density = 21.960634 Si / 1000 Ang^3
#
#
#
# Elastic Constant Matrix: (Units=GPa)
#
#
# Indices 1 2 3 4 5 6 
#
# 1 135.4079 4.5851 77.4453 7.3192 0.2227 12.1329
# 2 4.5851 40.3734 19.7863 1.5016 1.3822 2.0614
# 3 77.4453 19.7863 155.7749 4.5742 4.5311 -2.9325
# 4 7.3192 1.5016 4.5742 43.2167 -2.0010 -5.6060
# 5 0.2227 1.3822 4.5311 -2.0010 41.6927 0.6629
# 6 12.1329 2.0614 -2.9325 -5.6060 0.6629 33.2558
#
#
#
# Elastic Compliance Matrix: (Units=1/GPa)
#
#
# Indices 1 2 3 4 5 6 
#
# 1 0.011251 0.001925 -0.005890 -0.001986 0.000502 -0.005088
# 2 0.001925 0.026908 -0.004383 -0.001200 -0.000437 -0.002951
# 3 -0.005890 -0.004383 0.009982 0.000491 -0.000939 0.003402
# 4 -0.001986 -0.001200 0.000491 0.024150 0.001078 0.004892
# 5 0.000502 -0.000437 -0.000939 0.001078 0.024159 -0.000539
# 6 -0.005088 -0.002951 0.003402 0.004892 -0.000539 0.033245
#
#
# Mechanical properties :
#
#
# Convention : Reuss Voigt Hill
#
# Bulk Modulus (GPa) = 31.80060 59.46551 45.63306
# Shear Modulus (GPa) = 31.87317 38.94900 35.41108
#
# Velocity S-wave (km/s) = 3.81383 4.21596 4.01993
# Velocity P-wave (km/s) = 5.82288 7.12995 6.50930
#
# Compressibility (1/GPa) = 0.03144594
#
# Stress axis : x y z
#
# Youngs Moduli (GPa) = 88.87885 37.16327 100.18448
#
# Poissons Ratio (x) = -0.07156 0.59012
# Poissons Ratio (y) = -0.17113 0.43908
# Poissons Ratio (z) = 0.52353 0.16288
#
# Static dielectric constant tensor:
#      x y z
#    x 1.783850 -0.034120 -0.013460 
#    y -0.034120 1.819090 0.025170 
#    z -0.013460 0.025170 1.783910 
# 
# From -- ./inp_files/335618.got.cif
#   From: 2010.05.17/outbox.cif.g08.bks.cpg/sg2_168_cif.got.tgz:335618.got - 2010.06.03 11:33:40.
