data_PCOD9066963
_publ_section_title
;
Structure prediction by ZEFSAII (Michael W. Deem and Ramdas Pophale) SiO2 
 PCOD9066963
Probable space group: P -1
;
_chemical_formula_sum "Si O2"
_cell_formula_units_Z 13
_cell_length_a 15.341878
_cell_length_b 12.077164
_cell_length_c 9.774473
_cell_angle_alpha 40.712420
_cell_angle_beta 48.055830
_cell_angle_gamma 28.432722
_cell_volume 562.437280
_symmetry_space_group_name_H-M "P -1"
_symmetry_group_IT_number 2
_symmetry_cell_setting 'triclinic'
loop_
_space_group_symop_operation_xyz
x,y,z
-x,-y,-z
loop_
_atom_site_type_symbol
_atom_site_label
_atom_site_fract_x
_atom_site_fract_y
_atom_site_fract_z
Si Si1 0.909343 0.969636 0.723190
Si Si2 0.915726 0.056899 0.181125
Si Si3 0.500000 0.000000 0.500000
Si Si4 0.569197 0.592638 0.915278
Si Si5 0.216069 0.372790 0.993565
Si Si6 0.152588 0.261387 0.456947
Si Si7 0.579212 0.134240 0.920322
O O1 0.031122 0.665703 0.864940
O O2 0.697144 0.169779 0.731232
O O3 0.000000 0.000000 0.500000
O O4 0.953091 0.994388 0.802974
O O5 0.891814 0.884878 0.393559
O O6 0.716917 0.362408 0.084920
O O7 0.000000 0.000000 0.000000
O O8 0.631477 0.676144 0.674877
O O9 0.653324 0.936568 0.485023
O O10 0.500000 0.500000 0.000000
O O11 0.429330 0.857396 0.911949
O O12 0.379686 0.327150 0.886450
O O13 0.174108 0.336098 0.220119
O O14 0.302553 0.149107 0.002528
O O15 0.000000 0.500000 0.500000
#
# Coordination Sequence:
#
# PCOD9066963 Si02
#       7
#     2   2   1   2   2   2   2
#     4  12  26  48  71 106 146 198 245 301 382 450
#     4  12  25  47  71 109 151 190 253 317 367 447
#     4  12  24  44  72 110 144 192 250 298 388 424
#     4  12  24  47  73 110 148 195 248 310 371 449
#     4  11  25  49  72 108 145 195 252 304 375 447
#     4  12  26  45  76 105 148 196 250 310 373 445
#     4  11  25  47  74 101 148 191 241 311 367 445
#
# _framework density 23.113688
#
# number of rings (size 3 to 8) (size 9 to 14) (size 15 to 20)
#    0.000    0.308    4.615    4.154    2.154    0.615 
#   11.077    0.000    0.000    0.000    0.000    0.000 
#    0.000    0.000    0.000    0.000    0.000    0.000 
#
# Total GULP energy -72409.645392 kJ/mol
# GULP energy per Si atom -5569.972722 kJ/mol
# Density = 2.306108 g / cm^3
# Si number density = 23.113688 Si / 1000 Ang^3
#
#
#
# Elastic Constant Matrix: (Units=GPa)
#
#
# Indices 1 2 3 4 5 6 
#
# 1 129.6278 40.7520 2.2593 6.3584 -25.2605 -0.4686
# 2 40.7520 83.2606 18.5481 7.0353 2.0110 7.8340
# 3 2.2593 18.5481 57.3007 -5.5795 -5.6337 -10.7994
# 4 6.3584 7.0353 -5.5795 27.6427 8.7169 -2.9637
# 5 -25.2605 2.0110 -5.6337 8.7169 39.1186 11.5202
# 6 -0.4686 7.8340 -10.7994 -2.9637 11.5202 53.9828
#
#
#
# Elastic Compliance Matrix: (Units=1/GPa)
#
#
# Indices 1 2 3 4 5 6 
#
# 1 0.011457 -0.005837 0.001808 -0.003721 0.009030 -0.000823
# 2 -0.005837 0.017023 -0.006601 -0.003440 -0.003885 -0.003201
# 3 0.001808 -0.006601 0.021200 0.005519 0.001819 0.005129
# 4 -0.003721 -0.003440 0.005519 0.043920 -0.013222 0.006804
# 5 0.009030 -0.003885 0.001819 -0.013222 0.037048 -0.007626
# 6 -0.000823 -0.003201 0.005129 0.006804 -0.007626 0.022009
#
#
# Mechanical properties :
#
#
# Convention : Reuss Voigt Hill
#
# Bulk Modulus (GPa) = 35.18410 43.70089 39.44249
# Shear Modulus (GPa) = 27.26416 38.05747 32.66081
#
# Velocity S-wave (km/s) = 3.43821 4.06215 3.76313
# Velocity P-wave (km/s) = 5.56929 6.39917 5.99860
#
# Compressibility (1/GPa) = 0.02842193
#
# Stress axis : x y z
#
# Youngs Moduli (GPa) = 87.28237 58.74248 47.16943
#
# Poissons Ratio (x) = 0.34286 -0.08528
# Poissons Ratio (y) = 0.50944 0.31135
# Poissons Ratio (z) = -0.15780 0.38774
#
# Static dielectric constant tensor:
#      x y z
#    x 1.848750 0.034970 -0.012540 
#    y 0.034970 1.970590 -0.018740 
#    z -0.012540 -0.018740 1.958660 
# 
# From -- ./inp_files/306127.got.cif
#   From: 2010.05.17/outbox.cif.g08.bks.cpg/sg2_154_cif.got.tgz:306127.got - 2010.06.03 11:33:40.
