data_PCOD9066409
_publ_section_title
;
Structure prediction by ZEFSAII (Michael W. Deem and Ramdas Pophale) SiO2 
 PCOD9066409
Probable space group: P -1
;
_chemical_formula_sum "Si O2"
_cell_formula_units_Z 14
_cell_length_a 16.678225
_cell_length_b 5.235886
_cell_length_c 10.817839
_cell_angle_alpha 66.157867
_cell_angle_beta 139.325852
_cell_angle_gamma 110.931204
_cell_volume 561.114926
_symmetry_space_group_name_H-M "P -1"
_symmetry_group_IT_number 2
_symmetry_cell_setting 'triclinic'
loop_
_space_group_symop_operation_xyz
x,y,z
-x,-y,-z
loop_
_atom_site_type_symbol
_atom_site_label
_atom_site_fract_x
_atom_site_fract_y
_atom_site_fract_z
Si Si1 0.323387 0.117637 0.123705
Si Si2 0.647401 0.520986 0.672456
Si Si3 0.114835 0.461526 0.733189
Si Si4 0.947262 0.142809 0.791734
Si Si5 0.298050 0.968804 0.780287
Si Si6 0.202928 0.356229 0.420422
Si Si7 0.483907 0.791105 0.857509
O O1 0.310838 0.263615 0.212413
O O2 0.462484 0.209540 0.217304
O O3 0.309064 0.784681 0.185559
O O4 0.221677 0.241684 0.889883
O O5 0.500000 0.500000 0.500000
O O6 0.700702 0.620453 0.583466
O O7 0.193676 0.757061 0.756032
O O8 0.000000 0.500000 0.500000
O O9 0.048071 0.356053 0.801023
O O10 0.845833 0.342004 0.679489
O O11 0.899077 0.894298 0.690427
O O12 0.000000 0.000000 0.000000
O O13 0.350826 0.868201 0.729468
O O14 0.253157 0.263677 0.629504
O O15 0.414562 0.986484 0.003694
O O16 0.500000 0.500000 0.000000
#
# Coordination Sequence:
#
# PCOD9066409 Si02
#       7
#     2   2   2   2   2   2   2
#     4  12  27  49  76 114 155 199 266 322 390 467
#     4  12  27  50  78 114 150 204 259 329 397 468
#     4  12  26  50  75 115 160 212 261 316 386 468
#     4  12  28  50  76 109 152 208 260 314 381 453
#     4  11  26  47  74 116 153 201 256 319 390 468
#     4  12  27  47  77 106 153 195 260 314 380 455
#     4  11  25  45  77 107 153 195 247 327 396 450
#
# _framework density 24.950323999999998
#
# number of rings (size 3 to 8) (size 9 to 14) (size 15 to 20)
#    0.000    0.286    2.857    5.143    8.000    2.857 
#    0.000    0.000    0.000    0.000    0.000    0.000 
#    0.000    0.000    0.000    0.000    0.000    0.000 
#
# Total GULP energy -78430.438111 kJ/mol
# GULP energy per Si atom -5602.174151 kJ/mol
# Density = 2.489354 g / cm^3
# Si number density = 24.950324 Si / 1000 Ang^3
#
#
#
# Elastic Constant Matrix: (Units=GPa)
#
#
# Indices 1 2 3 4 5 6 
#
# 1 105.0061 39.9114 22.1710 -0.2258 -24.5204 22.8046
# 2 39.9114 122.1124 44.4056 -9.0302 -8.1126 0.2187
# 3 22.1710 44.4056 137.4987 -17.5769 -10.0570 -5.3098
# 4 -0.2258 -9.0302 -17.5769 54.9177 8.6121 0.1207
# 5 -24.5204 -8.1126 -10.0570 8.6121 35.8043 -13.8967
# 6 22.8046 0.2187 -5.3098 0.1207 -13.8967 55.7692
#
#
#
# Elastic Compliance Matrix: (Units=1/GPa)
#
#
# Indices 1 2 3 4 5 6 
#
# 1 0.013677 -0.003821 -0.000842 -0.001969 0.007244 -0.003848
# 2 -0.003821 0.010414 -0.002641 0.000978 -0.000822 0.001063
# 3 -0.000842 -0.002641 0.008690 0.002130 0.001340 0.001511
# 4 -0.001969 0.000978 0.002130 0.019903 -0.005472 -0.000402
# 5 0.007244 -0.000822 0.001340 -0.005472 0.036869 0.006368
# 6 -0.003848 0.001063 0.001511 -0.000402 0.006368 0.021232
#
#
# Mechanical properties :
#
#
# Convention : Reuss Voigt Hill
#
# Bulk Modulus (GPa) = 55.02781 64.17704 59.60242
# Shear Modulus (GPa) = 38.03720 46.50685 42.27202
#
# Velocity S-wave (km/s) = 3.90874 4.32206 4.12059
# Velocity P-wave (km/s) = 6.51720 7.11932 6.82490
#
# Compressibility (1/GPa) = 0.01817263
#
# Stress axis : x y z
#
# Youngs Moduli (GPa) = 73.11798 96.02015 115.07230
#
# Poissons Ratio (x) = 0.36694 0.09684
# Poissons Ratio (y) = 0.27942 0.30393
# Poissons Ratio (z) = 0.06154 0.25361
#
# Static dielectric constant tensor:
#      x y z
#    x 2.042970 -0.063150 0.040760 
#    y -0.063150 1.958740 0.048060 
#    z 0.040760 0.048060 2.020830 
# 
# From -- ./inp_files/459414.got.cif
#   From: 2010.05.17/outbox.cif.g08.bks.cpg/sg2_230_cif.got.tgz:459414.got - 2010.06.03 11:33:40.
