data_PCOD9066788
_publ_section_title
;
Structure prediction by ZEFSAII (Michael W. Deem and Ramdas Pophale) SiO2 
 PCOD9066788
Probable space group: P -1
;
_chemical_formula_sum "Si O2"
_cell_formula_units_Z 10
_cell_length_a 4.823379
_cell_length_b 9.854993
_cell_length_c 10.012356
_cell_angle_alpha 108.703160
_cell_angle_beta 59.143954
_cell_angle_gamma 103.393926
_cell_volume 385.668595
_symmetry_space_group_name_H-M "P -1"
_symmetry_group_IT_number 2
_symmetry_cell_setting 'triclinic'
loop_
_space_group_symop_operation_xyz
x,y,z
-x,-y,-z
loop_
_atom_site_type_symbol
_atom_site_label
_atom_site_fract_x
_atom_site_fract_y
_atom_site_fract_z
Si Si1 0.399362 0.600549 0.258777
Si Si2 0.685113 0.960433 0.658088
Si Si3 0.981211 0.929741 0.127209
Si Si4 0.724127 0.367239 0.008487
Si Si5 0.313315 0.347540 0.529321
O O1 0.399672 0.645956 0.117679
O O2 0.660660 0.666034 0.320471
O O3 0.058219 0.640180 0.411651
O O4 0.436800 0.428699 0.185564
O O5 0.566255 0.794824 0.608516
O O6 0.392037 0.058649 0.732378
O O7 0.000000 0.000000 0.500000
O O8 0.800925 0.985048 0.788476
O O9 0.126530 0.776256 0.030855
O O10 0.000000 0.000000 0.000000
O O11 0.000000 0.500000 0.000000
O O12 0.500000 0.500000 0.500000
#
# Coordination Sequence:
#
# PCOD9066788 Si02
#       5
#     2   2   2   2   2
#     4  11  25  46  76 116 145 199 262 315 379 456
#     4  12  29  51  81 113 161 208 262 319 395 476
#     4  12  30  52  79 117 161 206 260 329 400 456
#     4  11  26  45  83 108 154 198 262 318 381 469
#     4  12  27  48  78 111 158 199 260 317 387 462
#
# _framework density 25.928996999999999
#
# number of rings (size 3 to 8) (size 9 to 14) (size 15 to 20)
#    0.000    0.400    2.000    4.200   11.200    1.600 
#    0.000    0.000    0.000    0.000    0.000    0.000 
#    0.000    0.000    0.000    0.000    0.000    0.000 
#
# Total GULP energy -56093.228243 kJ/mol
# GULP energy per Si atom -5609.322824 kJ/mol
# Density = 2.586998 g / cm^3
# Si number density = 25.928997 Si / 1000 Ang^3
#
#
#
# Elastic Constant Matrix: (Units=GPa)
#
#
# Indices 1 2 3 4 5 6 
#
# 1 144.8552 49.4262 40.2637 25.9005 15.9671 -28.2672
# 2 49.4262 181.8334 67.7956 44.1936 16.7055 -38.9764
# 3 40.2637 67.7956 106.3634 38.7809 14.3052 -23.4591
# 4 25.9005 44.1936 38.7809 54.2396 -1.5114 -4.3439
# 5 15.9671 16.7055 14.3052 -1.5114 68.4268 10.3501
# 6 -28.2672 -38.9764 -23.4591 -4.3439 10.3501 51.8146
#
#
#
# Elastic Compliance Matrix: (Units=1/GPa)
#
#
# Indices 1 2 3 4 5 6 
#
# 1 0.008965 -0.000075 -0.000670 -0.003434 -0.002734 0.004790
# 2 -0.000075 0.009208 -0.002104 -0.005558 -0.002826 0.006031
# 3 -0.000670 -0.002104 0.015943 -0.009047 -0.003656 0.005242
# 4 -0.003434 -0.005558 -0.009047 0.030537 0.006055 -0.008799
# 5 -0.002734 -0.002826 -0.003656 0.006055 0.018108 -0.008382
# 6 0.004790 0.006031 0.005242 -0.008799 -0.008382 0.029759
#
#
# Mechanical properties :
#
#
# Convention : Reuss Voigt Hill
#
# Bulk Modulus (GPa) = 35.18895 83.11368 59.15131
# Shear Modulus (GPa) = 39.15753 53.26731 46.21242
#
# Velocity S-wave (km/s) = 3.89032 4.53741 4.22627
# Velocity P-wave (km/s) = 5.81208 7.71847 6.83209
#
# Compressibility (1/GPa) = 0.02841801
#
# Stress axis : x y z
#
# Youngs Moduli (GPa) = 111.54328 108.60695 62.72495
#
# Poissons Ratio (x) = 0.00812 0.04203
# Poissons Ratio (y) = 0.00834 0.13196
# Poissons Ratio (z) = 0.07475 0.22848
#
# Static dielectric constant tensor:
#      x y z
#    x 1.986660 0.025910 -0.070330 
#    y 0.025910 2.099620 -0.081720 
#    z -0.070330 -0.081720 2.072250 
# 
# From -- ./inp_files/360905.got.cif
#   From: 2010.05.17/outbox.cif.g08.bks.cpg/sg2_181_cif.got.tgz:360905.got - 2010.06.03 11:33:40.
