data_PCOD9066521
_publ_section_title
;
Structure prediction by ZEFSAII (Michael W. Deem and Ramdas Pophale) SiO2 
 PCOD9066521
Probable space group: P -1
;
_chemical_formula_sum "Si O2"
_cell_formula_units_Z 16
_cell_length_a 8.322138
_cell_length_b 8.843239
_cell_length_c 11.301152
_cell_angle_alpha 84.811502
_cell_angle_beta 93.523403
_cell_angle_gamma 55.816967
_cell_volume 678.814295
_symmetry_space_group_name_H-M "P -1"
_symmetry_group_IT_number 2
_symmetry_cell_setting 'triclinic'
loop_
_space_group_symop_operation_xyz
x,y,z
-x,-y,-z
loop_
_atom_site_type_symbol
_atom_site_label
_atom_site_fract_x
_atom_site_fract_y
_atom_site_fract_z
Si Si1 0.620288 0.889451 0.893964
Si Si2 0.249593 0.412498 0.632866
Si Si3 0.910562 0.361403 0.620025
Si Si4 0.700863 0.376726 0.194784
Si Si5 0.974910 0.983928 0.637241
Si Si6 0.576808 0.032242 0.624919
Si Si7 0.723476 0.518290 0.824916
Si Si8 0.974167 0.190467 0.009150
O O1 0.671243 0.684878 0.896838
O O2 0.827929 0.861959 0.916751
O O3 0.530152 0.977848 0.753879
O O4 0.500000 0.000000 0.000000
O O5 0.167020 0.573050 0.520788
O O6 0.243672 0.493655 0.753510
O O7 0.466799 0.252043 0.615561
O O8 0.121224 0.329105 0.631470
O O9 0.914245 0.182915 0.668183
O O10 0.773455 0.532767 0.690473
O O11 0.470139 0.479519 0.186560
O O12 0.784074 0.317835 0.072376
O O13 0.824097 0.181496 0.283754
O O14 0.807411 0.945849 0.642554
O O15 0.000000 0.000000 0.500000
O O16 0.500000 0.000000 0.500000
O O17 0.920302 0.326416 0.887865
O O18 0.000000 0.000000 0.000000
#
# Coordination Sequence:
#
# PCOD9066521 Si02
#       8
#     2   2   2   2   2   2   2   2
#     4  12  29  50  76 111 152 197 250 306 373 440
#     4  11  26  43  73 104 150 186 242 301 371 434
#     4  11  25  46  70 109 144 194 240 303 366 437
#     4  12  26  46  72 107 146 189 241 305 366 443
#     4  12  25  45  72 107 151 192 243 303 374 441
#     4  12  28  47  78 109 151 195 248 306 369 441
#     4  12  28  45  77 104 144 193 250 299 367 439
#     4  12  27  51  75 103 147 194 248 304 371 441
#
# _framework density 23.570512000000001
#
# number of rings (size 3 to 8) (size 9 to 14) (size 15 to 20)
#    0.000    0.250    2.500    5.250   12.250    1.000 
#    0.000    0.000    0.000    0.000    0.000    0.000 
#    0.000    0.000    0.000    0.000    0.000    0.000 
#
# Total GULP energy -89508.585853 kJ/mol
# GULP energy per Si atom -5594.286616 kJ/mol
# Density = 2.351686 g / cm^3
# Si number density = 23.570512 Si / 1000 Ang^3
#
#
#
# Elastic Constant Matrix: (Units=GPa)
#
#
# Indices 1 2 3 4 5 6 
#
# 1 46.5939 3.4025 22.9218 -6.5686 10.1325 -5.1231
# 2 3.4025 97.7558 35.1412 7.6564 19.0950 9.3823
# 3 22.9218 35.1412 127.7065 12.9217 0.4240 2.0456
# 4 -6.5686 7.6564 12.9217 46.8343 -7.4179 1.2702
# 5 10.1325 19.0950 0.4240 -7.4179 35.6838 7.5776
# 6 -5.1231 9.3823 2.0456 1.2702 7.5776 39.1858
#
#
#
# Elastic Compliance Matrix: (Units=1/GPa)
#
#
# Indices 1 2 3 4 5 6 
#
# 1 0.027245 0.002214 -0.005903 0.003497 -0.009186 0.005003
# 2 0.002214 0.013335 -0.003817 -0.002039 -0.007908 -0.001109
# 3 -0.005903 -0.003817 0.010194 -0.002471 0.003284 -0.000945
# 4 0.003497 -0.002039 -0.002471 0.023700 0.005203 -0.000700
# 5 -0.009186 -0.007908 0.003284 0.005203 0.037366 -0.006874
# 6 0.005003 -0.001109 -0.000945 -0.000700 -0.006874 0.027840
#
#
# Mechanical properties :
#
#
# Convention : Reuss Voigt Hill
#
# Bulk Modulus (GPa) = 27.96118 43.88745 35.92431
# Shear Modulus (GPa) = 30.00957 38.38018 34.19487
#
# Velocity S-wave (km/s) = 3.57204 4.03961 3.81300
# Velocity P-wave (km/s) = 5.37598 6.35752 5.88724
#
# Compressibility (1/GPa) = 0.03576387
#
# Stress axis : x y z
#
# Youngs Moduli (GPa) = 36.70380 74.98942 98.09312
#
# Poissons Ratio (x) = -0.16603 0.57903
# Poissons Ratio (y) = -0.08126 0.37438
# Poissons Ratio (z) = 0.21666 0.28620
#
# Static dielectric constant tensor:
#      x y z
#    x 1.792850 -0.035030 0.205820 
#    y -0.035030 1.876980 0.098000 
#    z 0.205820 0.098000 1.494650 
# 
# From -- ./inp_files/382677.got.cif
#   From: 2010.05.17/outbox.cif.g08.bks.cpg/sg2_192_cif.got.tgz:382677.got - 2010.06.03 11:33:40.
