data_PCOD9066993
_publ_section_title
;
Structure prediction by ZEFSAII (Michael W. Deem and Ramdas Pophale) SiO2 
 PCOD9066993
Probable space group: P -1
;
_chemical_formula_sum "Si O2"
_cell_formula_units_Z 16
_cell_length_a 8.763854
_cell_length_b 5.274061
_cell_length_c 13.727660
_cell_angle_alpha 98.014303
_cell_angle_beta 87.056899
_cell_angle_gamma 79.901846
_cell_volume 616.705158
_symmetry_space_group_name_H-M "P -1"
_symmetry_group_IT_number 2
_symmetry_cell_setting 'triclinic'
loop_
_space_group_symop_operation_xyz
x,y,z
-x,-y,-z
loop_
_atom_site_type_symbol
_atom_site_label
_atom_site_fract_x
_atom_site_fract_y
_atom_site_fract_z
Si Si1 0.996030 0.999905 0.881880
Si Si2 0.178952 0.373607 0.262190
Si Si3 0.964409 0.735846 0.435016
Si Si4 0.436915 0.384174 0.378434
Si Si5 0.609347 0.765324 0.429898
Si Si6 0.728862 0.448978 0.911401
Si Si7 0.342049 0.782504 0.794205
Si Si8 0.422470 0.275701 0.901653
O O1 0.900706 0.812165 0.813953
O O2 0.164247 0.919566 0.824502
O O3 0.901397 0.290542 0.886980
O O4 0.000000 0.000000 0.000000
O O5 0.297865 0.249635 0.334780
O O6 0.304195 0.467132 0.192773
O O7 0.068516 0.613819 0.332322
O O8 0.785709 0.785062 0.405213
O O9 0.000000 0.500000 0.500000
O O10 0.000000 0.000000 0.500000
O O11 0.486522 0.658266 0.359120
O O12 0.370039 0.444445 0.492652
O O13 0.597232 0.218752 0.319771
O O14 0.500000 0.000000 0.500000
O O15 0.594617 0.291564 0.935646
O O16 0.704127 0.670227 0.004642
O O17 0.365216 0.507319 0.837347
O O18 0.432950 0.986273 0.850934
#
# Coordination Sequence:
#
# PCOD9066993 Si02
#       8
#     2   2   2   2   2   2   2   2
#     4  12  27  46  72 110 156 199 253 318 380 448
#     4  12  26  47  79 107 152 204 256 311 384 457
#     4  12  28  50  79 114 160 197 252 315 387 457
#     4  11  25  47  74 110 145 198 257 313 375 457
#     4  11  26  47  78 106 153 195 251 316 385 449
#     4  11  26  44  76 101 147 196 253 299 378 439
#     4  12  26  46  73 105 150 188 251 305 377 439
#     4  11  26  46  73 105 145 197 245 312 362 451
#
# _framework density 25.944326
#
# number of rings (size 3 to 8) (size 9 to 14) (size 15 to 20)
#    0.000    0.500    3.750    3.000    7.000    5.000 
#    0.000    0.000    0.000    0.000    0.000    0.000 
#    0.000    0.000    0.000    0.000    0.000    0.000 
#
# Total GULP energy -89118.834138 kJ/mol
# GULP energy per Si atom -5569.927134 kJ/mol
# Density = 2.588528 g / cm^3
# Si number density = 25.944326 Si / 1000 Ang^3
#
#
#
# Elastic Constant Matrix: (Units=GPa)
#
#
# Indices 1 2 3 4 5 6 
#
# 1 123.6105 14.7558 26.7551 17.7057 -22.1268 -9.2913
# 2 14.7558 88.1570 25.2181 20.4972 -4.2369 -10.2732
# 3 26.7551 25.2181 168.0966 28.1352 -27.4302 2.7001
# 4 17.7057 20.4972 28.1352 37.1658 -4.8894 2.2956
# 5 -22.1268 -4.2369 -27.4302 -4.8894 59.5769 17.3752
# 6 -9.2913 -10.2732 2.7001 2.2956 17.3752 37.1344
#
#
#
# Elastic Compliance Matrix: (Units=1/GPa)
#
#
# Indices 1 2 3 4 5 6 
#
# 1 0.009301 -0.000303 -0.000421 -0.003689 0.002555 0.001306
# 2 -0.000303 0.013920 -0.001211 -0.007164 -0.001765 0.005132
# 3 -0.000421 -0.001211 0.007524 -0.004208 0.003576 -0.002401
# 4 -0.003689 -0.007164 -0.004208 0.036205 0.000654 -0.005143
# 5 0.002555 -0.001765 0.003576 0.000654 0.022411 -0.010635
# 6 0.001306 0.005132 -0.002401 -0.005143 -0.010635 0.034145
#
#
# Mechanical properties :
#
#
# Convention : Reuss Voigt Hill
#
# Bulk Modulus (GPa) = 37.21209 57.03580 47.12394
# Shear Modulus (GPa) = 36.67421 47.65109 42.16265
#
# Velocity S-wave (km/s) = 3.76383 4.29028 4.03565
# Velocity P-wave (km/s) = 5.76739 6.82449 6.31809
#
# Compressibility (1/GPa) = 0.02687299
#
# Stress axis : x y z
#
# Youngs Moduli (GPa) = 107.51068 71.84074 132.90219
#
# Poissons Ratio (x) = 0.02180 0.05602
# Poissons Ratio (y) = 0.03263 0.16098
# Poissons Ratio (z) = 0.04531 0.08702
#
# Static dielectric constant tensor:
#      x y z
#    x -11.176720 19.285790 -21.883520 
#    y 19.285790 -25.887260 31.939880 
#    z -21.883520 31.939880 -34.309540 
# 
# From -- ./inp_files/90653.got.cif
#   From: 2010.05.17/outbox.cif.g08.bks.cpg/sg2_46_cif.got.tgz:90653.got - 2010.06.03 11:33:40.
