data_PCOD9066582
_publ_section_title
;
Structure prediction by ZEFSAII (Michael W. Deem and Ramdas Pophale) SiO2 
 PCOD9066582
Probable space group: P -1
;
_chemical_formula_sum "Si O2"
_cell_formula_units_Z 14
_cell_length_a 16.501382
_cell_length_b 8.526436
_cell_length_c 9.814674
_cell_angle_alpha 31.342636
_cell_angle_beta 72.967279
_cell_angle_gamma 63.493197
_cell_volume 631.119137
_symmetry_space_group_name_H-M "P -1"
_symmetry_group_IT_number 2
_symmetry_cell_setting 'triclinic'
loop_
_space_group_symop_operation_xyz
x,y,z
-x,-y,-z
loop_
_atom_site_type_symbol
_atom_site_label
_atom_site_fract_x
_atom_site_fract_y
_atom_site_fract_z
Si Si1 0.552994 0.615069 0.775330
Si Si2 0.186657 0.823085 0.678882
Si Si3 0.309237 0.369730 0.719953
Si Si4 0.421299 0.715325 0.277199
Si Si5 0.262694 0.915090 0.853751
Si Si6 0.058293 0.490808 0.108880
Si Si7 0.050706 0.241881 0.783205
O O1 0.546079 0.462777 0.748786
O O2 0.500000 0.000000 0.500000
O O3 0.500000 0.500000 0.000000
O O4 0.662276 0.448412 0.878715
O O5 0.235012 0.547053 0.743841
O O6 0.251228 0.900814 0.704266
O O7 0.134606 0.151737 0.375454
O O8 0.113683 0.722406 0.875823
O O9 0.334143 0.650624 0.427330
O O10 0.293361 0.162179 0.751203
O O11 0.390296 0.096540 0.972424
O O12 0.500000 0.500000 0.500000
O O13 0.158003 0.035932 0.865366
O O14 0.977773 0.572007 0.200318
O O15 0.000000 0.500000 0.000000
O O16 0.000000 0.500000 0.500000
O O17 0.000000 0.000000 0.000000
#
# Coordination Sequence:
#
# PCOD9066582 Si02
#       7
#     2   2   2   2   2   2   2
#     4  11  26  45  72 110 137 185 242 301 359 428
#     4  12  26  45  74 107 144 196 239 299 366 421
#     4  11  26  46  70 108 141 192 241 299 363 432
#     4  11  25  46  72 102 146 186 238 302 375 430
#     4  11  26  47  75 103 151 188 246 298 367 434
#     4  12  25  46  70 107 146 187 249 297 353 434
#     4  12  24  45  69 104 144 191 239 291 359 433
#
# _framework density 22.182815999999999
#
# number of rings (size 3 to 8) (size 9 to 14) (size 15 to 20)
#    0.000    0.571    2.857    4.286    4.000    9.143 
#    0.000    0.000    0.000    0.000    0.000    0.000 
#    0.000    0.000    0.000    0.000    0.000    0.000 
#
# Total GULP energy -78039.592447 kJ/mol
# GULP energy per Si atom -5574.256603 kJ/mol
# Density = 2.213233 g / cm^3
# Si number density = 22.182816 Si / 1000 Ang^3
#
#
#
# Elastic Constant Matrix: (Units=GPa)
#
#
# Indices 1 2 3 4 5 6 
#
# 1 80.3355 30.1932 47.0424 2.9172 33.7816 1.5573
# 2 30.1932 139.4068 43.5235 20.9502 27.1944 -6.5697
# 3 47.0424 43.5235 166.1296 10.7345 20.0740 -1.4943
# 4 2.9172 20.9502 10.7345 43.8825 -0.5770 9.6915
# 5 33.7816 27.1944 20.0740 -0.5770 46.9587 12.0484
# 6 1.5573 -6.5697 -1.4943 9.6915 12.0484 40.2208
#
#
#
# Elastic Compliance Matrix: (Units=1/GPa)
#
#
# Indices 1 2 3 4 5 6 
#
# 1 0.020741 -0.000132 -0.004025 -0.001299 -0.014050 0.003547
# 2 -0.000132 0.009941 -0.001395 -0.005544 -0.006370 0.004821
# 3 -0.004025 -0.001395 0.007545 -0.000980 0.000382 0.000330
# 4 -0.001299 -0.005544 -0.000980 0.028040 0.007443 -0.009878
# 5 -0.014050 -0.006370 0.000382 0.007443 0.038568 -0.013829
# 6 0.003547 0.004821 0.000330 -0.009878 -0.013829 0.032048
#
#
# Mechanical properties :
#
#
# Convention : Reuss Voigt Hill
#
# Bulk Modulus (GPa) = 36.87224 69.71001 53.29113
# Shear Modulus (GPa) = 31.84141 43.88658 37.86400
#
# Velocity S-wave (km/s) = 3.79279 4.45275 4.13595
# Velocity P-wave (km/s) = 5.98652 7.61114 6.84718
#
# Compressibility (1/GPa) = 0.02712067
#
# Stress axis : x y z
#
# Youngs Moduli (GPa) = 48.21410 100.59765 132.54031
#
# Poissons Ratio (x) = 0.01332 0.53346
# Poissons Ratio (y) = 0.00638 0.18496
# Poissons Ratio (z) = 0.19406 0.14038
#
# Static dielectric constant tensor:
#      x y z
#    x 1.905060 0.014740 0.015270 
#    y 0.014740 1.742230 -0.004830 
#    z 0.015270 -0.004830 1.821330 
# 
# From -- ./inp_files/328270.got.cif
#   From: 2010.05.17/outbox.cif.g08.bks.cpg/sg2_165_cif.got.tgz:328270.got - 2010.06.03 11:33:40.
