data_PCOD9066102
_publ_section_title
;
Structure prediction by ZEFSAII (Michael W. Deem and Ramdas Pophale) SiO2 
 PCOD9066102
Probable space group: P -1
;
_chemical_formula_sum "Si O2"
_cell_formula_units_Z 14
_cell_length_a 7.972742
_cell_length_b 6.381419
_cell_length_c 13.180649
_cell_angle_alpha 82.596678
_cell_angle_beta 112.557401
_cell_angle_gamma 103.008464
_cell_volume 602.727018
_symmetry_space_group_name_H-M "P -1"
_symmetry_group_IT_number 2
_symmetry_cell_setting 'triclinic'
loop_
_space_group_symop_operation_xyz
x,y,z
-x,-y,-z
loop_
_atom_site_type_symbol
_atom_site_label
_atom_site_fract_x
_atom_site_fract_y
_atom_site_fract_z
Si Si1 0.071546 0.433576 0.719287
Si Si2 0.598023 0.115075 0.868966
Si Si3 0.124466 0.899114 0.457518
Si Si4 0.188860 0.442013 0.083040
Si Si5 0.784545 0.724490 0.705038
Si Si6 0.408441 0.760439 0.685233
Si Si7 0.270859 0.196596 0.935552
O O1 0.002044 0.306923 0.609489
O O2 0.913516 0.567086 0.702159
O O3 0.264231 0.597415 0.731098
O O4 0.110768 0.264830 0.824853
O O5 0.705110 0.348195 0.846891
O O6 0.430345 0.164636 0.896492
O O7 0.511562 0.953290 0.769912
O O8 0.735491 0.010954 0.980312
O O9 0.292699 0.845537 0.564635
O O10 0.187191 0.066486 0.371227
O O11 0.000000 0.000000 0.500000
O O12 0.149274 0.245758 0.164732
O O13 0.303317 0.384683 0.016760
O O14 0.000000 0.500000 0.000000
O O15 0.564112 0.653489 0.673533
#
# Coordination Sequence:
#
# PCOD9066102 Si02
#       7
#     2   2   2   2   2   2   2
#     4  12  28  49  80 112 153 199 254 312 379 448
#     4  11  27  45  75 112 153 201 251 304 378 451
#     4  12  28  54  80 110 149 201 257 316 381 443
#     4  12  26  46  72 110 157 196 248 310 376 450
#     4  12  28  48  76 115 149 197 258 303 388 441
#     4  12  27  53  77 111 156 200 254 315 374 449
#     4  11  25  44  76 106 153 195 247 304 376 444
#
# _framework density 23.227761999999998
#
# number of rings (size 3 to 8) (size 9 to 14) (size 15 to 20)
#    0.000    0.286    4.286    3.000    8.000    1.143 
#    0.000    0.000    0.000    0.000    0.000    0.000 
#    0.000    0.000    0.000    0.000    0.000    0.000 
#
# Total GULP energy -78264.484708 kJ/mol
# GULP energy per Si atom -5590.320336 kJ/mol
# Density = 2.317489 g / cm^3
# Si number density = 23.227762 Si / 1000 Ang^3
#
#
#
# Elastic Constant Matrix: (Units=GPa)
#
#
# Indices 1 2 3 4 5 6 
#
# 1 134.8656 52.9660 30.6803 2.1654 8.6003 -17.5607
# 2 52.9660 100.6649 63.3007 0.7852 9.7380 -2.8662
# 3 30.6803 63.3007 162.8297 -19.0736 17.9287 1.4470
# 4 2.1654 0.7852 -19.0736 58.3542 -13.7030 0.1791
# 5 8.6003 9.7380 17.9287 -13.7030 41.4294 -13.3229
# 6 -17.5607 -2.8662 1.4470 0.1791 -13.3229 29.1591
#
#
#
# Elastic Compliance Matrix: (Units=1/GPa)
#
#
# Indices 1 2 3 4 5 6 
#
# 1 0.010233 -0.005274 -0.000063 -0.000093 0.001088 0.006145
# 2 -0.005274 0.016199 -0.005342 -0.002187 -0.001810 -0.002132
# 3 -0.000063 -0.005342 0.008796 0.002385 -0.002433 -0.002126
# 4 -0.000093 -0.002187 0.002385 0.019538 0.006799 0.002597
# 5 0.001088 -0.001810 -0.002433 0.006799 0.032609 0.015455
# 6 0.006145 -0.002132 -0.002126 0.002597 0.015455 0.044937
#
#
# Mechanical properties :
#
#
# Convention : Reuss Voigt Hill
#
# Bulk Modulus (GPa) = 72.09556 76.91714 74.50635
# Shear Modulus (GPa) = 31.58721 42.54942 37.06832
#
# Velocity S-wave (km/s) = 3.69167 4.28464 3.99916
# Velocity P-wave (km/s) = 7.01977 7.59366 7.31235
#
# Compressibility (1/GPa) = 0.01387048
#
# Stress axis : x y z
#
# Youngs Moduli (GPa) = 97.72703 61.73074 113.68860
#
# Poissons Ratio (x) = 0.32556 0.00717
# Poissons Ratio (y) = 0.51541 0.60730
# Poissons Ratio (z) = 0.00616 0.32975
#
# Static dielectric constant tensor:
#      x y z
#    x 1.899780 0.003850 -0.004710 
#    y 0.003850 1.875890 -0.036840 
#    z -0.004710 -0.036840 1.885240 
# 
# From -- ./inp_files/487035.got.cif
#   From: 2010.05.17/outbox.cif.g08.bks.cpg/sg2_244_cif.got.tgz:487035.got - 2010.06.03 11:33:40.
