data_PCOD9066501
_publ_section_title
;
Structure prediction by ZEFSAII (Michael W. Deem and Ramdas Pophale) SiO2 
 PCOD9066501
Probable space group: P -1
;
_chemical_formula_sum "Si O2"
_cell_formula_units_Z 16
_cell_length_a 11.240428
_cell_length_b 18.440965
_cell_length_c 8.736852
_cell_angle_alpha 96.253499
_cell_angle_beta 138.071843
_cell_angle_gamma 50.503141
_cell_volume 660.885812
_symmetry_space_group_name_H-M "P -1"
_symmetry_group_IT_number 2
_symmetry_cell_setting 'triclinic'
loop_
_space_group_symop_operation_xyz
x,y,z
-x,-y,-z
loop_
_atom_site_type_symbol
_atom_site_label
_atom_site_fract_x
_atom_site_fract_y
_atom_site_fract_z
Si Si1 0.209288 0.526352 0.835774
Si Si2 0.672114 0.742853 0.143241
Si Si3 0.771872 0.328845 0.936440
Si Si4 0.619573 0.906633 0.726454
Si Si5 0.752005 0.977445 0.124797
Si Si6 0.756718 0.598016 0.652652
Si Si7 0.210660 0.771814 0.781994
Si Si8 0.381253 0.835941 0.554764
O O1 0.025243 0.608723 0.520477
O O2 0.965294 0.557713 0.703023
O O3 0.258712 0.582705 0.992617
O O4 0.543936 0.370442 0.092697
O O5 0.429540 0.769476 0.002305
O O6 0.614321 0.749721 0.908699
O O7 0.544326 0.867178 0.089453
O O8 0.442657 0.406036 0.578546
O O9 0.887279 0.231197 0.153514
O O10 0.035845 0.243107 0.035611
O O11 0.386169 0.918307 0.531696
O O12 0.500000 0.000000 0.500000
O O13 0.672418 0.937170 0.932407
O O14 0.920081 0.891691 0.420053
O O15 0.032750 0.927807 0.297211
O O16 0.508534 0.743215 0.515888
O O17 0.000000 0.500000 0.000000
#
# Coordination Sequence:
#
# PCOD9066501 Si02
#       8
#     2   2   2   2   2   2   2   2
#     4  12  26  48  73 111 141 191 241 299 363 428
#     4  11  25  47  77 105 144 188 246 298 361 421
#     4  12  27  46  71 110 145 190 240 298 359 431
#     4  12  28  44  72 107 149 194 238 291 366 434
#     4  11  26  48  73 106 143 193 241 300 356 429
#     4  12  26  46  74 101 150 193 237 296 360 433
#     4  11  25  47  76 103 146 189 242 298 364 420
#     4  11  25  46  70 105 144 190 240 295 357 427
#
# _framework density 24.209931000000001
#
# number of rings (size 3 to 8) (size 9 to 14) (size 15 to 20)
#    0.000    0.500    3.750    4.500    7.000    2.500 
#    0.000    0.000    0.000    0.000    0.000    0.000 
#    0.000    0.000    0.000    0.000    0.000    0.000 
#
# Total GULP energy -89821.626736 kJ/mol
# GULP energy per Si atom -5613.851671 kJ/mol
# Density = 2.415483 g / cm^3
# Si number density = 24.209931 Si / 1000 Ang^3
#
#
#
# Elastic Constant Matrix: (Units=GPa)
#
#
# Indices 1 2 3 4 5 6 
#
# 1 105.1179 18.7101 23.4449 -12.6468 27.4310 -0.3845
# 2 18.7101 135.3320 26.4104 3.8626 16.9789 3.8134
# 3 23.4449 26.4104 83.0610 6.3666 0.2310 11.8838
# 4 -12.6468 3.8626 6.3666 36.4994 13.9236 1.3704
# 5 27.4310 16.9789 0.2310 13.9236 35.0312 2.6912
# 6 -0.3845 3.8134 11.8838 1.3704 2.6912 43.1415
#
#
#
# Elastic Compliance Matrix: (Units=1/GPa)
#
#
# Indices 1 2 3 4 5 6 
#
# 1 0.018239 0.000959 -0.006975 0.015347 -0.021018 0.002823
# 2 0.000959 0.008528 -0.003193 0.002167 -0.005757 0.000425
# 3 -0.006975 -0.003193 0.016342 -0.008868 0.010785 -0.004672
# 4 0.015347 0.002167 -0.008868 0.045937 -0.031489 0.002893
# 5 -0.021018 -0.005757 0.010785 -0.031489 0.060656 -0.005433
# 6 0.002823 0.000425 -0.004672 0.002893 -0.005433 0.024701
#
#
# Mechanical properties :
#
#
# Convention : Reuss Voigt Hill
#
# Bulk Modulus (GPa) = 40.50059 51.18241 45.84150
# Shear Modulus (GPa) = 24.86916 39.93081 32.39999
#
# Velocity S-wave (km/s) = 3.20852 4.06563 3.66224
# Velocity P-wave (km/s) = 5.52190 6.57466 6.07114
#
# Compressibility (1/GPa) = 0.02469100
#
# Stress axis : x y z
#
# Youngs Moduli (GPa) = 54.82619 117.25642 61.19336
#
# Poissons Ratio (x) = -0.11243 0.42682
# Poissons Ratio (y) = -0.05257 0.19540
# Poissons Ratio (z) = 0.38241 0.37442
#
# Static dielectric constant tensor:
#      x y z
#    x 1.922560 -0.013800 0.009500 
#    y -0.013800 1.902970 -0.010660 
#    z 0.009500 -0.010660 1.915050 
# 
# From -- ./inp_files/279573.got.cif
#   From: 2010.05.17/outbox.cif.g08.bks.cpg/sg2_140_cif.got.tgz:279573.got - 2010.06.03 11:33:40.
