data_PCOD9066900
_publ_section_title
;
Structure prediction by ZEFSAII (Michael W. Deem and Ramdas Pophale) SiO2 
 PCOD9066900
Probable space group: P -1
;
_chemical_formula_sum "Si O2"
_cell_formula_units_Z 16
_cell_length_a 9.044112
_cell_length_b 13.920310
_cell_length_c 13.071554
_cell_angle_alpha 70.603706
_cell_angle_beta 62.608560
_cell_angle_gamma 124.018992
_cell_volume 724.997013
_symmetry_space_group_name_H-M "P -1"
_symmetry_group_IT_number 2
_symmetry_cell_setting 'triclinic'
loop_
_space_group_symop_operation_xyz
x,y,z
-x,-y,-z
loop_
_atom_site_type_symbol
_atom_site_label
_atom_site_fract_x
_atom_site_fract_y
_atom_site_fract_z
Si Si1 0.788454 0.837181 0.469750
Si Si2 0.328929 0.819133 0.175727
Si Si3 0.022455 0.326805 0.246344
Si Si4 0.721955 0.744081 0.914649
Si Si5 0.613140 0.442396 0.493129
Si Si6 0.324790 0.204859 0.873668
Si Si7 0.326088 0.725725 0.786546
Si Si8 0.225810 0.887576 0.386058
O O1 0.562782 0.707595 0.489079
O O2 0.592091 0.784239 0.644085
O O3 0.938913 0.808286 0.464394
O O4 0.074965 0.058565 0.265726
O O5 0.512133 0.808364 0.122196
O O6 0.299175 0.841932 0.293853
O O7 0.988353 0.629240 0.299948
O O8 0.500000 0.000000 0.000000
O O9 0.126649 0.278885 0.171358
O O10 0.765475 0.253813 0.289511
O O11 0.884261 0.223479 0.435941
O O12 0.351894 0.559209 0.069960
O O13 0.739306 0.751146 0.029410
O O14 0.500000 0.500000 0.500000
O O15 0.524982 0.354543 0.664208
O O16 0.000000 0.000000 0.000000
O O17 0.483144 0.884312 0.762375
O O18 0.000000 0.500000 0.000000
#
# Coordination Sequence:
#
# PCOD9066900 Si02
#       8
#     2   2   2   2   2   2   2   2
#     4  12  26  47  74 102 147 185 236 296 356 436
#     4  12  28  48  73 108 148 191 242 301 359 432
#     4  11  27  46  74 105 140 187 239 301 351 426
#     4  11  25  47  72 102 146 181 242 283 368 416
#     4  12  26  48  70 107 143 192 244 294 364 428
#     4  12  26  45  76 106 142 192 239 296 364 432
#     4  12  29  44  73 107 141 187 243 294 360 418
#     4  12  26  49  73 103 148 187 239 295 361 419
#
# _framework density 22.069057000000001
#
# number of rings (size 3 to 8) (size 9 to 14) (size 15 to 20)
#    0.000    0.250    3.750    4.125   10.500    0.000 
#    0.000    0.000    0.000    0.000    0.000    0.000 
#    0.000    0.000    0.000    0.000    0.000    0.000 
#
# Total GULP energy -89690.180263 kJ/mol
# GULP energy per Si atom -5605.636266 kJ/mol
# Density = 2.201883 g / cm^3
# Si number density = 22.069057 Si / 1000 Ang^3
#
#
#
# Elastic Constant Matrix: (Units=GPa)
#
#
# Indices 1 2 3 4 5 6 
#
# 1 72.6753 2.3473 30.0170 -6.5203 10.9459 14.0451
# 2 2.3473 113.7513 25.7285 0.8073 -2.1809 9.7983
# 3 30.0170 25.7285 105.7444 -17.4988 11.7602 7.4196
# 4 -6.5203 0.8073 -17.4988 42.4618 1.9511 -3.6207
# 5 10.9459 -2.1809 11.7602 1.9511 33.5876 0.3325
# 6 14.0451 9.7983 7.4196 -3.6207 0.3325 31.8954
#
#
#
# Elastic Compliance Matrix: (Units=1/GPa)
#
#
# Indices 1 2 3 4 5 6 
#
# 1 0.017467 0.001104 -0.004194 0.000529 -0.004114 -0.006952
# 2 0.001104 0.009713 -0.002873 -0.001518 0.001395 -0.002989
# 3 -0.004194 -0.002873 0.012491 0.004752 -0.003473 0.000400
# 4 0.000529 -0.001518 0.004752 0.025958 -0.003464 0.002111
# 5 -0.004114 0.001395 -0.003473 -0.003464 0.032607 0.001458
# 6 -0.006952 -0.002989 0.000400 0.002111 0.001458 0.035464
#
#
# Mechanical properties :
#
#
# Convention : Reuss Voigt Hill
#
# Bulk Modulus (GPa) = 36.04233 45.37294 40.70764
# Shear Modulus (GPa) = 32.28413 37.19415 34.73914
#
# Velocity S-wave (km/s) = 3.82890 4.10976 3.97181
# Velocity P-wave (km/s) = 5.99286 6.56691 6.28644
#
# Compressibility (1/GPa) = 0.02774515
#
# Stress axis : x y z
#
# Youngs Moduli (GPa) = 57.25032 102.95279 80.05726
#
# Poissons Ratio (x) = -0.11370 0.33577
# Poissons Ratio (y) = -0.06323 0.23004
# Poissons Ratio (z) = 0.24011 0.29583
#
# Static dielectric constant tensor:
#      x y z
#    x 1.686760 0.015190 0.005890 
#    y 0.015190 1.803540 -0.012460 
#    z 0.005890 -0.012460 1.779200 
# 
# From -- ./inp_files/274434.got.cif
#   From: 2010.05.17/outbox.cif.g08.bks.cpg/sg2_138_cif.got.tgz:274434.got - 2010.06.03 11:33:40.
