data_PCOD9066857
_publ_section_title
;
Structure prediction by ZEFSAII (Michael W. Deem and Ramdas Pophale) SiO2 
 PCOD9066857
Probable space group: P -1
;
_chemical_formula_sum "Si O2"
_cell_formula_units_Z 14
_cell_length_a 14.806482
_cell_length_b 9.010147
_cell_length_c 13.909173
_cell_angle_alpha 115.555698
_cell_angle_beta 149.111312
_cell_angle_gamma 42.691210
_cell_volume 529.463204
_symmetry_space_group_name_H-M "P -1"
_symmetry_group_IT_number 2
_symmetry_cell_setting 'triclinic'
loop_
_space_group_symop_operation_xyz
x,y,z
-x,-y,-z
loop_
_atom_site_type_symbol
_atom_site_label
_atom_site_fract_x
_atom_site_fract_y
_atom_site_fract_z
Si Si1 0.768983 0.813528 0.389606
Si Si2 0.213806 0.777614 0.766692
Si Si3 0.490525 0.507394 0.749578
Si Si4 0.952759 0.039580 0.854271
Si Si5 0.240946 0.346912 0.984821
Si Si6 0.095592 0.689744 0.275265
Si Si7 0.306828 0.117903 0.452358
O O1 0.596772 0.911372 0.359899
O O2 0.000000 0.500000 0.500000
O O3 0.957833 0.840382 0.574436
O O4 0.527188 0.026712 0.148024
O O5 0.272352 0.730417 0.692954
O O6 0.124118 0.022083 0.792276
O O7 0.500000 0.500000 0.000000
O O8 0.351444 0.507752 0.536037
O O9 0.715241 0.238776 0.942831
O O10 0.643736 0.556315 0.859452
O O11 0.765434 0.021378 0.651397
O O12 0.843978 0.274374 0.762004
O O13 0.000000 0.000000 0.000000
O O14 0.038314 0.390475 0.881592
O O15 0.002490 0.561799 0.746504
O O16 0.500000 0.000000 0.500000
#
# Coordination Sequence:
#
# PCOD9066857 Si02
#       7
#     2   2   2   2   2   2   2
#     4  12  27  46  74 113 156 192 249 317 378 447
#     4  12  22  45  73 103 150 193 236 303 376 445
#     4  11  25  47  70 105 149 188 242 309 366 449
#     4  11  26  48  72 103 144 194 249 306 372 441
#     4  11  27  46  73 113 144 195 251 303 378 447
#     4  12  25  45  72 105 144 188 245 301 372 438
#     4  11  27  51  75 105 152 199 253 312 374 451
#
# _framework density 26.441876000000001
#
# number of rings (size 3 to 8) (size 9 to 14) (size 15 to 20)
#    0.000    0.571    4.286    2.143    6.000    2.286 
#    2.571    0.000    0.000    0.000    0.000    0.000 
#    0.000    0.000    0.000    0.000    0.000    0.000 
#
# Total GULP energy -78259.780820 kJ/mol
# GULP energy per Si atom -5589.984344 kJ/mol
# Density = 2.638169 g / cm^3
# Si number density = 26.441876 Si / 1000 Ang^3
#
#
#
# Elastic Constant Matrix: (Units=GPa)
#
#
# Indices 1 2 3 4 5 6 
#
# 1 171.7189 36.8162 38.4809 25.6960 -4.5657 -9.6730
# 2 36.8162 77.1485 26.2725 -13.4746 -6.1571 3.5059
# 3 38.4809 26.2725 129.8690 -16.7208 0.5253 16.5226
# 4 25.6960 -13.4746 -16.7208 46.1318 13.0005 6.5995
# 5 -4.5657 -6.1571 0.5253 13.0005 33.1940 14.6172
# 6 -9.6730 3.5059 16.5226 6.5995 14.6172 57.4598
#
#
#
# Elastic Compliance Matrix: (Units=1/GPa)
#
#
# Indices 1 2 3 4 5 6 
#
# 1 0.009140 -0.004722 -0.003300 -0.008822 0.002500 0.003153
# 2 -0.004722 0.016953 -0.000729 0.007489 0.000750 -0.002670
# 3 -0.003300 -0.000729 0.010115 0.006265 -0.001554 -0.003744
# 4 -0.008822 0.007489 0.006265 0.034980 -0.011493 -0.004837
# 5 0.002500 0.000750 -0.001554 -0.011493 0.038505 -0.007653
# 6 0.003153 -0.002670 -0.003744 -0.004837 -0.007653 0.021676
#
#
# Mechanical properties :
#
#
# Convention : Reuss Voigt Hill
#
# Bulk Modulus (GPa) = 53.46473 64.65286 59.05879
# Shear Modulus (GPa) = 32.23602 45.83490 39.03546
#
# Velocity S-wave (km/s) = 3.49539 4.16795 3.84640
# Velocity P-wave (km/s) = 6.04599 6.90409 6.48924
#
# Compressibility (1/GPa) = 0.01870392
#
# Stress axis : x y z
#
# Youngs Moduli (GPa) = 109.41449 58.98627 98.86763
#
# Poissons Ratio (x) = 0.27855 0.32625
# Poissons Ratio (y) = 0.51669 0.07212
# Poissons Ratio (z) = 0.36105 0.04303
#
# Static dielectric constant tensor:
#      x y z
#    x 2.142420 -0.107990 0.071650 
#    y -0.107990 2.197830 -0.113730 
#    z 0.071650 -0.113730 2.074680 
# 
# From -- ./inp_files/530013.got.cif
#   From: 2010.05.17/outbox.cif.g08.bks.cpg/sg2_266_cif.got.tgz:530013.got - 2010.06.03 11:33:40.
