data_PCOD9066479
_publ_section_title
;
Structure prediction by ZEFSAII (Michael W. Deem and Ramdas Pophale) SiO2 
 PCOD9066479
Probable space group: P -1
;
_chemical_formula_sum "Si O2"
_cell_formula_units_Z 16
_cell_length_a 14.781840
_cell_length_b 9.643389
_cell_length_c 11.549608
_cell_angle_alpha 108.253932
_cell_angle_beta 153.275165
_cell_angle_gamma 67.787267
_cell_volume 684.251875
_symmetry_space_group_name_H-M "P -1"
_symmetry_group_IT_number 2
_symmetry_cell_setting 'triclinic'
loop_
_space_group_symop_operation_xyz
x,y,z
-x,-y,-z
loop_
_atom_site_type_symbol
_atom_site_label
_atom_site_fract_x
_atom_site_fract_y
_atom_site_fract_z
Si Si1 0.919497 0.473215 0.190085
Si Si2 0.650709 0.840772 0.617076
Si Si3 0.355004 0.654112 0.332021
Si Si4 0.040826 0.914236 0.149073
Si Si5 0.192979 0.012379 0.580012
Si Si6 0.340036 0.600121 0.929318
Si Si7 0.963178 0.234561 0.558387
Si Si8 0.673901 0.774990 0.370883
O O1 0.737031 0.489169 0.079815
O O2 0.958311 0.636802 0.249346
O O3 0.129826 0.367263 0.456299
O O4 0.834029 0.388717 0.965591
O O5 0.514104 0.723093 0.456799
O O6 0.720864 0.835355 0.563829
O O7 0.500000 0.000000 0.500000
O O8 0.848683 0.835152 0.921882
O O9 0.500000 0.500000 0.500000
O O10 0.249290 0.783642 0.336350
O O11 0.046909 0.015744 0.297303
O O12 0.000000 0.000000 0.000000
O O13 0.199956 0.841241 0.580680
O O14 0.351004 0.100630 0.725581
O O15 0.129593 0.101786 0.651699
O O16 0.143553 0.679460 0.653129
O O17 0.500000 0.500000 0.000000
O O18 0.462569 0.723941 0.137022
#
# Coordination Sequence:
#
# PCOD9066479 Si02
#       8
#     2   2   2   2   2   2   2   2
#     4  12  24  48  71 102 148 185 245 298 363 434
#     4  12  25  43  72 109 137 192 246 290 372 440
#     4  12  28  46  71 115 147 185 243 310 372 432
#     4  12  24  47  77 103 146 192 239 303 362 437
#     4  11  25  46  69 103 146 186 237 294 368 423
#     4  12  24  41  72 100 133 186 245 287 350 432
#     4  11  26  45  70 104 142 192 233 303 365 418
#     4  12  23  43  74 102 138 190 237 305 349 435
#
# _framework density 23.383201
#
# number of rings (size 3 to 8) (size 9 to 14) (size 15 to 20)
#    0.000    0.250    7.500    1.125    3.500    3.000 
#    0.000    0.000    0.000    0.000    0.000    0.000 
#    0.000    0.000    0.000    0.000    0.000    0.000 
#
# Total GULP energy -89247.525204 kJ/mol
# GULP energy per Si atom -5577.970325 kJ/mol
# Density = 2.332998 g / cm^3
# Si number density = 23.383201 Si / 1000 Ang^3
#
#
#
# Elastic Constant Matrix: (Units=GPa)
#
#
# Indices 1 2 3 4 5 6 
#
# 1 70.3870 38.0438 -9.6376 0.6032 9.0102 1.2502
# 2 38.0438 117.1421 -1.6928 15.2280 10.7820 23.1483
# 3 -9.6376 -1.6928 49.0240 20.1995 5.8048 3.1228
# 4 0.6032 15.2280 20.1995 40.4073 -1.7728 6.1483
# 5 9.0102 10.7820 5.8048 -1.7728 29.5080 3.0856
# 6 1.2502 23.1483 3.1228 6.1483 3.0856 36.4434
#
#
#
# Elastic Compliance Matrix: (Units=1/GPa)
#
#
# Indices 1 2 3 4 5 6 
#
# 1 0.018629 -0.006147 0.004082 -0.000728 -0.004648 0.003432
# 2 -0.006147 0.012833 0.001980 -0.004779 -0.002749 -0.007071
# 3 0.004082 0.001980 0.028663 -0.015427 -0.008479 -0.000533
# 4 -0.000728 -0.004779 -0.015427 0.034917 0.007324 -0.002128
# 5 -0.004648 -0.002749 -0.008479 0.007324 0.038617 -0.001873
# 6 0.003432 -0.007071 -0.000533 -0.002128 -0.001873 0.032377
#
#
# Mechanical properties :
#
#
# Convention : Reuss Voigt Hill
#
# Bulk Modulus (GPa) = 16.67929 32.21999 24.44964
# Shear Modulus (GPa) = 26.85423 35.26107 31.05765
#
# Velocity S-wave (km/s) = 3.39254 3.88747 3.64841
# Velocity P-wave (km/s) = 4.74282 5.82743 5.31287
#
# Compressibility (1/GPa) = 0.05995459
#
# Stress axis : x y z
#
# Youngs Moduli (GPa) = 53.68117 77.92359 34.88788
#
# Poissons Ratio (x) = 0.47897 -0.14240
# Poissons Ratio (y) = 0.32996 -0.06907
# Poissons Ratio (z) = -0.21911 -0.15428
#
# Static dielectric constant tensor:
#      x y z
#    x 1.923230 -0.086140 -0.019390 
#    y -0.086140 1.979130 0.096240 
#    z -0.019390 0.096240 1.958870 
# 
# From -- ./inp_files/447941.got.cif
#   From: 2010.05.17/outbox.cif.g08.bks.cpg/sg2_224_cif.got.tgz:447941.got - 2010.06.03 11:33:40.
