data_PCOD9066577
_publ_section_title
;
Structure prediction by ZEFSAII (Michael W. Deem and Ramdas Pophale) SiO2 
 PCOD9066577
Probable space group: P -1
;
_chemical_formula_sum "Si O2"
_cell_formula_units_Z 16
_cell_length_a 11.261578
_cell_length_b 9.307357
_cell_length_c 9.668724
_cell_angle_alpha 123.165532
_cell_angle_beta 121.705227
_cell_angle_gamma 77.121396
_cell_volume 718.757202
_symmetry_space_group_name_H-M "P -1"
_symmetry_group_IT_number 2
_symmetry_cell_setting 'triclinic'
loop_
_space_group_symop_operation_xyz
x,y,z
-x,-y,-z
loop_
_atom_site_type_symbol
_atom_site_label
_atom_site_fract_x
_atom_site_fract_y
_atom_site_fract_z
Si Si1 0.083716 0.124556 0.347134
Si Si2 0.097444 0.390383 0.274888
Si Si3 0.632991 0.707606 0.258149
Si Si4 0.106124 0.740927 0.147602
Si Si5 0.564337 0.029568 0.207081
Si Si6 0.605940 0.663807 0.689269
Si Si7 0.641938 0.477924 0.887942
Si Si8 0.877030 0.218054 0.495271
O O1 0.029003 0.254104 0.270119
O O2 0.234110 0.205845 0.534958
O O3 0.980308 0.119311 0.412198
O O4 0.101896 0.937407 0.198352
O O5 0.251462 0.338561 0.307439
O O6 0.114260 0.583631 0.444441
O O7 0.010509 0.373117 0.070378
O O8 0.512962 0.616689 0.234617
O O9 0.568557 0.855298 0.205193
O O10 0.681311 0.565449 0.105460
O O11 0.251053 0.656782 0.166025
O O12 0.083716 0.759998 0.307741
O O13 0.468910 0.164543 0.289782
O O14 0.721715 0.122109 0.342262
O O15 0.500000 0.000000 0.000000
O O16 0.500000 0.500000 0.500000
O O17 0.640669 0.628444 0.852687
#
# Coordination Sequence:
#
# PCOD9066577 Si02
#       8
#     2   2   2   2   2   2   2   2
#     4  12  28  45  71 106 144 181 238 290 351 408
#     4  12  27  46  74 103 141 189 233 292 348 418
#     4  11  26  46  71 104 140 187 228 296 349 416
#     4  12  26  47  73 106 139 189 235 288 353 414
#     4  12  26  43  72 104 138 185 231 291 346 416
#     4  12  24  45  69 100 140 180 237 282 350 414
#     4  11  25  46  72 100 141 183 235 284 355 420
#     4  12  26  48  72 102 144 190 234 285 352 420
#
# _framework density 22.260649000000001
#
# number of rings (size 3 to 8) (size 9 to 14) (size 15 to 20)
#    0.000    0.250    5.000    3.000    5.250    1.500 
#    0.000    0.000    0.000    0.000    0.000    0.000 
#    0.000    0.000    0.000    0.000    0.000    0.000 
#
# Total GULP energy -89611.859795 kJ/mol
# GULP energy per Si atom -5600.741237 kJ/mol
# Density = 2.220998 g / cm^3
# Si number density = 22.260649 Si / 1000 Ang^3
#
#
#
# Elastic Constant Matrix: (Units=GPa)
#
#
# Indices 1 2 3 4 5 6 
#
# 1 103.2747 20.8405 25.2120 5.4987 -17.7639 -14.5132
# 2 20.8405 104.1683 0.6313 7.8971 -20.1213 -5.3579
# 3 25.2120 0.6313 83.0069 0.4069 3.4769 -1.3035
# 4 5.4987 7.8971 0.4069 41.2929 -0.2581 -7.6868
# 5 -17.7639 -20.1213 3.4769 -0.2581 31.6275 6.3171
# 6 -14.5132 -5.3579 -1.3035 -7.6868 6.3171 29.1739
#
#
#
# Elastic Compliance Matrix: (Units=1/GPa)
#
#
# Indices 1 2 3 4 5 6 
#
# 1 0.012539 -0.001073 -0.003975 -0.000563 0.005907 0.004436
# 2 -0.001073 0.011224 -0.000034 -0.002045 0.006614 -0.000445
# 3 -0.003975 -0.000034 0.013397 0.000283 -0.003619 -0.000527
# 4 -0.000563 -0.002045 0.000283 0.025928 -0.002793 0.006794
# 5 0.005907 0.006614 -0.003619 -0.002793 0.040625 -0.005541
# 6 0.004436 -0.000445 -0.000527 0.006794 -0.005541 0.039369
#
#
# Mechanical properties :
#
#
# Convention : Reuss Voigt Hill
#
# Bulk Modulus (GPa) = 37.04115 42.64641 39.84378
# Shear Modulus (GPa) = 30.81762 36.66991 33.74376
#
# Velocity S-wave (km/s) = 3.72479 4.06309 3.89761
# Velocity P-wave (km/s) = 5.93082 6.41958 6.18003
#
# Compressibility (1/GPa) = 0.02699701
#
# Stress axis : x y z
#
# Youngs Moduli (GPa) = 79.74961 89.09130 74.64436
#
# Poissons Ratio (x) = 0.09558 0.29674
# Poissons Ratio (y) = 0.08556 0.00250
# Poissons Ratio (z) = 0.31704 0.00299
#
# Static dielectric constant tensor:
#      x y z
#    x 1.770260 0.014730 -0.024860 
#    y 0.014730 1.853340 -0.031430 
#    z -0.024860 -0.031430 1.845600 
# 
# From -- ./inp_files/190353.got.cif
#   From: 2010.05.17/outbox.cif.g08.bks.cpg/sg2_96_cif.got.tgz:190353.got - 2010.06.03 11:33:40.
