data_PCOD9066763
_publ_section_title
;
Structure prediction by ZEFSAII (Michael W. Deem and Ramdas Pophale) SiO2 
 PCOD9066763
Probable space group: P -1
;
_chemical_formula_sum "Si O2"
_cell_formula_units_Z 10
_cell_length_a 15.356339
_cell_length_b 9.634647
_cell_length_c 15.342301
_cell_angle_alpha 35.952341
_cell_angle_beta 18.260189
_cell_angle_gamma 41.585739
_cell_volume 414.908783
_symmetry_space_group_name_H-M "P -1"
_symmetry_group_IT_number 2
_symmetry_cell_setting 'triclinic'
loop_
_space_group_symop_operation_xyz
x,y,z
-x,-y,-z
loop_
_atom_site_type_symbol
_atom_site_label
_atom_site_fract_x
_atom_site_fract_y
_atom_site_fract_z
Si Si1 0.972386 0.402854 0.674799
Si Si2 0.832171 0.244042 0.298441
Si Si3 0.361693 0.136503 0.934451
Si Si4 0.240297 0.210828 0.192713
Si Si5 0.452146 0.090704 0.402448
O O1 0.261885 0.307171 0.474095
O O2 0.000000 0.500000 0.500000
O O3 0.886594 0.603696 0.719847
O O4 0.728327 0.185777 0.036058
O O5 0.573774 0.257435 0.601190
O O6 0.718165 0.121523 0.381338
O O7 0.000000 0.500000 0.000000
O O8 0.054655 0.086209 0.211415
O O9 0.505820 0.905272 0.944269
O O10 0.346148 0.300302 0.951377
O O11 0.000000 0.000000 0.500000
O O12 0.500000 0.000000 0.500000
#
# Coordination Sequence:
#
# PCOD9066763 Si02
#       5
#     2   2   2   2   2
#     4  12  29  51  82 114 158 208 262 323 394 466
#     4  12  27  48  80 107 154 205 264 311 381 470
#     4  11  25  46  75 115 149 192 264 317 381 445
#     4  11  26  45  82 112 155 195 259 323 382 461
#     4  12  30  52  79 114 163 206 261 323 402 466
#
# _framework density 24.101685
#
# number of rings (size 3 to 8) (size 9 to 14) (size 15 to 20)
#    0.000    0.400    2.000    4.200   11.200    0.000 
#    0.000    0.000    0.000    0.000    0.000    0.000 
#    0.000    0.000    0.000    0.000    0.000    0.000 
#
# Total GULP energy -56083.149955 kJ/mol
# GULP energy per Si atom -5608.314996 kJ/mol
# Density = 2.404683 g / cm^3
# Si number density = 24.101685 Si / 1000 Ang^3
#
#
#
# Elastic Constant Matrix: (Units=GPa)
#
#
# Indices 1 2 3 4 5 6 
#
# 1 233.9167 85.8267 70.4716 8.0403 14.8892 10.4608
# 2 85.8267 119.5917 42.1883 15.9867 19.9626 23.8193
# 3 70.4716 42.1883 120.5519 12.5054 0.1180 9.4715
# 4 8.0403 15.9867 12.5054 54.1804 5.5980 -6.8292
# 5 14.8892 19.9626 0.1180 5.5980 35.8368 9.8603
# 6 10.4608 23.8193 9.4715 -6.8292 9.8603 57.4477
#
#
#
# Elastic Compliance Matrix: (Units=1/GPa)
#
#
# Indices 1 2 3 4 5 6 
#
# 1 0.006481 -0.003943 -0.002610 0.001053 -0.000976 0.001178
# 2 -0.003943 0.013877 -0.001876 -0.003171 -0.004394 -0.004349
# 3 -0.002610 -0.001876 0.010777 -0.001985 0.002743 -0.001230
# 4 0.001053 -0.003171 -0.001985 0.020572 -0.003097 0.004427
# 5 -0.000976 -0.004394 0.002743 -0.003097 0.032440 -0.004389
# 6 0.001178 -0.004349 -0.001230 0.004427 -0.004389 0.020478
#
#
# Mechanical properties :
#
#
# Convention : Reuss Voigt Hill
#
# Bulk Modulus (GPa) = 70.04232 96.78151 83.41192
# Shear Modulus (GPa) = 39.60597 47.86457 43.73527
#
# Velocity S-wave (km/s) = 4.05814 4.46123 4.26445
# Velocity P-wave (km/s) = 7.14719 8.17187 7.67664
#
# Compressibility (1/GPa) = 0.01427708
#
# Stress axis : x y z
#
# Youngs Moduli (GPa) = 154.28939 72.06106 92.78746
#
# Poissons Ratio (x) = 0.28415 0.24215
# Poissons Ratio (y) = 0.60840 0.17411
# Poissons Ratio (z) = 0.40265 0.13522
#
# Static dielectric constant tensor:
#      x y z
#    x 1.919750 -0.030390 0.029970 
#    y -0.030390 1.963370 -0.059660 
#    z 0.029970 -0.059660 1.984970 
# 
# From -- ./inp_files/526094.got.cif
#   From: 2010.05.17/outbox.cif.g08.bks.cpg/sg2_264_cif.got.tgz:526094.got - 2010.06.03 11:33:40.
