data_PCOD9066779
_publ_section_title
;
Structure prediction by ZEFSAII (Michael W. Deem and Ramdas Pophale) SiO2 
 PCOD9066779
Probable space group: P -1
;
_chemical_formula_sum "Si O2"
_cell_formula_units_Z 13
_cell_length_a 6.650038
_cell_length_b 14.009531
_cell_length_c 11.844945
_cell_angle_alpha 132.312233
_cell_angle_beta 52.523194
_cell_angle_gamma 131.211286
_cell_volume 586.294716
_symmetry_space_group_name_H-M "P -1"
_symmetry_group_IT_number 2
_symmetry_cell_setting 'triclinic'
loop_
_space_group_symop_operation_xyz
x,y,z
-x,-y,-z
loop_
_atom_site_type_symbol
_atom_site_label
_atom_site_fract_x
_atom_site_fract_y
_atom_site_fract_z
Si Si1 0.145884 0.875093 0.653454
Si Si2 0.333439 0.551291 0.932271
Si Si3 0.430187 0.367086 0.335796
Si Si4 0.000000 0.000000 0.000000
Si Si5 0.292152 0.284854 0.870362
Si Si6 0.745616 0.965693 0.478161
Si Si7 0.721727 0.156146 0.090949
O O1 0.468156 0.923884 0.612709
O O2 0.904502 0.718561 0.625044
O O3 0.035896 0.980005 0.836941
O O4 0.179071 0.903754 0.529591
O O5 0.453932 0.587973 0.794618
O O6 0.385875 0.424423 0.871125
O O7 0.504403 0.682568 0.063677
O O8 0.000000 0.500000 0.000000
O O9 0.500000 0.500000 0.500000
O O10 0.559614 0.256790 0.244993
O O11 0.123387 0.880189 0.886710
O O12 0.302073 0.164674 0.691464
O O13 0.973218 0.240783 0.984821
O O14 0.000000 0.000000 0.500000
O O15 0.500000 0.000000 0.000000
#
# Coordination Sequence:
#
# PCOD9066779 Si02
#       7
#     2   2   2   1   2   2   2
#     4  11  27  46  72 114 149 195 259 314 386 455
#     4  11  26  48  75 103 148 205 251 309 373 468
#     4  12  28  48  78 116 158 202 251 324 395 453
#     4  12  24  44  78 108 148 196 258 318 368 466
#     4  11  25  46  76 108 142 206 264 302 382 465
#     4  11  27  46  74 108 152 198 251 327 383 443
#     4  12  25  46  77 113 150 200 255 316 390 455
#
# _framework density 22.17315
#
# number of rings (size 3 to 8) (size 9 to 14) (size 15 to 20)
#    0.000    0.615    4.615    0.923    8.615    1.231 
#    0.000    2.308    0.000    0.000    0.000    0.000 
#    0.000    0.000    0.000    0.000    0.000    0.000 
#
# Total GULP energy -72410.162263 kJ/mol
# GULP energy per Si atom -5570.012482 kJ/mol
# Density = 2.212268 g / cm^3
# Si number density = 22.173150 Si / 1000 Ang^3
#
#
#
# Elastic Constant Matrix: (Units=GPa)
#
#
# Indices 1 2 3 4 5 6 
#
# 1 129.1386 56.6477 53.0316 2.4063 -1.1407 10.8238
# 2 56.6477 131.7805 63.3171 -13.6303 7.9854 21.4827
# 3 53.0316 63.3171 140.6305 -2.4113 13.7098 22.8941
# 4 2.4063 -13.6303 -2.4113 48.3735 6.3656 -1.9307
# 5 -1.1407 7.9854 13.7098 6.3656 30.3420 0.9532
# 6 10.8238 21.4827 22.8941 -1.9307 0.9532 57.3880
#
#
#
# Elastic Compliance Matrix: (Units=1/GPa)
#
#
# Indices 1 2 3 4 5 6 
#
# 1 0.010494 -0.003672 -0.002689 -0.002072 0.003000 0.000348
# 2 -0.003672 0.011557 -0.003162 0.003511 -0.002418 -0.002214
# 3 -0.002689 -0.003162 0.010314 0.000175 -0.003892 -0.002353
# 4 -0.002072 0.003511 0.000175 0.022532 -0.005804 -0.000139
# 5 0.003000 -0.002418 -0.003892 -0.005804 0.036649 0.001088
# 6 0.000348 -0.002214 -0.002353 -0.000139 0.001088 0.019104
#
#
# Mechanical properties :
#
#
# Convention : Reuss Voigt Hill
#
# Bulk Modulus (GPa) = 75.08051 83.06026 79.07038
# Shear Modulus (GPa) = 37.27554 42.45758 39.86656
#
# Velocity S-wave (km/s) = 4.10458 4.38061 4.24484
# Velocity P-wave (km/s) = 7.50986 7.94528 7.73064
#
# Compressibility (1/GPa) = 0.01331904
#
# Stress axis : x y z
#
# Youngs Moduli (GPa) = 95.28805 86.52869 96.95511
#
# Poissons Ratio (x) = 0.31775 0.26069
# Poissons Ratio (y) = 0.34991 0.30660
# Poissons Ratio (z) = 0.25621 0.27363
#
# Static dielectric constant tensor:
#      x y z
#    x 1.889330 -0.007910 0.018790 
#    y -0.007910 1.789030 0.025400 
#    z 0.018790 0.025400 1.809310 
# 
# From -- ./inp_files/367113.got.cif
#   From: 2010.05.17/outbox.cif.g08.bks.cpg/sg2_184_cif.got.tgz:367113.got - 2010.06.03 11:33:40.
