data_PCOD9066611
_publ_section_title
;
Structure prediction by ZEFSAII (Michael W. Deem and Ramdas Pophale) SiO2 
 PCOD9066611
Probable space group: P -1
;
_chemical_formula_sum "Si O2"
_cell_formula_units_Z 16
_cell_length_a 9.297997
_cell_length_b 12.798224
_cell_length_c 9.276133
_cell_angle_alpha 58.148537
_cell_angle_beta 126.285579
_cell_angle_gamma 98.509930
_cell_volume 733.706153
_symmetry_space_group_name_H-M "P -1"
_symmetry_group_IT_number 2
_symmetry_cell_setting 'triclinic'
loop_
_space_group_symop_operation_xyz
x,y,z
-x,-y,-z
loop_
_atom_site_type_symbol
_atom_site_label
_atom_site_fract_x
_atom_site_fract_y
_atom_site_fract_z
Si Si1 0.153421 0.372256 0.657172
Si Si2 0.496955 0.520962 0.157420
Si Si3 0.469539 0.259100 0.417903
Si Si4 0.209402 0.980686 0.191771
Si Si5 0.830048 0.278934 0.038534
Si Si6 0.861272 0.750806 0.965470
Si Si7 0.827024 0.790813 0.495099
Si Si8 0.693040 0.029832 0.065422
O O1 0.348457 0.405166 0.768268
O O2 0.140708 0.311568 0.538991
O O3 0.000000 0.500000 0.500000
O O4 0.132086 0.277075 0.841625
O O5 0.535648 0.388712 0.364315
O O6 0.500000 0.500000 0.000000
O O7 0.307932 0.606377 0.047265
O O8 0.651098 0.146835 0.575030
O O9 0.309287 0.290716 0.177909
O O10 0.355346 0.222966 0.513396
O O11 0.193931 0.097802 0.204053
O O12 0.291985 0.996940 0.074706
O O13 0.000000 0.000000 0.000000
O O14 0.729399 0.167066 0.020971
O O15 0.938967 0.309252 0.939569
O O16 0.002077 0.232985 0.279603
O O17 0.820253 0.924839 0.317762
O O18 0.500000 0.000000 0.000000
#
# Coordination Sequence:
#
# PCOD9066611 Si02
#       8
#     2   2   2   2   2   2   2   2
#     4  12  27  45  74 106 144 192 242 295 359 429
#     4  12  27  49  73 106 142 187 241 300 360 434
#     4  11  27  46  73 105 144 193 241 294 366 424
#     4  12  25  44  74 107 145 185 242 300 357 425
#     4  11  27  46  75 105 146 190 240 295 363 428
#     4  11  25  49  72 106 146 192 237 297 359 429
#     4  11  25  46  72 107 144 193 240 299 355 433
#     4  12  23  45  71 106 147 185 240 293 360 422
#
# _framework density 21.807093999999999
#
# number of rings (size 3 to 8) (size 9 to 14) (size 15 to 20)
#    0.000    0.500    5.000    2.250    3.500    2.500 
#    4.500    0.000    0.000    0.000    0.000    0.000 
#    0.000    0.000    0.000    0.000    0.000    0.000 
#
# Total GULP energy -89318.658043 kJ/mol
# GULP energy per Si atom -5582.416128 kJ/mol
# Density = 2.175746 g / cm^3
# Si number density = 21.807094 Si / 1000 Ang^3
#
#
#
# Elastic Constant Matrix: (Units=GPa)
#
#
# Indices 1 2 3 4 5 6 
#
# 1 111.1038 30.1547 18.2081 -1.6112 23.0459 -11.8263
# 2 30.1547 82.7960 10.1372 0.2210 3.6828 -11.2912
# 3 18.2081 10.1372 48.0116 -9.3711 5.7173 -6.9012
# 4 -1.6112 0.2210 -9.3711 45.5888 -5.8112 6.8056
# 5 23.0459 3.6828 5.7173 -5.8112 33.2761 0.1566
# 6 -11.8263 -11.2912 -6.9012 6.8056 0.1566 38.8532
#
#
#
# Elastic Compliance Matrix: (Units=1/GPa)
#
#
# Indices 1 2 3 4 5 6 
#
# 1 0.012298 -0.003418 -0.002937 -0.001539 -0.007915 0.002530
# 2 -0.003418 0.013855 -0.001486 -0.000801 0.000936 0.002859
# 3 -0.002937 -0.001486 0.023526 0.004284 -0.001106 0.002107
# 4 -0.001539 -0.000801 0.004284 0.023976 0.004625 -0.004159
# 5 -0.007915 0.000936 -0.001106 0.004625 0.036443 -0.003291
# 6 0.002530 0.002859 0.002107 -0.004159 -0.003291 0.028455
#
#
# Mechanical properties :
#
#
# Convention : Reuss Voigt Hill
#
# Bulk Modulus (GPa) = 29.41314 39.87905 34.64609
# Shear Modulus (GPa) = 30.19910 35.77103 32.98507
#
# Velocity S-wave (km/s) = 3.72537 4.05450 3.89342
# Velocity P-wave (km/s) = 5.65877 6.34394 6.01112
#
# Compressibility (1/GPa) = 0.03399841
#
# Stress axis : x y z
#
# Youngs Moduli (GPa) = 81.31100 72.17536 42.50541
#
# Poissons Ratio (x) = 0.24673 0.12482
# Poissons Ratio (y) = 0.27796 0.06316
# Poissons Ratio (z) = 0.23877 0.10724
#
# Static dielectric constant tensor:
#      x y z
#    x 1.953010 0.121020 0.181150 
#    y 0.121020 1.862810 0.084870 
#    z 0.181150 0.084870 1.969310 
# 
# From -- ./inp_files/185357.got.cif
#   From: 2010.05.17/outbox.cif.g08.bks.cpg/sg2_93_cif.got.tgz:185357.got - 2010.06.03 11:33:40.
