data_PCOD9066928
_publ_section_title
;
Structure prediction by ZEFSAII (Michael W. Deem and Ramdas Pophale) SiO2 
 PCOD9066928
Probable space group: P -1
;
_chemical_formula_sum "Si O2"
_cell_formula_units_Z 16
_cell_length_a 16.903135
_cell_length_b 9.588916
_cell_length_c 8.310493
_cell_angle_alpha 91.085768
_cell_angle_beta 28.997916
_cell_angle_gamma 91.438094
_cell_volume 652.771446
_symmetry_space_group_name_H-M "P -1"
_symmetry_group_IT_number 2
_symmetry_cell_setting 'triclinic'
loop_
_space_group_symop_operation_xyz
x,y,z
-x,-y,-z
loop_
_atom_site_type_symbol
_atom_site_label
_atom_site_fract_x
_atom_site_fract_y
_atom_site_fract_z
Si Si1 0.195818 0.355140 0.256345
Si Si2 0.258372 0.787258 0.639978
Si Si3 0.100964 0.120246 0.615133
Si Si4 0.234836 0.820468 0.322906
Si Si5 0.002716 0.407572 0.290928
Si Si6 0.547203 0.948389 0.589853
Si Si7 0.547717 0.460264 0.596644
Si Si8 0.741913 0.719381 0.372614
O O1 0.148704 0.194930 0.364720
O O2 0.082698 0.446313 0.576784
O O3 0.142403 0.410102 0.177980
O O4 0.382781 0.390381 0.957476
O O5 0.267954 0.749929 0.434354
O O6 0.314418 0.656620 0.642304
O O7 0.384829 0.915975 0.437643
O O8 0.081898 0.842970 0.007046
O O9 0.226938 0.192388 0.519837
O O10 0.127579 0.956181 0.553978
O O11 0.133155 0.703114 0.406546
O O12 0.394523 0.876355 0.950087
O O13 0.087836 0.347731 0.981684
O O14 0.686364 0.832394 0.341686
O O15 0.500000 0.000000 0.500000
O O16 0.500000 0.500000 0.500000
O O17 0.609794 0.593917 0.591111
#
# Coordination Sequence:
#
# PCOD9066928 Si02
#       8
#     2   2   2   2   2   2   2   2
#     4  11  27  46  72 105 143 187 240 295 359 420
#     4  12  26  47  74 103 146 189 236 299 354 422
#     4  12  27  46  74 108 142 190 241 293 355 424
#     4  12  26  49  74 106 146 187 239 294 356 428
#     4  11  25  47  73 102 143 188 240 295 352 426
#     4  12  28  46  73 105 146 190 238 292 361 422
#     4  12  26  46  73 104 146 187 239 297 357 421
#     4  12  25  47  74 103 146 185 241 293 351 429
#
# _framework density 24.510876
#
# number of rings (size 3 to 8) (size 9 to 14) (size 15 to 20)
#    0.000    0.250    3.750    4.500    8.750    2.000 
#    0.000    0.000    0.000    0.000    0.000    0.000 
#    0.000    0.000    0.000    0.000    0.000    0.000 
#
# Total GULP energy -89686.197041 kJ/mol
# GULP energy per Si atom -5605.387315 kJ/mol
# Density = 2.445509 g / cm^3
# Si number density = 24.510876 Si / 1000 Ang^3
#
#
#
# Elastic Constant Matrix: (Units=GPa)
#
#
# Indices 1 2 3 4 5 6 
#
# 1 65.6918 17.4511 30.2356 -7.0446 -17.2022 -7.0000
# 2 17.4511 106.4943 5.7058 -1.7604 -15.4746 -6.8915
# 3 30.2356 5.7058 79.8474 -11.4154 -9.9053 -7.1327
# 4 -7.0446 -1.7604 -11.4154 47.9803 5.2380 -7.9664
# 5 -17.2022 -15.4746 -9.9053 5.2380 32.0632 -10.8041
# 6 -7.0000 -6.8915 -7.1327 -7.9664 -10.8041 45.9321
#
#
#
# Elastic Compliance Matrix: (Units=1/GPa)
#
#
# Indices 1 2 3 4 5 6 
#
# 1 0.021901 -0.001379 -0.006256 0.001332 0.010578 0.004879
# 2 -0.001379 0.010562 0.000734 0.000228 0.005498 0.002821
# 3 -0.006256 0.000734 0.015801 0.003063 0.002281 0.002678
# 4 0.001332 0.000228 0.003063 0.022570 -0.000388 0.004536
# 5 0.010578 0.005498 0.002281 -0.000388 0.044750 0.013250
# 6 0.004879 0.002821 0.002678 0.004536 0.013250 0.027257
#
#
# Mechanical properties :
#
#
# Convention : Reuss Voigt Hill
#
# Bulk Modulus (GPa) = 29.01784 39.86873 34.44329
# Shear Modulus (GPa) = 29.73879 38.43787 34.08833
#
# Velocity S-wave (km/s) = 3.48701 3.96434 3.73331
# Velocity P-wave (km/s) = 5.29875 6.10375 5.71544
#
# Compressibility (1/GPa) = 0.03446156
#
# Stress axis : x y z
#
# Youngs Moduli (GPa) = 45.65972 94.67858 63.28867
#
# Poissons Ratio (x) = 0.13055 0.39595
# Poissons Ratio (y) = 0.06296 -0.04646
# Poissons Ratio (z) = 0.28566 -0.06950
#
# Static dielectric constant tensor:
#      x y z
#    x 2.062660 0.034190 0.026900 
#    y 0.034190 1.907480 0.019620 
#    z 0.026900 0.019620 1.962270 
# 
# From -- ./inp_files/188584.got.cif
#   From: 2010.05.17/outbox.cif.g08.bks.cpg/sg2_95_cif.got.tgz:188584.got - 2010.06.03 11:33:40.
