data_PCOD9066563
_publ_section_title
;
Structure prediction by ZEFSAII (Michael W. Deem and Ramdas Pophale) SiO2 
 PCOD9066563
Probable space group: P -1
;
_chemical_formula_sum "Si O2"
_cell_formula_units_Z 14
_cell_length_a 11.794839
_cell_length_b 11.401337
_cell_length_c 11.769446
_cell_angle_alpha 129.965000
_cell_angle_beta 128.124409
_cell_angle_gamma 27.385624
_cell_volume 552.988690
_symmetry_space_group_name_H-M "P -1"
_symmetry_group_IT_number 2
_symmetry_cell_setting 'triclinic'
loop_
_space_group_symop_operation_xyz
x,y,z
-x,-y,-z
loop_
_atom_site_type_symbol
_atom_site_label
_atom_site_fract_x
_atom_site_fract_y
_atom_site_fract_z
Si Si1 0.041670 0.529403 0.314812
Si Si2 0.698945 0.944427 0.539065
Si Si3 0.469698 0.713199 0.564254
Si Si4 0.295458 0.675007 0.885844
Si Si5 0.500441 0.609421 0.746801
Si Si6 0.267374 0.286168 0.971288
Si Si7 0.127852 0.122510 0.168956
O O1 0.945896 0.651275 0.457812
O O2 0.237599 0.488497 0.369291
O O3 0.176027 0.246736 0.225052
O O4 0.805268 0.706575 0.195459
O O5 0.732016 0.026683 0.718538
O O6 0.500000 0.000000 0.500000
O O7 0.612424 0.107352 0.476104
O O8 0.357575 0.824115 0.691007
O O9 0.384831 0.621335 0.405681
O O10 0.359060 0.633711 0.768296
O O11 0.149468 0.649043 0.812368
O O12 0.500000 0.500000 0.000000
O O13 0.155708 0.958785 0.998384
O O14 0.660824 0.595878 0.904390
O O15 0.000000 0.500000 0.000000
O O16 0.500000 0.000000 0.000000
#
# Coordination Sequence:
#
# PCOD9066563 Si02
#       7
#     2   2   2   2   2   2   2
#     4  12  26  46  74 108 150 198 264 320 390 464
#     4  12  26  43  74 106 147 195 263 315 385 463
#     4  11  25  49  71 113 148 201 253 319 398 464
#     4  11  25  46  71 107 150 197 256 317 391 460
#     4  11  25  47  77 107 155 198 252 326 393 465
#     4  12  28  51  79 113 157 208 260 320 393 476
#     4  11  26  44  72 108 145 202 255 321 383 462
#
# _framework density 25.316973999999998
#
# number of rings (size 3 to 8) (size 9 to 14) (size 15 to 20)
#    0.000    0.571    2.857    3.857    8.000    1.143 
#    2.571    4.286    0.000    0.000    0.000    0.000 
#    0.000    0.000    0.000    0.000    0.000    0.000 
#
# Total GULP energy -78131.980729 kJ/mol
# GULP energy per Si atom -5580.855766 kJ/mol
# Density = 2.525935 g / cm^3
# Si number density = 25.316974 Si / 1000 Ang^3
#
#
#
# Elastic Constant Matrix: (Units=GPa)
#
#
# Indices 1 2 3 4 5 6 
#
# 1 127.8823 16.0642 20.0892 -2.6898 -1.1197 12.6361
# 2 16.0642 64.2973 8.9541 -15.2136 -2.2517 12.0700
# 3 20.0892 8.9541 129.9627 -8.5018 -0.6836 7.3529
# 4 -2.6898 -15.2136 -8.5018 41.8808 8.0704 -6.1273
# 5 -1.1197 -2.2517 -0.6836 8.0704 60.8082 -4.7676
# 6 12.6361 12.0700 7.3529 -6.1273 -4.7676 35.1658
#
#
#
# Elastic Compliance Matrix: (Units=1/GPa)
#
#
# Indices 1 2 3 4 5 6 
#
# 1 0.008418 -0.001660 -0.001095 -0.000623 -0.000019 -0.002337
# 2 -0.001660 0.018260 -0.000357 0.005872 -0.000502 -0.004641
# 3 -0.001095 -0.000357 0.008028 0.001327 -0.000194 -0.000958
# 4 -0.000623 0.005872 0.001327 0.027185 -0.003212 0.002232
# 5 -0.000019 -0.000502 -0.000194 -0.003212 0.017004 0.001965
# 6 -0.002337 -0.004641 -0.000958 0.002232 0.001965 0.031725
#
#
# Mechanical properties :
#
#
# Convention : Reuss Voigt Hill
#
# Bulk Modulus (GPa) = 35.11121 45.81749 40.46435
# Shear Modulus (GPa) = 39.57549 46.03993 42.80771
#
# Velocity S-wave (km/s) = 3.95802 4.26906 4.11648
# Velocity P-wave (km/s) = 5.89802 6.51434 6.21383
#
# Compressibility (1/GPa) = 0.02848093
#
# Stress axis : x y z
#
# Youngs Moduli (GPa) = 118.79360 54.76368 124.55737
#
# Poissons Ratio (x) = 0.09090 0.13645
# Poissons Ratio (y) = 0.19719 0.04452
# Poissons Ratio (z) = 0.13014 0.01958
#
# Static dielectric constant tensor:
#      x y z
#    x 2.173560 -0.272500 0.316460 
#    y -0.272500 2.852600 -0.652220 
#    z 0.316460 -0.652220 2.796910 
# 
# From -- ./inp_files/428984.got.cif
#   From: 2010.05.17/outbox.cif.g08.bks.cpg/sg2_215_cif.got.tgz:428984.got - 2010.06.03 11:33:40.
