data_PCOD9066307
_publ_section_title
;
Structure prediction by ZEFSAII (Michael W. Deem and Ramdas Pophale) SiO2 
 PCOD9066307
Probable space group: P -1
;
_chemical_formula_sum "Si O2"
_cell_formula_units_Z 15
_cell_length_a 12.042147
_cell_length_b 14.462738
_cell_length_c 20.809747
_cell_angle_alpha 160.608291
_cell_angle_beta 149.995251
_cell_angle_gamma 30.681443
_cell_volume 581.074330
_symmetry_space_group_name_H-M "P -1"
_symmetry_group_IT_number 2
_symmetry_cell_setting 'triclinic'
loop_
_space_group_symop_operation_xyz
x,y,z
-x,-y,-z
loop_
_atom_site_type_symbol
_atom_site_label
_atom_site_fract_x
_atom_site_fract_y
_atom_site_fract_z
Si Si1 0.681237 0.792602 0.079512
Si Si2 0.043953 0.808803 0.172426
Si Si3 0.058005 0.738822 0.907548
Si Si4 0.770097 0.678399 0.389720
Si Si5 0.000000 0.500000 0.500000
Si Si6 0.590801 0.013240 0.683559
Si Si7 0.721361 0.086814 0.423450
Si Si8 0.281511 0.276923 0.159156
O O1 0.915438 0.840512 0.196846
O O2 0.644930 0.917851 0.215085
O O3 0.483367 0.988640 0.065887
O O4 0.726198 0.448667 0.874994
O O5 0.081329 0.113802 0.369168
O O6 0.888687 0.704553 0.973949
O O7 0.107790 0.464332 0.706897
O O8 0.860332 0.739086 0.858464
O O9 0.277494 0.764747 0.075472
O O10 0.000000 0.000000 0.000000
O O11 0.808785 0.449601 0.316028
O O12 0.530471 0.863446 0.363205
O O13 0.785372 0.717298 0.575807
O O14 0.394387 0.984750 0.616385
O O15 0.636664 0.432805 0.603303
O O16 0.000000 0.000000 0.500000
#
# Coordination Sequence:
#
# PCOD9066307 Si02
#       8
#     2   2   2   2   1   2   2   2
#     4  11  25  45  73 112 157 206 256 324 401 468
#     4  11  26  46  71 115 159 201 258 331 395 477
#     4  12  26  53  79 116 156 211 272 329 388 484
#     4  12  28  50  81 109 160 209 265 329 400 473
#     4  12  28  52  76 118 156 206 262 322 400 482
#     4  12  28  52  83 117 159 211 265 332 401 474
#     4  12  25  51  83 118 156 208 267 332 397 474
#     4  12  26  47  81 112 157 207 268 328 398 468
#
# _framework density 25.814253000000001
#
# number of rings (size 3 to 8) (size 9 to 14) (size 15 to 20)
#    0.000    0.267    2.667    5.600    3.733    2.133 
#    9.600    0.000    0.000    0.000    0.000    0.000 
#    0.000    0.000    0.000    0.000    0.000    0.000 
#
# Total GULP energy -83883.882818 kJ/mol
# GULP energy per Si atom -5592.258855 kJ/mol
# Density = 2.575550 g / cm^3
# Si number density = 25.814253 Si / 1000 Ang^3
#
#
#
# Elastic Constant Matrix: (Units=GPa)
#
#
# Indices 1 2 3 4 5 6 
#
# 1 157.1693 33.6726 31.9487 -4.8270 -18.1130 -8.4989
# 2 33.6726 169.9153 2.8674 -7.3147 -19.7360 -14.2157
# 3 31.9487 2.8674 67.8258 8.0726 -16.2322 -8.2190
# 4 -4.8270 -7.3147 8.0726 42.4229 5.1056 -12.8696
# 5 -18.1130 -19.7360 -16.2322 5.1056 44.5954 -1.8198
# 6 -8.4989 -14.2157 -8.2190 -12.8696 -1.8198 39.1760
#
#
#
# Elastic Compliance Matrix: (Units=1/GPa)
#
#
# Indices 1 2 3 4 5 6 
#
# 1 0.007510 -0.001137 -0.003233 0.001449 0.001248 0.001072
# 2 -0.001137 0.006742 0.001148 0.001384 0.002905 0.003030
# 3 -0.003233 0.001148 0.018528 -0.003654 0.006468 0.002702
# 4 0.001449 0.001384 -0.003654 0.027766 -0.002939 0.009035
# 5 0.001248 0.002905 0.006468 -0.002939 0.027028 0.002972
# 6 0.001072 0.003030 0.002702 0.009035 0.002972 0.030531
#
#
# Mechanical properties :
#
#
# Convention : Reuss Voigt Hill
#
# Bulk Modulus (GPa) = 37.97032 59.09867 48.53450
# Shear Modulus (GPa) = 37.50195 47.00030 42.25113
#
# Velocity S-wave (km/s) = 3.81565 4.27161 4.05005
# Velocity P-wave (km/s) = 5.84407 6.87549 6.38066
#
# Compressibility (1/GPa) = 0.02633636
#
# Stress axis : x y z
#
# Youngs Moduli (GPa) = 133.16280 148.33074 53.97170
#
# Poissons Ratio (x) = 0.16859 0.17449
# Poissons Ratio (y) = 0.15135 -0.06196
# Poissons Ratio (z) = 0.43052 -0.17029
#
# Static dielectric constant tensor:
#      x y z
#    x 1.776560 -0.274420 -0.080250 
#    y -0.274420 1.634100 -0.139020 
#    z -0.080250 -0.139020 1.971750 
# 
# From -- ./inp_files/595704.got.cif
#   From: 2010.05.17/outbox.cif.g08.bks.cpg/sg2_298_cif.got.tgz:595704.got - 2010.06.03 11:33:40.
