data_PCOD9066683
_publ_section_title
;
Structure prediction by ZEFSAII (Michael W. Deem and Ramdas Pophale) SiO2 
 PCOD9066683
Probable space group: P -1
;
_chemical_formula_sum "Si O2"
_cell_formula_units_Z 16
_cell_length_a 5.035424
_cell_length_b 14.661406
_cell_length_c 11.655630
_cell_angle_alpha 119.032107
_cell_angle_beta 72.224180
_cell_angle_gamma 111.447527
_cell_volume 691.575948
_symmetry_space_group_name_H-M "P -1"
_symmetry_group_IT_number 2
_symmetry_cell_setting 'triclinic'
loop_
_space_group_symop_operation_xyz
x,y,z
-x,-y,-z
loop_
_atom_site_type_symbol
_atom_site_label
_atom_site_fract_x
_atom_site_fract_y
_atom_site_fract_z
Si Si1 0.807343 0.987584 0.903889
Si Si2 0.204243 0.257512 0.313828
Si Si3 0.821929 0.810320 0.158038
Si Si4 0.963618 0.515820 0.878626
Si Si5 0.413740 0.351602 0.105564
Si Si6 0.609501 0.283625 0.480098
Si Si7 0.899998 0.699137 0.299437
Si Si8 0.408359 0.874375 0.436853
O O1 0.941116 0.086372 0.858907
O O2 0.821317 0.871735 0.776777
O O3 0.500000 0.000000 0.000000
O O4 0.000000 0.000000 0.000000
O O5 0.231549 0.307112 0.214400
O O6 0.480586 0.297699 0.382966
O O7 0.950220 0.300653 0.432853
O O8 0.929096 0.728186 0.178058
O O9 0.604401 0.843351 0.294098
O O10 0.644994 0.745724 0.036447
O O11 0.260275 0.605229 0.867560
O O12 0.965588 0.400245 0.755935
O O13 0.698053 0.556295 0.889998
O O14 0.000000 0.500000 0.000000
O O15 0.426626 0.333417 0.627204
O O16 0.526719 0.161855 0.466997
O O17 0.085738 0.806847 0.404727
O O18 0.500000 0.000000 0.500000
#
# Coordination Sequence:
#
# PCOD9066683 Si02
#       8
#     2   2   2   2   2   2   2   2
#     4  12  27  43  69 105 150 188 234 288 366 432
#     4  12  25  48  71 103 151 193 236 291 351 445
#     4  11  26  42  73 111 145 183 239 302 360 438
#     4  12  26  46  77 107 144 187 239 306 368 420
#     4  12  27  46  74 111 142 189 241 295 372 422
#     4  11  25  46  73  99 144 193 235 290 352 425
#     4  11  26  46  77 106 147 183 249 301 359 425
#     4  11  25  46  74 107 144 192 242 300 359 429
#
# _framework density 23.135566000000001
#
# number of rings (size 3 to 8) (size 9 to 14) (size 15 to 20)
#    0.000    0.500    3.750    3.375    8.750    1.000 
#    0.000    3.750    0.000    0.000    0.000    0.000 
#    0.000    0.000    0.000    0.000    0.000    0.000 
#
# Total GULP energy -89372.551333 kJ/mol
# GULP energy per Si atom -5585.784458 kJ/mol
# Density = 2.308291 g / cm^3
# Si number density = 23.135566 Si / 1000 Ang^3
#
#
#
# Elastic Constant Matrix: (Units=GPa)
#
#
# Indices 1 2 3 4 5 6 
#
# 1 111.7297 -1.4981 18.5782 -6.9358 -4.5398 4.7936
# 2 -1.4981 53.8676 21.4402 -13.7228 2.8693 -0.8652
# 3 18.5782 21.4402 64.3616 -24.1390 5.0197 -0.6638
# 4 -6.9358 -13.7228 -24.1390 37.6752 -1.9247 7.5310
# 5 -4.5398 2.8693 5.0197 -1.9247 39.3789 -7.0527
# 6 4.7936 -0.8652 -0.6638 7.5310 -7.0527 34.5394
#
#
#
# Elastic Compliance Matrix: (Units=1/GPa)
#
#
# Indices 1 2 3 4 5 6 
#
# 1 0.009645 0.001615 -0.003193 0.000630 0.001208 -0.001250
# 2 0.001615 0.022235 -0.006094 0.004645 -0.000595 -0.000918
# 3 -0.003193 -0.006094 0.023382 0.012544 -0.002749 -0.002557
# 4 0.000630 0.004645 0.012544 0.037973 -0.001498 -0.008316
# 5 0.001208 -0.000595 -0.002749 -0.001498 0.026852 0.005574
# 6 -0.001250 -0.000918 -0.002557 -0.008316 0.005574 0.032005
#
#
# Mechanical properties :
#
#
# Convention : Reuss Voigt Hill
#
# Bulk Modulus (GPa) = 25.05205 34.11105 29.58155
# Shear Modulus (GPa) = 27.66385 35.08127 31.37256
#
# Velocity S-wave (km/s) = 3.46168 3.89824 3.68643
# Velocity P-wave (km/s) = 5.17972 5.91926 5.56180
#
# Compressibility (1/GPa) = 0.03991689
#
# Stress axis : x y z
#
# Youngs Moduli (GPa) = 103.68563 44.97480 42.76858
#
# Poissons Ratio (x) = -0.07263 0.13656
# Poissons Ratio (y) = -0.16745 0.26064
# Poissons Ratio (z) = 0.33106 0.27408
#
# Static dielectric constant tensor:
#      x y z
#    x 1.922810 -0.021630 -0.058090 
#    y -0.021630 1.992850 0.105150 
#    z -0.058090 0.105150 2.046920 
# 
# From -- ./inp_files/367914.got.cif
#   From: 2010.05.17/outbox.cif.g08.bks.cpg/sg2_184_cif.got.tgz:367914.got - 2010.06.03 11:33:40.
