data_PCOD9066303
_publ_section_title
;
Structure prediction by ZEFSAII (Michael W. Deem and Ramdas Pophale) SiO2 
 PCOD9066303
Probable space group: P -1
;
_chemical_formula_sum "Si O2"
_cell_formula_units_Z 14
_cell_length_a 14.497623
_cell_length_b 10.941458
_cell_length_c 14.477442
_cell_angle_alpha 30.858006
_cell_angle_beta 150.173816
_cell_angle_gamma 149.767118
_cell_volume 517.896590
_symmetry_space_group_name_H-M "P -1"
_symmetry_group_IT_number 2
_symmetry_cell_setting 'triclinic'
loop_
_space_group_symop_operation_xyz
x,y,z
-x,-y,-z
loop_
_atom_site_type_symbol
_atom_site_label
_atom_site_fract_x
_atom_site_fract_y
_atom_site_fract_z
Si Si1 0.286821 0.232853 0.971517
Si Si2 0.263040 0.186610 0.368384
Si Si3 0.823855 0.169585 0.315342
Si Si4 0.270797 0.371183 0.525302
Si Si5 0.629236 0.926438 0.038406
Si Si6 0.268978 0.972511 0.314902
Si Si7 0.000000 0.500000 0.500000
Si Si8 0.000000 0.500000 0.000000
O O1 0.323675 0.061866 0.036220
O O2 0.137708 0.340823 0.731752
O O3 0.500000 0.500000 0.000000
O O4 0.223465 0.075886 0.113596
O O5 0.512076 0.378072 0.479560
O O6 0.249711 0.135502 0.280511
O O7 0.111285 0.306432 0.192548
O O8 0.193832 0.895850 0.547319
O O9 0.050069 0.381726 0.333034
O O10 0.778475 0.877940 0.424251
O O11 0.621337 0.195031 0.092802
O O12 0.308750 0.267939 0.723386
O O13 0.774508 0.229408 0.001409
O O14 0.500000 0.000000 0.500000
O O15 0.124871 0.661597 0.410035
#
# Coordination Sequence:
#
# PCOD9066303 Si02
#       8
#     2   2   2   2   2   2   1   1
#     4  12  27  53  82 121 163 219 280 338 412 491
#     4  12  26  48  76 115 161 202 270 334 403 495
#     4  11  25  45  73 109 153 204 259 321 403 480
#     4  11  25  45  73 109 153 204 259 321 403 480
#     4  12  26  48  76 115 161 202 270 334 403 495
#     4  12  27  53  82 121 163 219 280 338 412 491
#     4  12  28  50  84 108 164 216 268 344 406 480
#     4  12  26  46  78 108 162 204 246 338 404 468
#
# _framework density 27.032423000000001
#
# number of rings (size 3 to 8) (size 9 to 14) (size 15 to 20)
#    0.000    0.286    4.286    3.857    0.000    0.000 
#    0.000    2.857    0.000    0.000    0.000    0.000 
#    0.000    0.000    0.000    0.000    0.000    0.000 
#
# Total GULP energy -78100.478428 kJ/mol
# GULP energy per Si atom -5578.605602 kJ/mol
# Density = 2.697090 g / cm^3
# Si number density = 27.032423 Si / 1000 Ang^3
#
#
#
# Elastic Constant Matrix: (Units=GPa)
#
#
# Indices 1 2 3 4 5 6 
#
# 1 143.1042 23.2294 68.9131 8.8911 -5.8126 14.4689
# 2 23.2294 134.2857 39.5197 2.3222 -1.9106 40.1759
# 3 68.9131 39.5197 154.7806 5.8644 7.7397 8.0410
# 4 8.8911 2.3222 5.8644 45.0046 14.4442 0.7986
# 5 -5.8126 -1.9106 7.7397 14.4442 56.5483 2.8602
# 6 14.4689 40.1759 8.0410 0.7986 2.8602 42.4410
#
#
#
# Elastic Compliance Matrix: (Units=1/GPa)
#
#
# Indices 1 2 3 4 5 6 
#
# 1 0.009463 0.000610 -0.004243 -0.002014 0.002246 -0.003113
# 2 0.000610 0.011294 -0.002661 -0.000654 0.001506 -0.010484
# 3 -0.004243 -0.002661 0.008989 0.000397 -0.001979 0.002388
# 4 -0.002014 -0.000654 0.000397 0.024715 -0.006658 0.001214
# 5 0.002246 0.001506 -0.001979 -0.006658 0.020091 -0.003045
# 6 -0.003113 -0.010484 0.002388 0.001214 -0.003045 0.034278
#
#
# Mechanical properties :
#
#
# Convention : Reuss Voigt Hill
#
# Bulk Modulus (GPa) = 58.28345 77.27719 67.78032
# Shear Modulus (GPa) = 39.32706 48.83267 44.07986
#
# Velocity S-wave (km/s) = 3.81834 4.25484 4.04249
# Velocity P-wave (km/s) = 6.40679 7.26548 6.84960
#
# Compressibility (1/GPa) = 0.01715753
#
# Stress axis : x y z
#
# Youngs Moduli (GPa) = 105.66937 88.54420 111.24291
#
# Poissons Ratio (x) = -0.05401 0.47205
# Poissons Ratio (y) = -0.06446 0.29602
# Poissons Ratio (z) = 0.44840 0.23562
#
# Static dielectric constant tensor:
#      x y z
#    x 2.364590 0.083500 0.083240 
#    y 0.083500 2.397360 0.186540 
#    z 0.083240 0.186540 2.149780 
# 
# From -- ./inp_files/531582.got.cif
#   From: 2010.05.17/outbox.cif.g08.bks.cpg/sg2_266_cif.got.tgz:531582.got - 2010.06.03 11:33:40.
