data_PCOD9066162
_publ_section_title
;
Structure prediction by ZEFSAII (Michael W. Deem and Ramdas Pophale) SiO2 
 PCOD9066162
Probable space group: P -1
;
_chemical_formula_sum "Si O2"
_cell_formula_units_Z 14
_cell_length_a 12.569327
_cell_length_b 20.751523
_cell_length_c 13.034112
_cell_angle_alpha 155.417448
_cell_angle_beta 35.079446
_cell_angle_gamma 155.581746
_cell_volume 583.738672
_symmetry_space_group_name_H-M "P -1"
_symmetry_group_IT_number 2
_symmetry_cell_setting 'triclinic'
loop_
_space_group_symop_operation_xyz
x,y,z
-x,-y,-z
loop_
_atom_site_type_symbol
_atom_site_label
_atom_site_fract_x
_atom_site_fract_y
_atom_site_fract_z
Si Si1 0.263677 0.800944 0.461445
Si Si2 0.659549 0.467044 0.705359
Si Si3 0.823716 0.594214 0.976336
Si Si4 0.173641 0.483070 0.767066
Si Si5 0.696747 0.781310 0.662262
Si Si6 0.347742 0.040043 0.239090
Si Si7 0.019249 0.884030 0.907239
O O1 0.271532 0.624395 0.222167
O O2 0.013567 0.678424 0.410711
O O3 0.242529 0.895906 0.715053
O O4 0.500000 0.000000 0.500000
O O5 0.860778 0.588827 0.817001
O O6 0.544668 0.229315 0.437559
O O7 0.786813 0.628980 0.742852
O O8 0.403414 0.415579 0.854322
O O9 0.074749 0.804452 0.140669
O O10 0.436954 0.681835 0.785609
O O11 0.265789 0.382002 0.607487
O O12 0.000000 0.500000 0.000000
O O13 0.705652 0.855683 0.650040
O O14 0.924807 0.988953 0.850118
O O15 0.500000 0.000000 0.000000
O O16 0.000000 0.000000 0.000000
#
# Coordination Sequence:
#
# PCOD9066162 Si02
#       7
#     2   2   2   2   2   2   2
#     4  12  26  45  73 104 137 186 241 303 364 437
#     4  11  26  46  72 103 140 192 237 298 362 432
#     4  11  26  48  70 103 144 183 245 297 360 439
#     4  11  25  45  69 107 144 191 243 301 368 433
#     4  11  25  45  71 104 147 190 244 304 362 434
#     4  12  26  46  71 103 143 193 241 293 368 437
#     4  12  23  44  71 100 141 184 237 297 362 426
#
# _framework density 23.983332999999998
#
# number of rings (size 3 to 8) (size 9 to 14) (size 15 to 20)
#    0.000    0.571    2.857    4.714    6.000    1.143 
#    5.143    0.000    0.000    0.000    0.000    0.000 
#    0.000    0.000    0.000    0.000    0.000    0.000 
#
# Total GULP energy -78291.771178 kJ/mol
# GULP energy per Si atom -5592.269370 kJ/mol
# Density = 2.392875 g / cm^3
# Si number density = 23.983333 Si / 1000 Ang^3
#
#
#
# Elastic Constant Matrix: (Units=GPa)
#
#
# Indices 1 2 3 4 5 6 
#
# 1 47.4346 -7.5297 8.0992 12.6623 3.3974 -2.6190
# 2 -7.5297 98.0009 55.3775 13.1408 -0.4077 1.4113
# 3 8.0992 55.3775 118.2881 4.5981 -10.5226 -7.6798
# 4 12.6623 13.1408 4.5981 50.2822 0.4003 -5.5517
# 5 3.3974 -0.4077 -10.5226 0.4003 26.6528 0.2655
# 6 -2.6190 1.4113 -7.6798 -5.5517 0.2655 30.5066
#
#
#
# Elastic Compliance Matrix: (Units=1/GPa)
#
#
# Indices 1 2 3 4 5 6 
#
# 1 0.024939 0.005360 -0.004385 -0.007298 -0.004714 -0.000498
# 2 0.005360 0.015940 -0.008157 -0.005098 -0.003551 -0.003228
# 3 -0.004385 -0.008157 0.013217 0.002393 0.005579 0.003715
# 4 -0.007298 -0.005098 0.002393 0.023318 0.001403 0.004443
# 5 -0.004714 -0.003551 0.005579 0.001403 0.040237 0.001069
# 6 -0.000498 -0.003228 0.003715 0.004443 0.001069 0.034621
#
#
# Mechanical properties :
#
#
# Convention : Reuss Voigt Hill
#
# Bulk Modulus (GPa) = 25.16762 41.73529 33.45146
# Shear Modulus (GPa) = 27.79610 35.34010 31.56810
#
# Velocity S-wave (km/s) = 3.40807 3.84282 3.63195
# Velocity P-wave (km/s) = 5.09933 6.09338 5.61838
#
# Compressibility (1/GPa) = 0.03973359
#
# Stress axis : x y z
#
# Youngs Moduli (GPa) = 40.09725 62.73420 75.65794
#
# Poissons Ratio (x) = -0.33626 0.33175
# Poissons Ratio (y) = -0.21492 0.61713
# Poissons Ratio (z) = 0.17582 0.51171
#
# Static dielectric constant tensor:
#      x y z
#    x 1.806160 0.236640 0.180710 
#    y 0.236640 1.555940 -0.219660 
#    z 0.180710 -0.219660 1.833400 
# 
# From -- ./inp_files/535442.got.cif
#   From: 2010.05.17/outbox.cif.g08.bks.cpg/sg2_268_cif.got.tgz:535442.got - 2010.06.03 11:33:40.
