data_PCOD9066517
_publ_section_title
;
Structure prediction by ZEFSAII (Michael W. Deem and Ramdas Pophale) SiO2 
 PCOD9066517
Probable space group: P -1
;
_chemical_formula_sum "Si O2"
_cell_formula_units_Z 16
_cell_length_a 8.240255
_cell_length_b 12.402947
_cell_length_c 15.278383
_cell_angle_alpha 50.867314
_cell_angle_beta 141.219965
_cell_angle_gamma 108.916844
_cell_volume 711.953519
_symmetry_space_group_name_H-M "P -1"
_symmetry_group_IT_number 2
_symmetry_cell_setting 'triclinic'
loop_
_space_group_symop_operation_xyz
x,y,z
-x,-y,-z
loop_
_atom_site_type_symbol
_atom_site_label
_atom_site_fract_x
_atom_site_fract_y
_atom_site_fract_z
Si Si1 0.349354 0.532433 0.824331
Si Si2 0.174821 0.039142 0.323926
Si Si3 0.002878 0.121328 0.509960
Si Si4 0.546080 0.453959 0.643738
Si Si5 0.004651 0.398754 0.635441
Si Si6 0.560814 0.161058 0.752420
Si Si7 0.150614 0.614317 0.023770
Si Si8 0.034530 0.105804 0.843026
O O1 0.221976 0.711703 0.672379
O O2 0.570025 0.449402 0.884075
O O3 0.104275 0.466711 0.729086
O O4 0.500000 0.500000 0.000000
O O5 0.500000 0.000000 0.500000
O O6 0.040480 0.957340 0.378898
O O7 0.125232 0.970826 0.246867
O O8 0.017642 0.216889 0.161135
O O9 0.296007 0.142585 0.606870
O O10 0.000000 0.000000 0.500000
O O11 0.500000 0.500000 0.500000
O O12 0.312793 0.596850 0.510285
O O13 0.450493 0.312026 0.682529
O O14 0.801606 0.403559 0.841743
O O15 0.000000 0.500000 0.500000
O O16 0.151955 0.224332 0.788785
O O17 0.813730 0.173476 0.793721
O O18 0.703793 0.020677 0.943432
O O19 0.000000 0.500000 0.000000
#
# Coordination Sequence:
#
# PCOD9066517 Si02
#       8
#     2   2   2   2   2   2   2   2
#     4  12  28  47  72 108 145 190 244 304 367 437
#     4  12  27  48  72 105 148 193 241 303 367 436
#     4  12  27  46  74 104 146 191 240 302 368 438
#     4  12  25  46  73 106 145 190 243 300 364 435
#     4  12  25  45  74 105 145 188 243 299 363 436
#     4  11  25  46  70 108 141 187 244 295 361 435
#     4  12  29  48  74 106 146 194 247 300 371 440
#     4  11  26  44  74 105 146 189 240 298 360 432
#
# _framework density 22.473378
#
# number of rings (size 3 to 8) (size 9 to 14) (size 15 to 20)
#    0.000    0.250    5.000    3.000    7.000    1.500 
#    0.000    0.000    0.000    0.000    0.000    0.000 
#    0.000    0.000    0.000    0.000    0.000    0.000 
#
# Total GULP energy -89146.937459 kJ/mol
# GULP energy per Si atom -5571.683591 kJ/mol
# Density = 2.242223 g / cm^3
# Si number density = 22.473378 Si / 1000 Ang^3
#
#
#
# Elastic Constant Matrix: (Units=GPa)
#
#
# Indices 1 2 3 4 5 6 
#
# 1 54.0495 -3.7822 38.7731 -12.1436 -4.2666 -5.0237
# 2 -3.7822 149.1099 67.0934 -13.8741 -1.4237 0.6555
# 3 38.7731 67.0934 183.4985 -31.4287 -16.5665 -2.0721
# 4 -12.1436 -13.8741 -31.4287 53.5626 7.4445 -3.6994
# 5 -4.2666 -1.4237 -16.5665 7.4445 37.2028 -3.8876
# 6 -5.0237 0.6555 -2.0721 -3.6994 -3.8876 32.1999
#
#
#
# Elastic Compliance Matrix: (Units=1/GPa)
#
#
# Indices 1 2 3 4 5 6 
#
# 1 0.023917 0.003465 -0.005724 0.003205 0.000069 0.003669
# 2 0.003465 0.008586 -0.003814 0.000938 -0.001151 0.000089
# 3 -0.005724 -0.003814 0.008721 0.002491 0.002619 0.000348
# 4 0.003205 0.000938 0.002491 0.021647 -0.002524 0.002824
# 5 0.000069 -0.001151 0.002619 -0.002524 0.028870 0.003398
# 6 0.003669 0.000089 0.000348 0.002824 0.003398 0.032384
#
#
# Mechanical properties :
#
#
# Convention : Reuss Voigt Hill
#
# Bulk Modulus (GPa) = 34.39026 65.64740 50.01883
# Shear Modulus (GPa) = 34.25539 43.56463 38.91001
#
# Velocity S-wave (km/s) = 3.90842 4.40762 4.16550
# Velocity P-wave (km/s) = 5.97524 7.42815 6.74095
#
# Compressibility (1/GPa) = 0.02907800
#
# Stress axis : x y z
#
# Youngs Moduli (GPa) = 41.81189 116.46454 114.67056
#
# Poissons Ratio (x) = -0.40354 0.65636
# Poissons Ratio (y) = -0.14487 0.43733
# Poissons Ratio (z) = 0.23933 0.44418
#
# Static dielectric constant tensor:
#      x y z
#    x 2.239720 -0.079330 0.076370 
#    y -0.079330 1.803390 0.039930 
#    z 0.076370 0.039930 1.802210 
# 
# From -- ./inp_files/500109.got.cif
#   From: 2010.05.17/outbox.cif.g08.bks.cpg/sg2_251_cif.got.tgz:500109.got - 2010.06.03 11:33:40.
