data_PCOD9066267
_publ_section_title
;
Structure prediction by ZEFSAII (Michael W. Deem and Ramdas Pophale) SiO2 
 PCOD9066267
Probable space group: P -1
;
_chemical_formula_sum "Si O2"
_cell_formula_units_Z 14
_cell_length_a 23.054899
_cell_length_b 14.424467
_cell_length_c 9.310743
_cell_angle_alpha 41.295018
_cell_angle_beta 28.993725
_cell_angle_gamma 24.829642
_cell_volume 616.343264
_symmetry_space_group_name_H-M "P -1"
_symmetry_group_IT_number 2
_symmetry_cell_setting 'triclinic'
loop_
_space_group_symop_operation_xyz
x,y,z
-x,-y,-z
loop_
_atom_site_type_symbol
_atom_site_label
_atom_site_fract_x
_atom_site_fract_y
_atom_site_fract_z
Si Si1 0.233261 0.671444 0.766679
Si Si2 0.672536 0.199795 0.349540
Si Si3 0.078821 0.602011 0.609244
Si Si4 0.054658 0.946426 0.278799
Si Si5 0.638254 0.924874 0.871889
Si Si6 0.691546 0.809394 0.215711
Si Si7 0.867417 0.544940 0.658483
O O1 0.455790 0.446891 0.509480
O O2 0.223611 0.780827 0.798386
O O3 0.149891 0.595068 0.072420
O O4 0.127290 0.842918 0.666615
O O5 0.668740 0.059712 0.609424
O O6 0.782565 0.095688 0.081438
O O7 0.119497 0.728277 0.358525
O O8 0.195026 0.430135 0.691044
O O9 0.131768 0.472065 0.498223
O O10 0.851543 0.785032 0.914470
O O11 0.000000 0.000000 0.500000
O O12 0.379079 0.169838 0.121169
O O13 0.883784 0.654377 0.629692
O O14 0.631046 0.868654 0.112489
O O15 0.500000 0.000000 0.500000
#
# Coordination Sequence:
#
# PCOD9066267 Si02
#       7
#     2   2   2   2   2   2   2
#     4  11  25  45  73 103 139 191 242 288 354 427
#     4  11  25  47  74 103 142 190 240 296 355 422
#     4  11  26  48  67 104 144 185 238 298 357 424
#     4  12  28  45  72 104 144 190 236 294 363 429
#     4  12  24  42  73 108 137 182 247 295 345 427
#     4  11  26  44  71 101 147 187 225 296 368 413
#     4  12  23  43  74 101 139 184 244 296 349 420
#
# _framework density 22.714614000000001
#
# number of rings (size 3 to 8) (size 9 to 14) (size 15 to 20)
#    0.000    0.571    4.286    3.000    2.000    5.143 
#    0.000    0.000    0.000    0.000    0.000    0.000 
#    0.000    0.000    0.000    0.000    0.000    0.000 
#
# Total GULP energy -78247.192861 kJ/mol
# GULP energy per Si atom -5589.085204 kJ/mol
# Density = 2.266291 g / cm^3
# Si number density = 22.714614 Si / 1000 Ang^3
#
#
#
# Elastic Constant Matrix: (Units=GPa)
#
#
# Indices 1 2 3 4 5 6 
#
# 1 108.7403 68.3363 84.2517 -14.6703 4.8574 -18.0747
# 2 68.3363 120.6440 55.9762 -17.3017 12.8808 -25.6295
# 3 84.2517 55.9762 160.6414 6.4060 29.4577 -13.1890
# 4 -14.6703 -17.3017 6.4060 60.4241 2.9273 3.6690
# 5 4.8574 12.8808 29.4577 2.9273 39.7543 -6.8220
# 6 -18.0747 -25.6295 -13.1890 3.6690 -6.8220 47.4650
#
#
#
# Elastic Compliance Matrix: (Units=1/GPa)
#
#
# Indices 1 2 3 4 5 6 
#
# 1 0.023001 -0.007806 -0.010735 0.003966 0.007789 0.002374
# 2 -0.007806 0.014230 -0.000048 0.002084 -0.003072 0.004095
# 3 -0.010735 -0.000048 0.013487 -0.003551 -0.008634 -0.001332
# 4 0.003966 0.002084 -0.003551 0.018464 0.000153 0.000244
# 5 0.007789 -0.003072 -0.008634 0.000153 0.032189 0.003523
# 6 0.002374 0.004095 -0.001332 0.000244 0.003523 0.024300
#
#
# Mechanical properties :
#
#
# Convention : Reuss Voigt Hill
#
# Bulk Modulus (GPa) = 73.85414 89.68380 81.76897
# Shear Modulus (GPa) = 29.87552 41.62612 35.75082
#
# Velocity S-wave (km/s) = 3.63058 4.28550 3.97156
# Velocity P-wave (km/s) = 7.08232 8.00349 7.55696
#
# Compressibility (1/GPa) = 0.01354020
#
# Stress axis : x y z
#
# Youngs Moduli (GPa) = 43.47689 70.27625 74.14482
#
# Poissons Ratio (x) = 0.54859 0.79591
# Poissons Ratio (y) = 0.33939 0.00354
# Poissons Ratio (z) = 0.46671 0.00336
#
# Static dielectric constant tensor:
#      x y z
#    x 1.864550 -0.037180 -0.063930 
#    y -0.037180 1.990140 0.180580 
#    z -0.063930 0.180580 1.925760 
# 
# From -- ./inp_files/357596.got.cif
#   From: 2010.05.17/outbox.cif.g08.bks.cpg/sg2_179_cif.got.tgz:357596.got - 2010.06.03 11:33:40.
