data_PCOD9066653
_publ_section_title
;
Structure prediction by ZEFSAII (Michael W. Deem and Ramdas Pophale) SiO2 
 PCOD9066653
Probable space group: P -1
;
_chemical_formula_sum "Si O2"
_cell_formula_units_Z 16
_cell_length_a 16.870494
_cell_length_b 9.334914
_cell_length_c 10.986150
_cell_angle_alpha 62.440071
_cell_angle_beta 128.037617
_cell_angle_gamma 149.560278
_cell_volume 680.105293
_symmetry_space_group_name_H-M "P -1"
_symmetry_group_IT_number 2
_symmetry_cell_setting 'triclinic'
loop_
_space_group_symop_operation_xyz
x,y,z
-x,-y,-z
loop_
_atom_site_type_symbol
_atom_site_label
_atom_site_fract_x
_atom_site_fract_y
_atom_site_fract_z
Si Si1 0.988237 0.171039 0.451515
Si Si2 0.265850 0.804353 0.136309
Si Si3 0.082919 0.765347 0.406942
Si Si4 0.112774 0.206164 0.909920
Si Si5 0.602261 0.279303 0.419072
Si Si6 0.048136 0.808278 0.846264
Si Si7 0.600685 0.247616 0.902490
Si Si8 0.523995 0.718703 0.470480
O O1 0.200053 0.495301 0.532018
O O2 0.880214 0.070121 0.508013
O O3 0.892901 0.122781 0.264332
O O4 0.000000 0.000000 0.500000
O O5 0.264823 0.704742 0.048669
O O6 0.156000 0.527575 0.221087
O O7 0.465168 0.119315 0.239806
O O8 0.153874 0.819383 0.021128
O O9 0.000000 0.500000 0.500000
O O10 0.950415 0.700100 0.229068
O O11 0.264878 0.971817 0.426995
O O12 0.077525 0.024393 0.845242
O O13 0.310739 0.493316 0.035837
O O14 0.000000 0.000000 0.000000
O O15 0.587639 0.392982 0.468018
O O16 0.500000 0.000000 0.500000
O O17 0.520445 0.226514 0.711659
O O18 0.500000 0.000000 0.000000
O O19 0.500000 0.500000 0.500000
#
# Coordination Sequence:
#
# PCOD9066653 Si02
#       8
#     2   2   2   2   2   2   2   2
#     4  12  25  47  71 101 143 184 234 298 353 411
#     4  11  26  45  75 104 140 185 242 290 359 429
#     4  12  28  44  73 108 143 185 235 297 361 418
#     4  12  26  47  72 102 146 191 235 287 356 436
#     4  12  24  46  76  99 137 189 242 288 345 427
#     4  11  25  46  73 105 138 189 236 294 355 431
#     4  12  27  46  69 104 150 183 228 299 360 416
#     4  12  27  47  73 105 140 190 240 290 351 432
#
# _framework density 23.525769
#
# number of rings (size 3 to 8) (size 9 to 14) (size 15 to 20)
#    0.000    0.250    5.000    3.000    8.750    0.000 
#    0.000    1.250    0.000    0.000    0.000    0.000 
#    0.000    0.000    0.000    0.000    0.000    0.000 
#
# Total GULP energy -89317.367632 kJ/mol
# GULP energy per Si atom -5582.335477 kJ/mol
# Density = 2.347222 g / cm^3
# Si number density = 23.525769 Si / 1000 Ang^3
#
#
#
# Elastic Constant Matrix: (Units=GPa)
#
#
# Indices 1 2 3 4 5 6 
#
# 1 73.7548 2.4685 9.4677 -1.9393 -1.6940 -11.1758
# 2 2.4685 83.9495 8.9496 4.3048 11.5083 -19.8229
# 3 9.4677 8.9496 77.8571 10.4133 -4.7953 -13.9513
# 4 -1.9393 4.3048 10.4133 37.5573 -1.1226 0.9254
# 5 -1.6940 11.5083 -4.7953 -1.1226 40.2208 -6.0235
# 6 -11.1758 -19.8229 -13.9513 0.9254 -6.0235 38.5077
#
#
#
# Elastic Compliance Matrix: (Units=1/GPa)
#
#
# Indices 1 2 3 4 5 6 
#
# 1 0.014361 0.000495 -0.001124 0.000923 0.000976 0.004146
# 2 0.000495 0.014056 -0.000418 -0.001729 -0.003083 0.006787
# 3 -0.001124 -0.000418 0.014679 -0.004135 0.002496 0.005267
# 4 0.000923 -0.001729 -0.004135 0.028098 0.000416 -0.002730
# 5 0.000976 -0.003083 0.002496 0.000416 0.026658 0.003761
# 6 0.004146 0.006787 0.005267 -0.002730 0.003761 0.033228
#
#
# Mechanical properties :
#
#
# Convention : Reuss Voigt Hill
#
# Bulk Modulus (GPa) = 24.38851 30.81479 27.60165
# Shear Modulus (GPa) = 34.05034 37.56889 35.80961
#
# Velocity S-wave (km/s) = 3.80855 4.00049 3.90570
# Velocity P-wave (km/s) = 5.45246 5.87072 5.66545
#
# Compressibility (1/GPa) = 0.04100291
#
# Stress axis : x y z
#
# Youngs Moduli (GPa) = 69.63274 71.14485 68.12301
#
# Poissons Ratio (x) = -0.03525 0.07655
# Poissons Ratio (y) = -0.03450 0.02850
# Poissons Ratio (z) = 0.07825 0.02976
#
# Static dielectric constant tensor:
#      x y z
#    x 3.930890 -1.263790 1.803440 
#    y -1.263790 2.784960 -1.194340 
#    z 1.803440 -1.194340 3.668470 
# 
# From -- ./inp_files/462001.got.cif
#   From: 2010.05.17/outbox.cif.g08.bks.cpg/sg2_232_cif.got.tgz:462001.got - 2010.06.03 11:33:40.
