data_PCOD9066785
_publ_section_title
;
Structure prediction by ZEFSAII (Michael W. Deem and Ramdas Pophale) SiO2 
 PCOD9066785
Probable space group: P -1
;
_chemical_formula_sum "Si O2"
_cell_formula_units_Z 14
_cell_length_a 4.996887
_cell_length_b 15.097868
_cell_length_c 22.557114
_cell_angle_alpha 18.521537
_cell_angle_beta 90.499916
_cell_angle_gamma 86.081922
_cell_volume 524.608760
_symmetry_space_group_name_H-M "P -1"
_symmetry_group_IT_number 2
_symmetry_cell_setting 'triclinic'
loop_
_space_group_symop_operation_xyz
x,y,z
-x,-y,-z
loop_
_atom_site_type_symbol
_atom_site_label
_atom_site_fract_x
_atom_site_fract_y
_atom_site_fract_z
Si Si1 0.708755 0.848503 0.333697
Si Si2 0.149557 0.371947 0.142823
Si Si3 0.756854 0.727241 0.008202
Si Si4 0.083032 0.750592 0.604968
Si Si5 0.793911 0.789651 0.144308
Si Si6 0.740284 0.016248 0.361607
Si Si7 0.907299 0.249307 0.713723
O O1 0.967877 0.794518 0.324500
O O2 0.659145 0.530764 0.539016
O O3 0.755032 0.935980 0.344800
O O4 0.474717 0.095946 0.147626
O O5 0.476799 0.280592 0.198750
O O6 0.021831 0.588799 0.055919
O O7 0.044012 0.076100 0.342028
O O8 0.000000 0.500000 0.000000
O O9 0.708998 0.467481 0.210772
O O10 0.817539 0.957125 0.908059
O O11 0.176219 0.512673 0.698366
O O12 0.000000 0.000000 0.500000
O O13 0.749670 0.791060 0.556276
O O14 0.865999 0.713598 0.262191
O O15 0.500000 0.000000 0.000000
O O16 0.000000 0.000000 0.000000
#
# Coordination Sequence:
#
# PCOD9066785 Si02
#       7
#     2   2   2   2   2   2   2
#     4  11  25  47  75 110 152 195 266 321 388 462
#     4  12  26  45  77 107 151 198 255 308 392 458
#     4  12  25  46  76 107 154 203 256 327 387 469
#     4  12  27  52  77 119 161 210 264 329 397 471
#     4  12  27  52  82 116 159 212 265 324 395 474
#     4  12  27  49  73 113 151 202 248 320 384 468
#     4  11  25  46  76 112 146 205 263 323 387 466
#
# _framework density 26.686557000000001
#
# number of rings (size 3 to 8) (size 9 to 14) (size 15 to 20)
#    0.000    0.286    5.714    2.571    2.000    2.857 
#    2.571    0.000    0.000    0.000    0.000    0.000 
#    0.000    0.000    0.000    0.000    0.000    0.000 
#
# Total GULP energy -77960.461877 kJ/mol
# GULP energy per Si atom -5568.604420 kJ/mol
# Density = 2.662582 g / cm^3
# Si number density = 26.686557 Si / 1000 Ang^3
#
#
#
# Elastic Constant Matrix: (Units=GPa)
#
#
# Indices 1 2 3 4 5 6 
#
# 1 86.5271 43.4683 53.4372 -10.8246 12.9615 3.0057
# 2 43.4683 233.2593 75.6072 -5.8134 25.1360 21.7822
# 3 53.4372 75.6072 188.4701 -25.1427 25.3096 15.5949
# 4 -10.8246 -5.8134 -25.1427 63.2369 14.5619 5.1733
# 5 12.9615 25.1360 25.3096 14.5619 53.9964 8.4839
# 6 3.0057 21.7822 15.5949 5.1733 8.4839 34.4106
#
#
#
# Elastic Compliance Matrix: (Units=1/GPa)
#
#
# Indices 1 2 3 4 5 6 
#
# 1 0.014761 -0.001602 -0.003217 0.001420 -0.001898 0.001437
# 2 -0.001602 0.005367 -0.001324 0.000155 -0.001159 -0.002395
# 3 -0.003217 -0.001324 0.007729 0.003215 -0.002758 -0.002187
# 4 0.001420 0.000155 0.003215 0.019111 -0.006615 -0.002922
# 5 -0.001898 -0.001159 -0.002758 -0.006615 0.022988 -0.002524
# 6 0.001437 -0.002395 -0.002187 -0.002922 -0.002524 0.032504
#
#
# Mechanical properties :
#
#
# Convention : Reuss Voigt Hill
#
# Bulk Modulus (GPa) = 64.22489 94.80912 79.51701
# Shear Modulus (GPa) = 41.68814 52.71167 47.19990
#
# Velocity S-wave (km/s) = 3.95668 4.44916 4.21013
# Velocity P-wave (km/s) = 6.70764 7.87384 7.31402
#
# Compressibility (1/GPa) = 0.01557029
#
# Stress axis : x y z
#
# Youngs Moduli (GPa) = 67.74710 186.31250 129.37565
#
# Poissons Ratio (x) = 0.29852 0.41620
# Poissons Ratio (y) = 0.10855 0.17134
# Poissons Ratio (z) = 0.21794 0.24675
#
# Static dielectric constant tensor:
#      x y z
#    x 2.228370 0.011420 -0.199520 
#    y 0.011420 1.968690 -0.050400 
#    z -0.199520 -0.050400 2.275110 
# 
# From -- ./inp_files/124241.got.cif
#   From: 2010.05.17/outbox.cif.g08.bks.cpg/sg2_63_cif.got.tgz:124241.got - 2010.06.03 11:33:40.
