data_PCOD9066673
_publ_section_title
;
Structure prediction by ZEFSAII (Michael W. Deem and Ramdas Pophale) SiO2 
 PCOD9066673
Probable space group: P -1
;
_chemical_formula_sum "Si O2"
_cell_formula_units_Z 16
_cell_length_a 8.510201
_cell_length_b 17.012291
_cell_length_c 9.560323
_cell_angle_alpha 61.360469
_cell_angle_beta 82.847535
_cell_angle_gamma 42.571438
_cell_volume 758.536185
_symmetry_space_group_name_H-M "P -1"
_symmetry_group_IT_number 2
_symmetry_cell_setting 'triclinic'
loop_
_space_group_symop_operation_xyz
x,y,z
-x,-y,-z
loop_
_atom_site_type_symbol
_atom_site_label
_atom_site_fract_x
_atom_site_fract_y
_atom_site_fract_z
Si Si1 0.757063 0.579040 0.878375
Si Si2 0.456394 0.138677 0.283447
Si Si3 0.151495 0.581599 0.230935
Si Si4 0.371750 0.639013 0.475398
Si Si5 0.398888 0.139673 0.951542
Si Si6 0.049782 0.177231 0.397095
Si Si7 0.263816 0.837033 0.097365
Si Si8 0.705959 0.302054 0.053362
O O1 0.582113 0.743162 0.760373
O O2 0.894785 0.478723 0.815935
O O3 0.577526 0.580006 0.957401
O O4 0.000000 0.500000 0.000000
O O5 0.226301 0.184965 0.339419
O O6 0.735754 0.985743 0.431377
O O7 0.417173 0.134582 0.125088
O O8 0.376744 0.438393 0.412990
O O9 0.882027 0.728674 0.192571
O O10 0.248299 0.628144 0.100506
O O11 0.500000 0.500000 0.500000
O O12 0.274819 0.751350 0.278008
O O13 0.158670 0.714596 0.551226
O O14 0.541945 0.169632 0.877914
O O15 0.500000 0.000000 0.000000
O O16 0.900626 0.214956 0.238075
O O17 0.280530 0.785743 0.984776
O O18 0.000000 0.000000 0.000000
#
# Coordination Sequence:
#
# PCOD9066673 Si02
#       8
#     2   2   2   2   2   2   2   2
#     4  12  23  41  70 106 140 182 249 297 364 434
#     4  11  25  46  73 110 144 197 242 315 367 437
#     4  12  25  44  73 106 141 194 241 303 377 433
#     4  12  28  46  73 113 151 192 245 313 372 444
#     4  12  26  49  75 105 150 197 255 302 375 454
#     4  11  26  47  73 107 150 191 252 303 374 442
#     4  12  27  48  76 106 149 198 244 303 378 449
#     4  12  23  45  75 102 143 194 243 299 367 448
#
# _framework density 21.093260000000001
#
# number of rings (size 3 to 8) (size 9 to 14) (size 15 to 20)
#    0.000    0.250    6.250    1.875    3.500    3.000 
#    2.250    0.000    0.000    0.000    0.000    0.000 
#    0.000    0.000    0.000    0.000    0.000    0.000 
#
# Total GULP energy -89197.882903 kJ/mol
# GULP energy per Si atom -5574.867681 kJ/mol
# Density = 2.104525 g / cm^3
# Si number density = 21.093260 Si / 1000 Ang^3
#
#
#
# Elastic Constant Matrix: (Units=GPa)
#
#
# Indices 1 2 3 4 5 6 
#
# 1 79.5034 22.8983 8.7636 -5.0375 5.1483 -3.8497
# 2 22.8983 125.1796 26.0621 -12.4806 -3.8207 3.5029
# 3 8.7636 26.0621 83.0090 -17.9429 -0.4343 -14.0404
# 4 -5.0375 -12.4806 -17.9429 24.3123 -5.1386 3.1331
# 5 5.1483 -3.8207 -0.4343 -5.1386 33.8735 -10.8578
# 6 -3.8497 3.5029 -14.0404 3.1331 -10.8578 47.2728
#
#
#
# Elastic Compliance Matrix: (Units=1/GPa)
#
#
# Indices 1 2 3 4 5 6 
#
# 1 0.013522 -0.002391 -0.000414 0.000762 -0.002008 0.000644
# 2 -0.002391 0.009281 -0.002224 0.003106 0.001395 -0.001429
# 3 -0.000414 -0.002224 0.015916 0.010562 0.003186 0.004890
# 4 0.000762 0.003106 0.010562 0.052342 0.008798 0.001520
# 5 -0.002008 0.001395 0.003186 0.008798 0.033885 0.007879
# 6 0.000644 -0.001429 0.004890 0.001520 0.007879 0.024473
#
#
# Mechanical properties :
#
#
# Convention : Reuss Voigt Hill
#
# Bulk Modulus (GPa) = 34.89126 44.79332 39.84229
# Shear Modulus (GPa) = 29.58039 36.42292 33.00165
#
# Velocity S-wave (km/s) = 3.74888 4.15993 3.95974
# Velocity P-wave (km/s) = 5.94273 6.65998 6.31155
#
# Compressibility (1/GPa) = 0.02866047
#
# Stress axis : x y z
#
# Youngs Moduli (GPa) = 73.95509 107.74453 62.83099
#
# Poissons Ratio (x) = 0.25758 0.02601
# Poissons Ratio (y) = 0.17680 0.13977
# Poissons Ratio (z) = 0.03062 0.23967
#
# Static dielectric constant tensor:
#      x y z
#    x 2.392930 0.274290 -0.474790 
#    y 0.274290 1.617760 0.141930 
#    z -0.474790 0.141930 1.809450 
# 
# From -- ./inp_files/217030.got.cif
#   From: 2010.05.17/outbox.cif.g08.bks.cpg/sg2_109_cif.got.tgz:217030.got - 2010.06.03 11:33:40.
