data_PCOD9066344
_publ_section_title
;
Structure prediction by ZEFSAII (Michael W. Deem and Ramdas Pophale) SiO2 
 PCOD9066344
Probable space group: P -1
;
_chemical_formula_sum "Si O2"
_cell_formula_units_Z 14
_cell_length_a 19.150722
_cell_length_b 9.112158
_cell_length_c 9.538891
_cell_angle_alpha 119.932461
_cell_angle_beta 131.556386
_cell_angle_gamma 29.996420
_cell_volume 609.915288
_symmetry_space_group_name_H-M "P -1"
_symmetry_group_IT_number 2
_symmetry_cell_setting 'triclinic'
loop_
_space_group_symop_operation_xyz
x,y,z
-x,-y,-z
loop_
_atom_site_type_symbol
_atom_site_label
_atom_site_fract_x
_atom_site_fract_y
_atom_site_fract_z
Si Si1 0.584585 0.311956 0.661206
Si Si2 0.946829 0.854007 0.255172
Si Si3 0.618878 0.230347 0.138695
Si Si4 0.738578 0.683164 0.051988
Si Si5 0.484711 0.963064 0.619402
Si Si6 0.796937 0.452419 0.328030
Si Si7 0.038130 0.129117 0.037023
O O1 0.500000 0.500000 0.500000
O O2 0.447094 0.568800 0.717122
O O3 0.601776 0.087390 0.544942
O O4 0.765231 0.127168 0.830400
O O5 0.079601 0.627194 0.446290
O O6 0.790350 0.985344 0.163644
O O7 0.872630 0.154634 0.296546
O O8 0.015238 0.746818 0.136339
O O9 0.632601 0.012074 0.094997
O O10 0.500000 0.500000 0.000000
O O11 0.765166 0.553087 0.174578
O O12 0.925675 0.422310 0.119753
O O13 0.642554 0.721307 0.819487
O O14 0.500000 0.000000 0.500000
O O15 0.374170 0.271532 0.690763
O O16 0.000000 0.000000 0.000000
#
# Coordination Sequence:
#
# PCOD9066344 Si02
#       7
#     2   2   2   2   2   2   2
#     4  12  28  46  77 111 156 198 255 315 383 454
#     4  11  25  45  76 106 159 195 257 316 388 449
#     4  12  26  49  76 112 151 203 258 317 383 456
#     4  12  27  46  81 109 157 199 261 312 386 457
#     4  12  26  47  74 109 155 197 256 310 386 453
#     4  11  25  45  74 111 146 207 253 317 379 457
#     4  12  26  48  77 114 155 202 257 320 388 454
#
# _framework density 22.954006
#
# number of rings (size 3 to 8) (size 9 to 14) (size 15 to 20)
#    0.000    0.286    2.857    5.571    4.000    2.286 
#    0.000    0.000    0.000    0.000    0.000    0.000 
#    0.000    0.000    0.000    0.000    0.000    0.000 
#
# Total GULP energy -77965.760419 kJ/mol
# GULP energy per Si atom -5568.982887 kJ/mol
# Density = 2.290176 g / cm^3
# Si number density = 22.954006 Si / 1000 Ang^3
#
#
#
# Elastic Constant Matrix: (Units=GPa)
#
#
# Indices 1 2 3 4 5 6 
#
# 1 111.7918 39.5984 42.3197 16.7907 -15.1503 4.3790
# 2 39.5984 133.7588 -5.1850 32.6655 -0.6758 12.2987
# 3 42.3197 -5.1850 117.6812 -29.4272 -61.1824 9.9148
# 4 16.7907 32.6655 -29.4272 66.9962 10.0283 -5.7483
# 5 -15.1503 -0.6758 -61.1824 10.0283 65.2244 17.1694
# 6 4.3790 12.2987 9.9148 -5.7483 17.1694 40.0957
#
#
#
# Elastic Compliance Matrix: (Units=1/GPa)
#
#
# Indices 1 2 3 4 5 6 
#
# 1 0.013762 -0.003774 -0.010283 -0.004699 -0.006950 0.004500
# 2 -0.003774 0.010298 0.004549 -0.003544 0.005854 -0.006886
# 3 -0.010283 0.004549 0.034169 0.008332 0.034274 -0.022203
# 4 -0.004699 -0.003544 0.008332 0.021132 0.003113 0.001237
# 5 -0.006950 0.005854 0.034274 0.003113 0.053912 -0.032151
# 6 0.004500 -0.006886 -0.022203 0.001237 -0.032151 0.045996
#
#
# Mechanical properties :
#
#
# Convention : Reuss Voigt Hill
#
# Bulk Modulus (GPa) = 25.50220 57.41088 41.45654
# Shear Modulus (GPa) = 23.65650 53.56317 38.60983
#
# Velocity S-wave (km/s) = 3.21379 4.83587 4.10573
# Velocity P-wave (km/s) = 4.99054 7.49976 6.36993
#
# Compressibility (1/GPa) = 0.03921230
#
# Stress axis : x y z
#
# Youngs Moduli (GPa) = 72.66159 97.10485 29.26633
#
# Poissons Ratio (x) = 0.36649 0.30095
# Poissons Ratio (y) = 0.27423 -0.13312
# Poissons Ratio (z) = 0.74718 -0.44169
#
# Static dielectric constant tensor:
#      x y z
#    x 3.213880 -0.210270 0.011660 
#    y -0.210270 1.872390 -0.043710 
#    z 0.011660 -0.043710 1.951840 
# 
# From -- ./inp_files/329329.got.cif
#   From: 2010.05.17/outbox.cif.g08.bks.cpg/sg2_165_cif.got.tgz:329329.got - 2010.06.03 11:33:40.
