data_PCOD9066249
_publ_section_title
;
Structure prediction by ZEFSAII (Michael W. Deem and Ramdas Pophale) SiO2 
 PCOD9066249
Probable space group: P -1
;
_chemical_formula_sum "Si O2"
_cell_formula_units_Z 12
_cell_length_a 12.172466
_cell_length_b 8.698399
_cell_length_c 5.246775
_cell_angle_alpha 89.442531
_cell_angle_beta 58.864548
_cell_angle_gamma 96.510163
_cell_volume 470.912789
_symmetry_space_group_name_H-M "P -1"
_symmetry_group_IT_number 2
_symmetry_cell_setting 'triclinic'
loop_
_space_group_symop_operation_xyz
x,y,z
-x,-y,-z
loop_
_atom_site_type_symbol
_atom_site_label
_atom_site_fract_x
_atom_site_fract_y
_atom_site_fract_z
Si Si1 0.386831 0.880644 0.264235
Si Si2 0.133545 0.861061 0.441035
Si Si3 0.296815 0.369745 0.636530
Si Si4 0.883812 0.930018 0.952278
Si Si5 0.912241 0.478849 0.356870
Si Si6 0.412038 0.684051 0.746987
O O1 0.254586 0.961566 0.442212
O O2 0.416974 0.801481 0.495974
O O3 0.368221 0.754463 0.059477
O O4 0.500000 0.000000 0.000000
O O5 0.145952 0.699319 0.558984
O O6 0.978866 0.861263 0.635816
O O7 0.165878 0.921099 0.116239
O O8 0.199419 0.413510 0.535180
O O9 0.321481 0.523812 0.783941
O O10 0.441021 0.348712 0.382159
O O11 0.223482 0.212522 0.849767
O O12 0.000000 0.000000 0.000000
O O13 0.000000 0.500000 0.500000
O O14 0.000000 0.500000 0.000000
#
# Coordination Sequence:
#
# PCOD9066249 Si02
#       6
#     2   2   2   2   2   2
#     4  12  27  48  76 108 152 196 255 308 375 452
#     4  11  26  43  69 107 142 192 250 304 375 439
#     4  11  25  49  75 111 155 197 254 311 378 451
#     4  11  25  45  72 106 149 196 250 311 380 438
#     4  12  26  45  75 108 145 191 244 309 375 441
#     4  11  28  48  76 111 148 205 247 311 373 452
#
# _framework density 25.482427000000001
#
# number of rings (size 3 to 8) (size 9 to 14) (size 15 to 20)
#    0.000    0.667    3.333    2.500    7.000    4.000 
#    6.000    0.000    0.000    0.000    0.000    0.000 
#    0.000    0.000    0.000    0.000    0.000    0.000 
#
# Total GULP energy -67015.385443 kJ/mol
# GULP energy per Si atom -5584.615454 kJ/mol
# Density = 2.542443 g / cm^3
# Si number density = 25.482427 Si / 1000 Ang^3
#
#
#
# Elastic Constant Matrix: (Units=GPa)
#
#
# Indices 1 2 3 4 5 6 
#
# 1 162.9089 16.6802 49.3001 -2.8388 -2.2406 -11.8636
# 2 16.6802 89.1771 62.8011 -29.4179 0.2122 14.4135
# 3 49.3001 62.8011 138.5654 -32.0875 8.6951 9.1298
# 4 -2.8388 -29.4179 -32.0875 46.4517 4.5023 -3.3613
# 5 -2.2406 0.2122 8.6951 4.5023 52.9672 -11.7385
# 6 -11.8636 14.4135 9.1298 -3.3613 -11.7385 44.7524
#
#
#
# Elastic Compliance Matrix: (Units=1/GPa)
#
#
# Indices 1 2 3 4 5 6 
#
# 1 0.007352 -0.000171 -0.003270 -0.001864 0.001665 0.002968
# 2 -0.000171 0.018935 -0.006520 0.007216 -0.000608 -0.004431
# 3 -0.003270 -0.006520 0.012709 0.004609 -0.002989 -0.001797
# 4 -0.001864 0.007216 0.004609 0.029362 -0.003933 -0.002585
# 5 0.001665 -0.000608 -0.002989 -0.003933 0.021222 0.006518
# 6 0.002968 -0.004431 -0.001797 -0.002585 0.006518 0.026441
#
#
# Mechanical properties :
#
#
# Convention : Reuss Voigt Hill
#
# Bulk Modulus (GPa) = 52.42780 72.02379 62.22579
# Shear Modulus (GPa) = 35.13691 46.29226 40.71459
#
# Velocity S-wave (km/s) = 3.71734 4.26682 4.00152
# Velocity P-wave (km/s) = 6.24849 7.25257 6.76917
#
# Compressibility (1/GPa) = 0.01907385
#
# Stress axis : x y z
#
# Youngs Moduli (GPa) = 136.01701 52.81181 78.68698
#
# Poissons Ratio (x) = 0.00903 0.25731
# Poissons Ratio (y) = 0.02326 0.51303
# Poissons Ratio (z) = 0.44478 0.34433
#
# Static dielectric constant tensor:
#      x y z
#    x 2.135040 -0.181190 -0.205100 
#    y -0.181190 2.718300 0.607370 
#    z -0.205100 0.607370 2.503240 
# 
# From -- ./inp_files/58369.got.cif
#   From: 2010.05.17/outbox.cif.g08.bks.cpg/sg2_30_cif.got.tgz:58369.got - 2010.06.03 11:33:40.
