data_PCOD9066647
_publ_section_title
;
Structure prediction by ZEFSAII (Michael W. Deem and Ramdas Pophale) SiO2 
 PCOD9066647
Probable space group: P -1
;
_chemical_formula_sum "Si O2"
_cell_formula_units_Z 16
_cell_length_a 8.629124
_cell_length_b 9.268509
_cell_length_c 15.446371
_cell_angle_alpha 87.093506
_cell_angle_beta 33.485804
_cell_angle_gamma 77.601136
_cell_volume 646.537235
_symmetry_space_group_name_H-M "P -1"
_symmetry_group_IT_number 2
_symmetry_cell_setting 'triclinic'
loop_
_space_group_symop_operation_xyz
x,y,z
-x,-y,-z
loop_
_atom_site_type_symbol
_atom_site_label
_atom_site_fract_x
_atom_site_fract_y
_atom_site_fract_z
Si Si1 0.442489 0.728654 0.127971
Si Si2 0.079458 0.399483 0.555779
Si Si3 0.942972 0.949093 0.759632
Si Si4 0.248487 0.666809 0.926853
Si Si5 0.272279 0.921165 0.438957
Si Si6 0.214560 0.356158 0.193623
Si Si7 0.334618 0.362345 0.796391
Si Si8 0.673419 0.119142 0.247426
O O1 0.641806 0.722115 0.119092
O O2 0.173189 0.676417 0.294393
O O3 0.317070 0.893785 0.138501
O O4 0.646847 0.621872 0.963851
O O5 0.385715 0.263804 0.404878
O O6 0.000000 0.500000 0.500000
O O7 0.062583 0.513103 0.641087
O O8 0.855100 0.801834 0.777464
O O9 0.184525 0.960438 0.576895
O O10 0.088230 0.928010 0.786268
O O11 0.525020 0.653071 0.859167
O O12 0.317252 0.531396 0.826738
O O13 0.192309 0.823438 0.899154
O O14 0.962351 0.648478 0.108174
O O15 0.381093 0.739736 0.382706
O O16 0.535700 0.987195 0.293125
O O17 0.000000 0.000000 0.500000
#
# Coordination Sequence:
#
# PCOD9066647 Si02
#       8
#     2   2   2   2   2   2   2   2
#     4  12  25  49  71 105 149 188 241 301 361 435
#     4  12  25  46  79 104 144 191 245 301 360 432
#     4  12  28  46  71 109 147 191 242 301 363 432
#     4  11  26  46  72 104 145 186 247 300 356 433
#     4  12  25  46  76 103 139 197 241 294 367 429
#     4  12  27  45  76 107 145 197 240 292 374 424
#     4  11  25  46  73 104 141 186 247 298 363 422
#     4  12  26  48  70 107 147 185 245 305 354 434
#
# _framework density 24.747222000000001
#
# number of rings (size 3 to 8) (size 9 to 14) (size 15 to 20)
#    0.000    0.250    5.000    2.625    5.250    1.000 
#    2.250    0.000    0.000    0.000    0.000    0.000 
#    0.000    0.000    0.000    0.000    0.000    0.000 
#
# Total GULP energy -89594.147681 kJ/mol
# GULP energy per Si atom -5599.634230 kJ/mol
# Density = 2.469090 g / cm^3
# Si number density = 24.747222 Si / 1000 Ang^3
#
#
#
# Elastic Constant Matrix: (Units=GPa)
#
#
# Indices 1 2 3 4 5 6 
#
# 1 92.7462 33.9943 -10.7163 -10.4777 -9.1570 2.4366
# 2 33.9943 125.9750 20.9076 0.9472 -16.6289 6.3069
# 3 -10.7163 20.9076 81.3984 3.7596 7.8956 3.8021
# 4 -10.4777 0.9472 3.7596 49.6710 6.2514 -6.4408
# 5 -9.1570 -16.6289 7.8956 6.2514 36.4994 -6.6540
# 6 2.4366 6.3069 3.8021 -6.4408 -6.6540 43.9186
#
#
#
# Elastic Compliance Matrix: (Units=1/GPa)
#
#
# Indices 1 2 3 4 5 6 
#
# 1 0.012808 -0.003826 0.002499 0.002531 0.000509 0.000071
# 2 -0.003826 0.010187 -0.003480 -0.001374 0.004586 -0.000456
# 3 0.002499 -0.003480 0.013996 -0.000128 -0.004240 -0.001512
# 4 0.002531 -0.001374 -0.000128 0.021452 -0.003139 0.002739
# 5 0.000509 0.004586 -0.004240 -0.003139 0.031806 0.004039
# 6 0.000071 -0.000456 -0.001512 0.002739 0.004039 0.023975
#
#
# Mechanical properties :
#
#
# Convention : Reuss Voigt Hill
#
# Bulk Modulus (GPa) = 36.52845 43.16564 39.84704
# Shear Modulus (GPa) = 37.60420 43.08007 40.34214
#
# Velocity S-wave (km/s) = 3.90235 4.17682 4.04191
# Velocity P-wave (km/s) = 5.92428 6.38291 6.15787
#
# Compressibility (1/GPa) = 0.02737592
#
# Stress axis : x y z
#
# Youngs Moduli (GPa) = 78.07837 98.16617 71.44868
#
# Poissons Ratio (x) = 0.37562 -0.17858
# Poissons Ratio (y) = 0.29876 0.24867
# Poissons Ratio (z) = -0.19515 0.34166
#
# Static dielectric constant tensor:
#      x y z
#    x 1.906840 0.003970 -0.036450 
#    y 0.003970 1.976430 0.023170 
#    z -0.036450 0.023170 2.036990 
# 
# From -- ./inp_files/495020.got.cif
#   From: 2010.05.17/outbox.cif.g08.bks.cpg/sg2_248_cif.got.tgz:495020.got - 2010.06.03 11:33:40.
