data_PCOD9066991
_publ_section_title
;
Structure prediction by ZEFSAII (Michael W. Deem and Ramdas Pophale) SiO2 
 PCOD9066991
Probable space group: P -1
;
_chemical_formula_sum "Si O2"
_cell_formula_units_Z 14
_cell_length_a 5.473591
_cell_length_b 8.087149
_cell_length_c 22.138075
_cell_angle_alpha 134.236686
_cell_angle_beta 115.024798
_cell_angle_gamma 53.372902
_cell_volume 563.424647
_symmetry_space_group_name_H-M "P -1"
_symmetry_group_IT_number 2
_symmetry_cell_setting 'triclinic'
loop_
_space_group_symop_operation_xyz
x,y,z
-x,-y,-z
loop_
_atom_site_type_symbol
_atom_site_label
_atom_site_fract_x
_atom_site_fract_y
_atom_site_fract_z
Si Si1 0.873270 0.910871 0.406000
Si Si2 0.402809 0.421959 0.303808
Si Si3 0.235180 0.613487 0.553112
Si Si4 0.842139 0.874133 0.178489
Si Si5 0.536598 0.084711 0.958910
Si Si6 0.173089 0.601735 0.882480
Si Si7 0.431126 0.739210 0.272770
O O1 0.541821 0.930710 0.366203
O O2 0.075264 0.600516 0.342914
O O3 0.912911 0.078355 0.398472
O O4 0.000000 0.000000 0.500000
O O5 0.617253 0.459107 0.384387
O O6 0.400932 0.553142 0.273090
O O7 0.540270 0.114052 0.235262
O O8 0.500000 0.500000 0.500000
O O9 0.000000 0.500000 0.500000
O O10 0.752495 0.881616 0.101322
O O11 0.892998 0.599528 0.138094
O O12 0.132137 0.896142 0.239849
O O13 0.591779 0.333277 0.038960
O O14 0.854885 0.862974 0.908182
O O15 0.500000 0.000000 0.000000
O O16 0.324364 0.458052 0.799803
#
# Coordination Sequence:
#
# PCOD9066991 Si02
#       7
#     2   2   2   2   2   2   2
#     4  12  27  50  75 107 150 201 261 326 395 469
#     4  12  27  46  75 104 154 201 257 321 396 465
#     4  12  28  49  79 115 150 203 266 334 407 475
#     4  12  26  46  72 110 151 199 256 315 393 465
#     4  11  25  48  77 110 149 200 250 313 387 464
#     4  11  25  47  74 109 152 195 254 311 388 468
#     4  12  27  46  75 108 151 202 255 323 388 469
#
# _framework density 24.848047000000001
#
# number of rings (size 3 to 8) (size 9 to 14) (size 15 to 20)
#    0.000    0.286    1.429    7.286    4.000    8.000 
#    0.000    1.429    0.000    0.000    0.000    0.000 
#    0.000    0.000    0.000    0.000    0.000    0.000 
#
# Total GULP energy -78331.657279 kJ/mol
# GULP energy per Si atom -5595.118377 kJ/mol
# Density = 2.479149 g / cm^3
# Si number density = 24.848047 Si / 1000 Ang^3
#
#
#
# Elastic Constant Matrix: (Units=GPa)
#
#
# Indices 1 2 3 4 5 6 
#
# 1 70.8757 19.7531 37.9354 -18.6127 14.5117 -9.1276
# 2 19.7531 106.1214 62.3162 -39.6241 15.7313 -16.8725
# 3 37.9354 62.3162 138.2101 -32.9191 17.1404 -26.3722
# 4 -18.6127 -39.6241 -32.9191 69.3040 -3.0627 3.9554
# 5 14.5117 15.7313 17.1404 -3.0627 54.2217 -4.3573
# 6 -9.1276 -16.8725 -26.3722 3.9554 -4.3573 30.7393
#
#
#
# Elastic Compliance Matrix: (Units=1/GPa)
#
#
# Indices 1 2 3 4 5 6 
#
# 1 0.017626 0.000885 -0.003730 0.003222 -0.003484 0.001611
# 2 0.000885 0.015339 -0.004621 0.006498 -0.002577 0.003517
# 3 -0.003730 -0.004621 0.012067 0.001686 -0.000869 0.006369
# 4 0.003222 0.006498 0.001686 0.019544 -0.001921 0.003183
# 5 -0.003484 -0.002577 -0.000869 -0.001921 0.020283 -0.000072
# 6 0.001611 0.003517 0.006369 0.003183 -0.000072 0.039985
#
#
# Mechanical properties :
#
#
# Convention : Reuss Voigt Hill
#
# Bulk Modulus (GPa) = 33.22134 61.69072 47.45603
# Shear Modulus (GPa) = 33.37570 43.86650 38.62110
#
# Velocity S-wave (km/s) = 3.66893 4.20621 3.94673
# Velocity P-wave (km/s) = 5.59883 6.96209 6.31734
#
# Compressibility (1/GPa) = 0.03010114
#
# Stress axis : x y z
#
# Youngs Moduli (GPa) = 56.73465 65.19182 82.86905
#
# Poissons Ratio (x) = -0.05771 0.30911
# Poissons Ratio (y) = -0.05022 0.38292
# Poissons Ratio (z) = 0.21163 0.30123
#
# Static dielectric constant tensor:
#      x y z
#    x 2.020510 -0.098570 -0.017380 
#    y -0.098570 1.994390 0.030500 
#    z -0.017380 0.030500 2.025680 
# 
# From -- ./inp_files/604103.got.cif
#   From: 2010.05.17/outbox.cif.g08.bks.cpg/sg2_303_cif.got.tgz:604103.got - 2010.06.03 11:33:40.
