data_PCOD9066890
_publ_section_title
;
Structure prediction by ZEFSAII (Michael W. Deem and Ramdas Pophale) SiO2 
 PCOD9066890
Probable space group: P -1
;
_chemical_formula_sum "Si O2"
_cell_formula_units_Z 14
_cell_length_a 11.651578
_cell_length_b 12.759018
_cell_length_c 11.778540
_cell_angle_alpha 142.065366
_cell_angle_beta 38.394446
_cell_angle_gamma 142.016519
_cell_volume 598.609143
_symmetry_space_group_name_H-M "P -1"
_symmetry_group_IT_number 2
_symmetry_cell_setting 'triclinic'
loop_
_space_group_symop_operation_xyz
x,y,z
-x,-y,-z
loop_
_atom_site_type_symbol
_atom_site_label
_atom_site_fract_x
_atom_site_fract_y
_atom_site_fract_z
Si Si1 0.937472 0.921166 0.349827
Si Si2 0.538059 0.949840 0.713912
Si Si3 0.043597 0.124159 0.191233
Si Si4 0.790236 0.401310 0.929668
Si Si5 0.191870 0.684346 0.908534
Si Si6 0.543049 0.510187 0.843552
Si Si7 0.326550 0.824887 0.553827
O O1 0.693033 0.859049 0.487826
O O2 0.999182 0.029295 0.270378
O O3 0.000000 0.000000 0.500000
O O4 0.049859 0.786900 0.137685
O O5 0.408722 0.842014 0.831136
O O6 0.355133 0.903917 0.726475
O O7 0.680715 0.176347 0.795477
O O8 0.888776 0.220219 0.375119
O O9 0.276178 0.284555 0.150411
O O10 0.000000 0.000000 0.000000
O O11 0.770121 0.405153 0.084076
O O12 0.665873 0.506347 0.063768
O O13 0.034258 0.510115 0.803328
O O14 0.619666 0.350651 0.628174
O O15 0.500000 0.500000 0.000000
O O16 0.500000 0.000000 0.500000
#
# Coordination Sequence:
#
# PCOD9066890 Si02
#       7
#     2   2   2   2   2   2   2
#     4  12  26  46  79 115 152 200 259 315 388 471
#     4  12  25  47  80 103 156 201 260 319 394 454
#     4  12  27  49  79 110 154 204 258 323 393 461
#     4  11  25  47  71 110 147 199 255 311 393 465
#     4  11  26  48  74 107 155 201 250 321 389 466
#     4  12  28  45  75 106 150 200 258 322 388 463
#     4  12  25  48  70 108 142 195 258 319 383 463
#
# _framework density 23.387547999999999
#
# number of rings (size 3 to 8) (size 9 to 14) (size 15 to 20)
#    0.000    0.286    2.857    6.000    6.000    1.143 
#    0.000    5.000    0.000    0.000    0.000    0.000 
#    0.000    0.000    0.000    0.000    0.000    0.000 
#
# Total GULP energy -78168.352780 kJ/mol
# GULP energy per Si atom -5583.453770 kJ/mol
# Density = 2.333432 g / cm^3
# Si number density = 23.387548 Si / 1000 Ang^3
#
#
#
# Elastic Constant Matrix: (Units=GPa)
#
#
# Indices 1 2 3 4 5 6 
#
# 1 156.8137 14.4024 26.5548 -2.8274 -1.7155 -27.8537
# 2 14.4024 83.5434 50.4520 -6.3736 14.0051 -11.9087
# 3 26.5548 50.4520 77.2608 -3.7648 -5.1371 -9.5865
# 4 -2.8274 -6.3736 -3.7648 32.1371 -0.8969 0.7495
# 5 -1.7155 14.0051 -5.1371 -0.8969 36.7400 3.9919
# 6 -27.8537 -11.9087 -9.5865 0.7495 3.9919 41.5432
#
#
#
# Elastic Compliance Matrix: (Units=1/GPa)
#
#
# Indices 1 2 3 4 5 6 
#
# 1 0.007624 0.001414 -0.002985 0.000455 -0.001125 0.004928
# 2 0.001414 0.024853 -0.016740 0.002625 -0.012265 0.005341
# 3 -0.002985 -0.016740 0.025313 -0.000294 0.009982 -0.001913
# 4 0.000455 0.002625 -0.000294 0.031624 -0.000297 0.000448
# 5 -0.001125 -0.012265 0.009982 -0.000297 0.033795 -0.005209
# 6 0.004928 0.005341 -0.001913 0.000448 -0.005209 0.028957
#
#
# Mechanical properties :
#
#
# Convention : Reuss Voigt Hill
#
# Bulk Modulus (GPa) = 47.24233 55.60405 51.42319
# Shear Modulus (GPa) = 25.53045 37.16463 31.34754
#
# Velocity S-wave (km/s) = 3.30756 3.99065 3.66505
# Velocity P-wave (km/s) = 5.90172 6.71270 6.32023
#
# Compressibility (1/GPa) = 0.02116746
#
# Stress axis : x y z
#
# Youngs Moduli (GPa) = 131.16809 40.23637 39.50597
#
# Poissons Ratio (x) = -0.05689 0.11792
# Poissons Ratio (y) = -0.18547 0.66134
# Poissons Ratio (z) = 0.39151 0.67357
#
# Static dielectric constant tensor:
#      x y z
#    x 1.922210 0.007950 0.089590 
#    y 0.007950 1.907890 0.022870 
#    z 0.089590 0.022870 1.907850 
# 
# From -- ./inp_files/429013.got.cif
#   From: 2010.05.17/outbox.cif.g08.bks.cpg/sg2_215_cif.got.tgz:429013.got - 2010.06.03 11:33:40.
