data_PCOD9066157
_publ_section_title
;
Structure prediction by ZEFSAII (Michael W. Deem and Ramdas Pophale) SiO2 
 PCOD9066157
Probable space group: P -1
;
_chemical_formula_sum "Si O2"
_cell_formula_units_Z 16
_cell_length_a 18.373118
_cell_length_b 14.893958
_cell_length_c 11.658369
_cell_angle_alpha 29.926469
_cell_angle_beta 45.287616
_cell_angle_gamma 27.931002
_cell_volume 718.657339
_symmetry_space_group_name_H-M "P -1"
_symmetry_group_IT_number 2
_symmetry_cell_setting 'triclinic'
loop_
_space_group_symop_operation_xyz
x,y,z
-x,-y,-z
loop_
_atom_site_type_symbol
_atom_site_label
_atom_site_fract_x
_atom_site_fract_y
_atom_site_fract_z
Si Si1 0.076494 0.704836 0.215546
Si Si2 0.430220 0.296979 0.247089
Si Si3 0.868473 0.249121 0.280393
Si Si4 0.903511 0.495235 0.336175
Si Si5 0.892943 0.903462 0.984499
Si Si6 0.446777 0.513047 0.219370
Si Si7 0.310295 0.226904 0.946861
Si Si8 0.253497 0.947092 0.442908
O O1 0.245529 0.514331 0.178149
O O2 0.109198 0.567827 0.452591
O O3 0.952277 0.776512 0.188317
O O4 0.000000 0.000000 0.000000
O O5 0.432674 0.395786 0.257757
O O6 0.500000 0.000000 0.500000
O O7 0.514406 0.333302 0.033944
O O8 0.778144 0.538958 0.115652
O O9 0.748185 0.250347 0.386987
O O10 0.968482 0.165559 0.149793
O O11 0.000000 0.000000 0.500000
O O12 0.769028 0.613576 0.263603
O O13 0.882067 0.737375 0.107873
O O14 0.081504 0.210883 0.404292
O O15 0.725413 0.236576 0.805923
O O16 0.595299 0.243906 0.428488
O O17 0.500000 0.000000 0.000000
O O18 0.270296 0.073849 0.186539
#
# Coordination Sequence:
#
# PCOD9066157 Si02
#       8
#     2   2   2   2   2   2   2   2
#     4  12  25  45  74 105 146 199 242 301 375 444
#     4  11  25  45  69 103 153 195 249 299 368 430
#     4  12  26  49  79 104 148 198 247 306 375 438
#     4  12  26  49  74 109 149 193 251 306 371 450
#     4  12  26  47  74 109 152 195 248 301 375 441
#     4  11  27  44  70 110 150 192 248 308 361 443
#     4  12  30  51  77 111 147 194 251 312 372 439
#     4  12  27  47  76 107 149 191 247 306 371 441
#
# _framework density 22.263739000000001
#
# number of rings (size 3 to 8) (size 9 to 14) (size 15 to 20)
#    0.000    0.250    3.750    4.500    8.750    1.500 
#    0.000    0.000    0.000    0.000    0.000    0.000 
#    0.000    0.000    0.000    0.000    0.000    0.000 
#
# Total GULP energy -89595.281209 kJ/mol
# GULP energy per Si atom -5599.705076 kJ/mol
# Density = 2.221307 g / cm^3
# Si number density = 22.263739 Si / 1000 Ang^3
#
#
#
# Elastic Constant Matrix: (Units=GPa)
#
#
# Indices 1 2 3 4 5 6 
#
# 1 105.3801 33.5400 39.9511 -11.9550 17.6250 -7.9219
# 2 33.5400 95.9471 45.0904 -13.6416 11.5292 -15.7550
# 3 39.9511 45.0904 112.7630 -5.3486 -2.4744 0.2327
# 4 -11.9550 -13.6416 -5.3486 45.2642 -4.5104 3.3444
# 5 17.6250 11.5292 -2.4744 -4.5104 55.1308 -6.4056
# 6 -7.9219 -15.7550 0.2327 3.3444 -6.4056 26.1794
#
#
#
# Elastic Compliance Matrix: (Units=1/GPa)
#
#
# Indices 1 2 3 4 5 6 
#
# 1 0.012320 -0.001603 -0.003714 0.001864 -0.003418 0.001722
# 2 -0.001603 0.015556 -0.005575 0.002825 -0.001816 0.008121
# 3 -0.003714 -0.005575 0.012443 -0.000662 0.002402 -0.003917
# 4 0.001864 0.002825 -0.000662 0.023464 0.000637 -0.000571
# 5 -0.003418 -0.001816 0.002402 0.000637 0.020083 0.002684
# 6 0.001722 0.008121 -0.003917 -0.000571 0.002684 0.044371
#
#
# Mechanical properties :
#
#
# Convention : Reuss Voigt Hill
#
# Bulk Modulus (GPa) = 53.95214 61.25035 57.60124
# Shear Modulus (GPa) = 32.01034 38.34880 35.17957
#
# Velocity S-wave (km/s) = 3.79592 4.15478 3.97940
# Velocity P-wave (km/s) = 6.59529 7.11247 6.85875
#
# Compressibility (1/GPa) = 0.01853495
#
# Stress axis : x y z
#
# Youngs Moduli (GPa) = 81.16723 64.28299 80.36756
#
# Poissons Ratio (x) = 0.10303 0.29850
# Poissons Ratio (y) = 0.13009 0.44807
# Poissons Ratio (z) = 0.30147 0.35839
#
# Static dielectric constant tensor:
#      x y z
#    x 1.849880 0.002460 0.005710 
#    y 0.002460 1.787010 0.047610 
#    z 0.005710 0.047610 1.810820 
# 
# From -- ./inp_files/314654.got.cif
#   From: 2010.05.17/outbox.cif.g08.bks.cpg/sg2_158_cif.got.tgz:314654.got - 2010.06.03 11:33:40.
