data_PCOD9066633
_publ_section_title
;
Structure prediction by ZEFSAII (Michael W. Deem and Ramdas Pophale) SiO2 
 PCOD9066633
Probable space group: P -1
;
_chemical_formula_sum "Si O2"
_cell_formula_units_Z 14
_cell_length_a 6.411317
_cell_length_b 12.181348
_cell_length_c 11.475310
_cell_angle_alpha 47.991493
_cell_angle_beta 80.103054
_cell_angle_gamma 60.736519
_cell_volume 564.025163
_symmetry_space_group_name_H-M "P -1"
_symmetry_group_IT_number 2
_symmetry_cell_setting 'triclinic'
loop_
_space_group_symop_operation_xyz
x,y,z
-x,-y,-z
loop_
_atom_site_type_symbol
_atom_site_label
_atom_site_fract_x
_atom_site_fract_y
_atom_site_fract_z
Si Si1 0.544023 0.782417 0.576963
Si Si2 0.294950 0.025442 0.748783
Si Si3 0.216984 0.188629 0.051278
Si Si4 0.939663 0.429689 0.200924
Si Si5 0.459599 0.517445 0.628658
Si Si6 0.853505 0.171914 0.253892
Si Si7 0.058518 0.809326 0.148287
O O1 0.614042 0.903609 0.414546
O O2 0.533961 0.648670 0.583607
O O3 0.270913 0.878971 0.593417
O O4 0.766287 0.680423 0.722536
O O5 0.049228 0.179003 0.720447
O O6 0.497086 0.946297 0.886254
O O7 0.273615 0.867128 0.813897
O O8 0.116966 0.103945 0.214944
O O9 0.149623 0.377153 0.965972
O O10 0.083621 0.224564 0.915460
O O11 0.805914 0.435804 0.331595
O O12 0.824414 0.347142 0.183986
O O13 0.500000 0.500000 0.500000
O O14 0.657919 0.330170 0.790254
O O15 0.000000 0.000000 0.000000
#
# Coordination Sequence:
#
# PCOD9066633 Si02
#       7
#     2   2   2   2   2   2   2
#     4  11  26  47  70 103 137 184 232 284 338 410
#     4  12  27  44  72 102 141 183 229 282 345 408
#     4  12  26  45  71 104 139 184 225 285 348 407
#     4  11  25  46  73 101 137 181 232 284 345 403
#     4  11  26  45  72 103 139 181 231 285 338 409
#     4  11  26  47  71 102 143 177 238 279 344 405
#     4  12  25  47  70 104 142 178 229 285 347 405
#
# _framework density 24.82159
#
# number of rings (size 3 to 8) (size 9 to 14) (size 15 to 20)
#    0.000    0.571    2.857    3.857    4.000    5.714 
#    0.000    0.000    0.000    0.000    0.000    0.000 
#    0.000    0.000    0.000    0.000    0.000    0.000 
#
# Total GULP energy -78198.886744 kJ/mol
# GULP energy per Si atom -5585.634767 kJ/mol
# Density = 2.476509 g / cm^3
# Si number density = 24.821590 Si / 1000 Ang^3
#
#
#
# Elastic Constant Matrix: (Units=GPa)
#
#
# Indices 1 2 3 4 5 6 
#
# 1 100.7272 46.7920 36.2540 -5.9064 -18.4443 -7.2143
# 2 46.7920 104.7463 14.9260 20.5732 -4.4833 11.6519
# 3 36.2540 14.9260 78.4994 8.5512 -13.4072 5.8272
# 4 -5.9064 20.5732 8.5512 36.7107 -9.7144 -10.2000
# 5 -18.4443 -4.4833 -13.4072 -9.7144 43.4417 -0.9813
# 6 -7.2143 11.6519 5.8272 -10.2000 -0.9813 41.9475
#
#
#
# Elastic Compliance Matrix: (Units=1/GPa)
#
#
# Indices 1 2 3 4 5 6 
#
# 1 0.025670 -0.015767 -0.010590 0.022954 0.011500 0.016116
# 2 -0.015767 0.021501 0.005332 -0.022145 -0.008121 -0.015000
# 3 -0.010590 0.005332 0.018349 -0.011677 -0.001091 -0.008716
# 4 0.022954 -0.022145 -0.011677 0.057955 0.017409 0.026221
# 5 0.011500 -0.008121 -0.001091 0.017409 0.030831 0.009340
# 6 0.016116 -0.015000 -0.008716 0.026221 0.009340 0.038583
#
#
# Mechanical properties :
#
#
# Convention : Reuss Voigt Hill
#
# Bulk Modulus (GPa) = 42.60734 53.32408 47.96571
# Shear Modulus (GPa) = 20.59633 36.82004 28.70819
#
# Velocity S-wave (km/s) = 2.88371 3.85566 3.40454
# Velocity P-wave (km/s) = 5.31887 6.43048 5.90091
#
# Compressibility (1/GPa) = 0.02347013
#
# Stress axis : x y z
#
# Youngs Moduli (GPa) = 38.95602 46.50969 54.50015
#
# Poissons Ratio (x) = 0.73332 0.57716
# Poissons Ratio (y) = 0.61422 -0.29062
# Poissons Ratio (z) = 0.41255 -0.24801
#
# Static dielectric constant tensor:
#      x y z
#    x 1.935020 -0.013690 -0.035120 
#    y -0.013690 2.013140 0.079610 
#    z -0.035120 0.079610 1.994730 
# 
# From -- ./inp_files/71137.got.cif
#   From: 2010.05.17/outbox.cif.g08.bks.cpg/sg2_36_cif.got.tgz:71137.got - 2010.06.03 11:33:40.
