data_PCOD9066833
_publ_section_title
;
Structure prediction by ZEFSAII (Michael W. Deem and Ramdas Pophale) SiO2 
 PCOD9066833
Probable space group: P -1
;
_chemical_formula_sum "Si O2"
_cell_formula_units_Z 13
_cell_length_a 11.163870
_cell_length_b 13.780875
_cell_length_c 9.030914
_cell_angle_alpha 86.977867
_cell_angle_beta 70.311556
_cell_angle_gamma 146.303768
_cell_volume 559.132616
_symmetry_space_group_name_H-M "P -1"
_symmetry_group_IT_number 2
_symmetry_cell_setting 'triclinic'
loop_
_space_group_symop_operation_xyz
x,y,z
-x,-y,-z
loop_
_atom_site_type_symbol
_atom_site_label
_atom_site_fract_x
_atom_site_fract_y
_atom_site_fract_z
Si Si1 0.350464 0.254716 0.823549
Si Si2 0.218741 0.947916 0.447481
Si Si3 0.894295 0.571652 0.406651
Si Si4 0.000000 0.000000 0.500000
Si Si5 0.893696 0.395899 0.216780
Si Si6 0.605861 0.501914 0.293214
Si Si7 0.776482 0.577633 0.881377
O O1 0.578869 0.338041 0.642535
O O2 0.409714 0.393593 0.694144
O O3 0.482039 0.358159 0.925201
O O4 0.000000 0.000000 0.000000
O O5 0.111581 0.781462 0.408496
O O6 0.968525 0.788583 0.692619
O O7 0.195800 0.034544 0.367414
O O8 0.537182 0.150641 0.370901
O O9 0.992934 0.540179 0.291034
O O10 0.831239 0.600333 0.294047
O O11 0.282336 0.232193 0.458316
O O12 0.027603 0.384095 0.198684
O O13 0.000000 0.500000 0.000000
O O14 0.706981 0.559845 0.076252
#
# Coordination Sequence:
#
# PCOD9066833 Si02
#       7
#     2   2   2   1   2   2   2
#     4  11  27  43  70 108 144 178 239 301 363 416
#     4  11  26  44  74 103 144 187 236 300 351 426
#     4  11  25  47  71 105 141 187 238 291 356 432
#     4  12  22  42  72 100 144 186 230 288 366 412
#     4  12  25  48  72 100 143 195 238 292 358 424
#     4  12  24  42  73  99 146 183 239 293 364 422
#     4  11  25  47  66 106 139 191 240 288 357 427
#
# _framework density 23.250299999999999
#
# number of rings (size 3 to 8) (size 9 to 14) (size 15 to 20)
#    0.000    0.615    6.154    1.385    4.308    4.308 
#    2.769    0.000    0.000    0.000    0.000    0.000 
#    0.000    0.000    0.000    0.000    0.000    0.000 
#
# Total GULP energy -72506.124131 kJ/mol
# GULP energy per Si atom -5577.394164 kJ/mol
# Density = 2.319738 g / cm^3
# Si number density = 23.250300 Si / 1000 Ang^3
#
#
#
# Elastic Constant Matrix: (Units=GPa)
#
#
# Indices 1 2 3 4 5 6 
#
# 1 51.0712 0.1209 -10.0687 -2.6544 -27.2490 5.4279
# 2 0.1209 117.7183 33.4755 -7.7527 -13.0453 6.5909
# 3 -10.0687 33.4755 60.9755 17.9416 -2.0214 -0.9315
# 4 -2.6544 -7.7527 17.9416 45.5457 0.6494 -7.2438
# 5 -27.2490 -13.0453 -2.0214 0.6494 37.2979 12.9279
# 6 5.4279 6.5909 -0.9315 -7.2438 12.9279 39.6521
#
#
#
# Elastic Compliance Matrix: (Units=1/GPa)
#
#
# Indices 1 2 3 4 5 6 
#
# 1 0.045920 0.003335 0.007982 -0.003886 0.042578 -0.021245
# 2 0.003335 0.011839 -0.006989 0.004168 0.007620 -0.004312
# 3 0.007982 -0.006989 0.025001 -0.011198 0.006109 -0.003381
# 4 -0.003886 0.004168 -0.011198 0.027898 -0.004615 0.006177
# 5 0.042578 0.007620 0.006109 -0.004615 0.071812 -0.031208
# 6 -0.021245 -0.004312 -0.003381 0.006177 -0.031208 0.040068
#
#
# Mechanical properties :
#
#
# Convention : Reuss Voigt Hill
#
# Bulk Modulus (GPa) = 10.93894 30.75783 20.84838
# Shear Modulus (GPa) = 20.46218 38.24829 29.35523
#
# Velocity S-wave (km/s) = 2.96984 4.06034 3.55713
# Velocity P-wave (km/s) = 4.05894 5.93629 5.08500
#
# Compressibility (1/GPa) = 0.09141658
#
# Stress axis : x y z
#
# Youngs Moduli (GPa) = 21.77702 84.46497 39.99903
#
# Poissons Ratio (x) = -0.28168 -0.31928
# Poissons Ratio (y) = -0.07262 0.27954
# Poissons Ratio (z) = -0.17383 0.59031
#
# Static dielectric constant tensor:
#      x y z
#    x 1.923380 -0.042880 0.040010 
#    y -0.042880 1.874100 0.018950 
#    z 0.040010 0.018950 1.972230 
# 
# From -- ./inp_files/270335.got.cif
#   From: 2010.05.17/outbox.cif.g08.bks.cpg/sg2_136_cif.got.tgz:270335.got - 2010.06.03 11:33:40.
