data_PCOD9066937
_publ_section_title
;
Structure prediction by ZEFSAII (Michael W. Deem and Ramdas Pophale) SiO2 
 PCOD9066937
Probable space group: P -1
;
_chemical_formula_sum "Si O2"
_cell_formula_units_Z 14
_cell_length_a 6.418495
_cell_length_b 14.127876
_cell_length_c 14.656333
_cell_angle_alpha 151.770485
_cell_angle_beta 112.987049
_cell_angle_gamma 76.329695
_cell_volume 560.726131
_symmetry_space_group_name_H-M "P -1"
_symmetry_group_IT_number 2
_symmetry_cell_setting 'triclinic'
loop_
_space_group_symop_operation_xyz
x,y,z
-x,-y,-z
loop_
_atom_site_type_symbol
_atom_site_label
_atom_site_fract_x
_atom_site_fract_y
_atom_site_fract_z
Si Si1 0.955130 0.777657 0.686971
Si Si2 0.438302 0.556949 0.341970
Si Si3 0.761374 0.114349 0.340015
Si Si4 0.056584 0.272134 0.149088
Si Si5 0.550701 0.281210 0.798570
Si Si6 0.422095 0.740152 0.011186
Si Si7 0.116630 0.965664 0.395117
O O1 0.697153 0.671760 0.516497
O O2 0.142670 0.759887 0.627153
O O3 0.976218 0.695024 0.721501
O O4 0.003877 0.026153 0.915682
O O5 0.290807 0.727369 0.460342
O O6 0.305641 0.387551 0.248856
O O7 0.456344 0.437452 0.150431
O O8 0.525988 0.937600 0.132917
O O9 0.947807 0.997706 0.312354
O O10 0.852574 0.340819 0.117900
O O11 0.523967 0.182345 0.811639
O O12 0.797159 0.244992 0.776219
O O13 0.351222 0.150524 0.588434
O O14 0.500000 0.500000 0.000000
O O15 0.000000 0.000000 0.500000
#
# Coordination Sequence:
#
# PCOD9066937 Si02
#       7
#     2   2   2   2   2   2   2
#     4  11  25  47  74 103 148 192 245 299 368 427
#     4  12  27  44  75 104 145 197 242 296 369 432
#     4  12  26  46  73 105 148 193 238 305 365 433
#     4  11  25  47  73 107 143 193 246 303 357 439
#     4  11  28  45  75 106 143 191 244 300 362 442
#     4  12  26  46  71 108 149 184 248 299 365 438
#     4  11  26  48  72 104 145 187 241 299 365 428
#
# _framework density 24.967625000000002
#
# number of rings (size 3 to 8) (size 9 to 14) (size 15 to 20)
#    0.000    0.571    4.286    2.143    6.000    4.571 
#    0.000    0.000    0.000    0.000    0.000    0.000 
#    0.000    0.000    0.000    0.000    0.000    0.000 
#
# Total GULP energy -78405.013183 kJ/mol
# GULP energy per Si atom -5600.358084 kJ/mol
# Density = 2.491080 g / cm^3
# Si number density = 24.967625 Si / 1000 Ang^3
#
#
#
# Elastic Constant Matrix: (Units=GPa)
#
#
# Indices 1 2 3 4 5 6 
#
# 1 101.6526 15.4290 45.1521 12.2361 -19.9900 17.2267
# 2 15.4290 47.0685 11.9721 2.5230 -2.6034 17.5723
# 3 45.1521 11.9721 111.3709 11.2389 -8.8880 4.7258
# 4 12.2361 2.5230 11.2389 43.8841 1.0803 -6.0674
# 5 -19.9900 -2.6034 -8.8880 1.0803 64.1262 9.0654
# 6 17.2267 17.5723 4.7258 -6.0674 9.0654 40.2969
#
#
#
# Elastic Compliance Matrix: (Units=1/GPa)
#
#
# Indices 1 2 3 4 5 6 
#
# 1 0.014739 -0.000393 -0.004822 -0.003983 0.005008 -0.007290
# 2 -0.000393 0.026661 -0.001712 -0.002738 0.002498 -0.012232
# 3 -0.004822 -0.001712 0.011168 -0.001225 -0.000196 0.001358
# 4 -0.003983 -0.002738 -0.001225 0.025488 -0.003020 0.007557
# 5 0.005008 0.002498 -0.000196 -0.003020 0.018383 -0.007797
# 6 -0.007290 -0.012232 0.001358 0.007557 -0.007797 0.035999
#
#
# Mechanical properties :
#
#
# Convention : Reuss Voigt Hill
#
# Bulk Modulus (GPa) = 25.83019 45.02206 35.42612
# Shear Modulus (GPa) = 31.40760 42.16403 36.78581
#
# Velocity S-wave (km/s) = 3.55058 4.11390 3.84258
# Velocity P-wave (km/s) = 5.21314 6.37470 5.82296
#
# Compressibility (1/GPa) = 0.03871439
#
# Stress axis : x y z
#
# Youngs Moduli (GPa) = 67.84862 37.50758 89.53836
#
# Poissons Ratio (x) = 0.01472 0.43177
# Poissons Ratio (y) = 0.02663 0.15331
# Poissons Ratio (z) = 0.32718 0.06422
#
# Static dielectric constant tensor:
#      x y z
#    x 1.997270 0.015350 -0.026920 
#    y 0.015350 1.958860 0.058750 
#    z -0.026920 0.058750 1.983740 
# 
# From -- ./inp_files/97765.got.cif
#   From: 2010.05.17/outbox.cif.g08.bks.cpg/sg2_49_cif.got.tgz:97765.got - 2010.06.03 11:33:40.
