data_PCOD9066461
_publ_section_title
;
Structure prediction by ZEFSAII (Michael W. Deem and Ramdas Pophale) SiO2 
 PCOD9066461
Probable space group: P -1
;
_chemical_formula_sum "Si O2"
_cell_formula_units_Z 11
_cell_length_a 15.588327
_cell_length_b 16.341002
_cell_length_c 5.239120
_cell_angle_alpha 83.659192
_cell_angle_beta 100.066590
_cell_angle_gamma 161.386963
_cell_volume 412.876664
_symmetry_space_group_name_H-M "P -1"
_symmetry_group_IT_number 2
_symmetry_cell_setting 'triclinic'
loop_
_space_group_symop_operation_xyz
x,y,z
-x,-y,-z
loop_
_atom_site_type_symbol
_atom_site_label
_atom_site_fract_x
_atom_site_fract_y
_atom_site_fract_z
Si Si1 0.451861 0.603230 0.767846
Si Si2 0.095872 0.172366 0.367520
Si Si3 0.396454 0.992827 0.339772
Si Si4 0.686443 0.933490 0.388040
Si Si5 0.807029 0.482229 0.091448
Si Si6 0.500000 0.500000 0.000000
O O1 0.325474 0.408923 0.627624
O O2 0.656752 0.840782 0.630065
O O3 0.217835 0.455943 0.780931
O O4 0.600235 0.688111 0.039293
O O5 0.235459 0.280476 0.133993
O O6 0.000000 0.000000 0.500000
O O7 0.919999 0.100426 0.283735
O O8 0.119828 0.737441 0.113719
O O9 0.500000 0.000000 0.500000
O O10 0.289540 0.953678 0.529765
O O11 0.639140 0.260282 0.231697
O O12 0.387325 0.669635 0.192462
#
# Coordination Sequence:
#
# PCOD9066461 Si02
#       6
#     2   2   2   2   2   1
#     4  11  25  46  66 110 155 199 267 319 375 467
#     4  12  26  46  69 107 158 206 263 325 381 460
#     4  11  26  50  78 115 152 194 259 325 395 484
#     4  11  26  48  75 109 159 202 255 327 390 461
#     4  11  26  45  79 110 152 206 249 320 407 460
#     4  12  26  40  74 102 144 210 264 304 386 444
#
# _framework density 26.642340999999998
#
# number of rings (size 3 to 8) (size 9 to 14) (size 15 to 20)
#    0.000    0.727    3.636    2.182    7.636    2.182 
#    0.000    0.000    0.000    0.000    0.000    0.000 
#    0.000    0.000    0.000    0.000    0.000    0.000 
#
# Total GULP energy -61411.879267 kJ/mol
# GULP energy per Si atom -5582.898115 kJ/mol
# Density = 2.658170 g / cm^3
# Si number density = 26.642341 Si / 1000 Ang^3
#
#
#
# Elastic Constant Matrix: (Units=GPa)
#
#
# Indices 1 2 3 4 5 6 
#
# 1 186.1022 81.1188 54.1825 -14.7727 47.5971 -8.6827
# 2 81.1188 93.5718 35.4706 -11.5860 12.1296 1.9192
# 3 54.1825 35.4706 79.1883 -20.5757 8.9483 1.4226
# 4 -14.7727 -11.5860 -20.5757 57.6986 -2.2231 10.3948
# 5 47.5971 12.1296 8.9483 -2.2231 40.2404 -4.0978
# 6 -8.6827 1.9192 1.4226 10.3948 -4.0978 42.6596
#
#
#
# Elastic Compliance Matrix: (Units=1/GPa)
#
#
# Indices 1 2 3 4 5 6 
#
# 1 0.013623 -0.008737 -0.004225 -0.000660 -0.012345 0.002282
# 2 -0.008737 0.018810 -0.002667 0.001207 0.005085 -0.002341
# 3 -0.004225 -0.002667 0.017921 0.005286 0.001859 -0.002447
# 4 -0.000660 0.001207 0.005286 0.020240 -0.000182 -0.005314
# 5 -0.012345 0.005085 0.001859 -0.000182 0.037582 0.000851
# 6 0.002282 -0.002341 -0.002447 -0.005314 0.000851 0.025469
#
#
# Mechanical properties :
#
#
# Convention : Reuss Voigt Hill
#
# Bulk Modulus (GPa) = 52.36479 77.82290 65.09384
# Shear Modulus (GPa) = 29.19387 40.65908 34.92648
#
# Velocity S-wave (km/s) = 3.31383 3.91078 3.62462
# Velocity P-wave (km/s) = 5.85998 7.04741 6.48095
#
# Compressibility (1/GPa) = 0.01909680
#
# Stress axis : x y z
#
# Youngs Moduli (GPa) = 73.40540 53.16325 55.80034
#
# Poissons Ratio (x) = 0.46446 0.23578
# Poissons Ratio (y) = 0.64131 0.14880
# Poissons Ratio (z) = 0.31016 0.14177
#
# Static dielectric constant tensor:
#      x y z
#    x 1.813540 -0.082570 -0.398670 
#    y -0.082570 2.298900 0.012930 
#    z -0.398670 0.012930 1.500310 
# 
# From -- ./inp_files/3338.got.cif
#   From: 2010.05.17/outbox.cif.g08.bks.cpg/sg2_2_cif.got.tgz:3338.got - 2010.06.03 11:33:40.
