data_PCOD9066994
_publ_section_title
;
Structure prediction by ZEFSAII (Michael W. Deem and Ramdas Pophale) SiO2 
 PCOD9066994
Probable space group: P -1
;
_chemical_formula_sum "Si O2"
_cell_formula_units_Z 16
_cell_length_a 8.413924
_cell_length_b 8.856326
_cell_length_c 14.625286
_cell_angle_alpha 47.157624
_cell_angle_beta 102.508597
_cell_angle_gamma 70.029271
_cell_volume 569.908664
_symmetry_space_group_name_H-M "P -1"
_symmetry_group_IT_number 2
_symmetry_cell_setting 'triclinic'
loop_
_space_group_symop_operation_xyz
x,y,z
-x,-y,-z
loop_
_atom_site_type_symbol
_atom_site_label
_atom_site_fract_x
_atom_site_fract_y
_atom_site_fract_z
Si Si1 0.258959 0.398682 0.818259
Si Si2 0.312874 0.838450 0.367108
Si Si3 0.269330 0.794792 0.575195
Si Si4 0.608301 0.983000 0.347987
Si Si5 0.126764 0.601899 0.381356
Si Si6 0.780670 0.336016 0.825637
Si Si7 0.048325 0.319631 0.993932
Si Si8 0.358338 0.954931 0.868381
O O1 0.146500 0.701725 0.640611
O O2 0.316193 0.204954 0.817470
O O3 0.156230 0.346667 0.908988
O O4 0.482007 0.294382 0.938322
O O5 0.177232 0.942264 0.404521
O O6 0.455323 0.919629 0.378220
O O7 0.317071 0.583566 0.455083
O O8 0.201935 0.008681 0.186475
O O9 0.527056 0.493110 0.708799
O O10 0.326107 0.923438 0.601730
O O11 0.833106 0.665671 0.474874
O O12 0.526735 0.141316 0.175994
O O13 0.159140 0.570397 0.289785
O O14 0.888392 0.913359 0.234732
O O15 0.812305 0.436554 0.880817
O O16 0.000000 0.000000 0.000000
O O17 0.000000 0.500000 0.000000
#
# Coordination Sequence:
#
# PCOD9066994 Si02
#       8
#     2   2   2   2   2   2   2   2
#     4  11  26  48  77 106 153 199 251 304 382 451
#     4  12  26  48  75 114 146 202 249 312 379 453
#     4  12  29  48  77 112 156 199 248 312 389 445
#     4  12  26  47  74 108 155 196 252 315 382 443
#     4  12  25  43  75 107 151 192 261 306 370 447
#     4  12  25  46  75 109 148 197 253 307 367 457
#     4  12  27  48  78 115 153 192 251 317 380 444
#     4  11  25  47  74 110 148 200 254 311 367 452
#
# _framework density 28.074674999999999
#
# number of rings (size 3 to 8) (size 9 to 14) (size 15 to 20)
#    0.000    0.250    5.000    3.375    5.250    1.500 
#    0.000    1.875    0.000    0.000    0.000    0.000 
#    0.000    0.000    0.000    0.000    0.000    0.000 
#
# Total GULP energy -89365.815696 kJ/mol
# GULP energy per Si atom -5585.363481 kJ/mol
# Density = 2.801078 g / cm^3
# Si number density = 28.074675 Si / 1000 Ang^3
#
#
#
# Elastic Constant Matrix: (Units=GPa)
#
#
# Indices 1 2 3 4 5 6 
#
# 1 120.2807 42.4280 30.3967 13.0037 4.1880 -22.1223
# 2 42.4280 175.1278 10.6403 34.7971 -14.4715 3.1216
# 3 30.3967 10.6403 95.2797 24.0543 -4.8815 14.9366
# 4 13.0037 34.7971 24.0543 56.4844 1.5787 5.7806
# 5 4.1880 -14.4715 -4.8815 1.5787 68.6639 7.9697
# 6 -22.1223 3.1216 14.9366 5.7806 7.9697 63.7920
#
#
#
# Elastic Compliance Matrix: (Units=1/GPa)
#
#
# Indices 1 2 3 4 5 6 
#
# 1 0.011469 -0.002901 -0.004434 0.000547 -0.002264 0.005391
# 2 -0.002901 0.007410 0.001587 -0.004469 0.002140 -0.001603
# 3 -0.004434 0.001587 0.013967 -0.005490 0.002266 -0.004671
# 4 0.000547 -0.004469 -0.005490 0.022735 -0.001873 -0.000132
# 5 -0.002264 0.002140 0.002266 -0.001873 0.015730 -0.003216
# 6 0.005391 -0.001603 -0.004671 -0.000132 -0.003216 0.019131
#
#
# Mechanical properties :
#
#
# Convention : Reuss Voigt Hill
#
# Bulk Modulus (GPa) = 46.83840 61.95757 54.39798
# Shear Modulus (GPa) = 45.84822 58.26960 52.05891
#
# Velocity S-wave (km/s) = 4.04552 4.56073 4.31083
# Velocity P-wave (km/s) = 6.20817 7.06049 6.64800
#
# Compressibility (1/GPa) = 0.02135000
#
# Stress axis : x y z
#
# Youngs Moduli (GPa) = 87.19169 134.95612 71.59611
#
# Poissons Ratio (x) = 0.39151 0.31746
# Poissons Ratio (y) = 0.25294 -0.11363
# Poissons Ratio (z) = 0.38661 -0.21418
#
# Static dielectric constant tensor:
#      x y z
#    x 2.306360 -0.120420 0.146920 
#    y -0.120420 2.319560 -0.260160 
#    z 0.146920 -0.260160 2.384080 
# 
# From -- ./inp_files/494423.got.cif
#   From: 2010.05.17/outbox.cif.g08.bks.cpg/sg2_248_cif.got.tgz:494423.got - 2010.06.03 11:33:40.
