data_PCOD9066005
_publ_section_title
;
Structure prediction by ZEFSAII (Michael W. Deem and Ramdas Pophale) SiO2 
 PCOD9066005
Probable space group: P -1
;
_chemical_formula_sum "Si O2"
_cell_formula_units_Z 16
_cell_length_a 9.564835
_cell_length_b 5.503434
_cell_length_c 21.979022
_cell_angle_alpha 89.060648
_cell_angle_beta 34.677685
_cell_angle_gamma 87.306632
_cell_volume 657.033794
_symmetry_space_group_name_H-M "P -1"
_symmetry_group_IT_number 2
_symmetry_cell_setting 'triclinic'
loop_
_space_group_symop_operation_xyz
x,y,z
-x,-y,-z
loop_
_atom_site_type_symbol
_atom_site_label
_atom_site_fract_x
_atom_site_fract_y
_atom_site_fract_z
Si Si1 0.240008 0.802500 0.876704
Si Si2 0.388780 0.425592 0.602805
Si Si3 0.301687 0.238017 0.122777
Si Si4 0.863292 0.294876 0.512741
Si Si5 0.849944 0.186450 0.961656
Si Si6 0.892308 0.415393 0.191302
Si Si7 0.743739 0.042950 0.680409
Si Si8 0.885798 0.251983 0.749482
O O1 0.278975 0.637822 0.804000
O O2 0.472774 0.968225 0.796383
O O3 0.208271 0.672574 0.953431
O O4 0.989660 0.950475 0.942893
O O5 0.500000 0.500000 0.500000
O O6 0.617189 0.350060 0.563174
O O7 0.245243 0.624611 0.696353
O O8 0.173772 0.250065 0.663209
O O9 0.236413 0.494477 0.180631
O O10 0.157695 0.276251 0.110163
O O11 0.214369 0.996063 0.187238
O O12 0.594874 0.195320 0.017357
O O13 0.000000 0.500000 0.500000
O O14 0.056996 0.184231 0.393910
O O15 0.765917 0.128746 0.602813
O O16 0.038699 0.310424 0.849330
O O17 0.834800 0.234359 0.695870
#
# Coordination Sequence:
#
# PCOD9066005 Si02
#       8
#     2   2   2   2   2   2   2   2
#     4  11  25  44  74 107 152 193 254 309 386 447
#     4  11  26  48  75 110 150 201 250 317 378 453
#     4  11  27  47  77 109 153 198 252 309 376 450
#     4  11  25  44  72 106 145 194 256 311 382 447
#     4  11  25  46  70 113 143 206 244 318 373 458
#     4  11  26  44  73 106 149 196 254 312 380 453
#     4  11  25  44  71 104 144 198 249 318 374 450
#     4  11  27  49  74 113 148 202 251 311 378 448
#
# _framework density 24.351866999999999
#
# number of rings (size 3 to 8) (size 9 to 14) (size 15 to 20)
#    0.000    1.000    1.250    3.000   12.250    4.000 
#    2.250    0.000    0.000    0.000    0.000    0.000 
#    0.000    0.000    0.000    0.000    0.000    0.000 
#
# Total GULP energy -89353.259493 kJ/mol
# GULP energy per Si atom -5584.578718 kJ/mol
# Density = 2.429644 g / cm^3
# Si number density = 24.351867 Si / 1000 Ang^3
#
#
#
# Elastic Constant Matrix: (Units=GPa)
#
#
# Indices 1 2 3 4 5 6 
#
# 1 162.5523 15.8686 45.1916 11.2772 -18.0350 17.5816
# 2 15.8686 74.3052 29.3576 0.0707 -7.8333 6.3581
# 3 45.1916 29.3576 99.1790 0.1677 1.1050 11.3632
# 4 11.2772 0.0707 0.1677 30.3594 -2.0674 2.9821
# 5 -18.0350 -7.8333 1.1050 -2.0674 55.3183 0.3467
# 6 17.5816 6.3581 11.3632 2.9821 0.3467 39.7923
#
#
#
# Elastic Compliance Matrix: (Units=1/GPa)
#
#
# Indices 1 2 3 4 5 6 
#
# 1 0.007773 0.000128 -0.003336 -0.002466 0.002541 -0.002340
# 2 0.000128 0.015587 -0.004552 0.000228 0.002357 -0.001285
# 3 -0.003336 -0.004552 0.013156 0.001205 -0.001940 -0.001629
# 4 -0.002466 0.000228 0.001205 0.034062 0.000489 -0.001848
# 5 0.002541 0.002357 -0.001940 0.000489 0.019304 -0.001150
# 6 -0.002340 -0.001285 -0.001629 -0.001848 -0.001150 0.026983
#
#
# Mechanical properties :
#
#
# Convention : Reuss Voigt Hill
#
# Bulk Modulus (GPa) = 47.62378 57.43025 52.52702
# Shear Modulus (GPa) = 35.87222 41.46858 38.67040
#
# Velocity S-wave (km/s) = 3.84223 4.13109 3.98928
# Velocity P-wave (km/s) = 6.26759 6.81096 6.54492
#
# Compressibility (1/GPa) = 0.02099791
#
# Stress axis : x y z
#
# Youngs Moduli (GPa) = 128.65283 64.15540 76.00855
#
# Poissons Ratio (x) = -0.00824 0.25356
# Poissons Ratio (y) = -0.01653 0.34598
# Poissons Ratio (z) = 0.42917 0.29203
#
# Static dielectric constant tensor:
#      x y z
#    x 2.012950 0.017650 0.009960 
#    y 0.017650 2.094980 0.135940 
#    z 0.009960 0.135940 2.084420 
# 
# From -- ./inp_files/585679.got.cif
#   From: 2010.05.17/outbox.cif.g08.bks.cpg/sg2_293_cif.got.tgz:585679.got - 2010.06.03 11:33:40.
