data_PCOD9066519
_publ_section_title
;
Structure prediction by ZEFSAII (Michael W. Deem and Ramdas Pophale) SiO2 
 PCOD9066519
Probable space group: P -1
;
_chemical_formula_sum "Si O2"
_cell_formula_units_Z 12
_cell_length_a 12.090923
_cell_length_b 9.040112
_cell_length_c 5.525202
_cell_angle_alpha 72.569076
_cell_angle_beta 120.552471
_cell_angle_gamma 113.358153
_cell_volume 473.769834
_symmetry_space_group_name_H-M "P -1"
_symmetry_group_IT_number 2
_symmetry_cell_setting 'triclinic'
loop_
_space_group_symop_operation_xyz
x,y,z
-x,-y,-z
loop_
_atom_site_type_symbol
_atom_site_label
_atom_site_fract_x
_atom_site_fract_y
_atom_site_fract_z
Si Si1 0.120985 0.103234 0.253121
Si Si2 0.618153 0.681588 0.834882
Si Si3 0.337425 0.594553 0.656287
Si Si4 0.578890 0.992750 0.842386
Si Si5 0.046401 0.383489 0.289045
Si Si6 0.213206 0.812190 0.710272
O O1 0.249539 0.234439 0.211497
O O2 0.052605 0.208672 0.290135
O O3 0.183796 0.973920 0.507804
O O4 0.000000 0.000000 0.000000
O O5 0.463583 0.638381 0.590543
O O6 0.616708 0.824073 0.955423
O O7 0.628665 0.516111 0.040565
O O8 0.198520 0.480557 0.462469
O O9 0.308530 0.748649 0.671051
O O10 0.500000 0.000000 0.500000
O O11 0.715619 0.141841 0.970090
O O12 0.500000 0.000000 0.000000
O O13 0.927487 0.330374 0.378068
O O14 0.000000 0.500000 0.000000
#
# Coordination Sequence:
#
# PCOD9066519 Si02
#       6
#     2   2   2   2   2   2
#     4  12  25  46  76 111 152 207 264 322 391 467
#     4  11  25  46  73 105 155 194 256 320 390 463
#     4  11  25  46  70 108 152 198 255 315 404 461
#     4  12  26  47  76 112 152 202 263 322 389 461
#     4  12  26  44  72 105 152 203 256 319 396 468
#     4  12  25  47  75 107 152 202 264 326 383 473
#
# _framework density 25.328755999999998
#
# number of rings (size 3 to 8) (size 9 to 14) (size 15 to 20)
#    0.000    0.333    1.667    7.000    2.333    0.667 
#    0.000    0.000    0.000    0.000    0.000    0.000 
#    0.000    0.000    0.000    0.000    0.000    0.000 
#
# Total GULP energy -67146.074219 kJ/mol
# GULP energy per Si atom -5595.506185 kJ/mol
# Density = 2.527111 g / cm^3
# Si number density = 25.328756 Si / 1000 Ang^3
#
#
#
# Elastic Constant Matrix: (Units=GPa)
#
#
# Indices 1 2 3 4 5 6 
#
# 1 159.8047 21.0223 34.4351 -3.0308 14.0651 21.7722
# 2 21.0223 118.6338 44.9061 3.5395 12.8531 0.2002
# 3 34.4351 44.9061 124.1272 8.5811 32.1358 -4.2269
# 4 -3.0308 3.5395 8.5811 62.8587 8.3522 15.5476
# 5 14.0651 12.8531 32.1358 8.3522 39.5096 1.3902
# 6 21.7722 0.2002 -4.2269 15.5476 1.3902 75.7119
#
#
#
# Elastic Compliance Matrix: (Units=1/GPa)
#
#
# Indices 1 2 3 4 5 6 
#
# 1 0.007144 -0.000548 -0.001640 0.001357 -0.001234 -0.002401
# 2 -0.000548 0.009817 -0.003323 -0.000081 -0.000277 -0.000032
# 3 -0.001640 -0.003323 0.011853 -0.000827 -0.007853 0.001456
# 4 0.001357 -0.000081 -0.000827 0.017519 -0.003348 -0.003972
# 5 -0.001234 -0.000277 -0.007853 -0.003348 0.032934 0.000000
# 6 -0.002401 -0.000032 0.001456 -0.003972 0.000000 0.014795
#
#
# Mechanical properties :
#
#
# Convention : Reuss Voigt Hill
#
# Bulk Modulus (GPa) = 56.20440 67.03252 61.61846
# Shear Modulus (GPa) = 45.03852 55.76287 50.40070
#
# Velocity S-wave (km/s) = 4.22140 4.69717 4.46562
# Velocity P-wave (km/s) = 6.78221 7.47933 7.13928
#
# Compressibility (1/GPa) = 0.01779220
#
# Stress axis : x y z
#
# Youngs Moduli (GPa) = 139.96823 101.86581 84.36582
#
# Poissons Ratio (x) = 0.05583 0.13835
# Poissons Ratio (y) = 0.07671 0.28036
# Poissons Ratio (z) = 0.22953 0.33852
#
# Static dielectric constant tensor:
#      x y z
#    x 2.056480 0.090340 0.017330 
#    y 0.090340 2.050160 0.074540 
#    z 0.017330 0.074540 2.003300 
# 
# From -- ./inp_files/60265.got.cif
#   From: 2010.05.17/outbox.cif.g08.bks.cpg/sg2_31_cif.got.tgz:60265.got - 2010.06.03 11:33:40.
