data_PCOD9066297
_publ_section_title
;
Structure prediction by ZEFSAII (Michael W. Deem and Ramdas Pophale) SiO2 
 PCOD9066297
Probable space group: P -1
;
_chemical_formula_sum "Si O2"
_cell_formula_units_Z 12
_cell_length_a 11.053113
_cell_length_b 19.757100
_cell_length_c 8.889779
_cell_angle_alpha 145.142670
_cell_angle_beta 141.541286
_cell_angle_gamma 23.381420
_cell_volume 436.486897
_symmetry_space_group_name_H-M "P -1"
_symmetry_group_IT_number 2
_symmetry_cell_setting 'triclinic'
loop_
_space_group_symop_operation_xyz
x,y,z
-x,-y,-z
loop_
_atom_site_type_symbol
_atom_site_label
_atom_site_fract_x
_atom_site_fract_y
_atom_site_fract_z
Si Si1 0.106341 0.040102 0.809880
Si Si2 0.874869 0.588085 0.372615
Si Si3 0.695227 0.112593 0.786101
Si Si4 0.841112 0.310725 0.549657
Si Si5 0.678100 0.706017 0.946721
Si Si6 0.225106 0.627879 0.081764
O O1 0.445664 0.867235 0.890020
O O2 0.000000 0.000000 0.500000
O O3 0.879589 0.118073 0.870862
O O4 0.053393 0.194582 0.967961
O O5 0.578578 0.805708 0.442822
O O6 0.000000 0.500000 0.500000
O O7 0.761394 0.508286 0.084997
O O8 0.141066 0.479687 0.311604
O O9 0.512757 0.237102 0.986288
O O10 0.935884 0.897589 0.676603
O O11 0.500000 0.500000 0.500000
O O12 0.775176 0.295534 0.628287
O O13 0.079018 0.309103 0.789640
O O14 0.500000 0.500000 0.000000
#
# Coordination Sequence:
#
# PCOD9066297 Si02
#       6
#     2   2   2   2   2   2
#     4  12  25  48  76 110 150 201 248 312 374 450
#     4  11  26  46  75 110 150 195 252 314 367 448
#     4  12  25  48  74 108 152 202 247 310 381 445
#     4  11  28  50  75 108 150 198 254 317 374 441
#     4  11  28  46  74 110 150 197 256 309 374 447
#     4  11  25  45  73 108 148 191 253 308 374 438
#
# _framework density 27.492235999999998
#
# number of rings (size 3 to 8) (size 9 to 14) (size 15 to 20)
#    0.000    0.667    3.333    2.500    4.667    6.667 
#    0.000    0.000    0.000    0.000    0.000    0.000 
#    0.000    0.000    0.000    0.000    0.000    0.000 
#
# Total GULP energy -67066.635689 kJ/mol
# GULP energy per Si atom -5588.886307 kJ/mol
# Density = 2.742966 g / cm^3
# Si number density = 27.492236 Si / 1000 Ang^3
#
#
#
# Elastic Constant Matrix: (Units=GPa)
#
#
# Indices 1 2 3 4 5 6 
#
# 1 136.7037 50.0133 47.7349 -6.3745 -40.2692 -15.1980
# 2 50.0133 262.6684 54.5601 -51.9097 -19.4488 13.1937
# 3 47.7349 54.5601 78.5940 -19.8049 -34.3544 -6.8656
# 4 -6.3745 -51.9097 -19.8049 53.1909 0.1763 -15.0217
# 5 -40.2692 -19.4488 -34.3544 0.1763 59.2786 -5.5638
# 6 -15.1980 13.1937 -6.8656 -15.0217 -5.5638 52.7084
#
#
#
# Elastic Compliance Matrix: (Units=1/GPa)
#
#
# Indices 1 2 3 4 5 6 
#
# 1 0.010852 -0.001212 -0.002987 0.000014 0.005584 0.003637
# 2 -0.001212 0.005288 -0.002229 0.003935 -0.000476 -0.000892
# 3 -0.002987 -0.002229 0.023705 0.008031 0.011544 0.006292
# 4 0.000014 0.003935 0.008031 0.028089 0.006695 0.008777
# 5 0.005584 -0.000476 0.011544 0.006695 0.027936 0.008090
# 6 0.003637 -0.000892 0.006292 0.008777 0.008090 0.024419
#
#
# Mechanical properties :
#
#
# Convention : Reuss Voigt Hill
#
# Bulk Modulus (GPa) = 37.05451 86.95364 62.00408
# Shear Modulus (GPa) = 35.17603 54.74611 44.96107
#
# Velocity S-wave (km/s) = 3.58088 4.46727 4.04841
# Velocity P-wave (km/s) = 5.53212 7.63582 6.66746
#
# Compressibility (1/GPa) = 0.02698726
#
# Stress axis : x y z
#
# Youngs Moduli (GPa) = 92.15302 189.10100 42.18535
#
# Poissons Ratio (x) = 0.22922 0.12602
# Poissons Ratio (y) = 0.11170 0.09404
# Poissons Ratio (z) = 0.27529 0.42153
#
# Static dielectric constant tensor:
#      x y z
#    x 2.180280 -0.031190 0.091840 
#    y -0.031190 2.193840 0.043820 
#    z 0.091840 0.043820 2.541870 
# 
# From -- ./inp_files/282343.got.cif
#   From: 2010.05.17/outbox.cif.g08.bks.cpg/sg2_142_cif.got.tgz:282343.got - 2010.06.03 11:33:40.
