data_PCOD9066727
_publ_section_title
;
Structure prediction by ZEFSAII (Michael W. Deem and Ramdas Pophale) SiO2 
 PCOD9066727
Probable space group: P -1
;
_chemical_formula_sum "Si O2"
_cell_formula_units_Z 14
_cell_length_a 14.004480
_cell_length_b 22.011735
_cell_length_c 6.006427
_cell_angle_alpha 78.640313
_cell_angle_beta 88.662940
_cell_angle_gamma 157.680274
_cell_volume 574.832778
_symmetry_space_group_name_H-M "P -1"
_symmetry_group_IT_number 2
_symmetry_cell_setting 'triclinic'
loop_
_space_group_symop_operation_xyz
x,y,z
-x,-y,-z
loop_
_atom_site_type_symbol
_atom_site_label
_atom_site_fract_x
_atom_site_fract_y
_atom_site_fract_z
Si Si1 0.881542 0.382104 0.399824
Si Si2 0.817855 0.824144 0.079073
Si Si3 0.286293 0.084080 0.498351
Si Si4 0.140609 0.343546 0.087616
Si Si5 0.658458 0.406471 0.031557
Si Si6 0.511185 0.974068 0.262636
Si Si7 0.225260 0.293830 0.453014
O O1 0.582791 0.227535 0.423840
O O2 0.770441 0.245988 0.576837
O O3 0.000000 0.500000 0.500000
O O4 0.155572 0.537100 0.107244
O O5 0.712431 0.699942 0.319649
O O6 0.517823 0.667396 0.100309
O O7 0.000000 0.000000 0.000000
O O8 0.049228 0.936404 0.814053
O O9 0.405968 0.227178 0.344625
O O10 0.081605 0.933932 0.417637
O O11 0.139967 0.309619 0.354102
O O12 0.122567 0.406831 0.023349
O O13 0.465777 0.530146 0.825778
O O14 0.830678 0.133567 0.137714
O O15 0.500000 0.000000 0.500000
O O16 0.500000 0.000000 0.000000
#
# Coordination Sequence:
#
# PCOD9066727 Si02
#       7
#     2   2   2   2   2   2   2
#     4  12  29  49  77 117 155 215 268 336 408 482
#     4  12  24  43  76 108 147 199 260 325 392 474
#     4  12  25  48  72 109 153 195 261 329 395 479
#     4  11  25  49  76 110 156 205 263 332 403 484
#     4  12  25  46  76 110 155 205 266 325 408 479
#     4  12  29  52  81 115 161 216 271 331 408 494
#     4  11  25  46  74 111 151 200 262 330 400 478
#
# _framework density 24.354908999999999
#
# number of rings (size 3 to 8) (size 9 to 14) (size 15 to 20)
#    0.000    0.286    5.714    2.571    4.000    2.857 
#    0.000    0.000    0.000    0.000    0.000    0.000 
#    0.000    0.000    0.000    0.000    0.000    0.000 
#
# Total GULP energy -78059.875017 kJ/mol
# GULP energy per Si atom -5575.705358 kJ/mol
# Density = 2.429948 g / cm^3
# Si number density = 24.354909 Si / 1000 Ang^3
#
#
#
# Elastic Constant Matrix: (Units=GPa)
#
#
# Indices 1 2 3 4 5 6 
#
# 1 106.6734 -0.3845 89.4876 3.2058 6.4274 13.1779
# 2 -0.3845 122.8988 -26.2102 -13.8464 -4.7127 16.6718
# 3 89.4876 -26.2102 277.3235 -18.5890 43.4832 6.6830
# 4 3.2058 -13.8464 -18.5890 35.5590 2.1625 6.2701
# 5 6.4274 -4.7127 43.4832 2.1625 47.6390 -11.6480
# 6 13.1779 16.6718 6.6830 6.2701 -11.6480 57.6540
#
#
#
# Elastic Compliance Matrix: (Units=1/GPa)
#
#
# Indices 1 2 3 4 5 6 
#
# 1 0.013965 -0.001352 -0.005352 -0.004556 0.002800 -0.001120
# 2 -0.001352 0.009678 0.002145 0.005799 -0.002004 -0.003774
# 3 -0.005352 0.002145 0.006931 0.005678 -0.006153 -0.002061
# 4 -0.004556 0.005799 0.005678 0.035361 -0.007213 -0.006597
# 5 0.002800 -0.002004 -0.006153 -0.007213 0.028099 0.007114
# 6 -0.001120 -0.003774 -0.002061 -0.006597 0.007114 0.021086
#
#
# Mechanical properties :
#
#
# Convention : Reuss Voigt Hill
#
# Bulk Modulus (GPa) = 46.60381 70.29795 58.45088
# Shear Modulus (GPa) = 38.05477 57.77061 47.91269
#
# Velocity S-wave (km/s) = 3.95715 4.87563 4.44020
# Velocity P-wave (km/s) = 6.32894 7.78604 7.09499
#
# Compressibility (1/GPa) = 0.02145747
#
# Stress axis : x y z
#
# Youngs Moduli (GPa) = 71.60527 103.32312 144.28825
#
# Poissons Ratio (x) = 0.13965 0.77216
# Poissons Ratio (y) = 0.09678 -0.30945
# Poissons Ratio (z) = 0.38320 -0.22160
#
# Static dielectric constant tensor:
#      x y z
#    x 2.053190 -0.085520 0.035130 
#    y -0.085520 1.678490 -0.145730 
#    z 0.035130 -0.145730 1.894240 
# 
# From -- ./inp_files/81076.got.cif
#   From: 2010.05.17/outbox.cif.g08.bks.cpg/sg2_41_cif.got.tgz:81076.got - 2010.06.03 11:33:40.
