data_PCOD9066891
_publ_section_title
;
Structure prediction by ZEFSAII (Michael W. Deem and Ramdas Pophale) SiO2 
 PCOD9066891
Probable space group: P -1
;
_chemical_formula_sum "Si O2"
_cell_formula_units_Z 16
_cell_length_a 18.807105
_cell_length_b 16.169276
_cell_length_c 10.508892
_cell_angle_alpha 41.557729
_cell_angle_beta 147.556097
_cell_angle_gamma 158.395815
_cell_volume 620.460281
_symmetry_space_group_name_H-M "P -1"
_symmetry_group_IT_number 2
_symmetry_cell_setting 'triclinic'
loop_
_space_group_symop_operation_xyz
x,y,z
-x,-y,-z
loop_
_atom_site_type_symbol
_atom_site_label
_atom_site_fract_x
_atom_site_fract_y
_atom_site_fract_z
Si Si1 0.375550 0.308734 0.809374
Si Si2 0.098260 0.197676 0.274233
Si Si3 0.428749 0.041148 0.455958
Si Si4 0.854925 0.581148 0.108296
Si Si5 0.143683 0.818467 0.696027
Si Si6 0.630515 0.435725 0.405453
Si Si7 0.844348 0.938117 0.722938
Si Si8 0.404927 0.851486 0.862775
O O1 0.253359 0.276357 0.537469
O O2 0.651505 0.490187 0.989117
O O3 0.362648 0.408807 0.778652
O O4 0.189853 0.048870 0.853429
O O5 0.169128 0.387698 0.108968
O O6 0.149301 0.145955 0.292572
O O7 0.547378 0.272246 0.359201
O O8 0.500000 0.000000 0.500000
O O9 0.507781 0.040452 0.709512
O O10 0.137590 0.825649 0.279802
O O11 0.772515 0.374340 0.225670
O O12 0.251141 0.785298 0.823257
O O13 0.901635 0.608323 0.651864
O O14 0.072690 0.861882 0.430890
O O15 0.364767 0.041801 0.858220
O O16 0.426337 0.258336 0.407739
O O17 0.000000 0.000000 0.000000
#
# Coordination Sequence:
#
# PCOD9066891 Si02
#       8
#     2   2   2   2   2   2   2   2
#     4  11  26  44  80 115 150 202 253 318 391 453
#     4  11  25  47  71 117 158 195 252 312 386 463
#     4  12  29  52  73 110 151 205 261 315 388 457
#     4  12  26  46  74 107 157 199 247 316 380 457
#     4  11  26  51  77 112 149 198 263 318 372 457
#     4  12  26  47  80 110 151 199 255 319 388 452
#     4  12  25  49  73 113 159 199 247 311 390 460
#     4  11  27  51  77 106 153 205 262 316 374 452
#
# _framework density 25.787309
#
# number of rings (size 3 to 8) (size 9 to 14) (size 15 to 20)
#    0.000    0.500    3.750    3.000    5.250    1.000 
#    4.500    0.000    0.000    0.000    0.000    0.000 
#    0.000    0.000    0.000    0.000    0.000    0.000 
#
# Total GULP energy -89636.467105 kJ/mol
# GULP energy per Si atom -5602.279194 kJ/mol
# Density = 2.572862 g / cm^3
# Si number density = 25.787309 Si / 1000 Ang^3
#
#
#
# Elastic Constant Matrix: (Units=GPa)
#
#
# Indices 1 2 3 4 5 6 
#
# 1 119.2804 28.4938 44.6909 24.4084 20.4006 5.2211
# 2 28.4938 120.1039 43.7735 24.1574 25.1170 1.0378
# 3 44.6909 43.7735 125.0816 25.2234 -0.4370 10.4201
# 4 24.4084 24.1574 25.2234 41.7287 11.5738 6.6556
# 5 20.4006 25.1170 -0.4370 11.5738 47.4574 5.2621
# 6 5.2211 1.0378 10.4201 6.6556 5.2621 52.6393
#
#
#
# Elastic Compliance Matrix: (Units=1/GPa)
#
#
# Indices 1 2 3 4 5 6 
#
# 1 0.010969 0.000138 -0.003322 -0.003436 -0.004026 0.000404
# 2 0.000138 0.011355 -0.003506 -0.003244 -0.005467 0.001413
# 3 -0.003322 -0.003506 0.011353 -0.003857 0.004530 -0.001814
# 4 -0.003436 -0.003244 -0.003857 0.031767 -0.004321 -0.002416
# 5 -0.004026 -0.005467 0.004530 -0.004321 0.027074 -0.002550
# 6 0.000404 0.001413 -0.001814 -0.002416 -0.002550 0.019849
#
#
# Mechanical properties :
#
#
# Convention : Reuss Voigt Hill
#
# Bulk Modulus (GPa) = 49.26750 66.48693 57.87721
# Shear Modulus (GPa) = 37.73218 44.86560 41.29889
#
# Velocity S-wave (km/s) = 3.82934 4.17566 4.00624
# Velocity P-wave (km/s) = 6.22082 7.00621 6.62516
#
# Compressibility (1/GPa) = 0.02029736
#
# Stress axis : x y z
#
# Youngs Moduli (GPa) = 91.16253 88.07032 88.07941
#
# Poissons Ratio (x) = -0.01216 0.29264
# Poissons Ratio (y) = -0.01258 0.30877
# Poissons Ratio (z) = 0.30289 0.30873
#
# Static dielectric constant tensor:
#      x y z
#    x 2.018270 -0.047500 -0.023530 
#    y -0.047500 2.015880 -0.028840 
#    z -0.023530 -0.028840 2.020290 
# 
# From -- ./inp_files/472399.got.cif
#   From: 2010.05.17/outbox.cif.g08.bks.cpg/sg2_237_cif.got.tgz:472399.got - 2010.06.03 11:33:40.
