data_PCOD9066774
_publ_section_title
;
Structure prediction by ZEFSAII (Michael W. Deem and Ramdas Pophale) SiO2 
 PCOD9066774
Probable space group: P -1
;
_chemical_formula_sum "Si O2"
_cell_formula_units_Z 14
_cell_length_a 22.889958
_cell_length_b 5.781804
_cell_length_c 13.419126
_cell_angle_alpha 102.493363
_cell_angle_beta 23.181050
_cell_angle_gamma 90.019410
_cell_volume 584.417560
_symmetry_space_group_name_H-M "P -1"
_symmetry_group_IT_number 2
_symmetry_cell_setting 'triclinic'
loop_
_space_group_symop_operation_xyz
x,y,z
-x,-y,-z
loop_
_atom_site_type_symbol
_atom_site_label
_atom_site_fract_x
_atom_site_fract_y
_atom_site_fract_z
Si Si1 0.706602 0.895753 0.350143
Si Si2 0.435379 0.391599 0.686879
Si Si3 0.604194 0.141623 0.102883
Si Si4 0.968063 0.228991 0.261825
Si Si5 0.683594 0.815555 0.746242
Si Si6 0.899172 0.819459 0.227618
Si Si7 0.862033 0.715167 0.815876
O O1 0.594884 0.108020 0.456116
O O2 0.592267 0.773349 0.557100
O O3 0.751685 0.995680 0.391903
O O4 0.895732 0.694870 0.990821
O O5 0.500000 0.500000 0.500000
O O6 0.390505 0.583651 0.873424
O O7 0.258611 0.385922 0.949241
O O8 0.673416 0.955709 0.880137
O O9 0.720155 0.965571 0.996651
O O10 0.771260 0.484479 0.589900
O O11 0.035168 0.185126 0.265420
O O12 0.998133 0.975688 0.121297
O O13 0.808026 0.836710 0.475230
O O14 0.500000 0.000000 0.000000
O O15 0.000000 0.500000 0.000000
O O16 0.000000 0.500000 0.500000
#
# Coordination Sequence:
#
# PCOD9066774 Si02
#       7
#     2   2   2   2   2   2   2
#     4  11  25  46  76 105 146 193 252 308 379 442
#     4  11  26  46  79 110 149 201 253 311 375 448
#     4  11  25  47  75 109 152 194 247 314 369 450
#     4  12  27  46  76 104 150 199 248 316 369 453
#     4  12  27  45  71 110 152 196 251 303 383 449
#     4  12  28  47  74 108 144 198 258 311 376 445
#     4  11  25  48  71 112 153 195 251 302 383 449
#
# _framework density 23.955473000000001
#
# number of rings (size 3 to 8) (size 9 to 14) (size 15 to 20)
#    0.000    0.571    4.286    2.143    6.000    5.714 
#    0.000    0.000    0.000    0.000    0.000    0.000 
#    0.000    0.000    0.000    0.000    0.000    0.000 
#
# Total GULP energy -78051.750057 kJ/mol
# GULP energy per Si atom -5575.125004 kJ/mol
# Density = 2.390095 g / cm^3
# Si number density = 23.955473 Si / 1000 Ang^3
#
#
#
# Elastic Constant Matrix: (Units=GPa)
#
#
# Indices 1 2 3 4 5 6 
#
# 1 164.2605 49.9469 26.2285 -2.6152 -12.9717 25.6508
# 2 49.9469 75.7090 50.5271 6.6939 -2.9487 29.7253
# 3 26.2285 50.5271 118.1476 9.3739 -10.2138 11.3542
# 4 -2.6152 6.6939 9.3739 26.9573 7.8658 8.6390
# 5 -12.9717 -2.9487 -10.2138 7.8658 43.6703 1.2938
# 6 25.6508 29.7253 11.3542 8.6390 1.2938 43.4308
#
#
#
# Elastic Compliance Matrix: (Units=1/GPa)
#
#
# Indices 1 2 3 4 5 6 
#
# 1 0.007990 -0.005003 0.000560 0.001872 0.001885 -0.001870
# 2 -0.005003 0.028551 -0.009954 0.000883 -0.001627 -0.014111
# 3 0.000560 -0.009954 0.012819 -0.004073 0.003112 0.003849
# 4 0.001872 0.000883 -0.004073 0.043708 -0.007940 -0.009103
# 5 0.001885 -0.001627 0.003112 -0.007940 0.025507 0.000007
# 6 -0.001870 -0.014111 0.003849 -0.009103 0.000007 0.034592
#
#
# Mechanical properties :
#
#
# Convention : Reuss Voigt Hill
#
# Bulk Modulus (GPa) = 48.62401 67.94690 58.28546
# Shear Modulus (GPa) = 26.48044 38.23930 32.35987
#
# Velocity S-wave (km/s) = 3.32837 3.99966 3.67936
# Velocity P-wave (km/s) = 5.92557 7.05373 6.51412
#
# Compressibility (1/GPa) = 0.02056597
#
# Stress axis : x y z
#
# Youngs Moduli (GPa) = 125.14977 35.02443 78.00859
#
# Poissons Ratio (x) = 0.17523 -0.04367
# Poissons Ratio (y) = 0.62613 0.77652
# Poissons Ratio (z) = -0.07007 0.34865
#
# Static dielectric constant tensor:
#      x y z
#    x 1.891100 -0.302690 0.316060 
#    y -0.302690 1.188260 1.104400 
#    z 0.316060 1.104400 0.763820 
# 
# From -- ./inp_files/542226.got.cif
#   From: 2010.05.17/outbox.cif.g08.bks.cpg/sg2_272_cif.got.tgz:542226.got - 2010.06.03 11:33:40.
