data_PCOD9066387
_publ_section_title
;
Structure prediction by ZEFSAII (Michael W. Deem and Ramdas Pophale) SiO2 
 PCOD9066387
Probable space group: P -1
;
_chemical_formula_sum "Si O2"
_cell_formula_units_Z 14
_cell_length_a 21.195758
_cell_length_b 5.508841
_cell_length_c 8.913110
_cell_angle_alpha 86.813546
_cell_angle_beta 40.653215
_cell_angle_gamma 65.244777
_cell_volume 551.987283
_symmetry_space_group_name_H-M "P -1"
_symmetry_group_IT_number 2
_symmetry_cell_setting 'triclinic'
loop_
_space_group_symop_operation_xyz
x,y,z
-x,-y,-z
loop_
_atom_site_type_symbol
_atom_site_label
_atom_site_fract_x
_atom_site_fract_y
_atom_site_fract_z
Si Si1 0.742350 0.886486 0.610702
Si Si2 0.958358 0.981282 0.913927
Si Si3 0.420596 0.834360 0.572531
Si Si4 0.074293 0.153289 0.491313
Si Si5 0.528220 0.051393 0.202362
Si Si6 0.855101 0.771007 0.933750
Si Si7 0.271040 0.573535 0.555183
O O1 0.842335 0.792775 0.560630
O O2 0.756899 0.624814 0.489539
O O3 0.737315 0.154189 0.524350
O O4 0.620709 0.000722 0.914466
O O5 0.825831 0.289231 0.141508
O O6 0.054764 0.934701 0.624764
O O7 0.930490 0.742032 0.943596
O O8 0.000000 0.000000 0.000000
O O9 0.500000 0.500000 0.500000
O O10 0.418213 0.992562 0.726853
O O11 0.485915 0.834158 0.304048
O O12 0.281175 0.033714 0.783324
O O13 0.132237 0.045233 0.227874
O O14 0.937955 0.446850 0.719930
O O15 0.402910 0.364817 0.391017
#
# Coordination Sequence:
#
# PCOD9066387 Si02
#       7
#     2   2   2   2   2   2   2
#     4  12  27  49  75 112 154 203 252 314 384 457
#     4  12  25  44  72 107 148 192 248 313 376 453
#     4  11  25  45  76 106 147 202 252 319 379 456
#     4  11  25  46  74 106 149 199 254 310 386 453
#     4  11  26  46  70 110 148 199 258 312 381 455
#     4  11  25  47  73 106 149 198 257 313 383 455
#     4  12  28  46  78 108 156 202 253 316 385 450
#
# _framework density 25.362905000000001
#
# number of rings (size 3 to 8) (size 9 to 14) (size 15 to 20)
#    0.000    0.571    2.857    3.857    8.000    2.286 
#    0.000    0.000    0.000    0.000    0.000    0.000 
#    0.000    0.000    0.000    0.000    0.000    0.000 
#
# Total GULP energy -78174.047068 kJ/mol
# GULP energy per Si atom -5583.860505 kJ/mol
# Density = 2.530518 g / cm^3
# Si number density = 25.362905 Si / 1000 Ang^3
#
#
#
# Elastic Constant Matrix: (Units=GPa)
#
#
# Indices 1 2 3 4 5 6 
#
# 1 130.8377 17.6342 16.6118 -1.4433 -11.8688 10.5852
# 2 17.6342 104.4859 42.9722 -18.2430 -9.3609 -5.7074
# 3 16.6118 42.9722 154.7989 -23.5269 -22.9976 -0.3854
# 4 -1.4433 -18.2430 -23.5269 43.1139 -9.3722 -1.6583
# 5 -11.8688 -9.3609 -22.9976 -9.3722 40.4416 4.4803
# 6 10.5852 -5.7074 -0.3854 -1.6583 4.4803 38.0729
#
#
#
# Elastic Compliance Matrix: (Units=1/GPa)
#
#
# Indices 1 2 3 4 5 6 
#
# 1 0.008273 -0.001250 -0.000192 0.000047 0.002347 -0.002763
# 2 -0.001250 0.011692 -0.002199 0.004183 0.001832 0.002044
# 3 -0.000192 -0.002199 0.008680 0.004992 0.005597 -0.000630
# 4 0.000047 0.004183 0.004992 0.030044 0.010705 0.000713
# 5 0.002347 0.001832 0.005597 0.010705 0.031903 -0.003609
# 6 -0.002763 0.002044 -0.000630 0.000713 -0.003609 0.027790
#
#
# Mechanical properties :
#
#
# Convention : Reuss Voigt Hill
#
# Bulk Modulus (GPa) = 46.80823 60.50653 53.65738
# Shear Modulus (GPa) = 37.65530 45.18597 41.42063
#
# Velocity S-wave (km/s) = 3.85731 4.22545 4.04557
# Velocity P-wave (km/s) = 6.19144 6.90753 6.55927
#
# Compressibility (1/GPa) = 0.02136377
#
# Stress axis : x y z
#
# Youngs Moduli (GPa) = 120.87767 85.52936 115.21211
#
# Poissons Ratio (x) = 0.10689 0.02211
# Poissons Ratio (y) = 0.15107 0.25331
# Poissons Ratio (z) = 0.02320 0.18805
#
# Static dielectric constant tensor:
#      x y z
#    x 2.181910 0.086470 -0.087060 
#    y 0.086470 2.196800 -0.102500 
#    z -0.087060 -0.102500 2.051630 
# 
# From -- ./inp_files/60460.got.cif
#   From: 2010.05.17/outbox.cif.g08.bks.cpg/sg2_31_cif.got.tgz:60460.got - 2010.06.03 11:33:40.
