data_PCOD9066574
_publ_section_title
;
Structure prediction by ZEFSAII (Michael W. Deem and Ramdas Pophale) SiO2 
 PCOD9066574
Probable space group: P -1
;
_chemical_formula_sum "Si O2"
_cell_formula_units_Z 16
_cell_length_a 8.622687
_cell_length_b 17.170877
_cell_length_c 5.240043
_cell_angle_alpha 57.899926
_cell_angle_beta 99.168411
_cell_angle_gamma 98.786214
_cell_volume 646.677375
_symmetry_space_group_name_H-M "P -1"
_symmetry_group_IT_number 2
_symmetry_cell_setting 'triclinic'
loop_
_space_group_symop_operation_xyz
x,y,z
-x,-y,-z
loop_
_atom_site_type_symbol
_atom_site_label
_atom_site_fract_x
_atom_site_fract_y
_atom_site_fract_z
Si Si1 0.952451 0.117656 0.025754
Si Si2 0.662026 0.809832 0.616083
Si Si3 0.675759 0.444148 0.398402
Si Si4 0.605504 0.084183 0.758781
Si Si5 0.631985 0.634899 0.265976
Si Si6 0.127700 0.579630 0.999964
Si Si7 0.200214 0.003602 0.405160
Si Si8 0.093682 0.287129 0.496402
O O1 0.919642 0.077377 0.369536
O O2 0.778822 0.100463 0.894796
O O3 0.096958 0.058103 0.082041
O O4 0.010439 0.221985 0.804022
O O5 0.495624 0.828520 0.414400
O O6 0.788651 0.770607 0.532778
O O7 0.730653 0.910266 0.557080
O O8 0.632113 0.734201 0.961520
O O9 0.639384 0.551746 0.211310
O O10 0.517874 0.387361 0.554398
O O11 0.734249 0.417525 0.181893
O O12 0.805682 0.431288 0.678582
O O13 0.653431 0.049561 0.554557
O O14 0.500000 0.000000 0.000000
O O15 0.791456 0.635574 0.470689
O O16 0.035464 0.671344 0.786303
O O17 0.000000 0.500000 0.000000
#
# Coordination Sequence:
#
# PCOD9066574 Si02
#       8
#     2   2   2   2   2   2   2   2
#     4  11  26  43  69 102 138 185 240 295 366 435
#     4  12  27  45  70 104 142 187 241 300 370 431
#     4  11  28  49  80 112 147 202 242 305 371 453
#     4  12  26  43  69  98 140 187 240 295 363 438
#     4  11  27  48  74 105 150 187 244 299 375 435
#     4  12  26  50  80 111 151 192 250 302 374 440
#     4  11  25  46  71  97 137 191 241 296 364 434
#     4  12  28  44  72 105 146 189 243 311 364 438
#
# _framework density 24.741858000000001
#
# number of rings (size 3 to 8) (size 9 to 14) (size 15 to 20)
#    0.000    0.500    3.750    2.625    8.750    2.000 
#    0.000    0.000    0.000    0.000    0.000    0.000 
#    0.000    0.000    0.000    0.000    0.000    0.000 
#
# Total GULP energy -89558.329650 kJ/mol
# GULP energy per Si atom -5597.395603 kJ/mol
# Density = 2.468554 g / cm^3
# Si number density = 24.741858 Si / 1000 Ang^3
#
#
#
# Elastic Constant Matrix: (Units=GPa)
#
#
# Indices 1 2 3 4 5 6 
#
# 1 130.3144 26.3576 21.8719 -14.1129 8.4294 -4.5154
# 2 26.3576 55.2549 7.3502 -8.5905 -7.0850 -6.8806
# 3 21.8719 7.3502 86.1639 -17.3811 12.4696 0.4784
# 4 -14.1129 -8.5905 -17.3811 28.7083 3.4543 2.2362
# 5 8.4294 -7.0850 12.4696 3.4543 56.4292 -0.7241
# 6 -4.5154 -6.8806 0.4784 2.2362 -0.7241 55.9296
#
#
#
# Elastic Compliance Matrix: (Units=1/GPa)
#
#
# Indices 1 2 3 4 5 6 
#
# 1 0.009089 -0.003960 -0.001151 0.002789 -0.001770 0.000122
# 2 -0.003960 0.021297 -0.000578 0.003518 0.003206 0.002206
# 3 -0.001151 -0.000578 0.014137 0.008298 -0.003541 -0.000663
# 4 0.002789 0.003518 0.008298 0.042909 -0.004451 -0.001186
# 5 -0.001770 0.003206 -0.003541 -0.004451 0.019452 0.000712
# 6 0.000122 0.002206 -0.000663 -0.001186 0.000712 0.018223
#
#
# Mechanical properties :
#
#
# Convention : Reuss Voigt Hill
#
# Bulk Modulus (GPa) = 30.17146 42.54363 36.35754
# Shear Modulus (GPa) = 33.89035 42.62365 38.25700
#
# Velocity S-wave (km/s) = 3.70504 4.15509 3.93650
# Velocity P-wave (km/s) = 5.52486 6.34445 5.94878
#
# Compressibility (1/GPa) = 0.03314391
#
# Stress axis : x y z
#
# Youngs Moduli (GPa) = 110.02553 46.95535 70.73463
#
# Poissons Ratio (x) = 0.18596 0.08142
# Poissons Ratio (y) = 0.43575 0.04088
# Poissons Ratio (z) = 0.12665 0.02714
#
# Static dielectric constant tensor:
#      x y z
#    x 1.999570 -0.006690 0.030930 
#    y -0.006690 2.016720 0.074270 
#    z 0.030930 0.074270 1.992330 
# 
# From -- ./inp_files/46332.got.cif
#   From: 2010.05.17/outbox.cif.g08.bks.cpg/sg2_24_cif.got.tgz:46332.got - 2010.06.03 11:33:40.
