data_PCOD9066325
_publ_section_title
;
Structure prediction by ZEFSAII (Michael W. Deem and Ramdas Pophale) SiO2 
 PCOD9066325
Probable space group: P -1
;
_chemical_formula_sum "Si O2"
_cell_formula_units_Z 16
_cell_length_a 11.670189
_cell_length_b 9.598515
_cell_length_c 8.450306
_cell_angle_alpha 65.074697
_cell_angle_beta 111.759889
_cell_angle_gamma 74.593454
_cell_volume 690.005409
_symmetry_space_group_name_H-M "P -1"
_symmetry_group_IT_number 2
_symmetry_cell_setting 'triclinic'
loop_
_space_group_symop_operation_xyz
x,y,z
-x,-y,-z
loop_
_atom_site_type_symbol
_atom_site_label
_atom_site_fract_x
_atom_site_fract_y
_atom_site_fract_z
Si Si1 0.512427 0.799240 0.851874
Si Si2 0.422346 0.354168 0.682437
Si Si3 0.747702 0.830756 0.353996
Si Si4 0.173500 0.345218 0.032390
Si Si5 0.039638 0.310657 0.688176
Si Si6 0.603617 0.265469 0.505549
Si Si7 0.019366 0.259163 0.249686
Si Si8 0.072078 0.942066 0.234852
O O1 0.464578 0.734711 0.700379
O O2 0.386928 0.999482 0.724921
O O3 0.530011 0.712694 0.078905
O O4 0.666206 0.766104 0.891894
O O5 0.289042 0.326261 0.590458
O O6 0.526640 0.257904 0.631358
O O7 0.392329 0.552797 0.567114
O O8 0.794603 0.836879 0.195705
O O9 0.897053 0.796596 0.517494
O O10 0.053146 0.339816 0.865570
O O11 0.125244 0.553460 0.911053
O O12 0.139590 0.285868 0.207412
O O13 0.000000 0.500000 0.500000
O O14 0.937883 0.230893 0.644297
O O15 0.765030 0.106839 0.663695
O O16 0.997802 0.105635 0.239223
O O17 0.000000 0.000000 0.000000
#
# Coordination Sequence:
#
# PCOD9066325 Si02
#       8
#     2   2   2   2   2   2   2   2
#     4  12  26  47  75 109 150 192 248 305 373 441
#     4  11  26  46  75 106 149 195 243 301 374 455
#     4  12  25  45  74 108 142 189 249 307 361 445
#     4  11  25  45  74 104 145 199 241 303 371 449
#     4  12  25  47  73 104 148 195 241 301 377 443
#     4  11  27  48  71 110 149 195 242 306 376 439
#     4  11  25  46  71 110 142 192 255 299 373 440
#     4  12  27  46  76 106 150 196 246 314 371 440
#
# _framework density 23.188224999999999
#
# number of rings (size 3 to 8) (size 9 to 14) (size 15 to 20)
#    0.000    0.500    5.000    2.250    3.500    3.500 
#    2.250    0.000    0.000    0.000    0.000    0.000 
#    0.000    0.000    0.000    0.000    0.000    0.000 
#
# Total GULP energy -89275.201326 kJ/mol
# GULP energy per Si atom -5579.700083 kJ/mol
# Density = 2.313545 g / cm^3
# Si number density = 23.188225 Si / 1000 Ang^3
#
#
#
# Elastic Constant Matrix: (Units=GPa)
#
#
# Indices 1 2 3 4 5 6 
#
# 1 95.9757 26.8904 23.2511 7.5247 2.9082 -17.3082
# 2 26.8904 131.4500 11.1844 8.4540 13.7693 7.2062
# 3 23.2511 11.1844 67.4838 18.2016 -0.7359 3.3753
# 4 7.5247 8.4540 18.2016 39.3828 -3.1514 7.7270
# 5 2.9082 13.7693 -0.7359 -3.1514 28.7684 4.9217
# 6 -17.3082 7.2062 3.3753 7.7270 4.9217 43.4087
#
#
#
# Elastic Compliance Matrix: (Units=1/GPa)
#
#
# Indices 1 2 3 4 5 6 
#
# 1 0.013479 -0.002501 -0.004163 -0.001527 -0.001562 0.006562
# 2 -0.002501 0.008707 -0.000196 -0.001252 -0.003752 -0.001779
# 3 -0.004163 -0.000196 0.018334 -0.007239 0.000502 -0.001821
# 4 -0.001527 -0.001252 -0.007239 0.030850 0.004956 -0.005892
# 5 -0.001562 -0.003752 0.000502 0.004956 0.038168 -0.005249
# 6 0.006562 -0.001779 -0.001821 -0.005892 -0.005249 0.027734
#
#
# Mechanical properties :
#
#
# Convention : Reuss Voigt Hill
#
# Bulk Modulus (GPa) = 37.31251 46.39569 41.85410
# Shear Modulus (GPa) = 31.26464 37.88421 34.57443
#
# Velocity S-wave (km/s) = 3.67590 4.04638 3.86558
# Velocity P-wave (km/s) = 5.84315 6.47168 6.16543
#
# Compressibility (1/GPa) = 0.02680066
#
# Stress axis : x y z
#
# Youngs Moduli (GPa) = 74.18909 114.85230 54.54333
#
# Poissons Ratio (x) = 0.28726 0.22706
# Poissons Ratio (y) = 0.18555 0.01067
# Poissons Ratio (z) = 0.30885 0.02246
#
# Static dielectric constant tensor:
#      x y z
#    x 1.870940 -0.049030 -0.058500 
#    y -0.049030 1.956970 0.059250 
#    z -0.058500 0.059250 2.001440 
# 
# From -- ./inp_files/243118.got.cif
#   From: 2010.05.17/outbox.cif.g08.bks.cpg/sg2_122_cif.got.tgz:243118.got - 2010.06.03 11:33:40.
