data_PCOD9066666
_publ_section_title
;
Structure prediction by ZEFSAII (Michael W. Deem and Ramdas Pophale) SiO2 
 PCOD9066666
Probable space group: P -1
;
_chemical_formula_sum "Si O2"
_cell_formula_units_Z 14
_cell_length_a 9.450797
_cell_length_b 9.113350
_cell_length_c 8.022827
_cell_angle_alpha 77.417734
_cell_angle_beta 60.898112
_cell_angle_gamma 93.457330
_cell_volume 577.952993
_symmetry_space_group_name_H-M "P -1"
_symmetry_group_IT_number 2
_symmetry_cell_setting 'triclinic'
loop_
_space_group_symop_operation_xyz
x,y,z
-x,-y,-z
loop_
_atom_site_type_symbol
_atom_site_label
_atom_site_fract_x
_atom_site_fract_y
_atom_site_fract_z
Si Si1 0.328509 0.966947 0.785572
Si Si2 0.603687 0.811041 0.626796
Si Si3 0.956596 0.821199 0.574190
Si Si4 0.507578 0.473020 0.699002
Si Si5 0.163612 0.622546 0.335918
Si Si6 0.079582 0.663673 0.003881
Si Si7 0.806126 0.786553 0.022053
O O1 0.497365 0.916983 0.760631
O O2 0.372344 0.100166 0.586919
O O3 0.234211 0.047388 0.959276
O O4 0.211693 0.811307 0.819626
O O5 0.781429 0.784791 0.589358
O O6 0.498073 0.639443 0.733028
O O7 0.112646 0.766413 0.419742
O O8 0.914176 0.772722 0.800223
O O9 0.000000 0.000000 0.500000
O O10 0.500000 0.500000 0.500000
O O11 0.675778 0.423750 0.669208
O O12 0.359836 0.337930 0.868396
O O13 0.000000 0.500000 0.500000
O O14 0.166176 0.632903 0.133479
O O15 0.917647 0.735992 0.116984
O O16 0.000000 0.500000 0.000000
#
# Coordination Sequence:
#
# PCOD9066666 Si02
#       7
#     2   2   2   2   2   2   2
#     4  11  25  47  74 107 147 199 252 314 377 453
#     4  11  25  46  73 107 152 195 252 312 379 452
#     4  12  27  46  74 111 156 198 256 312 383 450
#     4  12  26  49  79 111 153 199 256 315 385 448
#     4  12  26  48  77 111 153 199 250 317 377 455
#     4  12  26  48  77 111 151 197 257 309 383 451
#     4  12  26  46  78 110 151 201 251 314 383 451
#
# _framework density 24.223423
#
# number of rings (size 3 to 8) (size 9 to 14) (size 15 to 20)
#    0.000    0.286    2.857    5.571    4.000    2.286 
#    0.000    0.000    0.000    0.000    0.000    0.000 
#    0.000    0.000    0.000    0.000    0.000    0.000 
#
# Total GULP energy -78276.552430 kJ/mol
# GULP energy per Si atom -5591.182316 kJ/mol
# Density = 2.416829 g / cm^3
# Si number density = 24.223423 Si / 1000 Ang^3
#
#
#
# Elastic Constant Matrix: (Units=GPa)
#
#
# Indices 1 2 3 4 5 6 
#
# 1 166.0431 45.8070 42.8928 5.5560 -9.3446 -31.2472
# 2 45.8070 169.1156 44.2851 -0.4668 -13.2999 -14.8709
# 3 42.8928 44.2851 77.9339 -2.6901 -3.9369 1.3657
# 4 5.5560 -0.4668 -2.6901 44.2285 4.7648 -18.1239
# 5 -9.3446 -13.2999 -3.9369 4.7648 36.1378 -2.2851
# 6 -31.2472 -14.8709 1.3657 -18.1239 -2.2851 42.5410
#
#
#
# Elastic Compliance Matrix: (Units=1/GPa)
#
#
# Indices 1 2 3 4 5 6 
#
# 1 0.008695 -0.000393 -0.004546 0.001316 0.001881 0.007057
# 2 -0.000393 0.007496 -0.003949 0.000846 0.002301 0.002943
# 3 -0.004546 -0.003949 0.017605 -0.000582 -0.000987 -0.005586
# 4 0.001316 0.000846 -0.000582 0.028032 -0.002279 0.013102
# 5 0.001881 0.002301 -0.000987 -0.002279 0.029377 0.002825
# 6 0.007057 0.002943 -0.005586 0.013102 0.002825 0.035632
#
#
# Mechanical properties :
#
#
# Convention : Reuss Voigt Hill
#
# Bulk Modulus (GPa) = 62.41895 75.45136 68.93515
# Shear Modulus (GPa) = 33.34388 43.25530 38.29959
#
# Velocity S-wave (km/s) = 3.71416 4.23032 3.98062
# Velocity P-wave (km/s) = 6.64961 7.42135 7.04606
#
# Compressibility (1/GPa) = 0.01602078
#
# Stress axis : x y z
#
# Youngs Moduli (GPa) = 115.00885 133.40871 56.80129
#
# Poissons Ratio (x) = 0.05239 0.25819
# Poissons Ratio (y) = 0.04516 0.22433
# Poissons Ratio (z) = 0.52278 0.52688
#
# Static dielectric constant tensor:
#      x y z
#    x 1.450100 -0.303570 -0.064830 
#    y -0.303570 1.647460 -0.181920 
#    z -0.064830 -0.181920 1.897090 
# 
# From -- ./inp_files/157897.got.cif
#   From: 2010.05.17/outbox.cif.g08.bks.cpg/sg2_79_cif.got.tgz:157897.got - 2010.06.03 11:33:40.
