data_PCOD9066179
_publ_section_title
;
Structure prediction by ZEFSAII (Michael W. Deem and Ramdas Pophale) SiO2 
 PCOD9066179
Probable space group: P -1
;
_chemical_formula_sum "Si O2"
_cell_formula_units_Z 14
_cell_length_a 14.676263
_cell_length_b 6.372220
_cell_length_c 15.639218
_cell_angle_alpha 92.523533
_cell_angle_beta 27.090242
_cell_angle_gamma 82.660080
_cell_volume 618.981470
_symmetry_space_group_name_H-M "P -1"
_symmetry_group_IT_number 2
_symmetry_cell_setting 'triclinic'
loop_
_space_group_symop_operation_xyz
x,y,z
-x,-y,-z
loop_
_atom_site_type_symbol
_atom_site_label
_atom_site_fract_x
_atom_site_fract_y
_atom_site_fract_z
Si Si1 0.443517 0.171270 0.785814
Si Si2 0.872555 0.391287 0.668559
Si Si3 0.054954 0.011427 0.090133
Si Si4 0.710276 0.427162 0.201849
Si Si5 0.892362 0.805397 0.360661
Si Si6 0.522529 0.189171 0.920382
Si Si7 0.748339 0.510886 0.349314
O O1 0.370795 0.421360 0.811932
O O2 0.478348 0.155655 0.857884
O O3 0.662278 0.006395 0.557941
O O4 0.254525 0.087564 0.918120
O O5 0.751392 0.226900 0.732815
O O6 0.000000 0.500000 0.500000
O O7 0.036038 0.273035 0.605495
O O8 0.672816 0.589381 0.881509
O O9 0.844758 0.237664 0.263960
O O10 0.053562 0.903159 0.182149
O O11 0.099550 0.806224 0.983301
O O12 0.765025 0.563468 0.236427
O O13 0.497994 0.390976 0.413520
O O14 0.875949 0.606609 0.310635
O O15 0.500000 0.000000 0.000000
#
# Coordination Sequence:
#
# PCOD9066179 Si02
#       7
#     2   2   2   2   2   2   2
#     4  12  26  44  72 101 144 182 234 286 348 419
#     4  11  26  44  71 102 139 182 237 291 355 420
#     4  12  24  45  71 101 139 189 230 289 348 408
#     4  11  25  45  70 104 138 187 235 289 343 419
#     4  12  26  45  70 103 139 184 233 289 350 418
#     4  11  25  46  69 104 140 183 233 293 353 423
#     4  11  25  45  71 101 142 183 238 286 349 411
#
# _framework density 22.617802000000001
#
# number of rings (size 3 to 8) (size 9 to 14) (size 15 to 20)
#    0.000    0.571    2.857    4.714    2.000    9.714 
#    0.000    0.000    0.000    0.000    0.000    0.000 
#    0.000    0.000    0.000    0.000    0.000    0.000 
#
# Total GULP energy -78288.805639 kJ/mol
# GULP energy per Si atom -5592.057546 kJ/mol
# Density = 2.256632 g / cm^3
# Si number density = 22.617802 Si / 1000 Ang^3
#
#
#
# Elastic Constant Matrix: (Units=GPa)
#
#
# Indices 1 2 3 4 5 6 
#
# 1 95.3573 27.1747 7.6212 -5.1774 3.1414 -7.6029
# 2 27.1747 86.1436 37.0084 9.8631 0.2686 -15.1580
# 3 7.6212 37.0084 113.4817 -2.0241 -0.3445 1.8723
# 4 -5.1774 9.8631 -2.0241 46.9618 1.7145 1.9994
# 5 3.1414 0.2686 -0.3445 1.7145 38.2101 -5.6285
# 6 -7.6029 -15.1580 1.8723 1.9994 -5.6285 37.8238
#
#
#
# Elastic Compliance Matrix: (Units=1/GPa)
#
#
# Indices 1 2 3 4 5 6 
#
# 1 0.011810 -0.004158 0.000593 0.002219 -0.000975 0.000416
# 2 -0.004158 0.016951 -0.005436 -0.004587 0.001362 0.006671
# 3 0.000593 -0.005436 0.010621 0.001796 -0.000399 -0.002740
# 4 0.002219 -0.004587 0.001796 0.022761 -0.001585 -0.002920
# 5 -0.000975 0.001362 -0.000399 -0.001585 0.026967 0.004466
# 6 0.000416 0.006671 -0.002740 -0.002920 0.004466 0.030150
#
#
# Mechanical properties :
#
#
# Convention : Reuss Voigt Hill
#
# Bulk Modulus (GPa) = 46.77644 48.73236 47.75440
# Shear Modulus (GPa) = 34.62838 39.47770 37.05304
#
# Velocity S-wave (km/s) = 3.91707 4.18236 4.05189
# Velocity P-wave (km/s) = 6.41748 6.70191 6.56124
#
# Compressibility (1/GPa) = 0.02137829
#
# Stress axis : x y z
#
# Youngs Moduli (GPa) = 84.67259 58.99513 94.15201
#
# Poissons Ratio (x) = 0.24530 -0.05580
# Poissons Ratio (y) = 0.35207 0.51185
# Poissons Ratio (z) = -0.05018 0.32072
#
# Static dielectric constant tensor:
#      x y z
#    x 1.843320 0.004810 0.006910 
#    y 0.004810 1.864490 0.009430 
#    z 0.006910 0.009430 1.818820 
# 
# From -- ./inp_files/97764.got.cif
#   From: 2010.05.17/outbox.cif.g08.bks.cpg/sg2_49_cif.got.tgz:97764.got - 2010.06.03 11:33:40.
