data_PCOD9066537
_publ_section_title
;
Structure prediction by ZEFSAII (Michael W. Deem and Ramdas Pophale) SiO2 
 PCOD9066537
Probable space group: P -1
;
_chemical_formula_sum "Si O2"
_cell_formula_units_Z 16
_cell_length_a 16.952395
_cell_length_b 8.515505
_cell_length_c 6.878670
_cell_angle_alpha 103.460705
_cell_angle_beta 90.472006
_cell_angle_gamma 49.499629
_cell_volume 720.482903
_symmetry_space_group_name_H-M "P -1"
_symmetry_group_IT_number 2
_symmetry_cell_setting 'triclinic'
loop_
_space_group_symop_operation_xyz
x,y,z
-x,-y,-z
loop_
_atom_site_type_symbol
_atom_site_label
_atom_site_fract_x
_atom_site_fract_y
_atom_site_fract_z
Si Si1 0.617965 0.911052 0.488970
Si Si2 0.977318 0.404706 0.299110
Si Si3 0.100084 0.823516 0.584467
Si Si4 0.786314 0.744600 0.124436
Si Si5 0.729565 0.587776 0.758156
Si Si6 0.828677 0.015864 0.049017
Si Si7 0.526021 0.377015 0.665835
Si Si8 0.357295 0.543923 0.015421
O O1 0.696446 0.788953 0.272404
O O2 0.672243 0.759736 0.634533
O O3 0.500000 0.000000 0.500000
O O4 0.603745 0.121626 0.569886
O O5 0.922720 0.315988 0.351942
O O6 0.895285 0.596277 0.202918
O O7 0.000000 0.500000 0.500000
O O8 0.081729 0.198816 0.133460
O O9 0.201004 0.649355 0.402030
O O10 0.122007 0.935253 0.771291
O O11 0.000000 0.000000 0.500000
O O12 0.760409 0.963711 0.126992
O O13 0.797481 0.620115 0.896557
O O14 0.650711 0.611668 0.914678
O O15 0.756359 0.226508 0.972662
O O16 0.500000 0.500000 0.500000
O O17 0.579930 0.425965 0.829424
O O18 0.420535 0.452355 0.788363
#
# Coordination Sequence:
#
# PCOD9066537 Si02
#       8
#     2   2   2   2   2   2   2   2
#     4  12  27  45  75 103 147 196 245 301 371 430
#     4  12  25  46  74 107 149 191 243 301 366 440
#     4  12  25  45  71 106 146 193 244 298 364 435
#     4  12  26  47  71 107 147 188 247 300 365 438
#     4  12  26  46  73 103 149 187 246 299 367 429
#     4  12  26  44  75 107 146 192 243 301 369 435
#     4  11  25  46  71 102 146 187 246 300 369 427
#     4  11  26  43  71 105 141 188 242 302 358 438
#
# _framework density 22.207328
#
# number of rings (size 3 to 8) (size 9 to 14) (size 15 to 20)
#    0.000    0.250    1.250    7.500    7.000    4.000 
#    0.000    0.000    0.000    0.000    0.000    0.000 
#    0.000    0.000    0.000    0.000    0.000    0.000 
#
# Total GULP energy -89612.214069 kJ/mol
# GULP energy per Si atom -5600.763379 kJ/mol
# Density = 2.215678 g / cm^3
# Si number density = 22.207328 Si / 1000 Ang^3
#
#
#
# Elastic Constant Matrix: (Units=GPa)
#
#
# Indices 1 2 3 4 5 6 
#
# 1 75.2182 1.9319 54.9731 4.4235 6.7191 6.5575
# 2 1.9319 108.5030 62.7488 -7.9506 6.2064 -4.0417
# 3 54.9731 62.7488 161.4910 4.2813 9.4741 -2.6778
# 4 4.4235 -7.9506 4.2813 44.6663 7.0463 -1.1032
# 5 6.7191 6.2064 9.4741 7.0463 52.9169 -1.8936
# 6 6.5575 -4.0417 -2.6778 -1.1032 -1.8936 44.4660
#
#
#
# Elastic Compliance Matrix: (Units=1/GPa)
#
#
# Indices 1 2 3 4 5 6 
#
# 1 0.019755 0.004481 -0.008418 -0.000173 -0.001614 -0.003086
# 2 0.004481 0.013283 -0.006682 0.002769 -0.001294 0.000158
# 3 -0.008418 -0.006682 0.011714 -0.001445 -0.000006 0.001303
# 4 -0.000173 0.002769 -0.001445 0.023551 -0.003157 0.000640
# 5 -0.001614 -0.001294 -0.000006 -0.003157 0.019707 0.000881
# 6 -0.003086 0.000158 0.001303 0.000640 0.000881 0.023090
#
#
# Mechanical properties :
#
#
# Convention : Reuss Voigt Hill
#
# Bulk Modulus (GPa) = 42.52424 64.94663 53.73544
# Shear Modulus (GPa) = 35.66916 43.44707 39.55812
#
# Velocity S-wave (km/s) = 4.01208 4.42795 4.22513
# Velocity P-wave (km/s) = 6.37594 7.44657 6.93196
#
# Compressibility (1/GPa) = 0.02351600
#
# Stress axis : x y z
#
# Youngs Moduli (GPa) = 50.61951 75.28147 85.36535
#
# Poissons Ratio (x) = -0.33735 0.71860
# Poissons Ratio (y) = -0.22683 0.57039
# Poissons Ratio (z) = 0.42611 0.50301
#
# Static dielectric constant tensor:
#      x y z
#    x 1.850520 0.027080 -0.037440 
#    y 0.027080 1.822210 0.054310 
#    z -0.037440 0.054310 1.841920 
# 
# From -- ./inp_files/107177.got.cif
#   From: 2010.05.17/outbox.cif.g08.bks.cpg/sg2_54_cif.got.tgz:107177.got - 2010.06.03 11:33:40.
