data_PCOD9066151
_publ_section_title
;
Structure prediction by ZEFSAII (Michael W. Deem and Ramdas Pophale) SiO2 
 PCOD9066151
Probable space group: P -1
;
_chemical_formula_sum "Si O2"
_cell_formula_units_Z 16
_cell_length_a 21.070958
_cell_length_b 9.875803
_cell_length_c 6.988550
_cell_angle_alpha 43.969180
_cell_angle_beta 56.203973
_cell_angle_gamma 55.884463
_cell_volume 805.914166
_symmetry_space_group_name_H-M "P -1"
_symmetry_group_IT_number 2
_symmetry_cell_setting 'triclinic'
loop_
_space_group_symop_operation_xyz
x,y,z
-x,-y,-z
loop_
_atom_site_type_symbol
_atom_site_label
_atom_site_fract_x
_atom_site_fract_y
_atom_site_fract_z
Si Si1 0.043572 0.947508 0.279866
Si Si2 0.050848 0.267398 0.629354
Si Si3 0.575604 0.986446 0.253306
Si Si4 0.218384 0.335105 0.230573
Si Si5 0.682428 0.554682 0.383557
Si Si6 0.785952 0.331020 0.788397
Si Si7 0.324997 0.937364 0.642786
Si Si8 0.575061 0.310939 0.608219
O O1 0.130515 0.791955 0.316014
O O2 0.991549 0.842544 0.340115
O O3 0.000000 0.000000 0.500000
O O4 0.053191 0.144192 0.948847
O O5 0.139089 0.263410 0.418813
O O6 0.000000 0.500000 0.500000
O O7 0.614376 0.761900 0.333963
O O8 0.500000 0.000000 0.500000
O O9 0.640162 0.038552 0.232800
O O10 0.555471 0.150244 0.950727
O O11 0.199868 0.522295 0.218248
O O12 0.288035 0.155386 0.388364
O O13 0.252348 0.395307 0.915664
O O14 0.726051 0.459161 0.601017
O O15 0.642306 0.399744 0.502052
O O16 0.743876 0.172803 0.109675
O O17 0.391668 0.802998 0.527644
O O18 0.500000 0.500000 0.500000
#
# Coordination Sequence:
#
# PCOD9066151 Si02
#       8
#     2   2   2   2   2   2   2   2
#     4  11  27  44  69 105 143 178 228 278 342 407
#     4  11  25  45  69 101 142 185 222 278 344 404
#     4  12  28  45  68 103 140 177 228 281 341 416
#     4  12  25  45  73 101 136 180 234 285 335 402
#     4  12  27  44  72 103 131 182 234 276 343 409
#     4  12  25  45  71 102 137 180 226 290 337 395
#     4  12  25  46  71  97 139 178 231 284 338 401
#     4  12  28  45  69 101 139 181 224 283 345 406
#
# _framework density 19.853231000000001
#
# number of rings (size 3 to 8) (size 9 to 14) (size 15 to 20)
#    0.000    0.250    7.500    0.750    5.250    5.500 
#    0.000    0.000    0.000    0.000    0.000    0.000 
#    0.000    0.000    0.000    0.000    0.000    0.000 
#
# Total GULP energy -89561.811527 kJ/mol
# GULP energy per Si atom -5597.613220 kJ/mol
# Density = 1.980804 g / cm^3
# Si number density = 19.853231 Si / 1000 Ang^3
#
#
#
# Elastic Constant Matrix: (Units=GPa)
#
#
# Indices 1 2 3 4 5 6 
#
# 1 33.6182 -11.5109 -6.0085 -4.5915 -6.3994 -4.8038
# 2 -11.5109 110.6674 25.2012 2.9865 2.4716 -15.8535
# 3 -6.0085 25.2012 92.7519 6.8942 -8.5911 2.0579
# 4 -4.5915 2.9865 6.8942 34.2303 -4.1517 -5.2334
# 5 -6.3994 2.4716 -8.5911 -4.1517 33.5045 1.3070
# 6 -4.8038 -15.8535 2.0579 -5.2334 1.3070 31.7919
#
#
#
# Elastic Compliance Matrix: (Units=1/GPa)
#
#
# Indices 1 2 3 4 5 6 
#
# 1 0.034697 0.004168 0.001136 0.006136 0.007061 0.007968
# 2 0.004168 0.011100 -0.003060 0.001101 -0.000928 0.006583
# 3 0.001136 -0.003060 0.012212 -0.002025 0.003425 -0.002619
# 4 0.006136 0.001101 -0.002025 0.031887 0.004262 0.006681
# 5 0.007061 -0.000928 0.003425 0.004262 0.032680 -0.000259
# 6 0.007968 0.006583 -0.002619 0.006681 -0.000259 0.037221
#
#
# Mechanical properties :
#
#
# Convention : Reuss Voigt Hill
#
# Bulk Modulus (GPa) = 16.00031 28.04457 22.02244
# Shear Modulus (GPa) = 28.38630 35.19573 31.79101
#
# Velocity S-wave (km/s) = 3.78538 4.21503 4.00597
# Velocity P-wave (km/s) = 5.21366 6.15185 5.70208
#
# Compressibility (1/GPa) = 0.06249879
#
# Stress axis : x y z
#
# Youngs Moduli (GPa) = 28.82122 90.08673 81.88445
#
# Poissons Ratio (x) = -0.37551 -0.09304
# Poissons Ratio (y) = -0.12013 0.25055
# Poissons Ratio (z) = -0.03275 0.27565
#
# Static dielectric constant tensor:
#      x y z
#    x 1.685100 0.000950 -0.009310 
#    y 0.000950 1.671140 -0.008640 
#    z -0.009310 -0.008640 1.672990 
# 
# From -- ./inp_files/14500.got.cif
#   From: 2010.05.17/outbox.cif.g08.bks.cpg/sg2_8_cif.got.tgz:14500.got - 2010.06.03 11:33:40.
