data_PCOD9066250
_publ_section_title
;
Structure prediction by ZEFSAII (Michael W. Deem and Ramdas Pophale) SiO2 
 PCOD9066250
Probable space group: P -1
;
_chemical_formula_sum "Si O2"
_cell_formula_units_Z 16
_cell_length_a 5.251344
_cell_length_b 11.120142
_cell_length_c 18.834064
_cell_angle_alpha 138.145304
_cell_angle_beta 59.522965
_cell_angle_gamma 117.545605
_cell_volume 625.564497
_symmetry_space_group_name_H-M "P -1"
_symmetry_group_IT_number 2
_symmetry_cell_setting 'triclinic'
loop_
_space_group_symop_operation_xyz
x,y,z
-x,-y,-z
loop_
_atom_site_type_symbol
_atom_site_label
_atom_site_fract_x
_atom_site_fract_y
_atom_site_fract_z
Si Si1 0.054564 0.536952 0.424845
Si Si2 0.431909 0.043008 0.295044
Si Si3 0.908852 0.786196 0.928613
Si Si4 0.655612 0.451545 0.091348
Si Si5 0.814777 0.802489 0.315987
Si Si6 0.593519 0.343780 0.291952
Si Si7 0.496891 0.131201 0.477194
Si Si8 0.192358 0.262932 0.912208
O O1 0.337174 0.431672 0.328274
O O2 0.196136 0.746964 0.487470
O O3 0.000000 0.500000 0.500000
O O4 0.783784 0.463878 0.379294
O O5 0.710637 0.929507 0.205443
O O6 0.126357 0.906619 0.288872
O O7 0.446286 0.162194 0.274700
O O8 0.460508 0.167437 0.415584
O O9 0.599726 0.688287 0.897132
O O10 0.169755 0.698482 0.817571
O O11 0.836748 0.741530 0.001151
O O12 0.000000 0.000000 0.000000
O O13 0.777811 0.602820 0.199471
O O14 0.584550 0.587096 0.097182
O O15 0.872308 0.323946 0.967034
O O16 0.769807 0.815850 0.413148
O O17 0.553236 0.921325 0.382412
#
# Coordination Sequence:
#
# PCOD9066250 Si02
#       8
#     2   2   2   2   2   2   2   2
#     4  12  26  49  75 111 150 206 253 317 380 468
#     4  12  25  46  72 107 147 202 251 321 384 466
#     4  12  28  49  74 112 150 199 253 324 386 468
#     4  11  27  48  76 107 149 201 256 324 385 469
#     4  11  26  45  72 108 142 196 253 324 379 461
#     4  12  29  47  80 110 159 204 258 315 396 462
#     4  11  25  45  72 106 151 193 257 312 389 451
#     4  11  27  46  76 107 148 197 257 313 390 457
#
# _framework density 25.576896999999999
#
# number of rings (size 3 to 8) (size 9 to 14) (size 15 to 20)
#    0.000    0.500    3.750    2.625   10.500    1.500 
#    0.000    0.000    0.000    0.000    0.000    0.000 
#    0.000    0.000    0.000    0.000    0.000    0.000 
#
# Total GULP energy -89549.426534 kJ/mol
# GULP energy per Si atom -5596.839158 kJ/mol
# Density = 2.551868 g / cm^3
# Si number density = 25.576897 Si / 1000 Ang^3
#
#
#
# Elastic Constant Matrix: (Units=GPa)
#
#
# Indices 1 2 3 4 5 6 
#
# 1 54.6617 33.3918 35.7317 5.4216 -0.3774 7.8623
# 2 33.3918 139.2916 48.8980 -1.2706 7.5508 23.1350
# 3 35.7317 48.8980 179.0962 -19.0936 -6.0837 5.3660
# 4 5.4216 -1.2706 -19.0936 51.0685 -10.6973 -0.3992
# 5 -0.3774 7.5508 -6.0837 -10.6973 42.9207 -4.1234
# 6 7.8623 23.1350 5.3660 -0.3992 -4.1234 48.4456
#
#
#
# Elastic Compliance Matrix: (Units=1/GPa)
#
#
# Indices 1 2 3 4 5 6 
#
# 1 0.024162 -0.004045 -0.004171 -0.004433 -0.000930 -0.001643
# 2 -0.004045 0.009577 -0.001836 -0.000573 -0.002501 -0.003931
# 3 -0.004171 -0.001836 0.007356 0.003643 0.002330 0.000967
# 4 -0.004433 -0.000573 0.003643 0.022745 0.006374 0.001320
# 5 -0.000930 -0.002501 0.002330 0.006374 0.025971 0.003350
# 6 -0.001643 -0.003931 0.000967 0.001320 0.003350 0.022975
#
#
# Mechanical properties :
#
#
# Convention : Reuss Voigt Hill
#
# Bulk Modulus (GPa) = 47.64245 67.67696 57.65971
# Shear Modulus (GPa) = 35.74352 45.48884 40.61618
#
# Velocity S-wave (km/s) = 3.74236 4.22182 3.98930
# Velocity P-wave (km/s) = 6.11075 7.09102 6.61906
#
# Compressibility (1/GPa) = 0.02098968
#
# Stress axis : x y z
#
# Youngs Moduli (GPa) = 41.38809 104.42060 135.95184
#
# Poissons Ratio (x) = 0.42238 0.56706
# Poissons Ratio (y) = 0.16742 0.24960
# Poissons Ratio (z) = 0.17263 0.19171
#
# Static dielectric constant tensor:
#      x y z
#    x 2.131230 -0.010080 0.026680 
#    y -0.010080 2.026530 -0.007540 
#    z 0.026680 -0.007540 1.998770 
# 
# From -- ./inp_files/583304.got.cif
#   From: 2010.05.17/outbox.cif.g08.bks.cpg/sg2_292_cif.got.tgz:583304.got - 2010.06.03 11:33:40.
