data_PCOD9066964
_publ_section_title
;
Structure prediction by ZEFSAII (Michael W. Deem and Ramdas Pophale) SiO2 
 PCOD9066964
Probable space group: P -1
;
_chemical_formula_sum "Si O2"
_cell_formula_units_Z 12
_cell_length_a 7.823103
_cell_length_b 7.119796
_cell_length_c 17.812721
_cell_angle_alpha 68.196094
_cell_angle_beta 31.994692
_cell_angle_gamma 58.456126
_cell_volume 442.233901
_symmetry_space_group_name_H-M "P -1"
_symmetry_group_IT_number 2
_symmetry_cell_setting 'triclinic'
loop_
_space_group_symop_operation_xyz
x,y,z
-x,-y,-z
loop_
_atom_site_type_symbol
_atom_site_label
_atom_site_fract_x
_atom_site_fract_y
_atom_site_fract_z
Si Si1 0.428843 0.366225 0.345244
Si Si2 0.527226 0.910992 0.340826
Si Si3 0.260807 0.735351 0.592318
Si Si4 0.464703 0.238425 0.800322
Si Si5 0.328644 0.684797 0.127477
Si Si6 0.534607 0.185670 0.098293
O O1 0.600225 0.271288 0.375352
O O2 0.644694 0.497829 0.210074
O O3 0.559267 0.415929 0.079734
O O4 0.000000 0.500000 0.500000
O O5 0.305417 0.916446 0.496148
O O6 0.409327 0.824031 0.323933
O O7 0.929480 0.746258 0.237689
O O8 0.492387 0.155949 0.301170
O O9 0.500000 0.500000 0.500000
O O10 0.860388 0.769914 0.736141
O O11 0.679785 0.214888 0.801789
O O12 0.263182 0.076781 0.913691
O O13 0.463926 0.796458 0.995296
#
# Coordination Sequence:
#
# PCOD9066964 Si02
#       6
#     2   2   2   2   2   2
#     4  12  26  43  70 108 145 185 232 294 355 417
#     4  12  26  46  74 107 142 184 238 292 349 423
#     4  12  23  46  73 101 140 184 235 288 353 413
#     4  12  25  43  74 105 141 185 237 287 354 417
#     4  11  25  49  73 102 143 189 235 289 357 413
#     4  11  25  47  74 102 143 187 235 293 349 423
#
# _framework density 27.134962000000002
#
# number of rings (size 3 to 8) (size 9 to 14) (size 15 to 20)
#    0.000    0.333    3.333    5.000    2.333    2.000 
#    0.000   10.000    0.000    0.000    0.000    0.000 
#    0.000    0.000    0.000    0.000    0.000    0.000 
#
# Total GULP energy -67107.901106 kJ/mol
# GULP energy per Si atom -5592.325092 kJ/mol
# Density = 2.707320 g / cm^3
# Si number density = 27.134962 Si / 1000 Ang^3
#
#
#
# Elastic Constant Matrix: (Units=GPa)
#
#
# Indices 1 2 3 4 5 6 
#
# 1 134.6736 34.6552 22.0221 -5.7724 38.7783 1.4204
# 2 34.6552 147.9598 36.3330 -30.4357 -5.2271 15.9523
# 3 22.0221 36.3330 125.9931 -43.1914 11.5511 -12.2035
# 4 -5.7724 -30.4357 -43.1914 64.3973 0.7923 -7.9771
# 5 38.7783 -5.2271 11.5511 0.7923 43.4131 -8.5089
# 6 1.4204 15.9523 -12.2035 -7.9771 -8.5089 54.9890
#
#
#
# Elastic Compliance Matrix: (Units=1/GPa)
#
#
# Indices 1 2 3 4 5 6 
#
# 1 0.011266 -0.002887 -0.000564 -0.000766 -0.010505 -0.001315
# 2 -0.002887 0.008683 -0.001683 0.002436 0.003656 -0.001899
# 3 -0.000564 -0.001683 0.011654 0.007472 -0.002185 0.003835
# 4 -0.000766 0.002436 0.007472 0.022137 -0.000613 0.004088
# 5 -0.010505 0.003656 -0.002185 -0.000613 0.034221 0.003932
# 6 -0.001315 -0.001899 0.003835 0.004088 0.003932 0.020823
#
#
# Mechanical properties :
#
#
# Convention : Reuss Voigt Hill
#
# Bulk Modulus (GPa) = 46.87129 66.07189 56.47159
# Shear Modulus (GPa) = 39.63046 53.60096 46.61571
#
# Velocity S-wave (km/s) = 3.82579 4.44931 4.14928
# Velocity P-wave (km/s) = 6.06848 7.12723 6.61906
#
# Compressibility (1/GPa) = 0.02133502
#
# Stress axis : x y z
#
# Youngs Moduli (GPa) = 88.75949 115.16490 85.80539
#
# Poissons Ratio (x) = 0.33253 0.04836
# Poissons Ratio (y) = 0.25628 0.14445
# Poissons Ratio (z) = 0.05003 0.19387
#
# Static dielectric constant tensor:
#      x y z
#    x 2.072120 -0.031850 -0.008650 
#    y -0.031850 2.242400 -0.028170 
#    z -0.008650 -0.028170 2.157520 
# 
# From -- ./inp_files/150644.got.cif
#   From: 2010.05.17/outbox.cif.g08.bks.cpg/sg2_76_cif.got.tgz:150644.got - 2010.06.03 11:33:40.
