data_PCOD9066138
_publ_section_title
;
Structure prediction by ZEFSAII (Michael W. Deem and Ramdas Pophale) SiO2 
 PCOD9066138
Probable space group: P -1
;
_chemical_formula_sum "Si O2"
_cell_formula_units_Z 16
_cell_length_a 9.451756
_cell_length_b 17.720880
_cell_length_c 5.420974
_cell_angle_alpha 105.893348
_cell_angle_beta 73.934224
_cell_angle_gamma 60.021650
_cell_volume 656.646765
_symmetry_space_group_name_H-M "P -1"
_symmetry_group_IT_number 2
_symmetry_cell_setting 'triclinic'
loop_
_space_group_symop_operation_xyz
x,y,z
-x,-y,-z
loop_
_atom_site_type_symbol
_atom_site_label
_atom_site_fract_x
_atom_site_fract_y
_atom_site_fract_z
Si Si1 0.352324 0.251563 0.133851
Si Si2 0.049156 0.050690 0.327637
Si Si3 0.834922 0.345915 0.728807
Si Si4 0.002222 0.448984 0.704687
Si Si5 0.935257 0.765577 0.977912
Si Si6 0.634102 0.265171 0.701886
Si Si7 0.309272 0.019393 0.553497
Si Si8 0.368627 0.866317 0.726862
O O1 0.196000 0.337634 0.472964
O O2 0.233565 0.241255 0.981905
O O3 0.483246 0.155269 0.160912
O O4 0.484658 0.273681 0.964481
O O5 0.212593 0.051852 0.363770
O O6 0.853452 0.162984 0.517493
O O7 0.000000 0.000000 0.500000
O O8 0.163809 0.959460 0.997739
O O9 0.650235 0.352412 0.815796
O O10 0.835484 0.440152 0.797254
O O11 0.939927 0.287452 0.371825
O O12 0.949697 0.287979 0.873912
O O13 0.000000 0.500000 0.500000
O O14 0.000000 0.500000 0.000000
O O15 0.849139 0.881774 0.123497
O O16 0.590449 0.238772 0.435780
O O17 0.500000 0.000000 0.500000
O O18 0.365591 0.913369 0.513202
#
# Coordination Sequence:
#
# PCOD9066138 Si02
#       8
#     2   2   2   2   2   2   2   2
#     4  11  27  45  74 105 142 186 249 300 373 435
#     4  12  23  41  57  97 144 201 243 282 346 400
#     4  11  26  46  79 105 141 183 239 294 368 437
#     4  11  26  53  83 107 139 180 232 303 386 457
#     4  11  25  45  67 104 146 196 246 297 346 419
#     4  12  25  42  69 106 149 195 245 295 353 428
#     4  12  26  38  62  95 145 195 260 296 337 396
#     4  12  25  40  67  96 148 202 243 293 353 406
#
# _framework density 24.366222
#
# number of rings (size 3 to 8) (size 9 to 14) (size 15 to 20)
#    0.000    0.500    3.750    4.125   12.250    1.000 
#    0.000    1.250    0.000    0.000    0.000    0.000 
#    0.000    0.000    0.000    0.000    0.000    0.000 
#
# Total GULP energy -89298.484382 kJ/mol
# GULP energy per Si atom -5581.155274 kJ/mol
# Density = 2.431076 g / cm^3
# Si number density = 24.366222 Si / 1000 Ang^3
#
#
#
# Elastic Constant Matrix: (Units=GPa)
#
#
# Indices 1 2 3 4 5 6 
#
# 1 132.5368 22.2699 22.7235 -11.1605 6.9383 17.1759
# 2 22.2699 61.9319 4.7009 -17.5570 6.7153 18.1021
# 3 22.7235 4.7009 107.4273 -1.9452 17.9504 4.6920
# 4 -11.1605 -17.5570 -1.9452 37.0117 -1.3095 6.0151
# 5 6.9383 6.7153 17.9504 -1.3095 41.8276 3.7755
# 6 17.1759 18.1021 4.6920 6.0151 3.7755 53.6277
#
#
#
# Elastic Compliance Matrix: (Units=1/GPa)
#
#
# Indices 1 2 3 4 5 6 
#
# 1 0.008576 -0.001702 -0.001569 0.002055 -0.000208 -0.002251
# 2 -0.001702 0.022673 0.000338 0.011517 -0.002396 -0.008261
# 3 -0.001569 0.000338 0.010341 0.000120 -0.004207 -0.000233
# 4 0.002055 0.011517 0.000120 0.034457 -0.000405 -0.008393
# 5 -0.000208 -0.002396 -0.004207 -0.000405 0.026170 -0.000553
# 6 -0.002251 -0.008261 -0.000233 -0.008393 -0.000553 0.023157
#
#
# Mechanical properties :
#
#
# Convention : Reuss Voigt Hill
#
# Bulk Modulus (GPa) = 27.99335 44.58718 36.29027
# Shear Modulus (GPa) = 34.92899 43.30683 39.11791
#
# Velocity S-wave (km/s) = 3.79027 4.22041 4.01111
# Velocity P-wave (km/s) = 5.53790 6.48750 6.03142
#
# Compressibility (1/GPa) = 0.03572277
#
# Stress axis : x y z
#
# Youngs Moduli (GPa) = 116.60943 44.10625 96.70162
#
# Poissons Ratio (x) = 0.07505 0.15174
# Poissons Ratio (y) = 0.19843 -0.03264
# Poissons Ratio (z) = 0.18298 -0.01489
#
# Static dielectric constant tensor:
#      x y z
#    x 2.031880 0.048090 0.022540 
#    y 0.048090 2.011710 0.001720 
#    z 0.022540 0.001720 2.038520 
# 
# From -- ./inp_files/48577.got.cif
#   From: 2010.05.17/outbox.cif.g08.bks.cpg/sg2_25_cif.got.tgz:48577.got - 2010.06.03 11:33:40.
