data_PCOD9066187
_publ_section_title
;
Structure prediction by ZEFSAII (Michael W. Deem and Ramdas Pophale) SiO2 
 PCOD9066187
Probable space group: P -1
;
_chemical_formula_sum "Si O2"
_cell_formula_units_Z 14
_cell_length_a 5.014059
_cell_length_b 12.578242
_cell_length_c 11.269233
_cell_angle_alpha 77.394555
_cell_angle_beta 64.768769
_cell_angle_gamma 59.407997
_cell_volume 553.434331
_symmetry_space_group_name_H-M "P -1"
_symmetry_group_IT_number 2
_symmetry_cell_setting 'triclinic'
loop_
_space_group_symop_operation_xyz
x,y,z
-x,-y,-z
loop_
_atom_site_type_symbol
_atom_site_label
_atom_site_fract_x
_atom_site_fract_y
_atom_site_fract_z
Si Si1 0.128208 0.493315 0.342453
Si Si2 0.834259 0.137623 0.446405
Si Si3 0.371948 0.454521 0.888055
Si Si4 0.475827 0.878989 0.068125
Si Si5 0.202032 0.760869 0.977050
Si Si6 0.321212 0.230779 0.310407
Si Si7 0.548318 0.728373 0.296044
O O1 0.495752 0.460721 0.227546
O O2 0.086221 0.378666 0.327645
O O3 0.000000 0.500000 0.500000
O O4 0.903556 0.633506 0.306585
O O5 0.518833 0.175055 0.410359
O O6 0.710233 0.233184 0.557508
O O7 0.114712 0.162314 0.326727
O O8 0.000000 0.000000 0.500000
O O9 0.455390 0.353957 0.791864
O O10 0.606023 0.375097 0.971350
O O11 0.000000 0.500000 0.000000
O O12 0.201202 0.853956 0.058959
O O13 0.853603 0.776333 0.991674
O O14 0.473279 0.856051 0.215140
O O15 0.500000 0.000000 0.000000
O O16 0.398812 0.788745 0.832197
#
# Coordination Sequence:
#
# PCOD9066187 Si02
#       7
#     2   2   2   2   2   2   2
#     4  12  25  46  75 110 157 200 259 321 392 471
#     4  12  29  52  74 111 153 208 257 320 381 472
#     4  11  26  45  75 113 160 202 252 329 397 469
#     4  11  25  46  72 105 145 198 248 317 376 455
#     4  11  25  45  70 109 146 189 255 307 386 450
#     4  12  28  46  79 107 150 197 262 311 391 458
#     4  11  26  45  76 108 154 198 260 311 396 452
#
# _framework density 25.296589999999998
#
# number of rings (size 3 to 8) (size 9 to 14) (size 15 to 20)
#    0.000    0.571    2.857    3.429   12.000    2.286 
#    0.000    0.000    0.000    0.000    0.000    0.000 
#    0.000    0.000    0.000    0.000    0.000    0.000 
#
# Total GULP energy -78191.696304 kJ/mol
# GULP energy per Si atom -5585.121165 kJ/mol
# Density = 2.523901 g / cm^3
# Si number density = 25.296590 Si / 1000 Ang^3
#
#
#
# Elastic Constant Matrix: (Units=GPa)
#
#
# Indices 1 2 3 4 5 6 
#
# 1 86.4173 31.7273 16.6821 -11.0691 -10.0628 -3.7128
# 2 31.7273 87.4462 9.3217 -18.8575 -0.7526 0.0316
# 3 16.6821 9.3217 122.5196 -8.8570 0.6421 -8.5140
# 4 -11.0691 -18.8575 -8.8570 46.1153 3.1218 -4.8390
# 5 -10.0628 -0.7526 0.6421 3.1218 39.9821 -10.1530
# 6 -3.7128 0.0316 -8.5140 -4.8390 -10.1530 31.7653
#
#
#
# Elastic Compliance Matrix: (Units=1/GPa)
#
#
# Indices 1 2 3 4 5 6 
#
# 1 0.014343 -0.004756 -0.001324 0.001261 0.004167 0.002850
# 2 -0.004756 0.014173 -0.000107 0.004693 -0.001377 -0.000324
# 3 -0.001324 -0.000107 0.008629 0.001547 0.000015 0.002398
# 4 0.001261 0.004693 0.001547 0.024673 -0.000489 0.004159
# 5 0.004167 -0.001377 0.000015 -0.000489 0.028490 0.009524
# 6 0.002850 -0.000324 0.002398 0.004159 0.009524 0.036135
#
#
# Mechanical properties :
#
#
# Convention : Reuss Voigt Hill
#
# Bulk Modulus (GPa) = 40.36957 45.76059 43.06508
# Shear Modulus (GPa) = 33.99690 39.48267 36.73979
#
# Velocity S-wave (km/s) = 3.66995 3.95497 3.81512
# Velocity P-wave (km/s) = 5.82676 6.24377 6.03886
#
# Compressibility (1/GPa) = 0.02477113
#
# Stress axis : x y z
#
# Youngs Moduli (GPa) = 69.72280 70.55777 115.89229
#
# Poissons Ratio (x) = 0.33557 0.15340
# Poissons Ratio (y) = 0.33160 0.01238
# Poissons Ratio (z) = 0.09229 0.00754
#
# Static dielectric constant tensor:
#      x y z
#    x 2.051270 -0.004480 0.036300 
#    y -0.004480 2.145960 0.003340 
#    z 0.036300 0.003340 2.035000 
# 
# From -- ./inp_files/60621.got.cif
#   From: 2010.05.17/outbox.cif.g08.bks.cpg/sg2_31_cif.got.tgz:60621.got - 2010.06.03 11:33:40.
