data_PCOD9066711
_publ_section_title
;
Structure prediction by ZEFSAII (Michael W. Deem and Ramdas Pophale) SiO2 
 PCOD9066711
Probable space group: P -1
;
_chemical_formula_sum "Si O2"
_cell_formula_units_Z 12
_cell_length_a 5.103008
_cell_length_b 8.834651
_cell_length_c 16.783685
_cell_angle_alpha 116.793161
_cell_angle_beta 58.957538
_cell_angle_gamma 80.540030
_cell_volume 494.711487
_symmetry_space_group_name_H-M "P -1"
_symmetry_group_IT_number 2
_symmetry_cell_setting 'triclinic'
loop_
_space_group_symop_operation_xyz
x,y,z
-x,-y,-z
loop_
_atom_site_type_symbol
_atom_site_label
_atom_site_fract_x
_atom_site_fract_y
_atom_site_fract_z
Si Si1 0.275723 0.802388 0.176653
Si Si2 0.811098 0.602576 0.473451
Si Si3 0.169971 0.219148 0.084551
Si Si4 0.117697 0.779982 0.707476
Si Si5 0.732377 0.353519 0.022110
Si Si6 0.919044 0.876641 0.421300
O O1 0.619895 0.580912 0.078482
O O2 0.109368 0.831539 0.296561
O O3 0.102648 0.771612 0.115400
O O4 0.238709 0.014225 0.213613
O O5 0.432414 0.782241 0.608746
O O6 0.814422 0.429548 0.382471
O O7 0.011497 0.680170 0.407321
O O8 0.000000 0.500000 0.500000
O O9 0.363314 0.348585 0.091384
O O10 0.888067 0.242779 0.202231
O O11 0.979466 0.259834 0.038518
O O12 0.500000 0.000000 0.000000
O O13 0.500000 0.000000 0.500000
O O14 0.000000 0.000000 0.500000
#
# Coordination Sequence:
#
# PCOD9066711 Si02
#       6
#     2   2   2   2   2   2
#     4  11  25  49  74 110 152 201 249 310 380 446
#     4  11  26  46  74 110 147 197 255 305 379 444
#     4  12  26  49  77 109 148 198 253 309 377 441
#     4  11  25  46  74 108 149 197 249 316 370 450
#     4  11  28  49  75 110 151 200 253 310 372 452
#     4  12  27  48  76 109 150 197 247 309 379 446
#
# _framework density 24.256561000000001
#
# number of rings (size 3 to 8) (size 9 to 14) (size 15 to 20)
#    0.000    0.667    3.333    2.500    7.000    5.333 
#    3.000    0.000    0.000    0.000    0.000    0.000 
#    0.000    0.000    0.000    0.000    0.000    0.000 
#
# Total GULP energy -67008.884269 kJ/mol
# GULP energy per Si atom -5584.073689 kJ/mol
# Density = 2.420135 g / cm^3
# Si number density = 24.256561 Si / 1000 Ang^3
#
#
#
# Elastic Constant Matrix: (Units=GPa)
#
#
# Indices 1 2 3 4 5 6 
#
# 1 104.4176 41.5024 44.7113 -10.2686 18.2168 -27.6434
# 2 41.5024 190.4214 74.9290 -33.1767 9.8398 -17.3506
# 3 44.7113 74.9290 175.2270 -32.8140 22.8411 -13.0394
# 4 -10.2686 -33.1767 -32.8140 58.0902 -13.3934 2.1494
# 5 18.2168 9.8398 22.8411 -13.3934 19.5087 -10.3946
# 6 -27.6434 -17.3506 -13.0394 2.1494 -10.3946 45.2362
#
#
#
# Elastic Compliance Matrix: (Units=1/GPa)
#
#
# Indices 1 2 3 4 5 6 
#
# 1 0.013642 -0.001708 -0.001565 -0.001544 -0.008219 0.005415
# 2 -0.001708 0.007076 -0.002367 0.003250 0.003958 0.001743
# 3 -0.001565 -0.002367 0.008164 0.001545 -0.006405 -0.001056
# 4 -0.001544 0.003250 0.001545 0.023150 0.015610 0.003236
# 5 -0.008219 0.003958 -0.006405 0.015610 0.081940 0.012736
# 6 0.005415 0.001743 -0.001056 0.003236 0.012736 0.028552
#
#
# Mechanical properties :
#
#
# Convention : Reuss Voigt Hill
#
# Bulk Modulus (GPa) = 56.81768 88.03906 72.42837
# Shear Modulus (GPa) = 27.82845 45.16189 36.49517
#
# Velocity S-wave (km/s) = 3.39079 4.31959 3.88306
# Velocity P-wave (km/s) = 6.22932 7.82638 7.07307
#
# Compressibility (1/GPa) = 0.01760016
#
# Stress axis : x y z
#
# Youngs Moduli (GPa) = 73.30502 141.32484 122.48393
#
# Poissons Ratio (x) = 0.24141 0.19171
# Poissons Ratio (y) = 0.12522 0.28998
# Poissons Ratio (z) = 0.11474 0.33458
#
# Static dielectric constant tensor:
#      x y z
#    x 2.052870 0.057820 -0.074620 
#    y 0.057820 1.963940 0.014170 
#    z -0.074620 0.014170 2.005400 
# 
# From -- ./inp_files/58697.got.cif
#   From: 2010.05.17/outbox.cif.g08.bks.cpg/sg2_30_cif.got.tgz:58697.got - 2010.06.03 11:33:40.
