data_PCOD9066587
_publ_section_title
;
Structure prediction by ZEFSAII (Michael W. Deem and Ramdas Pophale) SiO2 
 PCOD9066587
Probable space group: P -1
;
_chemical_formula_sum "Si O2"
_cell_formula_units_Z 14
_cell_length_a 9.214830
_cell_length_b 9.460114
_cell_length_c 12.726424
_cell_angle_alpha 60.082522
_cell_angle_beta 133.592793
_cell_angle_gamma 96.697595
_cell_volume 649.179937
_symmetry_space_group_name_H-M "P -1"
_symmetry_group_IT_number 2
_symmetry_cell_setting 'triclinic'
loop_
_space_group_symop_operation_xyz
x,y,z
-x,-y,-z
loop_
_atom_site_type_symbol
_atom_site_label
_atom_site_fract_x
_atom_site_fract_y
_atom_site_fract_z
Si Si1 0.286910 0.313665 0.689342
Si Si2 0.719528 0.990396 0.559344
Si Si3 0.048033 0.173408 0.940395
Si Si4 0.444123 0.652692 0.001320
Si Si5 0.866086 0.305110 0.572996
Si Si6 0.077427 0.661196 0.972118
Si Si7 0.554109 0.027359 0.234480
O O1 0.360347 0.335441 0.835898
O O2 0.278772 0.490842 0.563219
O O3 0.050952 0.303346 0.583368
O O4 0.433861 0.135167 0.773511
O O5 0.906276 0.832991 0.767768
O O6 0.500000 0.000000 0.500000
O O7 0.754361 0.173213 0.526938
O O8 0.690958 0.961507 0.432558
O O9 0.976552 0.237344 0.764289
O O10 0.302722 0.133270 0.097166
O O11 0.905624 0.298723 0.912339
O O12 0.000000 0.000000 0.000000
O O13 0.500000 0.500000 0.000000
O O14 0.286417 0.622205 0.019928
O O15 0.356675 0.839683 0.830249
O O16 0.000000 0.500000 0.000000
#
# Coordination Sequence:
#
# PCOD9066587 Si02
#       7
#     2   2   2   2   2   2   2
#     4  11  26  43  75 108 141 185 243 301 353 421
#     4  12  26  48  70 107 148 191 236 301 357 426
#     4  12  23  47  70 101 142 190 230 290 355 427
#     4  12  26  47  75 106 147 188 241 301 357 430
#     4  11  25  46  72 103 148 186 242 293 359 422
#     4  12  28  44  73 105 143 188 239 290 362 423
#     4  12  25  45  75 104 143 187 242 292 361 422
#
# _framework density 21.565670999999998
#
# number of rings (size 3 to 8) (size 9 to 14) (size 15 to 20)
#    0.000    0.286    4.286    3.857    4.000    3.429 
#    0.000    2.143    0.000    0.000    0.000    0.000 
#    0.000    0.000    0.000    0.000    0.000    0.000 
#
# Total GULP energy -78313.608565 kJ/mol
# GULP energy per Si atom -5593.829183 kJ/mol
# Density = 2.151659 g / cm^3
# Si number density = 21.565671 Si / 1000 Ang^3
#
#
#
# Elastic Constant Matrix: (Units=GPa)
#
#
# Indices 1 2 3 4 5 6 
#
# 1 108.2141 46.4467 -8.5969 0.1145 3.5057 11.8124
# 2 46.4467 165.7742 12.7980 -4.6806 -9.9053 5.9463
# 3 -8.5969 12.7980 62.9107 -0.8174 -18.7470 1.1288
# 4 0.1145 -4.6806 -0.8174 40.1504 4.1135 -7.4875
# 5 3.5057 -9.9053 -18.7470 4.1135 30.0449 -2.4716
# 6 11.8124 5.9463 1.1288 -7.4875 -2.4716 43.5355
#
#
#
# Elastic Compliance Matrix: (Units=1/GPa)
#
#
# Indices 1 2 3 4 5 6 
#
# 1 0.011141 -0.003264 0.001819 -0.000763 -0.001369 -0.002833
# 2 -0.003264 0.007173 -0.001357 0.000661 0.001822 0.000158
# 3 0.001819 -0.001357 0.019962 -0.001039 0.011911 -0.000328
# 4 -0.000763 0.000661 -0.001039 0.026157 -0.003557 0.004440
# 5 -0.001369 0.001822 0.011911 -0.003557 0.042094 0.001592
# 6 -0.002833 0.000158 -0.000328 0.004440 0.001592 0.024580
#
#
# Mechanical properties :
#
#
# Convention : Reuss Voigt Hill
#
# Bulk Modulus (GPa) = 30.60543 48.68828 39.64685
# Shear Modulus (GPa) = 33.87537 41.82958 37.85248
#
# Velocity S-wave (km/s) = 3.96763 4.40891 4.19408
# Velocity P-wave (km/s) = 5.93397 6.96733 6.47131
#
# Compressibility (1/GPa) = 0.03267394
#
# Stress axis : x y z
#
# Youngs Moduli (GPa) = 89.76131 139.40650 50.09510
#
# Poissons Ratio (x) = 0.45496 -0.09113
# Poissons Ratio (y) = 0.29294 0.06796
# Poissons Ratio (z) = -0.16329 0.18912
#
# Static dielectric constant tensor:
#      x y z
#    x 1.818840 0.013150 0.020110 
#    y 0.013150 1.721030 -0.026920 
#    z 0.020110 -0.026920 1.837030 
# 
# From -- ./inp_files/156581.got.cif
#   From: 2010.05.17/outbox.cif.g08.bks.cpg/sg2_79_cif.got.tgz:156581.got - 2010.06.03 11:33:40.
