data_PCOD9066794
_publ_section_title
;
Structure prediction by ZEFSAII (Michael W. Deem and Ramdas Pophale) SiO2 
 PCOD9066794
Probable space group: P -1
;
_chemical_formula_sum "Si O2"
_cell_formula_units_Z 16
_cell_length_a 5.341451
_cell_length_b 16.419544
_cell_length_c 9.415672
_cell_angle_alpha 105.914787
_cell_angle_beta 78.637917
_cell_angle_gamma 127.762470
_cell_volume 627.354056
_symmetry_space_group_name_H-M "P -1"
_symmetry_group_IT_number 2
_symmetry_cell_setting 'triclinic'
loop_
_space_group_symop_operation_xyz
x,y,z
-x,-y,-z
loop_
_atom_site_type_symbol
_atom_site_label
_atom_site_fract_x
_atom_site_fract_y
_atom_site_fract_z
Si Si1 0.375865 0.042673 0.149434
Si Si2 0.723441 0.801823 0.509740
Si Si3 0.893481 0.219569 0.754073
Si Si4 0.953460 0.476253 0.163029
Si Si5 0.314912 0.358788 0.337990
Si Si6 0.139961 0.741453 0.900166
Si Si7 0.245419 0.005170 0.717368
Si Si8 0.910376 0.359375 0.597674
O O1 0.521360 0.162358 0.149460
O O2 0.559154 0.037474 0.261471
O O3 0.998722 0.982413 0.161531
O O4 0.500000 0.000000 0.000000
O O5 0.673180 0.710996 0.575879
O O6 0.362584 0.752986 0.495672
O O7 0.867977 0.801719 0.344171
O O8 0.983326 0.916961 0.596369
O O9 0.540343 0.122168 0.701980
O O10 0.991624 0.325314 0.716654
O O11 0.905615 0.229282 0.925651
O O12 0.628612 0.445323 0.258078
O O13 0.924811 0.370617 0.136166
O O14 0.194510 0.571246 0.289617
O O15 0.000000 0.500000 0.000000
O O16 0.102877 0.275493 0.198716
O O17 0.157569 0.406517 0.462809
#
# Coordination Sequence:
#
# PCOD9066794 Si02
#       8
#     2   2   2   2   2   2   2   2
#     4  12  26  46  79 115 158 202 264 322 395 467
#     4  11  26  49  74 109 152 204 258 315 392 474
#     4  11  27  44  74 111 155 201 256 327 386 458
#     4  12  27  47  76 112 148 197 257 324 393 465
#     4  11  25  46  77 104 151 196 256 315 393 468
#     4  12  26  46  76 112 148 202 254 327 387 468
#     4  12  26  48  79 116 153 214 259 324 390 469
#     4  11  26  50  71 109 151 203 259 317 387 470
#
# _framework density 25.503938000000002
#
# number of rings (size 3 to 8) (size 9 to 14) (size 15 to 20)
#    0.000    0.500    3.750    3.375    5.250    5.000 
#    0.000    0.000    0.000    0.000    0.000    0.000 
#    0.000    0.000    0.000    0.000    0.000    0.000 
#
# Total GULP energy -89363.439011 kJ/mol
# GULP energy per Si atom -5585.214938 kJ/mol
# Density = 2.544589 g / cm^3
# Si number density = 25.503938 Si / 1000 Ang^3
#
#
#
# Elastic Constant Matrix: (Units=GPa)
#
#
# Indices 1 2 3 4 5 6 
#
# 1 68.7609 13.9547 39.4709 -17.9926 -11.8120 9.7336
# 2 13.9547 100.9018 70.0972 -3.3599 -3.5022 3.8818
# 3 39.4709 70.0972 146.0200 -11.3333 -6.7501 2.2873
# 4 -17.9926 -3.3599 -11.3333 46.8487 -3.1619 -0.9904
# 5 -11.8120 -3.5022 -6.7501 -3.1619 40.0545 -5.9357
# 6 9.7336 3.8818 2.2873 -0.9904 -5.9357 51.7390
#
#
#
# Elastic Compliance Matrix: (Units=1/GPa)
#
#
# Indices 1 2 3 4 5 6 
#
# 1 0.020525 0.001452 -0.005408 0.006978 0.005377 -0.002981
# 2 0.001452 0.015028 -0.007593 -0.000203 0.000293 -0.001035
# 3 -0.005408 -0.007593 0.011958 0.000289 -0.000064 0.001057
# 4 0.006978 -0.000203 0.000289 0.024339 0.003952 -0.000391
# 5 0.005377 0.000293 -0.000064 0.003952 0.027199 0.002165
# 6 -0.002981 -0.001035 0.001057 -0.000391 0.002165 0.020160
#
#
# Mechanical properties :
#
#
# Convention : Reuss Voigt Hill
#
# Bulk Modulus (GPa) = 40.96154 62.52536 51.74345
# Shear Modulus (GPa) = 33.23478 40.53908 36.88693
#
# Velocity S-wave (km/s) = 3.61380 3.99121 3.80718
# Velocity P-wave (km/s) = 5.78865 6.76822 6.29751
#
# Compressibility (1/GPa) = 0.02441314
#
# Stress axis : x y z
#
# Youngs Moduli (GPa) = 48.72174 66.54386 83.62516
#
# Poissons Ratio (x) = -0.09664 0.45228
# Poissons Ratio (y) = -0.07076 0.63494
# Poissons Ratio (z) = 0.26351 0.50524
#
# Static dielectric constant tensor:
#      x y z
#    x 2.062920 0.008040 -0.000330 
#    y 0.008040 2.158550 0.069740 
#    z -0.000330 0.069740 2.040080 
# 
# From -- ./inp_files/139130.got.cif
#   From: 2010.05.17/outbox.cif.g08.bks.cpg/sg2_70_cif.got.tgz:139130.got - 2010.06.03 11:33:40.
