data_PCOD9066490
_publ_section_title
;
Structure prediction by ZEFSAII (Michael W. Deem and Ramdas Pophale) SiO2 
 PCOD9066490
Probable space group: P -1
;
_chemical_formula_sum "Si O2"
_cell_formula_units_Z 16
_cell_length_a 15.270890
_cell_length_b 8.430202
_cell_length_c 8.796545
_cell_angle_alpha 85.384735
_cell_angle_beta 133.926551
_cell_angle_gamma 110.374586
_cell_volume 742.513682
_symmetry_space_group_name_H-M "P -1"
_symmetry_group_IT_number 2
_symmetry_cell_setting 'triclinic'
loop_
_space_group_symop_operation_xyz
x,y,z
-x,-y,-z
loop_
_atom_site_type_symbol
_atom_site_label
_atom_site_fract_x
_atom_site_fract_y
_atom_site_fract_z
Si Si1 0.908698 0.852712 0.517053
Si Si2 0.898706 0.042202 0.980945
Si Si3 0.136307 0.637648 0.226242
Si Si4 0.354570 0.290278 0.173488
Si Si5 0.621943 0.357472 0.669308
Si Si6 0.365661 0.154740 0.865728
Si Si7 0.612600 0.196549 0.970882
Si Si8 0.135757 0.528734 0.579567
O O1 0.775380 0.884660 0.382254
O O2 0.858761 0.658042 0.410235
O O3 0.000000 0.000000 0.500000
O O4 0.006095 0.861252 0.771572
O O5 0.850107 0.171729 0.822473
O O6 0.776384 0.872171 0.910884
O O7 0.000000 0.000000 0.000000
O O8 0.257540 0.604813 0.302826
O O9 0.137268 0.609714 0.409199
O O10 0.000000 0.500000 0.000000
O O11 0.486044 0.298784 0.417286
O O12 0.349023 0.470684 0.206566
O O13 0.371687 0.267991 0.015384
O O14 0.612259 0.209715 0.788792
O O15 0.379578 0.982839 0.958121
O O16 0.486725 0.224615 0.887089
O O17 0.743276 0.343698 0.186440
O O18 0.000000 0.500000 0.500000
#
# Coordination Sequence:
#
# PCOD9066490 Si02
#       8
#     2   2   2   2   2   2   2   2
#     4  12  26  46  71 103 143 184 230 287 341 418
#     4  12  28  44  72 103 142 186 231 285 349 410
#     4  12  25  47  71 103 142 181 233 286 344 415
#     4  11  25  47  70 101 140 184 231 288 344 415
#     4  11  26  45  72 103 139 181 233 287 351 408
#     4  11  25  46  70 101 142 181 235 282 346 413
#     4  11  26  44  72 104 137 185 231 287 347 412
#     4  12  27  45  74 104 140 184 231 287 346 413
#
# _framework density 21.548425999999999
#
# number of rings (size 3 to 8) (size 9 to 14) (size 15 to 20)
#    0.000    0.500    2.500    4.500    5.250    6.000 
#    0.000    0.000    0.000    0.000    0.000    0.000 
#    0.000    0.000    0.000    0.000    0.000    0.000 
#
# Total GULP energy -89574.749594 kJ/mol
# GULP energy per Si atom -5598.421850 kJ/mol
# Density = 2.149938 g / cm^3
# Si number density = 21.548426 Si / 1000 Ang^3
#
#
#
# Elastic Constant Matrix: (Units=GPa)
#
#
# Indices 1 2 3 4 5 6 
#
# 1 137.3357 8.9798 45.0819 -0.5945 19.3606 10.9880
# 2 8.9798 44.5218 11.0446 -9.1086 1.2166 -4.6568
# 3 45.0819 11.0446 109.1405 -6.1330 13.1625 6.6782
# 4 -0.5945 -9.1086 -6.1330 37.8708 5.9176 -1.8143
# 5 19.3606 1.2166 13.1625 5.9176 45.0978 -0.9591
# 6 10.9880 -4.6568 6.6782 -1.8143 -0.9591 32.2132
#
#
#
# Elastic Compliance Matrix: (Units=1/GPa)
#
#
# Indices 1 2 3 4 5 6 
#
# 1 0.009014 -0.001329 -0.003086 -0.000349 -0.002946 -0.002734
# 2 -0.001329 0.024920 -0.001905 0.005928 -0.000222 0.004778
# 3 -0.003086 -0.001905 0.011059 0.001539 -0.002085 -0.001491
# 4 -0.000349 0.005928 0.001539 0.028834 -0.004197 0.002156
# 5 -0.002946 -0.000222 -0.002085 -0.004197 0.024644 0.001902
# 6 -0.002734 0.004778 -0.001491 0.002156 0.001902 0.033154
#
#
# Mechanical properties :
#
#
# Convention : Reuss Voigt Hill
#
# Bulk Modulus (GPa) = 30.90965 46.80117 38.85541
# Shear Modulus (GPa) = 32.24758 38.09581 35.17169
#
# Velocity S-wave (km/s) = 3.87268 4.20922 4.04445
# Velocity P-wave (km/s) = 5.86279 6.73718 6.31514
#
# Compressibility (1/GPa) = 0.03235235
#
# Stress axis : x y z
#
# Youngs Moduli (GPa) = 110.94101 40.12797 90.42321
#
# Poissons Ratio (x) = 0.05335 0.27903
# Poissons Ratio (y) = 0.14749 0.17228
# Poissons Ratio (z) = 0.34234 0.07645
#
# Static dielectric constant tensor:
#      x y z
#    x 1.708600 0.017560 -0.008830 
#    y 0.017560 1.772280 -0.029250 
#    z -0.008830 -0.029250 1.772780 
# 
# From -- ./inp_files/223208.got.cif
#   From: 2010.05.17/outbox.cif.g08.bks.cpg/sg2_112_cif.got.tgz:223208.got - 2010.06.03 11:33:40.
