data_PCOD9066118
_publ_section_title
;
Structure prediction by ZEFSAII (Michael W. Deem and Ramdas Pophale) SiO2 
 PCOD9066118
Probable space group: P -1
;
_chemical_formula_sum "Si O2"
_cell_formula_units_Z 14
_cell_length_a 8.149161
_cell_length_b 9.777936
_cell_length_c 9.836797
_cell_angle_alpha 120.563240
_cell_angle_beta 58.898290
_cell_angle_gamma 125.791035
_cell_volume 519.810505
_symmetry_space_group_name_H-M "P -1"
_symmetry_group_IT_number 2
_symmetry_cell_setting 'triclinic'
loop_
_space_group_symop_operation_xyz
x,y,z
-x,-y,-z
loop_
_atom_site_type_symbol
_atom_site_label
_atom_site_fract_x
_atom_site_fract_y
_atom_site_fract_z
Si Si1 0.867791 0.044223 0.252694
Si Si2 0.403849 0.759567 0.838671
Si Si3 0.191779 0.932239 0.222976
Si Si4 0.031985 0.375363 0.155165
Si Si5 0.086020 0.713289 0.423160
Si Si6 0.620667 0.657015 0.137111
Si Si7 0.601499 0.523901 0.617182
O O1 0.982797 0.197113 0.169405
O O2 0.782712 0.139943 0.448167
O O3 0.695639 0.862452 0.168450
O O4 0.038045 0.996317 0.238817
O O5 0.500000 0.500000 0.500000
O O6 0.527354 0.656455 0.796125
O O7 0.197517 0.633758 0.780645
O O8 0.590896 0.901097 0.738414
O O9 0.077448 0.811789 0.338559
O O10 0.298822 0.841121 0.031635
O O11 0.154173 0.561134 0.273678
O O12 0.158703 0.365829 0.963268
O O13 0.853319 0.610681 0.538989
O O14 0.516632 0.643146 0.321744
O O15 0.500000 0.500000 0.000000
#
# Coordination Sequence:
#
# PCOD9066118 Si02
#       7
#     2   2   2   2   2   2   2
#     4  12  26  47  79 110 154 198 253 320 386 453
#     4  11  25  44  77 108 153 196 262 308 381 456
#     4  11  25  46  80 112 147 200 261 317 380 459
#     4  12  27  49  76 111 159 201 253 311 392 463
#     4  12  26  47  78 113 155 199 255 317 384 457
#     4  12  29  49  78 110 155 206 257 316 388 457
#     4  12  25  45  77 112 154 197 258 316 380 452
#
# _framework density 26.93289
#
# number of rings (size 3 to 8) (size 9 to 14) (size 15 to 20)
#    0.000    0.286    4.286    3.857    2.000    3.429 
#    0.000    2.143    0.000    0.000    0.000    0.000 
#    0.000    0.000    0.000    0.000    0.000    0.000 
#
# Total GULP energy -78330.502705 kJ/mol
# GULP energy per Si atom -5595.035908 kJ/mol
# Density = 2.687159 g / cm^3
# Si number density = 26.932890 Si / 1000 Ang^3
#
#
#
# Elastic Constant Matrix: (Units=GPa)
#
#
# Indices 1 2 3 4 5 6 
#
# 1 54.0402 -11.0212 21.0920 -6.8626 -14.4188 8.4170
# 2 -11.0212 91.7051 57.2576 -7.4084 -4.5167 4.7256
# 3 21.0920 57.2576 128.3030 9.5782 -6.5311 6.4819
# 4 -6.8626 -7.4084 9.5782 66.9596 1.3590 8.1108
# 5 -14.4188 -4.5167 -6.5311 1.3590 47.1632 13.8503
# 6 8.4170 4.7256 6.4819 8.1108 13.8503 32.7794
#
#
#
# Elastic Compliance Matrix: (Units=1/GPa)
#
#
# Indices 1 2 3 4 5 6 
#
# 1 0.031846 0.011953 -0.009629 0.007591 0.013961 -0.015774
# 2 0.011953 0.020211 -0.010697 0.005828 0.006279 -0.007963
# 3 -0.009629 -0.010697 0.014162 -0.004571 -0.002927 0.003582
# 4 0.007591 0.005828 -0.004571 0.017902 0.004092 -0.008044
# 5 0.013961 0.006279 -0.002927 0.004092 0.030819 -0.017946
# 6 -0.015774 -0.007963 0.003582 -0.008044 -0.017946 0.044570
#
#
# Mechanical properties :
#
#
# Convention : Reuss Voigt Hill
#
# Bulk Modulus (GPa) = 20.21337 45.41169 32.81253
# Shear Modulus (GPa) = 25.94061 43.16177 34.55119
#
# Velocity S-wave (km/s) = 3.10684 4.00755 3.58559
# Velocity P-wave (km/s) = 4.51568 6.18964 5.41770
#
# Compressibility (1/GPa) = 0.04947221
#
# Stress axis : x y z
#
# Youngs Moduli (GPa) = 31.40090 49.47911 70.61086
#
# Poissons Ratio (x) = -0.59141 0.67988
# Poissons Ratio (y) = -0.37532 0.75536
# Poissons Ratio (z) = 0.30234 0.52930
#
# Static dielectric constant tensor:
#      x y z
#    x 2.104050 0.050590 0.042080 
#    y 0.050590 2.219880 0.071270 
#    z 0.042080 0.071270 2.134970 
# 
# From -- ./inp_files/245453.got.cif
#   From: 2010.05.17/outbox.cif.g08.bks.cpg/sg2_123_cif.got.tgz:245453.got - 2010.06.03 11:33:40.
