data_PCOD9066601
_publ_section_title
;
Structure prediction by ZEFSAII (Michael W. Deem and Ramdas Pophale) SiO2 
 PCOD9066601
Probable space group: P -1
;
_chemical_formula_sum "Si O2"
_cell_formula_units_Z 16
_cell_length_a 13.013407
_cell_length_b 11.165911
_cell_length_c 9.119816
_cell_angle_alpha 85.114272
_cell_angle_beta 44.572192
_cell_angle_gamma 61.100449
_cell_volume 738.259051
_symmetry_space_group_name_H-M "P -1"
_symmetry_group_IT_number 2
_symmetry_cell_setting 'triclinic'
loop_
_space_group_symop_operation_xyz
x,y,z
-x,-y,-z
loop_
_atom_site_type_symbol
_atom_site_label
_atom_site_fract_x
_atom_site_fract_y
_atom_site_fract_z
Si Si1 0.754252 0.318932 0.585757
Si Si2 0.348709 0.054756 0.525725
Si Si3 0.962440 0.374811 0.926768
Si Si4 0.761311 0.169984 0.896012
Si Si5 0.889359 0.047477 0.262215
Si Si6 0.412281 0.575013 0.741398
Si Si7 0.034486 0.364531 0.200583
Si Si8 0.377172 0.027128 0.983274
O O1 0.748465 0.255530 0.753738
O O2 0.838081 0.196876 0.379422
O O3 0.548930 0.447961 0.731237
O O4 0.878983 0.376902 0.454481
O O5 0.454986 0.064316 0.287828
O O6 0.155259 0.214363 0.725932
O O7 0.500000 0.000000 0.500000
O O8 0.291745 0.943781 0.573767
O O9 0.946936 0.501236 0.828659
O O10 0.787824 0.382617 0.065079
O O11 0.964400 0.389762 0.099930
O O12 0.628775 0.274534 0.156651
O O13 0.724582 0.050322 0.900670
O O14 0.967440 0.080917 0.756442
O O15 0.000000 0.000000 0.000000
O O16 0.500000 0.500000 0.500000
O O17 0.225372 0.200239 0.062518
O O18 0.500000 0.000000 0.000000
#
# Coordination Sequence:
#
# PCOD9066601 Si02
#       8
#     2   2   2   2   2   2   2   2
#     4  12  26  46  72 107 146 198 239 310 372 435
#     4  12  25  45  73 106 142 188 243 302 362 436
#     4  11  25  47  71 109 144 189 245 307 367 432
#     4  12  27  48  74 105 154 191 251 312 369 436
#     4  12  24  45  76 105 140 193 251 307 359 434
#     4  12  26  48  76 107 143 195 253 304 370 443
#     4  11  25  46  72 105 151 187 243 306 366 440
#     4  12  28  47  71 110 148 196 242 298 373 444
#
# _framework density 21.672609999999999
#
# number of rings (size 3 to 8) (size 9 to 14) (size 15 to 20)
#    0.000    0.250    5.000    3.750    7.000    0.000 
#    0.000    1.250    0.000    0.000    0.000    0.000 
#    0.000    0.000    0.000    0.000    0.000    0.000 
#
# Total GULP energy -89281.297597 kJ/mol
# GULP energy per Si atom -5580.081100 kJ/mol
# Density = 2.162328 g / cm^3
# Si number density = 21.672610 Si / 1000 Ang^3
#
#
#
# Elastic Constant Matrix: (Units=GPa)
#
#
# Indices 1 2 3 4 5 6 
#
# 1 130.1337 48.1930 26.0038 -1.1644 -26.6910 -5.1122
# 2 48.1930 113.1911 23.7909 -1.9102 -9.8428 -3.5715
# 3 26.0038 23.7909 75.1420 -2.5277 -19.1126 0.3065
# 4 -1.1644 -1.9102 -2.5277 41.7897 -2.3146 -8.5887
# 5 -26.6910 -9.8428 -19.1126 -2.3146 39.2074 8.0881
# 6 -5.1122 -3.5715 0.3065 -8.5887 8.0881 34.7516
#
#
#
# Elastic Compliance Matrix: (Units=1/GPa)
#
#
# Indices 1 2 3 4 5 6 
#
# 1 0.010438 -0.003741 -0.000955 0.000362 0.005740 -0.000087
# 2 -0.003741 0.010874 -0.002440 0.000376 -0.001181 0.000957
# 3 -0.000955 -0.002440 0.016259 0.000831 0.007122 -0.001987
# 4 0.000362 0.000376 0.000831 0.025318 0.000980 0.006114
# 5 0.005740 -0.001181 0.007122 0.000980 0.034097 -0.007033
# 6 -0.000087 0.000957 -0.001987 0.006114 -0.007033 0.032027
#
#
# Mechanical properties :
#
#
# Convention : Reuss Voigt Hill
#
# Bulk Modulus (GPa) = 42.92094 57.16024 50.04059
# Shear Modulus (GPa) = 33.10161 37.84836 35.47498
#
# Velocity S-wave (km/s) = 3.91237 4.18349 4.05020
# Velocity P-wave (km/s) = 6.34477 7.05458 6.70907
#
# Compressibility (1/GPa) = 0.02329865
#
# Stress axis : x y z
#
# Youngs Moduli (GPa) = 95.80576 91.96265 61.50529
#
# Poissons Ratio (x) = 0.34401 0.05875
# Poissons Ratio (y) = 0.35839 0.15007
# Poissons Ratio (z) = 0.09151 0.22439
#
# Static dielectric constant tensor:
#      x y z
#    x 1.743250 0.047350 0.038510 
#    y 0.047350 1.834500 0.038600 
#    z 0.038510 0.038600 1.773190 
# 
# From -- ./inp_files/262449.got.cif
#   From: 2010.05.17/outbox.cif.g08.bks.cpg/sg2_132_cif.got.tgz:262449.got - 2010.06.03 11:33:40.
