data_PCOD9066620
_publ_section_title
;
Structure prediction by ZEFSAII (Michael W. Deem and Ramdas Pophale) SiO2 
 PCOD9066620
Probable space group: P -1
;
_chemical_formula_sum "Si O2"
_cell_formula_units_Z 15
_cell_length_a 5.282201
_cell_length_b 23.256063
_cell_length_c 5.352092
_cell_angle_alpha 73.633099
_cell_angle_beta 82.932551
_cell_angle_gamma 114.854146
_cell_volume 549.940816
_symmetry_space_group_name_H-M "P -1"
_symmetry_group_IT_number 2
_symmetry_cell_setting 'triclinic'
loop_
_space_group_symop_operation_xyz
x,y,z
-x,-y,-z
loop_
_atom_site_type_symbol
_atom_site_label
_atom_site_fract_x
_atom_site_fract_y
_atom_site_fract_z
Si Si1 0.758550 0.892081 0.595871
Si Si2 0.192880 0.441486 0.513732
Si Si3 0.000000 0.500000 0.000000
Si Si4 0.516927 0.251614 0.443372
Si Si5 0.648601 0.064877 0.726402
Si Si6 0.706912 0.175370 0.900882
Si Si7 0.183620 0.303193 0.783719
Si Si8 0.308535 0.620716 0.979705
O O1 0.659282 0.813547 0.629897
O O2 0.584601 0.920449 0.410660
O O3 0.103973 0.935541 0.480760
O O4 0.606530 0.880579 0.895043
O O5 0.500000 0.500000 0.500000
O O6 0.114867 0.362340 0.630490
O O7 0.116386 0.459973 0.234168
O O8 0.977548 0.439917 0.774750
O O9 0.338022 0.569814 0.848199
O O10 0.662915 0.224880 0.657989
O O11 0.317923 0.278061 0.575289
O O12 0.743690 0.319491 0.192672
O O13 0.823552 0.129868 0.807041
O O14 0.500000 0.000000 0.000000
O O15 0.928118 0.229818 0.002638
O O16 0.429892 0.340932 0.912642
#
# Coordination Sequence:
#
# PCOD9066620 Si02
#       8
#     2   2   1   2   2   2   2   2
#     4  11  25  46  80 113 159 209 265 325 396 472
#     4  12  28  50  72 105 145 199 258 330 408 488
#     4  12  26  50  70  98 146 188 256 322 394 484
#     4  11  25  46  72 110 147 196 261 330 396 472
#     4  11  26  48  76 119 163 210 265 322 395 475
#     4  11  26  47  78 112 160 204 264 329 397 472
#     4  12  24  46  74 105 148 195 261 326 404 474
#     4  12  27  45  73 104 144 193 258 325 400 489
#
# _framework density 27.275665
#
# number of rings (size 3 to 8) (size 9 to 14) (size 15 to 20)
#    0.000    0.533    2.667    4.800    5.600    3.733 
#    2.400    0.000    0.000    0.000    0.000    0.000 
#    0.000    0.000    0.000    0.000    0.000    0.000 
#
# Total GULP energy -83898.681903 kJ/mol
# GULP energy per Si atom -5593.245460 kJ/mol
# Density = 2.721358 g / cm^3
# Si number density = 27.275665 Si / 1000 Ang^3
#
#
#
# Elastic Constant Matrix: (Units=GPa)
#
#
# Indices 1 2 3 4 5 6 
#
# 1 99.6693 33.0325 50.8649 -16.8538 7.7879 -9.1507
# 2 33.0325 130.3407 35.4666 -26.0105 10.4494 -15.0283
# 3 50.8649 35.4666 139.0980 -39.2615 19.8915 5.1644
# 4 -16.8538 -26.0105 -39.2615 52.7023 -2.5102 5.2647
# 5 7.7879 10.4494 19.8915 -2.5102 64.5448 -6.1100
# 6 -9.1507 -15.0283 5.1644 5.2647 -6.1100 24.5106
#
#
#
# Elastic Compliance Matrix: (Units=1/GPa)
#
#
# Indices 1 2 3 4 5 6 
#
# 1 0.013446 -0.001623 -0.005008 -0.000740 0.000667 0.005405
# 2 -0.001623 0.009549 -0.001157 0.002834 -0.000431 0.004777
# 3 -0.005008 -0.001157 0.012207 0.007520 -0.003399 -0.007613
# 4 -0.000740 0.002834 0.007520 0.026263 -0.002265 -0.006329
# 5 0.000667 -0.000431 -0.003399 -0.002265 0.016954 0.005413
# 6 0.005405 0.004777 -0.007613 -0.006329 0.005413 0.050058
#
#
# Mechanical properties :
#
#
# Convention : Reuss Voigt Hill
#
# Bulk Modulus (GPa) = 50.95277 67.53734 59.24505
# Shear Modulus (GPa) = 33.20168 45.00113 39.10140
#
# Velocity S-wave (km/s) = 3.49272 4.06626 3.79035
# Velocity P-wave (km/s) = 5.91495 6.84549 6.39716
#
# Compressibility (1/GPa) = 0.01962602
#
# Stress axis : x y z
#
# Youngs Moduli (GPa) = 74.37287 104.72043 81.92260
#
# Poissons Ratio (x) = 0.16994 0.41026
# Poissons Ratio (y) = 0.12069 0.09479
# Poissons Ratio (z) = 0.37245 0.12117
#
# Static dielectric constant tensor:
#      x y z
#    x 2.164880 0.077490 -0.118560 
#    y 0.077490 1.738110 -0.049140 
#    z -0.118560 -0.049140 2.195620 
# 
# From -- ./inp_files/12969.got.cif
#   From: 2010.05.17/outbox.cif.g08.bks.cpg/sg2_7_cif.got.tgz:12969.got - 2010.06.03 11:33:40.
