data_PCOD9066948
_publ_section_title
;
Structure prediction by ZEFSAII (Michael W. Deem and Ramdas Pophale) SiO2 
 PCOD9066948
Probable space group: P -1
;
_chemical_formula_sum "Si O2"
_cell_formula_units_Z 14
_cell_length_a 16.631297
_cell_length_b 4.977160
_cell_length_c 8.520578
_cell_angle_alpha 117.937923
_cell_angle_beta 124.716695
_cell_angle_gamma 74.410124
_cell_volume 512.177277
_symmetry_space_group_name_H-M "P -1"
_symmetry_group_IT_number 2
_symmetry_cell_setting 'triclinic'
loop_
_space_group_symop_operation_xyz
x,y,z
-x,-y,-z
loop_
_atom_site_type_symbol
_atom_site_label
_atom_site_fract_x
_atom_site_fract_y
_atom_site_fract_z
Si Si1 0.362209 0.527217 0.267383
Si Si2 0.992222 0.569595 0.821268
Si Si3 0.525559 0.742281 0.325703
Si Si4 0.676699 0.256161 0.403191
Si Si5 0.185489 0.581402 0.846168
Si Si6 0.883221 0.999713 0.582400
Si Si7 0.349237 0.933891 0.990392
O O1 0.462201 0.479599 0.273601
O O2 0.367563 0.763560 0.477463
O O3 0.275486 0.584706 0.067374
O O4 0.335521 0.180987 0.182365
O O5 0.092125 0.665264 0.870836
O O6 0.919791 0.827278 0.736046
O O7 0.959819 0.226501 0.645749
O O8 0.000000 0.500000 0.000000
O O9 0.630643 0.577090 0.377627
O O10 0.500000 0.000000 0.500000
O O11 0.453726 0.791147 0.112146
O O12 0.645370 0.004942 0.173581
O O13 0.790491 0.223791 0.561825
O O14 0.151251 0.273745 0.641139
O O15 0.242474 0.769574 0.826873
#
# Coordination Sequence:
#
# PCOD9066948 Si02
#       7
#     2   2   2   2   2   2   2
#     4  11  25  47  73 110 154 203 263 324 392 461
#     4  12  28  52  81 118 156 206 264 326 395 478
#     4  11  25  47  75 113 157 211 265 328 393 464
#     4  12  25  48  76 112 157 202 268 321 391 471
#     4  11  26  49  77 109 160 198 263 328 388 472
#     4  12  27  49  78 118 154 210 260 321 404 464
#     4  11  25  49  74 114 153 212 261 321 398 462
#
# _framework density 27.334288000000001
#
# number of rings (size 3 to 8) (size 9 to 14) (size 15 to 20)
#    0.000    0.571    2.857    3.857    2.000    2.857 
#    7.714    0.000    0.000    0.000    0.000    0.000 
#    0.000    0.000    0.000    0.000    0.000    0.000 
#
# Total GULP energy -77946.692777 kJ/mol
# GULP energy per Si atom -5567.620913 kJ/mol
# Density = 2.727207 g / cm^3
# Si number density = 27.334288 Si / 1000 Ang^3
#
#
#
# Elastic Constant Matrix: (Units=GPa)
#
#
# Indices 1 2 3 4 5 6 
#
# 1 123.1562 34.0129 26.5971 -27.0345 -1.6657 -18.6930
# 2 34.0129 122.3707 34.8036 -31.6585 1.1819 -12.3578
# 3 26.5971 34.8036 86.7234 -31.5983 -22.8135 -16.8859
# 4 -27.0345 -31.6585 -31.5983 48.2599 -8.6473 4.4036
# 5 -1.6657 1.1819 -22.8135 -8.6473 33.9472 -0.1521
# 6 -18.6930 -12.3578 -16.8859 4.4036 -0.1521 34.7542
#
#
#
# Elastic Compliance Matrix: (Units=1/GPa)
#
#
# Indices 1 2 3 4 5 6 
#
# 1 0.010255 -0.001217 0.001117 0.005727 0.002777 0.004912
# 2 -0.001217 0.010427 -0.001990 0.004615 -0.000578 0.001499
# 3 0.001117 -0.001990 0.028434 0.021353 0.024721 0.011111
# 4 0.005727 0.004615 0.021353 0.044708 0.025901 0.009545
# 5 0.002777 -0.000578 0.024721 0.025901 0.052871 0.010249
# 6 0.004912 0.001499 0.011111 0.009545 0.010249 0.036183
#
#
# Mechanical properties :
#
#
# Convention : Reuss Voigt Hill
#
# Bulk Modulus (GPa) = 22.25387 58.11972 40.18680
# Shear Modulus (GPa) = 24.74808 39.18137 31.96472
#
# Velocity S-wave (km/s) = 3.01223 3.79015 3.42336
# Velocity P-wave (km/s) = 4.50079 6.36101 5.50997
#
# Compressibility (1/GPa) = 0.04493601
#
# Stress axis : x y z
#
# Youngs Moduli (GPa) = 97.51338 95.90422 35.16953
#
# Poissons Ratio (x) = 0.11673 -0.03929
# Poissons Ratio (y) = 0.11869 0.06998
# Poissons Ratio (z) = -0.10893 0.19083
#
# Static dielectric constant tensor:
#      x y z
#    x 2.255000 0.222020 0.011900 
#    y 0.222020 2.472660 -0.017240 
#    z 0.011900 -0.017240 2.221000 
# 
# From -- ./inp_files/324185.got.cif
#   From: 2010.05.17/outbox.cif.g08.bks.cpg/sg2_163_cif.got.tgz:324185.got - 2010.06.03 11:33:40.
