data_PCOD9066374
_publ_section_title
;
Structure prediction by ZEFSAII (Michael W. Deem and Ramdas Pophale) SiO2 
 PCOD9066374
Probable space group: P -1
;
_chemical_formula_sum "Si O2"
_cell_formula_units_Z 13
_cell_length_a 9.213406
_cell_length_b 10.266457
_cell_length_c 13.804916
_cell_angle_alpha 34.804881
_cell_angle_beta 119.233118
_cell_angle_gamma 97.753258
_cell_volume 549.813420
_symmetry_space_group_name_H-M "P -1"
_symmetry_group_IT_number 2
_symmetry_cell_setting 'triclinic'
loop_
_space_group_symop_operation_xyz
x,y,z
-x,-y,-z
loop_
_atom_site_type_symbol
_atom_site_label
_atom_site_fract_x
_atom_site_fract_y
_atom_site_fract_z
Si Si1 0.384531 0.203487 0.925215
Si Si2 0.972101 0.855197 0.671292
Si Si3 0.616535 0.198678 0.676944
Si Si4 0.004733 0.984172 0.814068
Si Si5 0.000000 0.500000 0.500000
Si Si6 0.676110 0.657079 0.679184
Si Si7 0.581410 0.484216 0.929202
O O1 0.512783 0.309648 0.953682
O O2 0.180557 0.445498 0.667028
O O3 0.500000 0.000000 0.000000
O O4 0.352377 0.028956 0.099710
O O5 0.918914 0.998367 0.670655
O O6 0.822961 0.762056 0.659207
O O7 0.000000 0.000000 0.500000
O O8 0.193412 0.619018 0.909950
O O9 0.500000 0.500000 0.500000
O O10 0.474382 0.218763 0.533325
O O11 0.828442 0.108606 0.758109
O O12 0.087328 0.177567 0.725045
O O13 0.176056 0.672355 0.081712
O O14 0.547908 0.709390 0.702850
O O15 0.500000 0.500000 0.000000
#
# Coordination Sequence:
#
# PCOD9066374 Si02
#       7
#     2   2   2   2   1   2   2
#     4  12  27  48  73 107 152 199 258 321 385 461
#     4  11  26  46  74 111 152 204 254 314 389 462
#     4  12  27  46  75 112 151 205 256 320 384 463
#     4  11  26  46  73 107 153 199 256 320 382 453
#     4  12  26  46  76 104 148 198 258 304 388 452
#     4  11  26  50  76 110 161 200 261 315 389 470
#     4  11  25  45  75 111 151 197 254 322 385 454
#
# _framework density 23.644383999999999
#
# number of rings (size 3 to 8) (size 9 to 14) (size 15 to 20)
#    0.000    0.615    0.000    8.308    8.615    5.538 
#    0.000    0.000    0.000    0.000    0.000    0.000 
#    0.000    0.000    0.000    0.000    0.000    0.000 
#
# Total GULP energy -72444.455547 kJ/mol
# GULP energy per Si atom -5572.650427 kJ/mol
# Density = 2.359057 g / cm^3
# Si number density = 23.644384 Si / 1000 Ang^3
#
#
#
# Elastic Constant Matrix: (Units=GPa)
#
#
# Indices 1 2 3 4 5 6 
#
# 1 119.6081 44.3261 45.5054 5.1369 -6.3573 -14.4756
# 2 44.3261 89.1946 24.3618 13.9060 -9.8433 7.7905
# 3 45.5054 24.3618 129.5879 12.0045 -1.4336 -6.6441
# 4 5.1369 13.9060 12.0045 47.8865 4.9441 -5.0386
# 5 -6.3573 -9.8433 -1.4336 4.9441 49.9289 5.6699
# 6 -14.4756 7.7905 -6.6441 -5.0386 5.6699 45.8252
#
#
#
# Elastic Compliance Matrix: (Units=1/GPa)
#
#
# Indices 1 2 3 4 5 6 
#
# 1 0.012208 -0.005942 -0.003095 0.001724 -0.000405 0.004658
# 2 -0.005942 0.015987 -0.000728 -0.004778 0.003490 -0.005658
# 3 -0.003095 -0.000728 0.009111 -0.001695 -0.000142 0.000298
# 4 0.001724 -0.004778 -0.001695 0.023309 -0.003546 0.004113
# 5 -0.000405 0.003490 -0.000142 -0.003546 0.021442 -0.003785
# 6 0.004658 -0.005658 0.000298 0.004113 -0.003785 0.025219
#
#
# Mechanical properties :
#
#
# Convention : Reuss Voigt Hill
#
# Bulk Modulus (GPa) = 56.25290 62.97523 59.61406
# Shear Modulus (GPa) = 37.66962 43.67460 40.67211
#
# Velocity S-wave (km/s) = 3.99579 4.30250 4.15198
# Velocity P-wave (km/s) = 6.71798 7.16758 6.94642
#
# Compressibility (1/GPa) = 0.01777686
#
# Stress axis : x y z
#
# Youngs Moduli (GPa) = 81.91055 62.54903 109.75442
#
# Poissons Ratio (x) = 0.37166 0.33973
# Poissons Ratio (y) = 0.48671 0.07988
# Poissons Ratio (z) = 0.25354 0.04552
#
# Static dielectric constant tensor:
#      x y z
#    x 1.925390 -0.032780 -0.016350 
#    y -0.032780 1.903220 -0.072080 
#    z -0.016350 -0.072080 1.840110 
# 
# From -- ./inp_files/380911.got.cif
#   From: 2010.05.17/outbox.cif.g08.bks.cpg/sg2_191_cif.got.tgz:380911.got - 2010.06.03 11:33:40.
