data_PCOD9066155
_publ_section_title
;
Structure prediction by ZEFSAII (Michael W. Deem and Ramdas Pophale) SiO2 
 PCOD9066155
Probable space group: P -1
;
_chemical_formula_sum "Si O2"
_cell_formula_units_Z 14
_cell_length_a 8.696579
_cell_length_b 14.594561
_cell_length_c 14.224081
_cell_angle_alpha 150.123570
_cell_angle_beta 131.028806
_cell_angle_gamma 69.694686
_cell_volume 547.140975
_symmetry_space_group_name_H-M "P -1"
_symmetry_group_IT_number 2
_symmetry_cell_setting 'triclinic'
loop_
_space_group_symop_operation_xyz
x,y,z
-x,-y,-z
loop_
_atom_site_type_symbol
_atom_site_label
_atom_site_fract_x
_atom_site_fract_y
_atom_site_fract_z
Si Si1 0.249814 0.160507 0.625484
Si Si2 0.315570 0.974401 0.983650
Si Si3 0.977809 0.323131 0.907837
Si Si4 0.816458 0.491142 0.156630
Si Si5 0.822502 0.931387 0.697592
Si Si6 0.005530 0.637879 0.726075
Si Si7 0.479432 0.399474 0.555563
O O1 0.109078 0.278813 0.659625
O O2 0.275890 0.107371 0.480606
O O3 0.524038 0.350039 0.945091
O O4 0.126706 0.912506 0.397289
O O5 0.174730 0.751058 0.799230
O O6 0.090161 0.972272 0.845946
O O7 0.500000 0.000000 0.000000
O O8 0.460130 0.204003 0.310897
O O9 0.234725 0.394439 0.126728
O O10 0.831762 0.341816 0.951719
O O11 0.000000 0.500000 0.000000
O O12 0.971249 0.525589 0.342909
O O13 0.629847 0.710734 0.484965
O O14 0.863170 0.138742 0.955759
O O15 0.719180 0.557777 0.525865
#
# Coordination Sequence:
#
# PCOD9066155 Si02
#       7
#     2   2   2   2   2   2   2
#     4  11  25  45  69 102 140 188 245 292 346 434
#     4   9  19  36  68 109 144 181 235 300 346 413
#     4  12  26  43  73 105 145 190 233 297 364 416
#     4  11  25  45  73 100 140 194 243 287 354 428
#     4   9  18  41  68  96 140 188 230 284 355 422
#     4   9  19  42  73  98 140 193 230 286 358 425
#     4   9  21  40  69 105 143 183 238 285 355 434
#
# _framework density 25.587554000000001
#
# number of rings (size 3 to 8) (size 9 to 14) (size 15 to 20)
#    0.000    2.000    1.429    3.000    6.000    1.143 
#    0.000    7.857    0.000    0.000    0.000    0.000 
#    0.000    0.000    0.000    0.000    0.000    0.000 
#
# Total GULP energy -78356.928067 kJ/mol
# GULP energy per Si atom -5596.923433 kJ/mol
# Density = 2.552932 g / cm^3
# Si number density = 25.587554 Si / 1000 Ang^3
#
#
#
# Elastic Constant Matrix: (Units=GPa)
#
#
# Indices 1 2 3 4 5 6 
#
# 1 129.0544 37.7271 20.1883 6.3510 -6.4059 -0.0176
# 2 37.7271 157.4539 27.6620 25.5037 4.1452 0.0845
# 3 20.1883 27.6620 77.9266 18.4015 -3.6141 -10.1934
# 4 6.3510 25.5037 18.4015 44.4915 -5.6651 -9.9290
# 5 -6.4059 4.1452 -3.6141 -5.6651 33.7466 2.8104
# 6 -0.0176 0.0845 -10.1934 -9.9290 2.8104 23.8806
#
#
#
# Elastic Compliance Matrix: (Units=1/GPa)
#
#
# Indices 1 2 3 4 5 6 
#
# 1 0.008639 -0.001926 -0.001712 0.000669 0.001860 -0.000658
# 2 -0.001926 0.007859 -0.001667 -0.004312 -0.002042 -0.002293
# 3 -0.001712 -0.001667 0.015485 -0.004059 0.000451 0.004873
# 4 0.000669 -0.004312 -0.004059 0.029303 0.004312 0.009959
# 5 0.001860 -0.002042 0.000451 0.004312 0.031148 -0.001672
# 6 -0.000658 -0.002293 0.004873 0.009959 -0.001672 0.048300
#
#
# Mechanical properties :
#
#
# Convention : Reuss Voigt Hill
#
# Bulk Modulus (GPa) = 46.79033 59.50996 53.15015
# Shear Modulus (GPa) = 31.55186 39.01423 35.28304
#
# Velocity S-wave (km/s) = 3.51535 3.90902 3.71740
# Velocity P-wave (km/s) = 5.89941 6.60922 6.26438
#
# Compressibility (1/GPa) = 0.02137194
#
# Stress axis : x y z
#
# Youngs Moduli (GPa) = 115.75532 127.24307 64.57885
#
# Poissons Ratio (x) = 0.24509 0.11057
# Poissons Ratio (y) = 0.22296 0.10766
# Poissons Ratio (z) = 0.19819 0.21213
#
# Static dielectric constant tensor:
#      x y z
#    x 2.041470 -0.009630 0.002970 
#    y -0.009630 2.043930 0.084800 
#    z 0.002970 0.084800 2.089710 
# 
# From -- ./inp_files/505976.got.cif
#   From: 2010.05.17/outbox.cif.g08.bks.cpg/sg2_253_cif.got.tgz:505976.got - 2010.06.03 11:33:40.
