data_PCOD9066264
_publ_section_title
;
Structure prediction by ZEFSAII (Michael W. Deem and Ramdas Pophale) SiO2 
 PCOD9066264
Probable space group: P -1
;
_chemical_formula_sum "Si O2"
_cell_formula_units_Z 12
_cell_length_a 8.756289
_cell_length_b 12.293241
_cell_length_c 9.556945
_cell_angle_alpha 41.537143
_cell_angle_beta 96.387791
_cell_angle_gamma 119.010411
_cell_volume 537.423250
_symmetry_space_group_name_H-M "P -1"
_symmetry_group_IT_number 2
_symmetry_cell_setting 'triclinic'
loop_
_space_group_symop_operation_xyz
x,y,z
-x,-y,-z
loop_
_atom_site_type_symbol
_atom_site_label
_atom_site_fract_x
_atom_site_fract_y
_atom_site_fract_z
Si Si1 0.818226 0.532702 0.203282
Si Si2 0.468315 0.042065 0.611375
Si Si3 0.641734 0.993698 0.919413
Si Si4 0.279876 0.317232 0.684144
Si Si5 0.041817 0.838531 0.689810
Si Si6 0.998427 0.335653 0.453721
O O1 0.623948 0.291543 0.411617
O O2 0.790305 0.644821 0.215585
O O3 0.002964 0.534527 0.251439
O O4 0.871091 0.651232 0.947711
O O5 0.500000 0.000000 0.500000
O O6 0.514807 0.917665 0.836923
O O7 0.246286 0.955183 0.679721
O O8 0.833762 0.205583 0.679709
O O9 0.717860 0.875955 0.107597
O O10 0.500000 0.000000 0.000000
O O11 0.500000 0.500000 0.500000
O O12 0.166290 0.329189 0.534351
O O13 0.055568 0.758139 0.617898
O O14 0.000000 0.000000 0.500000
#
# Coordination Sequence:
#
# PCOD9066264 Si02
#       6
#     2   2   2   2   2   2
#     4  11  26  47  73 105 144 189 235 300 354 420
#     4  11  25  48  72 103 142 186 242 287 363 419
#     4  11  25  45  73 102 143 189 233 295 352 423
#     4  12  27  44  70 107 142 187 239 293 354 425
#     4  12  27  45  75 105 143 188 234 298 355 427
#     4  11  25  48  68 105 142 187 239 288 358 421
#
# _framework density 22.328769000000001
#
# number of rings (size 3 to 8) (size 9 to 14) (size 15 to 20)
#    0.000    0.667    3.333    4.500    9.333    0.667 
#    0.000    0.000    0.000    0.000    0.000    0.000 
#    0.000    0.000    0.000    0.000    0.000    0.000 
#
# Total GULP energy -67023.338205 kJ/mol
# GULP energy per Si atom -5585.278184 kJ/mol
# Density = 2.227795 g / cm^3
# Si number density = 22.328769 Si / 1000 Ang^3
#
#
#
# Elastic Constant Matrix: (Units=GPa)
#
#
# Indices 1 2 3 4 5 6 
#
# 1 135.8865 36.0045 45.5731 6.0955 28.1805 8.6078
# 2 36.0045 75.6499 22.9864 21.3270 5.4435 -0.8858
# 3 45.5731 22.9864 128.1448 11.7815 7.4657 -5.5458
# 4 6.0955 21.3270 11.7815 31.3832 0.8629 -0.3156
# 5 28.1805 5.4435 7.4657 0.8629 45.0523 0.3418
# 6 8.6078 -0.8858 -5.5458 -0.3156 0.3418 53.7283
#
#
#
# Elastic Compliance Matrix: (Units=1/GPa)
#
#
# Indices 1 2 3 4 5 6 
#
# 1 0.010756 -0.004441 -0.002985 0.002186 -0.005723 -0.002055
# 2 -0.004441 0.018787 -0.000732 -0.011644 0.000845 0.000872
# 3 -0.002985 -0.000732 0.009251 -0.002394 0.000458 0.001404
# 4 0.002186 -0.011644 -0.002394 0.040255 -0.000331 -0.000551
# 5 -0.005723 0.000845 0.000458 -0.000331 0.025598 0.000813
# 6 -0.002055 0.000872 0.001404 -0.000551 0.000813 0.019092
#
#
# Mechanical properties :
#
#
# Convention : Reuss Voigt Hill
#
# Bulk Modulus (GPa) = 44.48706 60.97880 52.73293
# Shear Modulus (GPa) = 33.88776 41.70725 37.79750
#
# Velocity S-wave (km/s) = 3.89996 4.32658 4.11879
# Velocity P-wave (km/s) = 6.34401 7.23380 6.80347
#
# Compressibility (1/GPa) = 0.02247844
#
# Stress axis : x y z
#
# Youngs Moduli (GPa) = 92.97356 53.22961 108.09935
#
# Poissons Ratio (x) = 0.23637 0.32269
# Poissons Ratio (y) = 0.41285 0.07909
# Poissons Ratio (z) = 0.27754 0.03895
#
# Static dielectric constant tensor:
#      x y z
#    x 1.966790 0.330570 -0.670050 
#    y 0.330570 2.317370 -0.907150 
#    z -0.670050 -0.907150 3.553550 
# 
# From -- ./inp_files/146674.got.cif
#   From: 2010.05.17/outbox.cif.g08.bks.cpg/sg2_74_cif.got.tgz:146674.got - 2010.06.03 11:33:40.
