data_PCOD9066339
_publ_section_title
;
Structure prediction by ZEFSAII (Michael W. Deem and Ramdas Pophale) SiO2 
 PCOD9066339
Probable space group: P -1
;
_chemical_formula_sum "Si O2"
_cell_formula_units_Z 14
_cell_length_a 10.408444
_cell_length_b 13.133677
_cell_length_c 18.983241
_cell_angle_alpha 34.917191
_cell_angle_beta 23.453799
_cell_angle_gamma 36.999104
_cell_volume 578.795639
_symmetry_space_group_name_H-M "P -1"
_symmetry_group_IT_number 2
_symmetry_cell_setting 'triclinic'
loop_
_space_group_symop_operation_xyz
x,y,z
-x,-y,-z
loop_
_atom_site_type_symbol
_atom_site_label
_atom_site_fract_x
_atom_site_fract_y
_atom_site_fract_z
Si Si1 0.073823 0.111645 0.831473
Si Si2 0.274138 0.522673 0.752049
Si Si3 0.670512 0.364225 0.192354
Si Si4 0.143207 0.973116 0.164239
Si Si5 0.159974 0.780553 0.394539
Si Si6 0.248640 0.480053 0.201430
Si Si7 0.168976 0.907973 0.536090
O O1 0.877117 0.074390 0.881331
O O2 0.973678 0.322795 0.783522
O O3 0.466401 0.057541 0.651694
O O4 0.000000 0.000000 0.000000
O O5 0.457527 0.582160 0.695048
O O6 0.473356 0.338058 0.723384
O O7 0.208323 0.693147 0.637663
O O8 0.931683 0.488484 0.971335
O O9 0.429438 0.410128 0.222675
O O10 0.870021 0.156998 0.208349
O O11 0.059125 0.807950 0.347254
O O12 0.500000 0.000000 0.000000
O O13 0.973572 0.672023 0.604542
O O14 0.083226 0.989731 0.337218
O O15 0.500000 0.500000 0.000000
O O16 0.000000 0.000000 0.500000
#
# Coordination Sequence:
#
# PCOD9066339 Si02
#       7
#     2   2   2   2   2   2   2
#     4  12  29  50  75 111 157 201 255 318 388 457
#     4  11  25  47  73 111 144 199 252 316 374 461
#     4  11  25  45  74 108 153 191 253 310 385 449
#     4  12  26  47  80 114 152 201 258 319 380 459
#     4  12  26  48  78 109 151 201 259 315 386 452
#     4  12  28  48  73 110 156 199 254 320 385 460
#     4  12  29  48  77 110 153 201 258 318 383 456
#
# _framework density 24.188155999999999
#
# number of rings (size 3 to 8) (size 9 to 14) (size 15 to 20)
#    0.000    0.286    4.286    3.429   10.000    4.000 
#    0.000    0.000    0.000    0.000    0.000    0.000 
#    0.000    0.000    0.000    0.000    0.000    0.000 
#
# Total GULP energy -78282.796188 kJ/mol
# GULP energy per Si atom -5591.628299 kJ/mol
# Density = 2.413310 g / cm^3
# Si number density = 24.188156 Si / 1000 Ang^3
#
#
#
# Elastic Constant Matrix: (Units=GPa)
#
#
# Indices 1 2 3 4 5 6 
#
# 1 125.5505 41.4394 39.3969 -0.5663 18.6170 -20.0248
# 2 41.4394 146.6922 12.8602 -0.4294 5.9721 -26.8535
# 3 39.3969 12.8602 94.8782 -9.9519 19.5891 -14.5309
# 4 -0.5663 -0.4294 -9.9519 43.6753 -7.1643 11.6530
# 5 18.6170 5.9721 19.5891 -7.1643 33.5068 -7.7547
# 6 -20.0248 -26.8535 -14.5309 11.6530 -7.7547 39.1265
#
#
#
# Elastic Compliance Matrix: (Units=1/GPa)
#
#
# Indices 1 2 3 4 5 6 
#
# 1 0.010582 -0.002084 -0.003191 -0.001888 -0.003425 0.002684
# 2 -0.002084 0.008307 0.000320 -0.001186 0.000439 0.005194
# 3 -0.003191 0.000320 0.013396 0.001602 -0.005302 0.002033
# 4 -0.001888 -0.001186 0.001602 0.026058 0.004009 -0.008152
# 5 -0.003425 0.000439 -0.005302 0.004009 0.036220 0.002564
# 6 0.002684 0.005194 0.002033 -0.008152 0.002564 0.034187
#
#
# Mechanical properties :
#
#
# Convention : Reuss Voigt Hill
#
# Bulk Modulus (GPa) = 44.69642 61.61264 53.15453
# Shear Modulus (GPa) = 34.21879 41.49000 37.85440
#
# Velocity S-wave (km/s) = 3.76532 4.14611 3.96030
# Velocity P-wave (km/s) = 6.11737 6.96045 6.55249
#
# Compressibility (1/GPa) = 0.02237316
#
# Stress axis : x y z
#
# Youngs Moduli (GPa) = 94.50348 120.37782 74.65017
#
# Poissons Ratio (x) = 0.25090 0.23823
# Poissons Ratio (y) = 0.19697 -0.02388
# Poissons Ratio (z) = 0.30159 -0.03851
#
# Static dielectric constant tensor:
#      x y z
#    x 1.988280 0.114410 -0.092900 
#    y 0.114410 1.891820 0.018310 
#    z -0.092900 0.018310 1.962870 
# 
# From -- ./inp_files/184466.got.cif
#   From: 2010.05.17/outbox.cif.g08.bks.cpg/sg2_93_cif.got.tgz:184466.got - 2010.06.03 11:33:40.
