data_PCOD9066831
_publ_section_title
;
Structure prediction by ZEFSAII (Michael W. Deem and Ramdas Pophale) SiO2 
 PCOD9066831
Probable space group: P -1
;
_chemical_formula_sum "Si O2"
_cell_formula_units_Z 13
_cell_length_a 8.591014
_cell_length_b 10.254420
_cell_length_c 9.385755
_cell_angle_alpha 77.907385
_cell_angle_beta 50.045916
_cell_angle_gamma 107.295224
_cell_volume 506.574726
_symmetry_space_group_name_H-M "P -1"
_symmetry_group_IT_number 2
_symmetry_cell_setting 'triclinic'
loop_
_space_group_symop_operation_xyz
x,y,z
-x,-y,-z
loop_
_atom_site_type_symbol
_atom_site_label
_atom_site_fract_x
_atom_site_fract_y
_atom_site_fract_z
Si Si1 0.305727 0.263942 0.315348
Si Si2 0.328006 0.169797 0.885755
Si Si3 0.305570 0.479567 0.499910
Si Si4 0.500000 0.000000 0.000000
Si Si5 0.180059 0.906365 0.492449
Si Si6 0.210809 0.912293 0.786391
Si Si7 0.852862 0.390246 0.973045
O O1 0.252439 0.332925 0.467926
O O2 0.110415 0.238319 0.318325
O O3 0.223822 0.081630 0.435515
O O4 0.601568 0.374854 0.087943
O O5 0.559067 0.355713 0.707548
O O6 0.311928 0.081751 0.766816
O O7 0.335323 0.068456 0.033849
O O8 0.082351 0.166527 0.032875
O O9 0.500000 0.500000 0.500000
O O10 0.057616 0.448556 0.718516
O O11 0.324498 0.910332 0.267633
O O12 0.278828 0.896930 0.589476
O O13 0.241356 0.795938 0.896198
O O14 0.000000 0.500000 0.000000
#
# Coordination Sequence:
#
# PCOD9066831 Si02
#       7
#     2   2   2   1   2   2   2
#     4  11  25  48  76 109 157 203 253 324 391 462
#     4  11  25  48  79 116 156 203 265 322 392 462
#     4  12  24  47  79 119 159 200 259 333 385 470
#     4  12  28  48  78 112 156 206 260 322 394 458
#     4  11  27  48  75 111 155 207 266 319 383 472
#     4  11  25  46  81 113 150 210 264 322 382 470
#     4  12  26  45  80 119 156 201 256 322 405 461
#
# _framework density 25.662552999999999
#
# number of rings (size 3 to 8) (size 9 to 14) (size 15 to 20)
#    0.000    0.615    3.077    3.692    8.615    1.231 
#    0.000    9.231    0.000    0.000    0.000    0.000 
#    0.000    0.000    0.000    0.000    0.000    0.000 
#
# Total GULP energy -72652.303822 kJ/mol
# GULP energy per Si atom -5588.638756 kJ/mol
# Density = 2.560414 g / cm^3
# Si number density = 25.662553 Si / 1000 Ang^3
#
#
#
# Elastic Constant Matrix: (Units=GPa)
#
#
# Indices 1 2 3 4 5 6 
#
# 1 132.3409 0.6630 49.1685 1.1361 -31.0425 22.1073
# 2 0.6630 89.3665 19.7678 11.7118 -29.0979 13.4747
# 3 49.1685 19.7678 129.4816 32.2587 -34.9247 3.2759
# 4 1.1361 11.7118 32.2587 42.0895 -11.8381 -2.4980
# 5 -31.0425 -29.0979 -34.9247 -11.8381 43.5719 -9.5080
# 6 22.1073 13.4747 3.2759 -2.4980 -9.5080 35.9358
#
#
#
# Elastic Compliance Matrix: (Units=1/GPa)
#
#
# Indices 1 2 3 4 5 6 
#
# 1 0.011556 0.003570 -0.003603 0.003149 0.007281 -0.005974
# 2 0.003570 0.015924 -0.000193 -0.001457 0.011490 -0.005211
# 3 -0.003603 -0.000193 0.012532 -0.007721 0.005715 0.002121
# 4 0.003149 -0.001457 -0.007721 0.031319 0.004156 0.002590
# 5 0.007281 0.011490 0.005715 0.004156 0.041976 0.002086
# 6 -0.005974 -0.005211 0.002121 0.002590 0.002086 0.033995
#
#
# Mechanical properties :
#
#
# Convention : Reuss Voigt Hill
#
# Bulk Modulus (GPa) = 25.27755 54.48751 39.88253
# Shear Modulus (GPa) = 31.06758 43.09209 37.07983
#
# Velocity S-wave (km/s) = 3.48317 4.10223 3.80531
# Velocity P-wave (km/s) = 5.10372 6.61181 5.90610
#
# Compressibility (1/GPa) = 0.03956080
#
# Stress axis : x y z
#
# Youngs Moduli (GPa) = 86.53827 62.79872 79.79706
#
# Poissons Ratio (x) = -0.22419 0.28747
# Poissons Ratio (y) = -0.30894 0.01537
# Poissons Ratio (z) = 0.31176 0.01209
#
# Static dielectric constant tensor:
#      x y z
#    x 2.043100 0.039570 -0.048620 
#    y 0.039570 2.014570 -0.003690 
#    z -0.048620 -0.003690 1.976640 
# 
# From -- ./inp_files/177304.got.cif
#   From: 2010.05.17/outbox.cif.g08.bks.cpg/sg2_89_cif.got.tgz:177304.got - 2010.06.03 11:33:40.
