data_PCOD9066167
_publ_section_title
;
Structure prediction by ZEFSAII (Michael W. Deem and Ramdas Pophale) SiO2 
 PCOD9066167
Probable space group: P -1
;
_chemical_formula_sum "Si O2"
_cell_formula_units_Z 16
_cell_length_a 9.466491
_cell_length_b 14.297196
_cell_length_c 11.951471
_cell_angle_alpha 110.594380
_cell_angle_beta 108.602848
_cell_angle_gamma 29.041415
_cell_volume 734.816879
_symmetry_space_group_name_H-M "P -1"
_symmetry_group_IT_number 2
_symmetry_cell_setting 'triclinic'
loop_
_space_group_symop_operation_xyz
x,y,z
-x,-y,-z
loop_
_atom_site_type_symbol
_atom_site_label
_atom_site_fract_x
_atom_site_fract_y
_atom_site_fract_z
Si Si1 0.209996 0.928593 0.932182
Si Si2 0.195296 0.612904 0.704602
Si Si3 0.844562 0.796686 0.487676
Si Si4 0.319550 0.831271 0.664944
Si Si5 0.210019 0.417616 0.926510
Si Si6 0.813330 0.250655 0.594689
Si Si7 0.839040 0.324085 0.030606
Si Si8 0.015544 0.487645 0.326742
O O1 0.275785 0.838853 0.790725
O O2 0.487968 0.775689 0.017668
O O3 0.000000 0.000000 0.000000
O O4 0.057923 0.121556 0.942977
O O5 0.530020 0.433570 0.676363
O O6 0.120006 0.710324 0.840984
O O7 0.987387 0.766753 0.618119
O O8 0.115412 0.542095 0.677532
O O9 0.004867 0.758928 0.408627
O O10 0.927445 0.632676 0.439284
O O11 0.500000 0.000000 0.500000
O O12 0.311383 0.739875 0.540809
O O13 0.632131 0.708286 0.678965
O O14 0.047631 0.051179 0.639968
O O15 0.129862 0.579377 0.954479
O O16 0.144960 0.402665 0.786399
O O17 0.000000 0.500000 0.000000
O O18 0.500000 0.500000 0.000000
#
# Coordination Sequence:
#
# PCOD9066167 Si02
#       8
#     2   2   2   2   2   2   2   2
#     4  12  26  44  76 103 141 192 235 291 352 418
#     4  11  25  45  70 100 140 180 231 283 355 413
#     4  12  27  42  68 102 136 180 231 280 351 414
#     4  11  25  46  69 100 141 180 234 282 358 411
#     4  11  25  46  69 103 138 184 236 288 353 418
#     4  11  26  43  73 103 134 182 232 290 340 425
#     4  11  25  45  70 105 141 183 234 295 347 416
#     4  11  25  46  68  96 145 181 219 295 352 413
#
# _framework density 21.774132999999999
#
# number of rings (size 3 to 8) (size 9 to 14) (size 15 to 20)
#    0.000    0.750    3.750    2.250    8.750    2.500 
#    0.000    0.000    0.000    0.000    0.000    0.000 
#    0.000    0.000    0.000    0.000    0.000    0.000 
#
# Total GULP energy -89355.300062 kJ/mol
# GULP energy per Si atom -5584.706254 kJ/mol
# Density = 2.172457 g / cm^3
# Si number density = 21.774133 Si / 1000 Ang^3
#
#
#
# Elastic Constant Matrix: (Units=GPa)
#
#
# Indices 1 2 3 4 5 6 
#
# 1 91.4859 21.6115 6.6557 7.4728 -9.9789 -29.9184
# 2 21.6115 118.7556 13.8851 -11.4395 -1.8755 -31.9994
# 3 6.6557 13.8851 106.1279 -10.7405 -7.6997 -3.4271
# 4 7.4728 -11.4395 -10.7405 41.1959 0.9580 2.2733
# 5 -9.9789 -1.8755 -7.6997 0.9580 27.5939 6.8862
# 6 -29.9184 -31.9994 -3.4271 2.2733 6.8862 41.3257
#
#
#
# Elastic Compliance Matrix: (Units=1/GPa)
#
#
# Indices 1 2 3 4 5 6 
#
# 1 0.015029 -0.000132 -0.000754 -0.003600 0.002731 0.010458
# 2 -0.000132 0.011078 -0.001053 0.002395 -0.001809 0.008564
# 3 -0.000754 -0.001053 0.010012 0.002454 0.002640 -0.001106
# 4 -0.003600 0.002395 0.002454 0.026355 -0.000908 -0.001847
# 5 0.002731 -0.001809 0.002640 -0.000908 0.039296 -0.005703
# 6 0.010458 0.008564 -0.001106 -0.001847 -0.005703 0.039361
#
#
# Mechanical properties :
#
#
# Convention : Reuss Voigt Hill
#
# Bulk Modulus (GPa) = 31.01792 44.51934 37.76863
# Shear Modulus (GPa) = 32.10141 40.30422 36.20282
#
# Velocity S-wave (km/s) = 3.84382 4.30701 4.08199
# Velocity P-wave (km/s) = 5.82890 6.72489 6.29286
#
# Compressibility (1/GPa) = 0.03223943
#
# Stress axis : x y z
#
# Youngs Moduli (GPa) = 66.53869 90.27118 99.88128
#
# Poissons Ratio (x) = 0.01196 0.07528
# Poissons Ratio (y) = 0.00881 0.10521
# Poissons Ratio (z) = 0.05015 0.09509
#
# Static dielectric constant tensor:
#      x y z
#    x 1.821330 0.011590 -0.055530 
#    y 0.011590 1.741870 0.023860 
#    z -0.055530 0.023860 1.867420 
# 
# From -- ./inp_files/299590.got.cif
#   From: 2010.05.17/outbox.cif.g08.bks.cpg/sg2_150_cif.got.tgz:299590.got - 2010.06.03 11:33:40.
