data_PCOD9066258
_publ_section_title
;
Structure prediction by ZEFSAII (Michael W. Deem and Ramdas Pophale) SiO2 
 PCOD9066258
Probable space group: P -1
;
_chemical_formula_sum "Si O2"
_cell_formula_units_Z 15
_cell_length_a 9.013852
_cell_length_b 5.464999
_cell_length_c 14.454161
_cell_angle_alpha 80.978553
_cell_angle_beta 89.229781
_cell_angle_gamma 124.463445
_cell_volume 575.208728
_symmetry_space_group_name_H-M "P -1"
_symmetry_group_IT_number 2
_symmetry_cell_setting 'triclinic'
loop_
_space_group_symop_operation_xyz
x,y,z
-x,-y,-z
loop_
_atom_site_type_symbol
_atom_site_label
_atom_site_fract_x
_atom_site_fract_y
_atom_site_fract_z
Si Si1 0.372345 0.576614 0.602713
Si Si2 0.760004 0.226370 0.555425
Si Si3 0.599913 0.835380 0.014515
Si Si4 0.522419 0.724725 0.229670
Si Si5 0.202967 0.660822 0.761747
Si Si6 0.878354 0.630280 0.702024
Si Si7 0.000000 0.000000 0.500000
Si Si8 0.979705 0.250177 0.944513
O O1 0.277123 0.526082 0.505121
O O2 0.413731 0.369291 0.673813
O O3 0.225510 0.571651 0.666733
O O4 0.564967 0.901168 0.575155
O O5 0.818795 0.345010 0.651953
O O6 0.889683 0.173537 0.497347
O O7 0.623399 0.794010 0.126288
O O8 0.500000 0.500000 0.000000
O O9 0.500000 0.000000 0.000000
O O10 0.769843 0.048912 0.933647
O O11 0.307584 0.482211 0.237252
O O12 0.592535 0.065516 0.233166
O O13 0.049848 0.726176 0.757149
O O14 0.122976 0.408030 0.853563
O O15 0.945424 0.900742 0.614381
O O16 0.000000 0.500000 0.000000
O O17 0.000000 0.000000 0.000000
#
# Coordination Sequence:
#
# PCOD9066258 Si02
#       8
#     2   2   2   2   2   2   1   2
#     4  11  25  45  72 109 147 209 249 323 388 460
#     4  11  25  46  72 103 156 199 259 315 394 460
#     4  12  28  52  84 117 159 212 261 332 413 485
#     4  12  27  49  78 109 160 194 266 323 397 472
#     4  12  27  47  76 111 150 203 258 322 391 475
#     4  12  27  46  73 111 150 202 257 317 386 465
#     4  12  24  46  66 104 152 196 254 314 384 456
#     4  12  26  51  78 113 158 202 256 329 407 474
#
# _framework density 26.077487999999999
#
# number of rings (size 3 to 8) (size 9 to 14) (size 15 to 20)
#    0.000    0.267    5.333    2.800    3.733    1.600 
#    0.000    0.000    0.000    0.000    0.000    0.000 
#    0.000    0.000    0.000    0.000    0.000    0.000 
#
# Total GULP energy -83655.641242 kJ/mol
# GULP energy per Si atom -5577.042749 kJ/mol
# Density = 2.601813 g / cm^3
# Si number density = 26.077488 Si / 1000 Ang^3
#
#
#
# Elastic Constant Matrix: (Units=GPa)
#
#
# Indices 1 2 3 4 5 6 
#
# 1 122.6723 18.5030 19.2012 -23.4537 -3.7576 0.9300
# 2 18.5030 84.4957 19.2248 -10.5953 3.1202 -6.3071
# 3 19.2012 19.2248 109.6073 -24.1648 5.9906 -5.4503
# 4 -23.4537 -10.5953 -24.1648 54.4480 -3.5115 -2.9428
# 5 -3.7576 3.1202 5.9906 -3.5115 29.9539 -9.8317
# 6 0.9300 -6.3071 -5.4503 -2.9428 -9.8317 40.1979
#
#
#
# Elastic Compliance Matrix: (Units=1/GPa)
#
#
# Indices 1 2 3 4 5 6 
#
# 1 0.009210 -0.001479 -0.000675 0.003514 0.001919 0.000190
# 2 -0.001479 0.012829 -0.001608 0.001213 -0.000466 0.001804
# 3 -0.000675 -0.001608 0.010543 0.004067 -0.001152 0.001209
# 4 0.003514 0.001213 0.004067 0.022287 0.003116 0.003054
# 5 0.001919 -0.000466 -0.001152 0.003116 0.037245 0.009064
# 6 0.000190 0.001804 0.001209 0.003054 0.009064 0.027760
#
#
# Mechanical properties :
#
#
# Convention : Reuss Voigt Hill
#
# Bulk Modulus (GPa) = 39.90889 47.84815 43.87852
# Shear Modulus (GPa) = 36.83238 42.24304 39.53771
#
# Velocity S-wave (km/s) = 3.76230 4.02917 3.89802
# Velocity P-wave (km/s) = 5.84896 6.32723 6.09279
#
# Compressibility (1/GPa) = 0.02505707
#
# Stress axis : x y z
#
# Youngs Moduli (GPa) = 108.58160 77.94996 94.84569
#
# Poissons Ratio (x) = 0.11531 0.06399
# Poissons Ratio (y) = 0.16063 0.15255
# Poissons Ratio (z) = 0.07325 0.12538
#
# Static dielectric constant tensor:
#      x y z
#    x 2.120190 -0.153370 -0.055500 
#    y -0.153370 1.785780 0.168790 
#    z -0.055500 0.168790 2.196170 
# 
# From -- ./inp_files/488197.got.cif
#   From: 2010.05.17/outbox.cif.g08.bks.cpg/sg2_245_cif.got.tgz:488197.got - 2010.06.03 11:33:40.
