data_PCOD9066627
_publ_section_title
;
Structure prediction by ZEFSAII (Michael W. Deem and Ramdas Pophale) SiO2 
 PCOD9066627
Probable space group: P -1
;
_chemical_formula_sum "Si O2"
_cell_formula_units_Z 12
_cell_length_a 9.895003
_cell_length_b 8.149125
_cell_length_c 8.506965
_cell_angle_alpha 54.636656
_cell_angle_beta 100.929573
_cell_angle_gamma 123.252543
_cell_volume 459.526131
_symmetry_space_group_name_H-M "P -1"
_symmetry_group_IT_number 2
_symmetry_cell_setting 'triclinic'
loop_
_space_group_symop_operation_xyz
x,y,z
-x,-y,-z
loop_
_atom_site_type_symbol
_atom_site_label
_atom_site_fract_x
_atom_site_fract_y
_atom_site_fract_z
Si Si1 0.950754 0.298818 0.734863
Si Si2 0.164608 0.145550 0.259149
Si Si3 0.614529 0.186970 0.788514
Si Si4 0.803012 0.025153 0.317994
Si Si5 0.736012 0.431055 0.137993
Si Si6 0.500000 0.500000 0.500000
Si Si7 0.500000 0.000000 0.500000
O O1 0.799944 0.266544 0.815455
O O2 0.000000 0.500000 0.500000
O O3 0.104211 0.380600 0.832362
O O4 0.884838 0.045512 0.782197
O O5 0.234531 0.056658 0.460565
O O6 0.288400 0.415329 0.078532
O O7 0.991328 0.112552 0.285810
O O8 0.618533 0.430150 0.643839
O O9 0.562246 0.076014 0.660886
O O10 0.500000 0.000000 0.000000
O O11 0.663818 0.782909 0.336406
O O12 0.778574 0.244360 0.182318
O O13 0.593804 0.282434 0.315236
#
# Coordination Sequence:
#
# PCOD9066627 Si02
#       7
#     2   2   2   2   2   1   1
#     4  12  24  51  77 112 160 202 260 334 392 477
#     4  11  26  46  79 110 149 212 258 322 407 475
#     4  12  30  51  79 117 160 211 266 332 405 473
#     4  11  25  46  72 114 152 200 267 330 384 484
#     4  12  26  47  76 110 158 210 262 327 403 473
#     4  12  28  46  74 114 160 204 258 334 396 466
#     4  12  26  52  76 114 166 204 266 342 384 478
#
# _framework density 26.113856999999999
#
# number of rings (size 3 to 8) (size 9 to 14) (size 15 to 20)
#    0.000    0.333    5.000    2.000    7.000    1.333 
#    0.000    2.500    0.000    0.000    0.000    0.000 
#    0.000    0.000    0.000    0.000    0.000    0.000 
#
# Total GULP energy -66820.379034 kJ/mol
# GULP energy per Si atom -5568.364919 kJ/mol
# Density = 2.605442 g / cm^3
# Si number density = 26.113857 Si / 1000 Ang^3
#
#
#
# Elastic Constant Matrix: (Units=GPa)
#
#
# Indices 1 2 3 4 5 6 
#
# 1 54.5640 -0.4277 33.7304 -8.5447 -11.2526 -7.2730
# 2 -0.4277 82.3375 46.0886 1.9302 17.9383 4.6652
# 3 33.7304 46.0886 204.4857 -23.4702 4.5847 -26.5505
# 4 -8.5447 1.9302 -23.4702 51.0553 -1.9605 10.6109
# 5 -11.2526 17.9383 4.5847 -1.9605 44.4978 -17.9375
# 6 -7.2730 4.6652 -26.5505 10.6109 -17.9375 31.9434
#
#
#
# Elastic Compliance Matrix: (Units=1/GPa)
#
#
# Indices 1 2 3 4 5 6 
#
# 1 0.023356 -0.001216 -0.002522 0.001385 0.010214 0.008675
# 2 -0.001216 0.019404 -0.005992 -0.000998 -0.013811 -0.015516
# 3 -0.002522 -0.005992 0.007910 0.001772 0.004621 0.008882
# 4 0.001385 -0.000998 0.001772 0.021839 -0.000792 -0.005765
# 5 0.010214 -0.013811 0.004621 -0.000792 0.043325 0.032775
# 6 0.008675 -0.015516 0.008882 -0.005765 0.032775 0.063248
#
#
# Mechanical properties :
#
#
# Convention : Reuss Voigt Hill
#
# Bulk Modulus (GPa) = 32.04166 55.57444 43.80805
# Shear Modulus (GPa) = 23.92952 42.96569 33.44760
#
# Velocity S-wave (km/s) = 3.03042 4.06066 3.58276
# Velocity P-wave (km/s) = 4.95391 6.58126 5.82470
#
# Compressibility (1/GPa) = 0.03120937
#
# Stress axis : x y z
#
# Youngs Moduli (GPa) = 42.81465 51.53468 126.42270
#
# Poissons Ratio (x) = 0.06267 0.31888
# Poissons Ratio (y) = 0.05207 0.75756
# Poissons Ratio (z) = 0.10799 0.30881
#
# Static dielectric constant tensor:
#      x y z
#    x 2.738840 -0.071960 -0.032960 
#    y -0.071960 2.261020 0.021410 
#    z -0.032960 0.021410 2.256360 
# 
# From -- ./inp_files/230158.got.cif
#   From: 2010.05.17/outbox.cif.g08.bks.cpg/sg2_116_cif.got.tgz:230158.got - 2010.06.03 11:33:40.
