data_PCOD9066295
_publ_section_title
;
Structure prediction by ZEFSAII (Michael W. Deem and Ramdas Pophale) SiO2 
 PCOD9066295
Probable space group: P -1
;
_chemical_formula_sum "Si O2"
_cell_formula_units_Z 16
_cell_length_a 8.118649
_cell_length_b 16.832028
_cell_length_c 12.206185
_cell_angle_alpha 32.088618
_cell_angle_beta 53.597599
_cell_angle_gamma 65.990467
_cell_volume 695.023970
_symmetry_space_group_name_H-M "P -1"
_symmetry_group_IT_number 2
_symmetry_cell_setting 'triclinic'
loop_
_space_group_symop_operation_xyz
x,y,z
-x,-y,-z
loop_
_atom_site_type_symbol
_atom_site_label
_atom_site_fract_x
_atom_site_fract_y
_atom_site_fract_z
Si Si1 0.405222 0.151148 0.985521
Si Si2 0.480438 0.173883 0.678650
Si Si3 0.953438 0.997865 0.392547
Si Si4 0.237066 0.290084 0.323694
Si Si5 0.784873 0.419736 0.122537
Si Si6 0.126538 0.316857 0.580440
Si Si7 0.340019 0.792928 0.765411
Si Si8 0.690506 0.338469 0.825767
O O1 0.469845 0.990444 0.176046
O O2 0.497923 0.197916 0.774414
O O3 0.493808 0.274087 0.900324
O O4 0.152648 0.111388 0.126800
O O5 0.639743 0.306096 0.396126
O O6 0.247254 0.187386 0.720755
O O7 0.923162 0.831716 0.543794
O O8 0.737766 0.051727 0.396456
O O9 0.000000 0.000000 0.500000
O O10 0.136639 0.326952 0.433297
O O11 0.434542 0.217335 0.358580
O O12 0.316596 0.443964 0.042289
O O13 0.819252 0.324269 0.113021
O O14 0.000000 0.500000 0.000000
O O15 0.252297 0.478474 0.393375
O O16 0.890527 0.292827 0.743231
O O17 0.336488 0.739112 0.954127
#
# Coordination Sequence:
#
# PCOD9066295 Si02
#       8
#     2   2   2   2   2   2   2   2
#     4  11  27  47  71 105 149 189 240 299 368 435
#     4  11  25  46  70 104 142 191 245 290 367 434
#     4  12  27  46  71 110 147 190 244 305 370 426
#     4  12  25  46  77 106 145 192 248 298 355 446
#     4  12  25  43  75 106 144 190 240 301 356 430
#     4  11  25  45  73 108 144 191 245 295 365 431
#     4  12  24  45  70 107 143 190 245 297 367 426
#     4  11  26  45  73 107 148 188 242 306 359 433
#
# _framework density 23.020789000000001
#
# number of rings (size 3 to 8) (size 9 to 14) (size 15 to 20)
#    0.000    0.500    2.500    5.250    7.000    2.000 
#    0.000    0.000    0.000    0.000    0.000    0.000 
#    0.000    0.000    0.000    0.000    0.000    0.000 
#
# Total GULP energy -89661.266233 kJ/mol
# GULP energy per Si atom -5603.829140 kJ/mol
# Density = 2.296839 g / cm^3
# Si number density = 23.020789 Si / 1000 Ang^3
#
#
#
# Elastic Constant Matrix: (Units=GPa)
#
#
# Indices 1 2 3 4 5 6 
#
# 1 65.7222 28.3997 25.9943 -0.7038 0.1135 16.2076
# 2 28.3997 105.4392 37.0448 12.6188 -2.3859 12.0509
# 3 25.9943 37.0448 84.3315 19.4783 0.1657 16.2655
# 4 -0.7038 12.6188 19.4783 37.8240 0.7607 0.2193
# 5 0.1135 -2.3859 0.1657 0.7607 31.1095 -6.1966
# 6 16.2076 12.0509 16.2655 0.2193 -6.1966 58.9619
#
#
#
# Elastic Compliance Matrix: (Units=1/GPa)
#
#
# Indices 1 2 3 4 5 6 
#
# 1 0.019577 -0.003753 -0.004652 0.004055 -0.001124 -0.003464
# 2 -0.003753 0.012079 -0.003556 -0.002285 0.000946 -0.000348
# 3 -0.004652 -0.003556 0.017173 -0.007713 -0.000712 -0.002778
# 4 0.004055 -0.002285 -0.007713 0.031254 -0.000655 0.001295
# 5 -0.001124 0.000946 -0.000712 -0.000655 0.032994 0.003782
# 6 -0.003464 -0.000348 -0.002778 0.001295 0.003782 0.019142
#
#
# Mechanical properties :
#
#
# Convention : Reuss Voigt Hill
#
# Bulk Modulus (GPa) = 40.15024 48.70785 44.42905
# Shear Modulus (GPa) = 30.40552 36.51602 33.46077
#
# Velocity S-wave (km/s) = 3.63820 3.98706 3.81662
# Velocity P-wave (km/s) = 5.92684 6.51150 6.22604
#
# Compressibility (1/GPa) = 0.02490645
#
# Stress axis : x y z
#
# Youngs Moduli (GPa) = 51.08045 82.78717 58.23226
#
# Poissons Ratio (x) = 0.31073 0.27088
# Poissons Ratio (y) = 0.19173 0.20707
# Poissons Ratio (z) = 0.23762 0.29439
#
# Static dielectric constant tensor:
#      x y z
#    x 1.872520 -0.014250 -0.018160 
#    y -0.014250 1.869150 -0.027970 
#    z -0.018160 -0.027970 1.844620 
# 
# From -- ./inp_files/402636.got.cif
#   From: 2010.05.17/outbox.cif.g08.bks.cpg/sg2_202_cif.got.tgz:402636.got - 2010.06.03 11:33:40.
