data_PCOD9066843
_publ_section_title
;
Structure prediction by ZEFSAII (Michael W. Deem and Ramdas Pophale) SiO2 
 PCOD9066843
Probable space group: P -1
;
_chemical_formula_sum "Si O2"
_cell_formula_units_Z 15
_cell_length_a 15.121102
_cell_length_b 12.232905
_cell_length_c 21.426577
_cell_angle_alpha 25.685915
_cell_angle_beta 21.621389
_cell_angle_gamma 38.275552
_cell_volume 597.487577
_symmetry_space_group_name_H-M "P -1"
_symmetry_group_IT_number 2
_symmetry_cell_setting 'triclinic'
loop_
_space_group_symop_operation_xyz
x,y,z
-x,-y,-z
loop_
_atom_site_type_symbol
_atom_site_label
_atom_site_fract_x
_atom_site_fract_y
_atom_site_fract_z
Si Si1 0.957563 0.295281 0.284408
Si Si2 0.157994 0.950581 0.646976
Si Si3 0.486760 0.484446 0.161344
Si Si4 0.962552 0.234386 0.856827
Si Si5 0.920809 0.804958 0.009518
Si Si6 0.606955 0.243935 0.646935
Si Si7 0.302889 0.852019 0.153575
Si Si8 0.500000 0.500000 0.000000
O O1 0.854992 0.207737 0.327460
O O2 0.002257 0.607355 0.102272
O O3 0.759473 0.143844 0.545040
O O4 0.240751 0.302146 0.108372
O O5 0.430161 0.167865 0.369775
O O6 0.961954 0.109365 0.678854
O O7 0.045598 0.800787 0.861836
O O8 0.297991 0.556142 0.296605
O O9 0.434315 0.518707 0.105857
O O10 0.711018 0.330106 0.971258
O O11 0.192135 0.511856 0.574683
O O12 0.980778 0.095697 0.849892
O O13 0.000000 0.000000 0.000000
O O14 0.616266 0.664531 0.281911
O O15 0.431877 0.013844 0.924122
O O16 0.500000 0.000000 0.000000
#
# Coordination Sequence:
#
# PCOD9066843 Si02
#       8
#     2   2   2   2   2   2   2   1
#     4  12  25  46  72 110 144 196 258 316 388 450
#     4  11  27  44  74 100 150 197 252 317 380 467
#     4  12  27  45  72 108 151 190 259 317 381 456
#     4  12  26  48  76 112 153 201 254 313 390 454
#     4  11  26  48  72 108 150 202 251 308 393 461
#     4  11  26  46  75 104 148 198 248 320 379 460
#     4  11  25  47  69 101 146 198 243 312 392 452
#     4  12  26  44  74 114 148 194 256 314 378 452
#
# _framework density 25.105125999999998
#
# number of rings (size 3 to 8) (size 9 to 14) (size 15 to 20)
#    0.000    0.533    4.000    2.800    7.467    2.133 
#    0.000    0.000    0.000    0.000    0.000    0.000 
#    0.000    0.000    0.000    0.000    0.000    0.000 
#
# Total GULP energy -83504.043780 kJ/mol
# GULP energy per Si atom -5566.936252 kJ/mol
# Density = 2.504799 g / cm^3
# Si number density = 25.105126 Si / 1000 Ang^3
#
#
#
# Elastic Constant Matrix: (Units=GPa)
#
#
# Indices 1 2 3 4 5 6 
#
# 1 69.3916 15.7416 16.8786 -4.8538 8.6707 12.4487
# 2 15.7416 103.8501 18.2258 5.8470 0.2250 13.4735
# 3 16.8786 18.2258 98.7868 -4.5397 -5.1480 12.6210
# 4 -4.8538 5.8470 -4.5397 30.6202 5.4187 -8.1860
# 5 8.6707 0.2250 -5.1480 5.4187 36.8061 8.3044
# 6 12.4487 13.4735 12.6210 -8.1860 8.3044 50.6128
#
#
#
# Elastic Compliance Matrix: (Units=1/GPa)
#
#
# Indices 1 2 3 4 5 6 
#
# 1 0.016480 -0.002020 -0.002302 0.002929 -0.004223 -0.001775
# 2 -0.002020 0.010740 -0.001368 -0.003574 0.001383 -0.002826
# 3 -0.002302 -0.001368 0.011205 0.000522 0.002536 -0.002196
# 4 0.002929 -0.003574 0.000522 0.037229 -0.007744 0.007393
# 5 -0.004223 0.001383 0.002536 -0.007744 0.031075 -0.006313
# 6 -0.001775 -0.002826 -0.002196 0.007393 -0.006313 0.023726
#
#
# Mechanical properties :
#
#
# Convention : Reuss Voigt Hill
#
# Bulk Modulus (GPa) = 36.97194 41.52449 39.24821
# Shear Modulus (GPa) = 33.14567 38.35333 35.74950
#
# Velocity S-wave (km/s) = 3.63750 3.91283 3.77768
# Velocity P-wave (km/s) = 5.69216 6.08193 5.89027
#
# Compressibility (1/GPa) = 0.02704754
#
# Stress axis : x y z
#
# Youngs Moduli (GPa) = 60.67968 93.10712 89.24519
#
# Poissons Ratio (x) = 0.18803 0.20542
# Poissons Ratio (y) = 0.12255 0.12205
# Poissons Ratio (z) = 0.13967 0.12733
#
# Static dielectric constant tensor:
#      x y z
#    x 1.979570 0.039270 0.021660 
#    y 0.039270 1.782040 -0.032830 
#    z 0.021660 -0.032830 2.015300 
# 
# From -- ./inp_files/597928.got.cif
#   From: 2010.05.17/outbox.cif.g08.bks.cpg/sg2_299_cif.got.tgz:597928.got - 2010.06.03 11:33:40.
