data_PCOD9066065
_publ_section_title
;
Structure prediction by ZEFSAII (Michael W. Deem and Ramdas Pophale) SiO2 
 PCOD9066065
Probable space group: P -1
;
_chemical_formula_sum "Si O2"
_cell_formula_units_Z 14
_cell_length_a 19.145684
_cell_length_b 7.757481
_cell_length_c 6.517237
_cell_angle_alpha 118.618245
_cell_angle_beta 74.588821
_cell_angle_gamma 134.167511
_cell_volume 605.932246
_symmetry_space_group_name_H-M "P -1"
_symmetry_group_IT_number 2
_symmetry_cell_setting 'triclinic'
loop_
_space_group_symop_operation_xyz
x,y,z
-x,-y,-z
loop_
_atom_site_type_symbol
_atom_site_label
_atom_site_fract_x
_atom_site_fract_y
_atom_site_fract_z
Si Si1 0.906629 0.915220 0.908060
Si Si2 0.672406 0.321336 0.085576
Si Si3 0.579657 0.916720 0.260972
Si Si4 0.888167 0.239466 0.395960
Si Si5 0.745814 0.295114 0.655476
Si Si6 0.195653 0.191992 0.442299
Si Si7 0.363970 0.423034 0.102331
O O1 0.817279 0.604895 0.833895
O O2 0.902155 0.925626 0.672881
O O3 0.886493 0.089035 0.122302
O O4 0.000000 0.000000 0.000000
O O5 0.756179 0.554823 0.307004
O O6 0.587162 0.081925 0.160047
O O7 0.706008 0.189504 0.855176
O O8 0.648006 0.454810 0.020055
O O9 0.467368 0.673131 0.265146
O O10 0.647695 0.132118 0.507123
O O11 0.623818 0.780656 0.095947
O O12 0.818001 0.296113 0.464282
O O13 0.000000 0.500000 0.500000
O O14 0.838637 0.041830 0.515383
O O15 0.277960 0.286489 0.261608
#
# Coordination Sequence:
#
# PCOD9066065 Si02
#       7
#     2   2   2   2   2   2   2
#     4  12  25  49  70 103 140 186 241 296 360 435
#     4  12  23  44  73 103 145 193 236 296 362 425
#     4  11  25  44  73 108 147 196 234 303 363 423
#     4  12  27  47  73 105 140 189 243 302 363 431
#     4  12  24  47  71 105 146 183 243 294 358 431
#     4  12  24  47  72 100 145 186 235 306 354 429
#     4  11  25  46  72 109 148 187 251 290 361 444
#
# _framework density 23.104894000000002
#
# number of rings (size 3 to 8) (size 9 to 14) (size 15 to 20)
#    0.000    0.286    5.714    3.000    0.000    4.571 
#    2.571    3.571    0.000    0.000    0.000    0.000 
#    0.000    0.000    0.000    0.000    0.000    0.000 
#
# Total GULP energy -78124.659040 kJ/mol
# GULP energy per Si atom -5580.332789 kJ/mol
# Density = 2.305231 g / cm^3
# Si number density = 23.104894 Si / 1000 Ang^3
#
#
#
# Elastic Constant Matrix: (Units=GPa)
#
#
# Indices 1 2 3 4 5 6 
#
# 1 90.5415 18.2744 54.6871 12.1185 -0.7258 13.8290
# 2 18.2744 121.7806 41.3250 18.5574 7.9703 10.8606
# 3 54.6871 41.3250 140.3404 20.9711 6.5941 17.4908
# 4 12.1185 18.5574 20.9711 35.7664 12.3324 10.4451
# 5 -0.7258 7.9703 6.5941 12.3324 33.6782 2.4465
# 6 13.8290 10.8606 17.4908 10.4451 2.4465 34.4072
#
#
#
# Elastic Compliance Matrix: (Units=1/GPa)
#
#
# Indices 1 2 3 4 5 6 
#
# 1 0.014955 -0.000058 -0.005275 -0.001879 0.002268 -0.002902
# 2 -0.000058 0.009565 -0.002178 -0.003203 -0.000602 -0.000873
# 3 -0.005275 -0.002178 0.010435 -0.002498 -0.000604 -0.001696
# 4 -0.001879 -0.003203 -0.002498 0.038179 -0.012215 -0.007685
# 5 0.002268 -0.000602 -0.000604 -0.012215 0.034414 0.000847
# 6 -0.002902 -0.000873 -0.001696 -0.007685 0.000847 0.033641
#
#
# Mechanical properties :
#
#
# Convention : Reuss Voigt Hill
#
# Bulk Modulus (GPa) = 50.16509 64.58172 57.37341
# Shear Modulus (GPa) = 30.70224 36.66208 33.68216
#
# Velocity S-wave (km/s) = 3.64925 3.98775 3.82225
# Velocity P-wave (km/s) = 6.28610 7.01534 6.66071
#
# Compressibility (1/GPa) = 0.01993418
#
# Stress axis : x y z
#
# Youngs Moduli (GPa) = 66.86658 104.55108 95.82793
#
# Poissons Ratio (x) = 0.00601 0.50547
# Poissons Ratio (y) = 0.00385 0.20873
# Poissons Ratio (z) = 0.35271 0.22774
#
# Static dielectric constant tensor:
#      x y z
#    x 1.991340 -0.074070 -0.046920 
#    y -0.074070 1.940180 -0.053680 
#    z -0.046920 -0.053680 1.919480 
# 
# From -- ./inp_files/117362.got.cif
#   From: 2010.05.17/outbox.cif.g08.bks.cpg/sg2_59_cif.got.tgz:117362.got - 2010.06.03 11:33:40.
