data_PCOD9066367
_publ_section_title
;
Structure prediction by ZEFSAII (Michael W. Deem and Ramdas Pophale) SiO2 
 PCOD9066367
Probable space group: P -1
;
_chemical_formula_sum "Si O2"
_cell_formula_units_Z 15
_cell_length_a 6.579561
_cell_length_b 6.903744
_cell_length_c 25.909450
_cell_angle_alpha 124.547819
_cell_angle_beta 135.741893
_cell_angle_gamma 66.857794
_cell_volume 676.330186
_symmetry_space_group_name_H-M "P -1"
_symmetry_group_IT_number 2
_symmetry_cell_setting 'triclinic'
loop_
_space_group_symop_operation_xyz
x,y,z
-x,-y,-z
loop_
_atom_site_type_symbol
_atom_site_label
_atom_site_fract_x
_atom_site_fract_y
_atom_site_fract_z
Si Si1 0.114828 0.760206 0.271260
Si Si2 0.768373 0.620798 0.363310
Si Si3 0.000000 0.500000 0.500000
Si Si4 0.299568 0.856044 0.783828
Si Si5 0.156158 0.975248 0.424875
Si Si6 0.291748 0.702101 0.876537
Si Si7 0.246008 0.491687 0.993604
Si Si8 0.096490 0.905405 0.093191
O O1 0.448801 0.723316 0.311601
O O2 0.102825 0.856495 0.341853
O O3 0.942121 0.512400 0.200132
O O4 0.949491 0.951558 0.236347
O O5 0.820622 0.577634 0.426502
O O6 0.790619 0.381515 0.298392
O O7 0.010557 0.806093 0.415379
O O8 0.978018 0.769034 0.558887
O O9 0.349605 0.798116 0.844228
O O10 0.590700 0.964788 0.826323
O O11 0.500000 0.000000 0.500000
O O12 0.579809 0.601033 0.938762
O O13 0.150840 0.902569 0.916904
O O14 0.129261 0.748217 0.023719
O O15 0.500000 0.500000 0.000000
O O16 0.992755 0.294668 0.910647
#
# Coordination Sequence:
#
# PCOD9066367 Si02
#       8
#     2   2   1   2   2   2   2   2
#     4  12  26  46  70 107 146 187 242 300 364 430
#     4  12  27  48  73 109 144 192 244 300 361 435
#     4  12  26  46  76 104 142 192 240 292 370 428
#     4  12  26  46  73 107 146 193 245 300 360 431
#     4  12  27  48  73 107 144 188 242 299 362 436
#     4  12  26  46  74 106 144 193 242 297 364 430
#     4  11  26  48  73 111 150 189 244 300 355 434
#     4  11  25  45  75 106 143 195 238 294 364 424
#
# _framework density 22.178515999999998
#
# number of rings (size 3 to 8) (size 9 to 14) (size 15 to 20)
#    0.000    0.267    6.667    1.600    0.000    8.000 
#    0.000    0.000    0.000    0.000    0.000    0.000 
#    0.000    0.000    0.000    0.000    0.000    0.000 
#
# Total GULP energy -83692.558472 kJ/mol
# GULP energy per Si atom -5579.503898 kJ/mol
# Density = 2.212804 g / cm^3
# Si number density = 22.178516 Si / 1000 Ang^3
#
#
#
# Elastic Constant Matrix: (Units=GPa)
#
#
# Indices 1 2 3 4 5 6 
#
# 1 112.1182 48.3169 43.3404 10.9652 12.3658 -7.8352
# 2 48.3169 117.3743 45.0563 10.6506 8.2329 -14.1128
# 3 43.3404 45.0563 77.9044 6.7700 10.7919 -3.8711
# 4 10.9652 10.6506 6.7700 54.0061 2.6473 -18.2263
# 5 12.3658 8.2329 10.7919 2.6473 51.1678 8.4029
# 6 -7.8352 -14.1128 -3.8711 -18.2263 8.4029 26.9013
#
#
#
# Elastic Compliance Matrix: (Units=1/GPa)
#
#
# Indices 1 2 3 4 5 6 
#
# 1 0.012401 -0.002881 -0.004860 -0.000785 -0.001698 0.001400
# 2 -0.002881 0.012413 -0.005189 0.000826 -0.001212 0.005865
# 3 -0.004860 -0.005189 0.018767 -0.000737 -0.001679 -0.001412
# 4 -0.000785 0.000826 -0.000737 0.024982 -0.004086 0.018301
# 5 -0.001698 -0.001212 -0.001679 -0.004086 0.022551 -0.011184
# 6 0.001400 0.005865 -0.001412 0.018301 -0.011184 0.056347
#
#
# Mechanical properties :
#
#
# Convention : Reuss Voigt Hill
#
# Bulk Modulus (GPa) = 56.42632 64.53600 60.48116
# Shear Modulus (GPa) = 27.89759 37.79394 32.84577
#
# Velocity S-wave (km/s) = 3.55049 4.13253 3.85252
# Velocity P-wave (km/s) = 6.50423 7.20638 6.86429
#
# Compressibility (1/GPa) = 0.01772223
#
# Stress axis : x y z
#
# Youngs Moduli (GPa) = 80.63794 80.56348 53.28386
#
# Poissons Ratio (x) = 0.23207 0.25897
# Poissons Ratio (y) = 0.23229 0.27647
# Poissons Ratio (z) = 0.39191 0.41802
#
# Static dielectric constant tensor:
#      x y z
#    x 1.830950 0.027510 -0.001220 
#    y 0.027510 1.790140 0.015020 
#    z -0.001220 0.015020 1.811460 
# 
# From -- ./inp_files/545958.got.cif
#   From: 2010.05.17/outbox.cif.g08.bks.cpg/sg2_273_cif.got.tgz:545958.got - 2010.06.03 11:33:40.
