data_PCOD9066317
_publ_section_title
;
Structure prediction by ZEFSAII (Michael W. Deem and Ramdas Pophale) SiO2 
 PCOD9066317
Probable space group: P -1
;
_chemical_formula_sum "Si O2"
_cell_formula_units_Z 14
_cell_length_a 11.636609
_cell_length_b 13.338320
_cell_length_c 11.090628
_cell_angle_alpha 107.867728
_cell_angle_beta 145.356272
_cell_angle_gamma 96.307208
_cell_volume 691.762519
_symmetry_space_group_name_H-M "P -1"
_symmetry_group_IT_number 2
_symmetry_cell_setting 'triclinic'
loop_
_space_group_symop_operation_xyz
x,y,z
-x,-y,-z
loop_
_atom_site_type_symbol
_atom_site_label
_atom_site_fract_x
_atom_site_fract_y
_atom_site_fract_z
Si Si1 0.764775 0.398269 0.660875
Si Si2 0.945016 0.884362 0.252030
Si Si3 0.433013 0.091755 0.926186
Si Si4 0.981264 0.617720 0.525140
Si Si5 0.280964 0.403590 0.459034
Si Si6 0.158388 0.150142 0.125587
Si Si7 0.160573 0.390019 0.861607
O O1 0.705163 0.489173 0.576448
O O2 0.485984 0.254413 0.423273
O O3 0.896337 0.363001 0.665800
O O4 0.000000 0.500000 0.000000
O O5 0.714016 0.886749 0.093333
O O6 0.867242 0.742236 0.180747
O O7 0.967866 0.886482 0.129821
O O8 0.221613 0.012995 0.604477
O O9 0.716341 0.235965 0.180941
O O10 0.500000 0.000000 0.000000
O O11 0.868601 0.618621 0.554700
O O12 0.809172 0.589082 0.247876
O O13 0.000000 0.500000 0.500000
O O14 0.140682 0.255255 0.219162
O O15 0.584300 0.479933 0.793001
O O16 0.000000 0.000000 0.000000
#
# Coordination Sequence:
#
# PCOD9066317 Si02
#       7
#     2   2   2   2   2   2   2
#     4  12  24  46  75  98 140 190 239 285 359 425
#     4  11  25  45  74 102 140 190 236 285 363 425
#     4  11  25  46  73 102 142 188 234 295 354 426
#     4  12  25  44  73 110 140 180 242 295 360 418
#     4  12  26  46  71 106 145 186 239 298 350 435
#     4  12  28  46  72 105 146 189 237 299 358 418
#     4  12  23  45  77 102 139 188 235 295 354 432
#
# _framework density 20.238161000000002
#
# number of rings (size 3 to 8) (size 9 to 14) (size 15 to 20)
#    0.000    0.286    5.714    3.429    2.000    2.286 
#    0.000    2.143    0.000    0.000    0.000    0.000 
#    0.000    0.000    0.000    0.000    0.000    0.000 
#
# Total GULP energy -78326.485864 kJ/mol
# GULP energy per Si atom -5594.748990 kJ/mol
# Density = 2.019210 g / cm^3
# Si number density = 20.238161 Si / 1000 Ang^3
#
#
#
# Elastic Constant Matrix: (Units=GPa)
#
#
# Indices 1 2 3 4 5 6 
#
# 1 156.1297 78.2779 53.7600 -0.7727 -8.3864 -3.7681
# 2 78.2779 168.2300 55.0301 15.2343 5.2562 8.0046
# 3 53.7600 55.0301 119.5822 4.0512 -1.2016 13.4047
# 4 -0.7727 15.2343 4.0512 35.3733 4.8809 -2.8285
# 5 -8.3864 5.2562 -1.2016 4.8809 43.4599 -4.8429
# 6 -3.7681 8.0046 13.4047 -2.8285 -4.8429 44.5173
#
#
#
# Elastic Compliance Matrix: (Units=1/GPa)
#
#
# Indices 1 2 3 4 5 6 
#
# 1 0.009544 -0.003903 -0.002852 0.002118 0.002304 0.002754
# 2 -0.003903 0.008885 -0.002036 -0.003586 -0.001674 -0.001725
# 3 -0.002852 -0.002036 0.010966 -0.000661 -0.000289 -0.003251
# 4 0.002118 -0.003586 -0.000661 0.030470 -0.002296 0.002709
# 5 0.002304 -0.001674 -0.000289 -0.002296 0.024249 0.003075
# 6 0.002754 -0.001725 -0.003251 0.002709 0.003075 0.024492
#
#
# Mechanical properties :
#
#
# Convention : Reuss Voigt Hill
#
# Bulk Modulus (GPa) = 84.65366 90.89754 87.77560
# Shear Modulus (GPa) = 38.42408 41.79502 40.10955
#
# Velocity S-wave (km/s) = 4.36201 4.54933 4.45666
# Velocity P-wave (km/s) = 8.20299 8.52095 8.36349
#
# Compressibility (1/GPa) = 0.01181284
#
# Stress axis : x y z
#
# Youngs Moduli (GPa) = 104.77253 112.54308 91.19418
#
# Poissons Ratio (x) = 0.43925 0.26009
# Poissons Ratio (y) = 0.40892 0.18570
# Poissons Ratio (z) = 0.29882 0.22918
#
# Static dielectric constant tensor:
#      x y z
#    x 1.731830 -0.004850 -0.008150 
#    y -0.004850 1.756840 0.003780 
#    z -0.008150 0.003780 1.743090 
# 
# From -- ./inp_files/78258.got.cif
#   From: 2010.05.17/outbox.cif.g08.bks.cpg/sg2_40_cif.got.tgz:78258.got - 2010.06.03 11:33:40.
