data_PCOD9066474
_publ_section_title
;
Structure prediction by ZEFSAII (Michael W. Deem and Ramdas Pophale) SiO2 
 PCOD9066474
Probable space group: P -1
;
_chemical_formula_sum "Si O2"
_cell_formula_units_Z 16
_cell_length_a 11.447865
_cell_length_b 17.532230
_cell_length_c 9.476990
_cell_angle_alpha 51.890142
_cell_angle_beta 50.737888
_cell_angle_gamma 30.403066
_cell_volume 732.857351
_symmetry_space_group_name_H-M "P -1"
_symmetry_group_IT_number 2
_symmetry_cell_setting 'triclinic'
loop_
_space_group_symop_operation_xyz
x,y,z
-x,-y,-z
loop_
_atom_site_type_symbol
_atom_site_label
_atom_site_fract_x
_atom_site_fract_y
_atom_site_fract_z
Si Si1 0.839718 0.935315 0.612716
Si Si2 0.207880 0.453596 0.753148
Si Si3 0.969023 0.670747 0.940090
Si Si4 0.703450 0.171991 0.625153
Si Si5 0.206160 0.642330 0.071114
Si Si6 0.070070 0.370645 0.506944
Si Si7 0.583895 0.066435 0.377244
Si Si8 0.882460 0.988653 0.987862
O O1 0.830339 0.830955 0.795726
O O2 0.093941 0.855326 0.549693
O O3 0.668444 0.096865 0.636737
O O4 0.795948 0.963207 0.447431
O O5 0.163746 0.531278 0.842462
O O6 0.463217 0.350925 0.614845
O O7 0.007733 0.583553 0.647865
O O8 0.194067 0.343435 0.900213
O O9 0.099164 0.644031 0.011138
O O10 0.784237 0.090308 0.808267
O O11 0.080872 0.641849 0.293105
O O12 0.079047 0.810828 0.993344
O O13 0.500000 0.500000 0.000000
O O14 0.356216 0.227732 0.442110
O O15 0.000000 0.500000 0.500000
O O16 0.500000 0.000000 0.500000
O O17 0.663857 0.057497 0.170638
O O18 0.000000 0.000000 0.000000
#
# Coordination Sequence:
#
# PCOD9066474 Si02
#       8
#     2   2   2   2   2   2   2   2
#     4  11  25  46  69 102 140 184 236 289 354 416
#     4  11  27  44  72 104 141 187 232 291 349 423
#     4  11  26  47  67 105 140 181 238 284 358 416
#     4  11  26  45  72 101 141 186 234 291 353 417
#     4  12  29  48  73 105 146 189 235 298 358 426
#     4  12  26  47  72 106 144 191 238 288 360 417
#     4  12  26  45  73 102 144 187 241 295 345 428
#     4  12  27  47  71 107 142 188 243 291 357 418
#
# _framework density 21.832350999999999
#
# number of rings (size 3 to 8) (size 9 to 14) (size 15 to 20)
#    0.000    0.500    5.000    1.500   10.500    1.000 
#    0.000    0.000    0.000    0.000    0.000    0.000 
#    0.000    0.000    0.000    0.000    0.000    0.000 
#
# Total GULP energy -89373.599360 kJ/mol
# GULP energy per Si atom -5585.849960 kJ/mol
# Density = 2.178266 g / cm^3
# Si number density = 21.832351 Si / 1000 Ang^3
#
#
#
# Elastic Constant Matrix: (Units=GPa)
#
#
# Indices 1 2 3 4 5 6 
#
# 1 86.6210 24.9873 7.9691 -4.5234 17.0174 32.0902
# 2 24.9873 80.5643 -12.6099 22.4795 -4.3487 1.3724
# 3 7.9691 -12.6099 77.3502 1.3786 5.6276 0.9177
# 4 -4.5234 22.4795 1.3786 35.0593 -1.9553 3.2438
# 5 17.0174 -4.3487 5.6276 -1.9553 29.7043 5.5762
# 6 32.0902 1.3724 0.9177 3.2438 5.5762 32.3959
#
#
#
# Elastic Compliance Matrix: (Units=1/GPa)
#
#
# Indices 1 2 3 4 5 6 
#
# 1 0.029558 -0.014222 -0.004432 0.015033 -0.011930 -0.028003
# 2 -0.014222 0.022556 0.004792 -0.017358 0.006855 0.013555
# 3 -0.004432 0.004792 0.014239 -0.004639 -0.000579 0.004348
# 4 0.015033 -0.017358 -0.004639 0.043177 -0.004121 -0.017638
# 5 -0.011930 0.006855 -0.000579 -0.004121 0.040403 0.005001
# 6 -0.028003 0.013555 0.004348 -0.017638 0.005001 0.058814
#
#
# Mechanical properties :
#
#
# Convention : Reuss Voigt Hill
#
# Bulk Modulus (GPa) = 25.88693 31.69205 28.78949
# Shear Modulus (GPa) = 20.05242 34.37782 27.21512
#
# Velocity S-wave (km/s) = 3.03392 3.97246 3.53448
# Velocity P-wave (km/s) = 4.91485 5.96559 5.46553
#
# Compressibility (1/GPa) = 0.03862953
#
# Stress axis : x y z
#
# Youngs Moduli (GPa) = 33.83220 44.33402 70.22843
#
# Poissons Ratio (x) = 0.63054 0.31122
# Poissons Ratio (y) = 0.48118 -0.33655
# Poissons Ratio (z) = 0.14993 -0.21246
#
# Static dielectric constant tensor:
#      x y z
#    x 1.762870 0.014330 -0.002930 
#    y 0.014330 1.758990 -0.027390 
#    z -0.002930 -0.027390 1.785790 
# 
# From -- ./inp_files/207711.got.cif
#   From: 2010.05.17/outbox.cif.g08.bks.cpg/sg2_104_cif.got.tgz:207711.got - 2010.06.03 11:33:40.
