data_PCOD9066923
_publ_section_title
;
Structure prediction by ZEFSAII (Michael W. Deem and Ramdas Pophale) SiO2 
 PCOD9066923
Probable space group: P -1
;
_chemical_formula_sum "Si O2"
_cell_formula_units_Z 14
_cell_length_a 8.529460
_cell_length_b 13.174439
_cell_length_c 11.174779
_cell_angle_alpha 56.123773
_cell_angle_beta 80.689670
_cell_angle_gamma 123.421374
_cell_volume 640.812374
_symmetry_space_group_name_H-M "P -1"
_symmetry_group_IT_number 2
_symmetry_cell_setting 'triclinic'
loop_
_space_group_symop_operation_xyz
x,y,z
-x,-y,-z
loop_
_atom_site_type_symbol
_atom_site_label
_atom_site_fract_x
_atom_site_fract_y
_atom_site_fract_z
Si Si1 0.477855 0.175705 0.610419
Si Si2 0.222344 0.599560 0.073886
Si Si3 0.320853 0.603706 0.783089
Si Si4 0.614262 0.030932 0.837772
Si Si5 0.940794 0.862276 0.002749
Si Si6 0.577033 0.498989 0.750869
Si Si7 0.195875 0.401809 0.598963
O O1 0.508363 0.207256 0.445145
O O2 0.564232 0.098698 0.697345
O O3 0.652566 0.383177 0.522386
O O4 0.183487 0.004940 0.795732
O O5 0.213927 0.463392 0.235834
O O6 0.964920 0.529725 0.145476
O O7 0.294773 0.612674 0.920042
O O8 0.446276 0.814158 0.963781
O O9 0.474473 0.566319 0.772614
O O10 0.915789 0.222036 0.694107
O O11 0.500000 0.000000 0.000000
O O12 0.682154 0.735221 0.051405
O O13 0.869720 0.702899 0.197672
O O14 0.000000 0.000000 0.000000
O O15 0.643263 0.553780 0.564262
#
# Coordination Sequence:
#
# PCOD9066923 Si02
#       7
#     2   2   2   2   2   2   2
#     4  12  23  42  69 105 141 190 232 286 359 419
#     4  11  26  48  71 103 141 187 243 292 345 423
#     4  11  25  47  73 100 141 193 237 288 354 418
#     4  12  23  42  69 104 145 181 233 295 355 416
#     4  12  22  38  63 103 145 180 224 290 349 416
#     4  12  23  45  72 105 145 183 236 293 355 415
#     4  12  23  41  67 107 144 181 230 290 357 421
#
# _framework density 21.847269000000001
#
# number of rings (size 3 to 8) (size 9 to 14) (size 15 to 20)
#    0.000    0.286    4.286    6.429    0.000    0.571 
#    0.000    4.286    0.000    0.000    0.000    0.000 
#    0.000    0.000    0.000    0.000    0.000    0.000 
#
# Total GULP energy -77950.963720 kJ/mol
# GULP energy per Si atom -5567.925980 kJ/mol
# Density = 2.179754 g / cm^3
# Si number density = 21.847269 Si / 1000 Ang^3
#
#
#
# Elastic Constant Matrix: (Units=GPa)
#
#
# Indices 1 2 3 4 5 6 
#
# 1 95.9541 27.9717 44.8472 5.9219 16.8917 -11.3189
# 2 27.9717 35.8615 28.0264 21.4555 7.2042 -7.4812
# 3 44.8472 28.0264 149.5529 15.5156 -9.9439 -3.9308
# 4 5.9219 21.4555 15.5156 40.5971 5.1752 -6.6840
# 5 16.8917 7.2042 -9.9439 5.1752 50.2179 -0.8411
# 6 -11.3189 -7.4812 -3.9308 -6.6840 -0.8411 30.5223
#
#
#
# Elastic Compliance Matrix: (Units=1/GPa)
#
#
# Indices 1 2 3 4 5 6 
#
# 1 0.016700 -0.012381 -0.003635 0.006824 -0.005197 0.004042
# 2 -0.012381 0.057868 -0.004475 -0.026251 -0.002264 0.003205
# 3 -0.003635 -0.004475 0.008955 -0.001245 0.003742 -0.001461
# 4 0.006824 -0.026251 -0.001245 0.039061 -0.002728 0.004415
# 5 -0.005197 -0.002264 0.003742 -0.002728 0.022975 -0.001964
# 6 0.004042 0.003205 -0.001461 0.004415 -0.001964 0.035772
#
#
# Mechanical properties :
#
#
# Convention : Reuss Voigt Hill
#
# Bulk Modulus (GPa) = 23.50644 53.67323 38.58983
# Shear Modulus (GPa) = 21.14230 36.30234 28.72232
#
# Velocity S-wave (km/s) = 3.11421 4.08075 3.62979
# Velocity P-wave (km/s) = 4.86969 6.84282 5.93877
#
# Compressibility (1/GPa) = 0.04254153
#
# Stress axis : x y z
#
# Youngs Moduli (GPa) = 59.87943 17.28065 111.67264
#
# Poissons Ratio (x) = 0.21395 0.40594
# Poissons Ratio (y) = 0.74137 0.49970
# Poissons Ratio (z) = 0.21767 0.07732
#
# Static dielectric constant tensor:
#      x y z
#    x 2.043830 0.203530 -0.253280 
#    y 0.203530 2.233050 -0.545090 
#    z -0.253280 -0.545090 2.465540 
# 
# From -- ./inp_files/397054.got.cif
#   From: 2010.05.17/outbox.cif.g08.bks.cpg/sg2_199_cif.got.tgz:397054.got - 2010.06.03 11:33:40.
