data_PCOD9066357
_publ_section_title
;
Structure prediction by ZEFSAII (Michael W. Deem and Ramdas Pophale) SiO2 
 PCOD9066357
Probable space group: P -1
;
_chemical_formula_sum "Si O2"
_cell_formula_units_Z 16
_cell_length_a 5.585372
_cell_length_b 18.446403
_cell_length_c 8.825370
_cell_angle_alpha 110.599862
_cell_angle_beta 75.509586
_cell_angle_gamma 63.784195
_cell_volume 668.596487
_symmetry_space_group_name_H-M "P -1"
_symmetry_group_IT_number 2
_symmetry_cell_setting 'triclinic'
loop_
_space_group_symop_operation_xyz
x,y,z
-x,-y,-z
loop_
_atom_site_type_symbol
_atom_site_label
_atom_site_fract_x
_atom_site_fract_y
_atom_site_fract_z
Si Si1 0.758207 0.170499 0.534977
Si Si2 0.110866 0.808588 0.125409
Si Si3 0.296566 0.105297 0.184006
Si Si4 0.247497 0.627012 0.058356
Si Si5 0.662935 0.020845 0.362042
Si Si6 0.260897 0.277683 0.206621
Si Si7 0.954223 0.554227 0.847707
Si Si8 0.162049 0.345362 0.614336
O O1 0.857307 0.182859 0.692340
O O2 0.768776 0.076317 0.475719
O O3 0.432213 0.267101 0.622543
O O4 0.970093 0.145323 0.336616
O O5 0.044039 0.729340 0.078610
O O6 0.416873 0.763743 0.950880
O O7 0.896101 0.916063 0.180432
O O8 0.476445 0.089646 0.301157
O O9 0.240812 0.188012 0.143444
O O10 0.500000 0.000000 0.000000
O O11 0.142627 0.638622 0.257544
O O12 0.599030 0.591266 0.959899
O O13 0.135428 0.565211 0.961760
O O14 0.500000 0.000000 0.500000
O O15 0.044521 0.378986 0.231146
O O16 0.234496 0.303479 0.405397
O O17 0.124129 0.444650 0.694708
#
# Coordination Sequence:
#
# PCOD9066357 Si02
#       8
#     2   2   2   2   2   2   2   2
#     4  12  26  48  71 106 144 196 250 306 365 446
#     4  11  25  45  75 101 147 194 243 306 366 451
#     4  12  28  44  72 110 148 191 242 313 373 439
#     4  11  25  49  76 112 143 196 254 306 368 445
#     4  12  25  45  73 103 142 191 252 294 375 442
#     4  11  26  46  68 110 147 189 246 301 381 433
#     4  11  27  49  78 108 148 201 247 305 375 451
#     4  12  24  47  75 106 147 189 250 312 372 435
#
# _framework density 23.930727000000001
#
# number of rings (size 3 to 8) (size 9 to 14) (size 15 to 20)
#    0.000    0.500    2.500    5.250    5.250    4.000 
#    0.000    3.750    0.000    0.000    0.000    0.000 
#    0.000    0.000    0.000    0.000    0.000    0.000 
#
# Total GULP energy -89421.768910 kJ/mol
# GULP energy per Si atom -5588.860557 kJ/mol
# Density = 2.387626 g / cm^3
# Si number density = 23.930727 Si / 1000 Ang^3
#
#
#
# Elastic Constant Matrix: (Units=GPa)
#
#
# Indices 1 2 3 4 5 6 
#
# 1 71.1373 34.3680 33.6381 9.1879 0.1728 14.8450
# 2 34.3680 202.0448 37.2513 16.0356 -4.5363 16.1530
# 3 33.6381 37.2513 110.3062 6.7928 -9.6729 22.6491
# 4 9.1879 16.0356 6.7928 52.0507 4.4875 7.5089
# 5 0.1728 -4.5363 -9.6729 4.4875 30.3782 -0.3805
# 6 14.8450 16.1530 22.6491 7.5089 -0.3805 46.1597
#
#
#
# Elastic Compliance Matrix: (Units=1/GPa)
#
#
# Indices 1 2 3 4 5 6 
#
# 1 0.017765 -0.001940 -0.004250 -0.001456 -0.001563 -0.002725
# 2 -0.001940 0.005635 -0.001046 -0.001226 0.000693 -0.000630
# 3 -0.004250 -0.001046 0.011873 -0.000209 0.003629 -0.004029
# 4 -0.001456 -0.001226 -0.000209 0.020499 -0.003299 -0.002362
# 5 -0.001563 0.000693 0.003629 -0.003299 0.034665 -0.000698
# 6 -0.002725 -0.000630 -0.004029 -0.002362 -0.000698 0.025116
#
#
# Mechanical properties :
#
#
# Convention : Reuss Voigt Hill
#
# Bulk Modulus (GPa) = 48.07369 66.00035 57.03702
# Shear Modulus (GPa) = 36.50710 44.26644 40.38677
#
# Velocity S-wave (km/s) = 3.91004 4.30557 4.11256
# Velocity P-wave (km/s) = 6.36529 7.23580 6.81446
#
# Compressibility (1/GPa) = 0.02080140
#
# Stress axis : x y z
#
# Youngs Moduli (GPa) = 56.29131 177.44841 84.22183
#
# Poissons Ratio (x) = 0.34423 0.35796
# Poissons Ratio (y) = 0.10920 0.08810
# Poissons Ratio (z) = 0.23925 0.18561
#
# Static dielectric constant tensor:
#      x y z
#    x 1.979400 0.002160 -0.004150 
#    y 0.002160 1.737490 0.062830 
#    z -0.004150 0.062830 1.893120 
# 
# From -- ./inp_files/139227.got.cif
#   From: 2010.05.17/outbox.cif.g08.bks.cpg/sg2_70_cif.got.tgz:139227.got - 2010.06.03 11:33:40.
