data_PCOD9066692
_publ_section_title
;
Structure prediction by ZEFSAII (Michael W. Deem and Ramdas Pophale) SiO2 
 PCOD9066692
Probable space group: P -1
;
_chemical_formula_sum "Si O2"
_cell_formula_units_Z 10
_cell_length_a 12.551537
_cell_length_b 8.907213
_cell_length_c 18.809998
_cell_angle_alpha 34.338369
_cell_angle_beta 18.989421
_cell_angle_gamma 35.996947
_cell_volume 381.386497
_symmetry_space_group_name_H-M "P -1"
_symmetry_group_IT_number 2
_symmetry_cell_setting 'triclinic'
loop_
_space_group_symop_operation_xyz
x,y,z
-x,-y,-z
loop_
_atom_site_type_symbol
_atom_site_label
_atom_site_fract_x
_atom_site_fract_y
_atom_site_fract_z
Si Si1 0.030923 0.322908 0.479806
Si Si2 0.699063 0.949254 0.760489
Si Si3 0.170430 0.405007 0.856192
Si Si4 0.326499 0.227111 0.577264
Si Si5 0.769130 0.335398 0.995922
O O1 0.000000 0.500000 0.500000
O O2 0.807443 0.086032 0.711225
O O3 0.871051 0.535477 0.438727
O O4 0.421865 0.223163 0.262158
O O5 0.385255 0.124283 0.854218
O O6 0.673028 0.639787 0.906916
O O7 0.000000 0.000000 0.500000
O O8 0.403854 0.630767 0.605802
O O9 0.921964 0.382115 0.958179
O O10 0.000000 0.500000 0.000000
O O11 0.057895 0.178042 0.825531
O O12 0.500000 0.000000 0.500000
#
# Coordination Sequence:
#
# PCOD9066692 Si02
#       5
#     2   2   2   2   2
#     4  11  26  46  71 110 143 190 248 294 363 442
#     4  11  25  46  74 104 145 189 248 292 367 440
#     4  11  26  46  71 110 143 190 248 294 363 442
#     4  11  26  45  70 107 143 186 244 301 362 427
#     4  12  25  50  77 100 153 198 232 311 367 417
#
# _framework density 26.220120999999999
#
# number of rings (size 3 to 8) (size 9 to 14) (size 15 to 20)
#    0.000    0.800    4.000    3.600    5.600    1.600 
#    0.000    3.000    0.000    0.000    0.000    0.000 
#    0.000    0.000    0.000    0.000    0.000    0.000 
#
# Total GULP energy -56079.090189 kJ/mol
# GULP energy per Si atom -5607.909019 kJ/mol
# Density = 2.616044 g / cm^3
# Si number density = 26.220121 Si / 1000 Ang^3
#
#
#
# Elastic Constant Matrix: (Units=GPa)
#
#
# Indices 1 2 3 4 5 6 
#
# 1 119.9835 42.2446 29.4331 11.1547 -22.9044 15.4058
# 2 42.2446 157.2155 37.2742 19.5453 -10.4363 4.3260
# 3 29.4331 37.2742 115.8874 14.0299 -19.2440 11.1907
# 4 11.1547 19.5453 14.0299 55.6351 12.6179 -6.0307
# 5 -22.9044 -10.4363 -19.2440 12.6179 51.4672 5.9700
# 6 15.4058 4.3260 11.1907 -6.0307 5.9700 56.3924
#
#
#
# Elastic Compliance Matrix: (Units=1/GPa)
#
#
# Indices 1 2 3 4 5 6 
#
# 1 0.010941 -0.001984 -0.000529 -0.002986 0.005421 -0.003625
# 2 -0.001984 0.007553 -0.001600 -0.001972 0.000533 0.000013
# 3 -0.000529 -0.001600 0.010707 -0.003364 0.004582 -0.002702
# 4 -0.002986 -0.001972 -0.003364 0.022733 -0.009144 0.005034
# 5 0.005421 0.000533 0.004582 -0.009144 0.026628 -0.006228
# 6 -0.003625 0.000013 -0.002702 0.005034 -0.006228 0.020456
#
#
# Mechanical properties :
#
#
# Convention : Reuss Voigt Hill
#
# Bulk Modulus (GPa) = 47.67251 67.88779 57.78015
# Shear Modulus (GPa) = 43.76958 51.64123 47.70540
#
# Velocity S-wave (km/s) = 4.09015 4.44275 4.27009
# Velocity P-wave (km/s) = 6.36608 7.22946 6.81146
#
# Compressibility (1/GPa) = 0.02097645
#
# Stress axis : x y z
#
# Youngs Moduli (GPa) = 91.40294 132.39586 93.39676
#
# Poissons Ratio (x) = 0.26261 0.04940
# Poissons Ratio (y) = 0.18130 0.14940
# Poissons Ratio (z) = 0.04834 0.21179
#
# Static dielectric constant tensor:
#      x y z
#    x 2.114140 -0.010200 0.041910 
#    y -0.010200 1.679050 -0.097540 
#    z 0.041910 -0.097540 2.165250 
# 
# From -- ./inp_files/143880.got.cif
#   From: 2010.05.17/outbox.cif.g08.bks.cpg/sg2_72_cif.got.tgz:143880.got - 2010.06.03 11:33:40.
