data_PCOD9066392
_publ_section_title
;
Structure prediction by ZEFSAII (Michael W. Deem and Ramdas Pophale) SiO2 
 PCOD9066392
Probable space group: P -1
;
_chemical_formula_sum "Si O2"
_cell_formula_units_Z 13
_cell_length_a 8.659796
_cell_length_b 14.702582
_cell_length_c 6.906293
_cell_angle_alpha 84.349990
_cell_angle_beta 89.067594
_cell_angle_gamma 35.991937
_cell_volume 511.210661
_symmetry_space_group_name_H-M "P -1"
_symmetry_group_IT_number 2
_symmetry_cell_setting 'triclinic'
loop_
_space_group_symop_operation_xyz
x,y,z
-x,-y,-z
loop_
_atom_site_type_symbol
_atom_site_label
_atom_site_fract_x
_atom_site_fract_y
_atom_site_fract_z
Si Si1 0.326131 0.175942 0.142588
Si Si2 0.000000 0.500000 0.000000
Si Si3 0.726229 0.214820 0.072756
Si Si4 0.231062 0.973221 0.601824
Si Si5 0.652313 0.304706 0.661958
Si Si6 0.675099 0.501949 0.740166
Si Si7 0.284075 0.996443 0.170889
O O1 0.153900 0.347436 0.150062
O O2 0.581595 0.041761 0.303172
O O3 0.186856 0.146730 0.174568
O O4 0.455916 0.125394 0.937928
O O5 0.125896 0.525615 0.142649
O O6 0.701543 0.145841 0.241766
O O7 0.591873 0.363240 0.154200
O O8 0.034102 0.075545 0.047944
O O9 0.580083 0.277561 0.856659
O O10 0.690058 0.067336 0.614448
O O11 0.921427 0.141941 0.589000
O O12 0.729382 0.368243 0.732452
O O13 0.415393 0.422136 0.489042
#
# Coordination Sequence:
#
# PCOD9066392 Si02
#       7
#     2   1   2   2   2   2   2
#     4  11  26  48  71 107 151 197 240 312 374 450
#     4  12  26  52  72 108 156 194 248 300 388 442
#     4  12  23  45  76 109 148 193 257 312 357 445
#     4  12  24  45  74 113 143 193 256 313 361 442
#     4  11  25  45  77 111 149 195 249 306 378 434
#     4  11  26  48  73 110 154 197 246 310 371 452
#     4  11  25  45  76 107 148 196 251 303 377 441
#
# _framework density 25.429827
#
# number of rings (size 3 to 8) (size 9 to 14) (size 15 to 20)
#    0.000    0.615    4.615    2.769    2.154    0.000 
#    0.000    1.538    0.000    0.000    0.000    0.000 
#    0.000    0.000    0.000    0.000    0.000    0.000 
#
# Total GULP energy -72467.033485 kJ/mol
# GULP energy per Si atom -5574.387191 kJ/mol
# Density = 2.537195 g / cm^3
# Si number density = 25.429827 Si / 1000 Ang^3
#
#
#
# Elastic Constant Matrix: (Units=GPa)
#
#
# Indices 1 2 3 4 5 6 
#
# 1 125.3505 20.9072 33.2336 -9.5012 26.6297 23.9903
# 2 20.9072 58.1304 21.6345 -5.1017 -0.6647 13.8766
# 3 33.2336 21.6345 182.7521 -3.0246 2.7145 0.4821
# 4 -9.5012 -5.1017 -3.0246 37.5705 2.3516 4.3027
# 5 26.6297 -0.6647 2.7145 2.3516 42.7090 -1.2660
# 6 23.9903 13.8766 0.4821 4.3027 -1.2660 34.3380
#
#
#
# Elastic Compliance Matrix: (Units=1/GPa)
#
#
# Indices 1 2 3 4 5 6 
#
# 1 0.012506 -0.001350 -0.001896 0.004373 -0.008206 -0.009015
# 2 -0.001350 0.020607 -0.002136 0.003112 0.000898 -0.007711
# 3 -0.001896 -0.002136 0.006041 -0.000590 0.000863 0.002209
# 4 0.004373 0.003112 -0.000590 0.029311 -0.004496 -0.008143
# 5 -0.008206 0.000898 0.000863 -0.004496 0.028945 0.006989
# 6 -0.009015 -0.007711 0.002209 -0.008143 0.006989 0.039784
#
#
# Mechanical properties :
#
#
# Convention : Reuss Voigt Hill
#
# Bulk Modulus (GPa) = 35.22316 57.53152 46.37734
# Shear Modulus (GPa) = 31.76184 42.28734 37.02459
#
# Velocity S-wave (km/s) = 3.53795 4.08229 3.81983
# Velocity P-wave (km/s) = 5.52907 6.70022 6.14262
#
# Compressibility (1/GPa) = 0.02839041
#
# Stress axis : x y z
#
# Youngs Moduli (GPa) = 79.96334 48.52661 165.53187
#
# Poissons Ratio (x) = 0.06551 0.31390
# Poissons Ratio (y) = 0.10795 0.35350
# Poissons Ratio (z) = 0.15164 0.10363
#
# Static dielectric constant tensor:
#      x y z
#    x 2.095740 0.054870 0.038180 
#    y 0.054870 2.044160 0.015300 
#    z 0.038180 0.015300 2.034990 
# 
# From -- ./inp_files/192720.got.cif
#   From: 2010.05.17/outbox.cif.g08.bks.cpg/sg2_97_cif.got.tgz:192720.got - 2010.06.03 11:33:40.
