data_PCOD9066648
_publ_section_title
;
Structure prediction by ZEFSAII (Michael W. Deem and Ramdas Pophale) SiO2 
 PCOD9066648
Probable space group: P -1
;
_chemical_formula_sum "Si O2"
_cell_formula_units_Z 16
_cell_length_a 6.794629
_cell_length_b 17.126247
_cell_length_c 14.007421
_cell_angle_alpha 33.735025
_cell_angle_beta 98.350808
_cell_angle_gamma 115.350290
_cell_volume 742.378696
_symmetry_space_group_name_H-M "P -1"
_symmetry_group_IT_number 2
_symmetry_cell_setting 'triclinic'
loop_
_space_group_symop_operation_xyz
x,y,z
-x,-y,-z
loop_
_atom_site_type_symbol
_atom_site_label
_atom_site_fract_x
_atom_site_fract_y
_atom_site_fract_z
Si Si1 0.213491 0.883156 0.211476
Si Si2 0.964202 0.457329 0.341153
Si Si3 0.610880 0.384288 0.927640
Si Si4 0.019426 0.906819 0.505053
Si Si5 0.518422 0.372646 0.268673
Si Si6 0.780982 0.162289 0.962982
Si Si7 0.224856 0.693285 0.810626
Si Si8 0.859915 0.906438 0.867670
O O1 0.164690 0.862278 0.116797
O O2 0.122859 0.701776 0.435157
O O3 0.090873 0.958874 0.185362
O O4 0.499525 0.023387 0.101233
O O5 0.146941 0.476468 0.251958
O O6 0.118832 0.640614 0.216416
O O7 0.724533 0.424232 0.308414
O O8 0.511019 0.470208 0.900473
O O9 0.672406 0.273075 0.109355
O O10 0.398220 0.267790 0.957763
O O11 0.751821 0.780121 0.573724
O O12 0.141233 0.810645 0.647361
O O13 0.000000 0.000000 0.500000
O O14 0.157690 0.029773 0.301823
O O15 0.597777 0.313421 0.243313
O O16 0.934110 0.127542 0.080633
O O17 0.000000 0.500000 0.000000
#
# Coordination Sequence:
#
# PCOD9066648 Si02
#       8
#     2   2   2   2   2   2   2   2
#     4  11  25  46  73 104 142 177 235 294 348 423
#     4  12  24  44  72 104 140 182 235 285 357 417
#     4  12  25  41  71  98 138 187 231 286 346 414
#     4  12  29  44  69 107 138 183 236 292 349 410
#     4  12  23  44  68  96 137 187 231 284 345 410
#     4  11  25  47  73 104 137 188 228 290 361 414
#     4  12  25  42  65  96 136 184 233 281 342 413
#     4  12  25  46  69 100 142 180 233 289 352 417
#
# _framework density 21.552341999999999
#
# number of rings (size 3 to 8) (size 9 to 14) (size 15 to 20)
#    0.000    0.250    5.000    4.125    3.500    3.000 
#    0.000    0.625    0.000    0.000    0.000    0.000 
#    0.000    0.000    0.000    0.000    0.000    0.000 
#
# Total GULP energy -89452.453401 kJ/mol
# GULP energy per Si atom -5590.778338 kJ/mol
# Density = 2.150329 g / cm^3
# Si number density = 21.552342 Si / 1000 Ang^3
#
#
#
# Elastic Constant Matrix: (Units=GPa)
#
#
# Indices 1 2 3 4 5 6 
#
# 1 87.5255 20.2228 42.5594 -4.3636 6.2783 -3.2430
# 2 20.2228 70.8986 22.1295 -15.3644 1.9360 -7.5828
# 3 42.5594 22.1295 120.4460 -3.7365 6.6268 -1.0151
# 4 -4.3636 -15.3644 -3.7365 35.1409 1.7210 -2.6751
# 5 6.2783 1.9360 6.6268 1.7210 33.4829 -7.2784
# 6 -3.2430 -7.5828 -1.0151 -2.6751 -7.2784 48.7905
#
#
#
# Elastic Compliance Matrix: (Units=1/GPa)
#
#
# Indices 1 2 3 4 5 6 
#
# 1 0.014342 -0.002556 -0.004498 0.000282 -0.001614 0.000237
# 2 -0.002556 0.017353 -0.002043 0.007267 0.000138 0.002904
# 3 -0.004498 -0.002043 0.010317 -0.000342 -0.001193 -0.000599
# 4 0.000282 0.007267 -0.000342 0.031908 -0.001465 0.002672
# 5 -0.001614 0.000138 -0.001193 -0.001465 0.031450 0.004501
# 6 0.000237 0.002904 -0.000599 0.002672 0.004501 0.021768
#
#
# Mechanical properties :
#
#
# Convention : Reuss Voigt Hill
#
# Bulk Modulus (GPa) = 41.98617 49.85483 45.92050
# Shear Modulus (GPa) = 32.62166 36.41341 34.51753
#
# Velocity S-wave (km/s) = 3.89472 4.11485 4.00630
# Velocity P-wave (km/s) = 6.30464 6.76448 6.53860
#
# Compressibility (1/GPa) = 0.02381737
#
# Stress axis : x y z
#
# Youngs Moduli (GPa) = 69.72595 57.62731 96.92461
#
# Poissons Ratio (x) = 0.14730 0.43601
# Poissons Ratio (y) = 0.17823 0.19799
# Poissons Ratio (z) = 0.31366 0.11772
#
# Static dielectric constant tensor:
#      x y z
#    x 1.786620 -0.000740 -0.027380 
#    y -0.000740 1.802460 -0.034070 
#    z -0.027380 -0.034070 1.787440 
# 
# From -- ./inp_files/53648.got.cif
#   From: 2010.05.17/outbox.cif.g08.bks.cpg/sg2_27_cif.got.tgz:53648.got - 2010.06.03 11:33:40.
