data_PCOD9066360
_publ_section_title
;
Structure prediction by ZEFSAII (Michael W. Deem and Ramdas Pophale) SiO2 
 PCOD9066360
Probable space group: P -1
;
_chemical_formula_sum "Si O2"
_cell_formula_units_Z 16
_cell_length_a 25.172616
_cell_length_b 12.322366
_cell_length_c 7.771803
_cell_angle_alpha 43.045614
_cell_angle_beta 45.612630
_cell_angle_gamma 22.445707
_cell_volume 625.581818
_symmetry_space_group_name_H-M "P -1"
_symmetry_group_IT_number 2
_symmetry_cell_setting 'triclinic'
loop_
_space_group_symop_operation_xyz
x,y,z
-x,-y,-z
loop_
_atom_site_type_symbol
_atom_site_label
_atom_site_fract_x
_atom_site_fract_y
_atom_site_fract_z
Si Si1 0.285687 0.075323 0.463036
Si Si2 0.498678 0.180170 0.210740
Si Si3 0.808801 0.262880 0.687894
Si Si4 0.812242 0.162146 0.453773
Si Si5 0.954127 0.669617 0.082890
Si Si6 0.097819 0.703772 0.234708
Si Si7 0.552436 0.726795 0.185732
Si Si8 0.742300 0.945605 0.829922
O O1 0.180444 0.168775 0.712502
O O2 0.211314 0.383992 0.260230
O O3 0.305324 0.951714 0.379421
O O4 0.447201 0.818325 0.441913
O O5 0.350169 0.511122 0.227656
O O6 0.500000 0.000000 0.500000
O O7 0.471877 0.252766 0.983926
O O8 0.646599 0.002249 0.096760
O O9 0.830316 0.268341 0.432400
O O10 0.834384 0.337022 0.701176
O O11 0.911392 0.929837 0.861909
O O12 0.711475 0.411137 0.245591
O O13 0.744836 0.115145 0.710205
O O14 0.968755 0.826418 0.441804
O O15 0.101795 0.400752 0.155839
O O16 0.000000 0.500000 0.000000
O O17 0.000000 0.000000 0.000000
O O18 0.500000 0.000000 0.000000
#
# Coordination Sequence:
#
# PCOD9066360 Si02
#       8
#     2   2   2   2   2   2   2   2
#     4  11  25  45  75 103 149 197 246 313 370 452
#     4  11  27  48  75 110 150 197 252 315 378 450
#     4  12  27  45  74 107 150 198 250 313 379 440
#     4  12  26  46  71 110 151 195 255 306 379 454
#     4  12  25  46  69 111 150 194 246 307 382 443
#     4  12  25  45  74 108 144 196 255 311 375 446
#     4  11  25  46  72 109 147 199 252 307 376 449
#     4  11  26  47  75 110 151 197 251 309 381 454
#
# _framework density 25.576191999999999
#
# number of rings (size 3 to 8) (size 9 to 14) (size 15 to 20)
#    0.000    0.500    2.500    4.500    5.250    8.500 
#    0.000    0.000    0.000    0.000    0.000    0.000 
#    0.000    0.000    0.000    0.000    0.000    0.000 
#
# Total GULP energy -89298.200880 kJ/mol
# GULP energy per Si atom -5581.137555 kJ/mol
# Density = 2.551798 g / cm^3
# Si number density = 25.576192 Si / 1000 Ang^3
#
#
#
# Elastic Constant Matrix: (Units=GPa)
#
#
# Indices 1 2 3 4 5 6 
#
# 1 108.4635 34.5761 29.4186 -4.0228 -5.9513 2.1857
# 2 34.5761 119.2544 17.0634 20.0781 -7.3181 -11.3264
# 3 29.4186 17.0634 106.0207 17.2184 -10.6612 -17.1745
# 4 -4.0228 20.0781 17.2184 52.0461 -9.7388 -7.1091
# 5 -5.9513 -7.3181 -10.6612 -9.7388 29.4509 3.9475
# 6 2.1857 -11.3264 -17.1745 -7.1091 3.9475 37.7776
#
#
#
# Elastic Compliance Matrix: (Units=1/GPa)
#
#
# Indices 1 2 3 4 5 6 
#
# 1 0.011584 -0.003595 -0.003477 0.003355 0.001683 -0.002873
# 2 -0.003595 0.010310 0.000458 -0.003974 0.000321 0.002726
# 3 -0.003477 0.000458 0.011853 -0.003334 0.001943 0.004897
# 4 0.003355 -0.003974 -0.003334 0.023367 0.006095 0.000859
# 5 0.001683 0.000321 0.001943 0.006095 0.037345 -0.001873
# 6 -0.002873 0.002726 0.004897 0.000859 -0.001873 0.030038
#
#
# Mechanical properties :
#
#
# Convention : Reuss Voigt Hill
#
# Bulk Modulus (GPa) = 48.73754 55.09498 51.91626
# Shear Modulus (GPa) = 34.58657 40.70029 37.64343
#
# Velocity S-wave (km/s) = 3.68135 3.99348 3.84059
# Velocity P-wave (km/s) = 6.09647 6.54615 6.32531
#
# Compressibility (1/GPa) = 0.02051806
#
# Stress axis : x y z
#
# Youngs Moduli (GPa) = 86.32959 96.99188 84.36508
#
# Poissons Ratio (x) = 0.34873 0.29330
# Poissons Ratio (y) = 0.31040 -0.03861
# Poissons Ratio (z) = 0.30013 -0.04439
#
# Static dielectric constant tensor:
#      x y z
#    x 2.078880 -0.180260 -0.022760 
#    y -0.180260 2.016990 0.026490 
#    z -0.022760 0.026490 2.169530 
# 
# From -- ./inp_files/358832.got.cif
#   From: 2010.05.17/outbox.cif.g08.bks.cpg/sg2_180_cif.got.tgz:358832.got - 2010.06.03 11:33:40.
