data_PCOD9066830
_publ_section_title
;
Structure prediction by ZEFSAII (Michael W. Deem and Ramdas Pophale) SiO2 
 PCOD9066830
Probable space group: P -1
;
_chemical_formula_sum "Si O2"
_cell_formula_units_Z 16
_cell_length_a 8.512834
_cell_length_b 20.405749
_cell_length_c 5.341694
_cell_angle_alpha 116.033653
_cell_angle_beta 118.803528
_cell_angle_gamma 58.602455
_cell_volume 671.790706
_symmetry_space_group_name_H-M "P -1"
_symmetry_group_IT_number 2
_symmetry_cell_setting 'triclinic'
loop_
_space_group_symop_operation_xyz
x,y,z
-x,-y,-z
loop_
_atom_site_type_symbol
_atom_site_label
_atom_site_fract_x
_atom_site_fract_y
_atom_site_fract_z
Si Si1 0.755802 0.328115 0.253833
Si Si2 0.961319 0.620443 0.207848
Si Si3 0.484077 0.646353 0.390980
Si Si4 0.174950 0.491696 0.801861
Si Si5 0.486420 0.090903 0.639173
Si Si6 0.912366 0.819907 0.809751
Si Si7 0.920831 0.050895 0.769999
Si Si8 0.689821 0.760774 0.918452
O O1 0.897437 0.375415 0.455740
O O2 0.601494 0.356639 0.406450
O O3 0.905209 0.240598 0.302986
O O4 0.664099 0.326205 0.911290
O O5 0.839136 0.568561 0.095910
O O6 0.114129 0.575473 0.031112
O O7 0.803006 0.704715 0.142102
O O8 0.628521 0.557353 0.274984
O O9 0.590098 0.708728 0.608523
O O10 0.000000 0.500000 0.500000
O O11 0.287360 0.136169 0.414742
O O12 0.686817 0.085865 0.661415
O O13 0.500000 0.000000 0.500000
O O14 0.452417 0.150112 0.953407
O O15 0.856152 0.771998 0.900533
O O16 0.989809 0.883669 0.072337
O O17 0.000000 0.000000 0.500000
O O18 0.000000 0.000000 0.000000
#
# Coordination Sequence:
#
# PCOD9066830 Si02
#       8
#     2   2   2   2   2   2   2   2
#     4  12  28  48  74 115 161 199 266 331 389 465
#     4  11  25  49  76 111 155 209 260 328 396 466
#     4  12  28  47  76 116 154 208 264 324 396 469
#     4  11  25  46  81 108 156 209 269 318 396 481
#     4  12  27  50  82 115 154 211 265 323 404 476
#     4  12  28  48  80 111 155 210 263 326 395 474
#     4  12  29  50  76 113 160 195 257 333 395 470
#     4  12  26  49  81 109 158 211 266 321 396 479
#
# _framework density 23.816942000000001
#
# number of rings (size 3 to 8) (size 9 to 14) (size 15 to 20)
#    0.000    0.250    3.750    3.750    8.750    2.000 
#    0.000    0.000    0.000    0.000    0.000    0.000 
#    0.000    0.000    0.000    0.000    0.000    0.000 
#
# Total GULP energy -89494.679248 kJ/mol
# GULP energy per Si atom -5593.417453 kJ/mol
# Density = 2.376273 g / cm^3
# Si number density = 23.816942 Si / 1000 Ang^3
#
#
#
# Elastic Constant Matrix: (Units=GPa)
#
#
# Indices 1 2 3 4 5 6 
#
# 1 110.3339 21.9917 36.2525 11.7299 0.0554 -13.8372
# 2 21.9917 103.0763 27.2532 6.6684 -4.8076 -24.9982
# 3 36.2525 27.2532 139.0490 10.9841 18.9367 -13.6902
# 4 11.7299 6.6684 10.9841 53.2197 -6.8536 -2.5511
# 5 0.0554 -4.8076 18.9367 -6.8536 50.6585 6.4586
# 6 -13.8372 -24.9982 -13.6902 -2.5511 6.4586 53.2047
#
#
#
# Elastic Compliance Matrix: (Units=1/GPa)
#
#
# Indices 1 2 3 4 5 6 
#
# 1 0.010384 -0.001146 -0.002259 -0.001567 0.000325 0.001466
# 2 -0.001146 0.011564 -0.001622 -0.000507 0.001054 0.004566
# 3 -0.002259 -0.001622 0.008877 -0.001563 -0.003850 0.001327
# 4 -0.001567 -0.000507 -0.001563 0.019922 0.003296 -0.000493
# 5 0.000325 0.001054 -0.003850 0.003296 0.022099 -0.002935
# 6 0.001466 0.004566 0.001327 -0.000493 -0.002935 0.021996
#
#
# Mechanical properties :
#
#
# Convention : Reuss Voigt Hill
#
# Bulk Modulus (GPa) = 48.14178 58.16156 53.15167
# Shear Modulus (GPa) = 44.71442 49.21405 46.96424
#
# Velocity S-wave (km/s) = 4.33762 4.55064 4.44541
# Velocity P-wave (km/s) = 6.73378 7.21695 6.97955
#
# Compressibility (1/GPa) = 0.02077198
#
# Stress axis : x y z
#
# Youngs Moduli (GPa) = 96.29874 86.47436 112.65008
#
# Poissons Ratio (x) = 0.09911 0.25447
# Poissons Ratio (y) = 0.11037 0.18269
# Poissons Ratio (z) = 0.21753 0.14024
#
# Static dielectric constant tensor:
#      x y z
#    x 1.929770 0.043690 0.008960 
#    y 0.043690 1.985850 0.068000 
#    z 0.008960 0.068000 1.967980 
# 
# From -- ./inp_files/53861.got.cif
#   From: 2010.05.17/outbox.cif.g08.bks.cpg/sg2_27_cif.got.tgz:53861.got - 2010.06.03 11:33:40.
