data_PCOD9066426
_publ_section_title
;
Structure prediction by ZEFSAII (Michael W. Deem and Ramdas Pophale) SiO2 
 PCOD9066426
Probable space group: P -1
;
_chemical_formula_sum "Si O2"
_cell_formula_units_Z 14
_cell_length_a 11.122061
_cell_length_b 15.815384
_cell_length_c 7.679112
_cell_angle_alpha 59.819514
_cell_angle_beta 36.596872
_cell_angle_gamma 44.058973
_cell_volume 550.952412
_symmetry_space_group_name_H-M "P -1"
_symmetry_group_IT_number 2
_symmetry_cell_setting 'triclinic'
loop_
_space_group_symop_operation_xyz
x,y,z
-x,-y,-z
loop_
_atom_site_type_symbol
_atom_site_label
_atom_site_fract_x
_atom_site_fract_y
_atom_site_fract_z
Si Si1 0.116352 0.030554 0.219691
Si Si2 0.328187 0.461954 0.691845
Si Si3 0.633334 0.139264 0.238428
Si Si4 0.939219 0.634279 0.425029
Si Si5 0.771335 0.273587 0.155767
Si Si6 0.176883 0.320644 0.114343
Si Si7 0.421693 0.944161 0.243732
O O1 0.934564 0.175520 0.223043
O O2 0.865986 0.015177 0.540524
O O3 0.379727 0.017322 0.006706
O O4 0.256673 0.939583 0.983834
O O5 0.500000 0.500000 0.500000
O O6 0.474840 0.369294 0.455155
O O7 0.050795 0.583410 0.846815
O O8 0.316573 0.381405 0.932440
O O9 0.344806 0.259793 0.419238
O O10 0.787999 0.189761 0.068066
O O11 0.632973 0.063821 0.478824
O O12 0.943826 0.678794 0.568283
O O13 0.000000 0.500000 0.500000
O O14 0.128028 0.648338 0.083975
O O15 0.377193 0.195114 0.916789
#
# Coordination Sequence:
#
# PCOD9066426 Si02
#       7
#     2   2   2   2   2   2   2
#     4  12  26  50  78 114 150 197 258 317 387 454
#     4  11  25  45  78 106 148 204 255 311 377 449
#     4  12  27  51  78 111 159 198 258 317 383 468
#     4  12  28  47  75 111 155 203 256 313 379 455
#     4  12  27  48  77 113 152 201 257 316 381 456
#     4  11  25  49  71 109 153 197 253 310 379 453
#     4  12  27  47  79 111 153 202 251 314 386 455
#
# _framework density 25.410542
#
# number of rings (size 3 to 8) (size 9 to 14) (size 15 to 20)
#    0.000    0.286    4.286    3.000    8.000    4.571 
#    0.000    0.000    0.000    0.000    0.000    0.000 
#    0.000    0.000    0.000    0.000    0.000    0.000 
#
# Total GULP energy -78328.697705 kJ/mol
# GULP energy per Si atom -5594.906979 kJ/mol
# Density = 2.535271 g / cm^3
# Si number density = 25.410542 Si / 1000 Ang^3
#
#
#
# Elastic Constant Matrix: (Units=GPa)
#
#
# Indices 1 2 3 4 5 6 
#
# 1 129.0084 53.1464 55.2556 2.6525 3.2641 12.1274
# 2 53.1464 120.8296 93.5634 -10.4045 -8.4926 2.2551
# 3 55.2556 93.5634 189.8008 -16.1487 10.1843 2.6430
# 4 2.6525 -10.4045 -16.1487 67.3907 3.6322 -3.0830
# 5 3.2641 -8.4926 10.1843 3.6322 44.3072 6.7615
# 6 12.1274 2.2551 2.6430 -3.0830 6.7615 41.2818
#
#
#
# Elastic Compliance Matrix: (Units=1/GPa)
#
#
# Indices 1 2 3 4 5 6 
#
# 1 0.010040 -0.003607 -0.001186 -0.001324 -0.000643 -0.002670
# 2 -0.003607 0.015520 -0.006800 0.000648 0.004763 -0.000085
# 3 -0.001186 -0.006800 0.009271 0.001449 -0.003591 0.000823
# 4 -0.001324 0.000648 0.001449 0.015504 -0.001640 0.001687
# 5 -0.000643 0.004763 -0.003591 -0.001640 0.025112 -0.004077
# 6 -0.002670 -0.000085 0.000823 0.001687 -0.004077 0.025754
#
#
# Mechanical properties :
#
#
# Convention : Reuss Voigt Hill
#
# Bulk Modulus (GPa) = 85.87316 93.72995 89.80155
# Shear Modulus (GPa) = 38.98089 46.44084 42.71087
#
# Velocity S-wave (km/s) = 3.92094 4.27971 4.10424
# Velocity P-wave (km/s) = 7.37333 7.83502 7.60768
#
# Compressibility (1/GPa) = 0.01164508
#
# Stress axis : x y z
#
# Youngs Moduli (GPa) = 99.60440 64.43105 107.86869
#
# Poissons Ratio (x) = 0.23241 0.12789
# Poissons Ratio (y) = 0.35929 0.73351
# Poissons Ratio (z) = 0.11809 0.43813
#
# Static dielectric constant tensor:
#      x y z
#    x 2.060840 0.011640 -0.040940 
#    y 0.011640 1.960250 -0.068550 
#    z -0.040940 -0.068550 2.113830 
# 
# From -- ./inp_files/52547.got.cif
#   From: 2010.05.17/outbox.cif.g08.bks.cpg/sg2_27_cif.got.tgz:52547.got - 2010.06.03 11:33:40.
