data_PCOD9066381
_publ_section_title
;
Structure prediction by ZEFSAII (Michael W. Deem and Ramdas Pophale) SiO2 
 PCOD9066381
Probable space group: P -1
;
_chemical_formula_sum "Si O2"
_cell_formula_units_Z 16
_cell_length_a 18.950073
_cell_length_b 8.480287
_cell_length_c 8.792886
_cell_angle_alpha 120.985581
_cell_angle_beta 60.729088
_cell_angle_gamma 144.437024
_cell_volume 697.534888
_symmetry_space_group_name_H-M "P -1"
_symmetry_group_IT_number 2
_symmetry_cell_setting 'triclinic'
loop_
_space_group_symop_operation_xyz
x,y,z
-x,-y,-z
loop_
_atom_site_type_symbol
_atom_site_label
_atom_site_fract_x
_atom_site_fract_y
_atom_site_fract_z
Si Si1 0.570308 0.277723 0.904640
Si Si2 0.083997 0.655987 0.840119
Si Si3 0.331837 0.208887 0.774541
Si Si4 0.068301 0.295291 0.135285
Si Si5 0.326054 0.877091 0.108067
Si Si6 0.553035 0.296586 0.600667
Si Si7 0.017983 0.214052 0.491593
Si Si8 0.257870 0.138997 0.472708
O O1 0.609334 0.139212 0.839226
O O2 0.613341 0.410279 0.760073
O O3 0.621423 0.510396 0.087576
O O4 0.423098 0.042388 0.951955
O O5 0.016952 0.680889 0.808487
O O6 0.089242 0.474374 0.655069
O O7 0.220273 0.960236 0.878125
O O8 0.000000 0.500000 0.000000
O O9 0.442549 0.253931 0.685412
O O10 0.278216 0.123035 0.618599
O O11 0.198536 0.558087 0.051583
O O12 0.084314 0.305711 0.304889
O O13 0.000000 0.000000 0.000000
O O14 0.300365 0.036570 0.276647
O O15 0.655794 0.539006 0.495190
O O16 0.500000 0.000000 0.500000
O O17 0.882810 0.060122 0.516869
O O18 0.000000 0.000000 0.500000
#
# Coordination Sequence:
#
# PCOD9066381 Si02
#       8
#     2   2   2   2   2   2   2   2
#     4  11  27  46  72 109 138 189 240 301 351 428
#     4  12  27  46  74 107 144 188 240 300 367 434
#     4  12  26  48  73 105 144 186 244 290 361 434
#     4  12  25  47  74 107 142 192 238 300 367 433
#     4  11  25  45  75  97 148 182 242 285 366 419
#     4  12  29  44  73 105 145 185 242 296 360 416
#     4  12  28  48  71 107 146 191 246 299 362 436
#     4  12  26  49  75 102 144 193 236 296 363 433
#
# _framework density 22.937919999999998
#
# number of rings (size 3 to 8) (size 9 to 14) (size 15 to 20)
#    0.000    0.250    3.750    4.125   10.500    0.000 
#    0.000    0.000    0.000    0.000    0.000    0.000 
#    0.000    0.000    0.000    0.000    0.000    0.000 
#
# Total GULP energy -89662.703790 kJ/mol
# GULP energy per Si atom -5603.918987 kJ/mol
# Density = 2.288571 g / cm^3
# Si number density = 22.937920 Si / 1000 Ang^3
#
#
#
# Elastic Constant Matrix: (Units=GPa)
#
#
# Indices 1 2 3 4 5 6 
#
# 1 67.5633 -16.4066 -9.6793 8.8814 -3.0070 -13.4961
# 2 -16.4066 133.0188 9.0446 6.3701 -15.3192 -2.9843
# 3 -9.6793 9.0446 57.2970 10.0706 3.9511 -15.5786
# 4 8.8814 6.3701 10.0706 38.9893 -7.8521 -5.2168
# 5 -3.0070 -15.3192 3.9511 -7.8521 29.0310 -1.9222
# 6 -13.4961 -2.9843 -15.5786 -5.2168 -1.9222 42.1413
#
#
#
# Elastic Compliance Matrix: (Units=1/GPa)
#
#
# Indices 1 2 3 4 5 6 
#
# 1 0.018395 0.002487 0.005479 -0.004649 0.001717 0.007595
# 2 0.002487 0.008484 -0.000800 -0.000622 0.004758 0.001242
# 3 0.005479 -0.000800 0.022371 -0.006513 -0.004067 0.008976
# 4 -0.004649 -0.000622 -0.006513 0.030175 0.008250 0.000171
# 5 0.001717 0.004758 -0.004067 0.008250 0.040067 0.002232
# 6 0.007595 0.001242 0.008976 0.000171 0.002232 0.029691
#
#
# Mechanical properties :
#
#
# Convention : Reuss Voigt Hill
#
# Bulk Modulus (GPa) = 15.72812 24.86628 20.29720
# Shear Modulus (GPa) = 32.04188 40.36036 36.20112
#
# Velocity S-wave (km/s) = 3.74156 4.19925 3.97699
# Velocity P-wave (km/s) = 5.05346 5.86309 5.47326
#
# Compressibility (1/GPa) = 0.06358039
#
# Stress axis : x y z
#
# Youngs Moduli (GPa) = 54.36381 117.86230 44.70165
#
# Poissons Ratio (x) = -0.29314 -0.24491
# Poissons Ratio (y) = -0.13521 0.03578
# Poissons Ratio (z) = -0.29784 0.09434
#
# Static dielectric constant tensor:
#      x y z
#    x 1.823960 0.060810 0.045070 
#    y 0.060810 2.866200 0.582830 
#    z 0.045070 0.582830 2.139530 
# 
# From -- ./inp_files/226101.got.cif
#   From: 2010.05.17/outbox.cif.g08.bks.cpg/sg2_114_cif.got.tgz:226101.got - 2010.06.03 11:33:40.
