data_PCOD9066328
_publ_section_title
;
Structure prediction by ZEFSAII (Michael W. Deem and Ramdas Pophale) SiO2 
 PCOD9066328
Probable space group: P -1
;
_chemical_formula_sum "Si O2"
_cell_formula_units_Z 14
_cell_length_a 8.206295
_cell_length_b 5.662829
_cell_length_c 17.710480
_cell_angle_alpha 77.393485
_cell_angle_beta 124.950004
_cell_angle_gamma 121.528160
_cell_volume 571.103183
_symmetry_space_group_name_H-M "P -1"
_symmetry_group_IT_number 2
_symmetry_cell_setting 'triclinic'
loop_
_space_group_symop_operation_xyz
x,y,z
-x,-y,-z
loop_
_atom_site_type_symbol
_atom_site_label
_atom_site_fract_x
_atom_site_fract_y
_atom_site_fract_z
Si Si1 0.945404 0.751917 0.444169
Si Si2 0.279530 0.881228 0.395589
Si Si3 0.561251 0.641830 0.710523
Si Si4 0.724940 0.613035 0.901325
Si Si5 0.045717 0.474464 0.236863
Si Si6 0.121923 0.167427 0.912108
Si Si7 0.409607 0.049851 0.892979
O O1 0.677602 0.600452 0.365727
O O2 0.000000 0.500000 0.500000
O O3 0.090517 0.891377 0.397350
O O4 0.000000 0.000000 0.500000
O O5 0.142431 0.580810 0.339388
O O6 0.500000 0.000000 0.500000
O O7 0.380986 0.080788 0.337079
O O8 0.561285 0.664675 0.798959
O O9 0.771611 0.595582 0.746827
O O10 0.629663 0.283158 0.891101
O O11 0.728805 0.674166 0.986578
O O12 0.975057 0.845705 0.922485
O O13 0.032866 0.703186 0.163870
O O14 0.782988 0.220772 0.181551
O O15 0.264570 0.191435 0.874229
O O16 0.500000 0.000000 0.000000
#
# Coordination Sequence:
#
# PCOD9066328 Si02
#       7
#     2   2   2   2   2   2   2
#     4  12  30  53  83 118 152 207 269 335 418 490
#     4  12  27  53  80 110 158 200 260 342 402 479
#     4  12  28  48  77 116 151 209 266 324 402 478
#     4  11  25  45  74 104 154 202 260 314 386 477
#     4  12  26  49  76 109 161 204 263 325 405 469
#     4  11  25  49  68 108 157 205 260 325 387 468
#     4  12  26  45  71 112 154 207 263 323 391 462
#
# _framework density 24.513960000000001
#
# number of rings (size 3 to 8) (size 9 to 14) (size 15 to 20)
#    0.000    0.286    5.714    1.286    6.000    4.571 
#    0.000    0.000    0.000    0.000    0.000    0.000 
#    0.000    0.000    0.000    0.000    0.000    0.000 
#
# Total GULP energy -78236.709860 kJ/mol
# GULP energy per Si atom -5588.336419 kJ/mol
# Density = 2.445816 g / cm^3
# Si number density = 24.513960 Si / 1000 Ang^3
#
#
#
# Elastic Constant Matrix: (Units=GPa)
#
#
# Indices 1 2 3 4 5 6 
#
# 1 55.6765 17.5922 20.8011 25.8130 -3.4966 0.7891
# 2 17.5922 120.5705 74.2632 35.3553 14.5029 31.4765
# 3 20.8011 74.2632 190.5543 41.2549 -7.2805 -4.4015
# 4 25.8130 35.3553 41.2549 61.7515 1.7956 4.9125
# 5 -3.4966 14.5029 -7.2805 1.7956 43.1724 4.9706
# 6 0.7891 31.4765 -4.4015 4.9125 4.9706 42.4910
#
#
#
# Elastic Compliance Matrix: (Units=1/GPa)
#
#
# Indices 1 2 3 4 5 6 
#
# 1 0.022640 -0.001463 0.000160 -0.008920 0.002561 0.001412
# 2 -0.001463 0.017455 -0.006261 -0.004051 -0.005436 -0.012448
# 3 0.000160 -0.006261 0.008493 -0.002679 0.003030 0.005470
# 4 -0.008920 -0.004051 -0.002679 0.024040 -0.000837 0.000208
# 5 0.002561 -0.005436 0.003030 -0.000837 0.025581 0.001398
# 6 0.001412 -0.012448 0.005470 0.000208 0.001398 0.033108
#
#
# Mechanical properties :
#
#
# Convention : Reuss Voigt Hill
#
# Bulk Modulus (GPa) = 29.88648 65.79046 47.83847
# Shear Modulus (GPa) = 31.72633 46.42598 39.07615
#
# Velocity S-wave (km/s) = 3.60142 4.35657 3.99687
# Velocity P-wave (km/s) = 5.43247 7.22513 6.39196
#
# Compressibility (1/GPa) = 0.03345994
#
# Stress axis : x y z
#
# Youngs Moduli (GPa) = 44.17047 57.28936 117.74887
#
# Poissons Ratio (x) = 0.08381 -0.01889
# Poissons Ratio (y) = 0.06462 0.73725
# Poissons Ratio (z) = -0.00709 0.35870
#
# Static dielectric constant tensor:
#      x y z
#    x 1.950230 -0.000030 0.001150 
#    y -0.000030 2.002480 0.023460 
#    z 0.001150 0.023460 1.989030 
# 
# From -- ./inp_files/106321.got.cif
#   From: 2010.05.17/outbox.cif.g08.bks.cpg/sg2_54_cif.got.tgz:106321.got - 2010.06.03 11:33:40.
