data_PCOD9066355
_publ_section_title
;
Structure prediction by ZEFSAII (Michael W. Deem and Ramdas Pophale) SiO2 
 PCOD9066355
Probable space group: P -1
;
_chemical_formula_sum "Si O2"
_cell_formula_units_Z 16
_cell_length_a 6.028309
_cell_length_b 14.124805
_cell_length_c 14.529417
_cell_angle_alpha 135.036105
_cell_angle_beta 107.302132
_cell_angle_gamma 58.655944
_cell_volume 741.531784
_symmetry_space_group_name_H-M "P -1"
_symmetry_group_IT_number 2
_symmetry_cell_setting 'triclinic'
loop_
_space_group_symop_operation_xyz
x,y,z
-x,-y,-z
loop_
_atom_site_type_symbol
_atom_site_label
_atom_site_fract_x
_atom_site_fract_y
_atom_site_fract_z
Si Si1 0.408577 0.413769 0.207878
Si Si2 0.350171 0.369992 0.555852
Si Si3 0.107480 0.498048 0.910045
Si Si4 0.781020 0.243458 0.966866
Si Si5 0.302631 0.946168 0.516730
Si Si6 0.810673 0.925733 0.961286
Si Si7 0.216425 0.346246 0.314517
Si Si8 0.508643 0.843371 0.270663
O O1 0.484339 0.543866 0.334502
O O2 0.413561 0.329668 0.244907
O O3 0.122057 0.471417 0.169091
O O4 0.598142 0.313567 0.081562
O O5 0.493879 0.210937 0.517820
O O6 0.341481 0.342542 0.426566
O O7 0.045345 0.492518 0.621143
O O8 0.333214 0.331793 0.807694
O O9 0.211249 0.620531 0.994986
O O10 0.000000 0.500000 0.000000
O O11 0.679538 0.147657 0.828422
O O12 0.064258 0.144136 0.973415
O O13 0.379555 0.927069 0.405417
O O14 0.309740 0.077667 0.671613
O O15 0.000000 0.000000 0.500000
O O16 0.856856 0.789951 0.802551
O O17 0.500000 0.000000 0.000000
O O18 0.000000 0.000000 0.000000
#
# Coordination Sequence:
#
# PCOD9066355 Si02
#       8
#     2   2   2   2   2   2   2   2
#     4  12  21  44  72 106 146 187 258 312 374 453
#     4  11  25  45  74  99 146 193 262 309 377 459
#     4  12  25  41  76 108 145 192 249 313 383 460
#     4  12  26  44  73 107 148 195 248 313 381 470
#     4  11  26  47  69 102 150 198 240 309 378 460
#     4  12  28  49  76 112 157 196 254 323 395 463
#     4  11  25  47  73 107 141 201 256 312 385 453
#     4  11  26  44  68 109 146 189 248 300 385 453
#
# _framework density 21.576957
#
# number of rings (size 3 to 8) (size 9 to 14) (size 15 to 20)
#    0.000    0.500    3.750    3.750    5.250    2.000 
#    0.000    0.000    0.000    0.000    0.000    0.000 
#    0.000    0.000    0.000    0.000    0.000    0.000 
#
# Total GULP energy -89271.600215 kJ/mol
# GULP energy per Si atom -5579.475013 kJ/mol
# Density = 2.152785 g / cm^3
# Si number density = 21.576957 Si / 1000 Ang^3
#
#
#
# Elastic Constant Matrix: (Units=GPa)
#
#
# Indices 1 2 3 4 5 6 
#
# 1 73.7009 16.1178 49.4088 -12.0479 2.9633 -4.0686
# 2 16.1178 59.0629 42.4516 -15.1377 16.2107 -16.3213
# 3 49.4088 42.4516 155.1162 -33.6328 32.2483 -0.8384
# 4 -12.0479 -15.1377 -33.6328 42.0201 3.3242 3.0063
# 5 2.9633 16.2107 32.2483 3.3242 40.6919 -7.4931
# 6 -4.0686 -16.3213 -0.8384 3.0063 -7.4931 48.1072
#
#
#
# Elastic Compliance Matrix: (Units=1/GPa)
#
#
# Indices 1 2 3 4 5 6 
#
# 1 0.018018 -0.001273 -0.006639 -0.001122 0.004881 0.001807
# 2 -0.001273 0.025142 -0.004049 0.005406 -0.005848 0.007103
# 3 -0.006639 -0.004049 0.013614 0.008606 -0.010097 -0.003808
# 4 -0.001122 0.005406 0.008606 0.033410 -0.012002 -0.002068
# 5 0.004881 -0.005848 -0.010097 -0.012002 0.036392 0.004671
# 6 0.001807 0.007103 -0.003808 -0.002068 0.004671 0.024140
#
#
# Mechanical properties :
#
#
# Convention : Reuss Voigt Hill
#
# Bulk Modulus (GPa) = 30.43932 55.98184 43.21058
# Shear Modulus (GPa) = 26.94149 38.15727 32.54938
#
# Velocity S-wave (km/s) = 3.53742 4.20983 3.88819
# Velocity P-wave (km/s) = 5.55179 7.04498 6.34248
#
# Compressibility (1/GPa) = 0.03285225
#
# Stress axis : x y z
#
# Youngs Moduli (GPa) = 55.50154 39.77373 73.45374
#
# Poissons Ratio (x) = 0.05063 0.48764
# Poissons Ratio (y) = 0.07065 0.29741
# Poissons Ratio (z) = 0.36846 0.16104
#
# Static dielectric constant tensor:
#      x y z
#    x 1.879540 -0.084990 0.015510 
#    y -0.084990 1.716790 0.004330 
#    z 0.015510 0.004330 1.747390 
# 
# From -- ./inp_files/484524.got.cif
#   From: 2010.05.17/outbox.cif.g08.bks.cpg/sg2_243_cif.got.tgz:484524.got - 2010.06.03 11:33:40.
