data_PCOD9066177
_publ_section_title
;
Structure prediction by ZEFSAII (Michael W. Deem and Ramdas Pophale) SiO2 
 PCOD9066177
Probable space group: P -1
;
_chemical_formula_sum "Si O2"
_cell_formula_units_Z 14
_cell_length_a 17.498058
_cell_length_b 9.655181
_cell_length_c 12.191776
_cell_angle_alpha 152.892172
_cell_angle_beta 140.557445
_cell_angle_gamma 49.192360
_cell_volume 592.169913
_symmetry_space_group_name_H-M "P -1"
_symmetry_group_IT_number 2
_symmetry_cell_setting 'triclinic'
loop_
_space_group_symop_operation_xyz
x,y,z
-x,-y,-z
loop_
_atom_site_type_symbol
_atom_site_label
_atom_site_fract_x
_atom_site_fract_y
_atom_site_fract_z
Si Si1 0.693475 0.693311 0.854044
Si Si2 0.840819 0.676120 0.402685
Si Si3 0.018290 0.356500 0.253683
Si Si4 0.119761 0.831044 0.536218
Si Si5 0.888210 0.291267 0.786782
Si Si6 0.556071 0.730946 0.131035
Si Si7 0.497107 0.434487 0.617836
O O1 0.791832 0.490142 0.869526
O O2 0.584486 0.661893 0.797133
O O3 0.635560 0.587689 0.599278
O O4 0.778224 0.010073 0.158579
O O5 0.887550 0.538818 0.469791
O O6 0.700478 0.714436 0.275732
O O7 0.889348 0.473368 0.217974
O O8 0.911085 0.011803 0.690491
O O9 0.071750 0.507444 0.308134
O O10 0.000000 0.000000 0.000000
O O11 0.179285 0.848831 0.495800
O O12 0.000000 0.000000 0.500000
O O13 0.000000 0.500000 0.000000
O O14 0.531950 0.082424 0.385074
O O15 0.500000 0.500000 0.000000
O O16 0.506538 0.581832 0.853842
#
# Coordination Sequence:
#
# PCOD9066177 Si02
#       7
#     2   2   2   2   2   2   2
#     4  11  26  44  74 109 150 194 254 323 385 452
#     4  11  25  45  70 102 149 194 248 312 384 456
#     4  11  26  44  70 108 151 196 244 311 394 459
#     4  12  24  42  72 109 147 192 251 313 383 463
#     4  12  22  41  72 106 144 192 246 311 384 457
#     4  12  28  51  76 107 149 207 262 314 385 462
#     4  11  28  49  78 108 152 202 260 324 381 446
#
# _framework density 23.641864000000002
#
# number of rings (size 3 to 8) (size 9 to 14) (size 15 to 20)
#    0.000    0.571    4.286    2.143    6.000    2.286 
#    0.000    0.000    0.000    0.000    0.000    0.000 
#    0.000    0.000    0.000    0.000    0.000    0.000 
#
# Total GULP energy -78133.106684 kJ/mol
# GULP energy per Si atom -5580.936192 kJ/mol
# Density = 2.358805 g / cm^3
# Si number density = 23.641864 Si / 1000 Ang^3
#
#
#
# Elastic Constant Matrix: (Units=GPa)
#
#
# Indices 1 2 3 4 5 6 
#
# 1 78.1258 49.0408 48.8185 -1.7143 1.1602 20.3745
# 2 49.0408 115.8826 40.5457 7.5239 3.4362 11.1350
# 3 48.8185 40.5457 134.2748 1.1801 12.9921 6.7246
# 4 -1.7143 7.5239 1.1801 52.1487 7.6777 -4.3917
# 5 1.1602 3.4362 12.9921 7.6777 42.8225 -1.4562
# 6 20.3745 11.1350 6.7246 -4.3917 -1.4562 57.0151
#
#
#
# Elastic Compliance Matrix: (Units=1/GPa)
#
#
# Indices 1 2 3 4 5 6 
#
# 1 0.022368 -0.006968 -0.005876 0.001189 0.001325 -0.005814
# 2 -0.006968 0.012078 -0.001093 -0.001923 -0.000100 0.000109
# 3 -0.005876 -0.001093 0.010132 0.000242 -0.002834 0.001064
# 4 0.001189 -0.001923 0.000242 0.020120 -0.003512 0.001382
# 5 0.001325 -0.000100 -0.002834 -0.003512 0.024822 0.000244
# 6 -0.005814 0.000109 0.001064 0.001382 0.000244 0.019583
#
#
# Mechanical properties :
#
#
# Convention : Reuss Voigt Hill
#
# Bulk Modulus (GPa) = 59.85998 67.23257 63.54627
# Shear Modulus (GPa) = 35.07668 43.05579 39.06623
#
# Velocity S-wave (km/s) = 3.85602 4.27214 4.06940
# Velocity P-wave (km/s) = 6.72307 7.26874 7.00122
#
# Compressibility (1/GPa) = 0.01670565
#
# Stress axis : x y z
#
# Youngs Moduli (GPa) = 44.70659 82.79650 98.69317
#
# Poissons Ratio (x) = 0.57693 0.57990
# Poissons Ratio (y) = 0.31152 0.10782
# Poissons Ratio (z) = 0.26269 0.09046
#
# Static dielectric constant tensor:
#      x y z
#    x 1.915670 -0.042320 -0.147480 
#    y -0.042320 1.896410 0.027390 
#    z -0.147480 0.027390 2.192980 
# 
# From -- ./inp_files/387602.got.cif
#   From: 2010.05.17/outbox.cif.g08.bks.cpg/sg2_194_cif.got.tgz:387602.got - 2010.06.03 11:33:40.
