data_PCOD9066721
_publ_section_title
;
Structure prediction by ZEFSAII (Michael W. Deem and Ramdas Pophale) SiO2 
 PCOD9066721
Probable space group: P -1
;
_chemical_formula_sum "Si O2"
_cell_formula_units_Z 12
_cell_length_a 10.261206
_cell_length_b 8.719276
_cell_length_c 5.605408
_cell_angle_alpha 87.771325
_cell_angle_beta 98.242657
_cell_angle_gamma 116.641281
_cell_volume 443.458412
_symmetry_space_group_name_H-M "P -1"
_symmetry_group_IT_number 2
_symmetry_cell_setting 'triclinic'
loop_
_space_group_symop_operation_xyz
x,y,z
-x,-y,-z
loop_
_atom_site_type_symbol
_atom_site_label
_atom_site_fract_x
_atom_site_fract_y
_atom_site_fract_z
Si Si1 0.222197 0.036087 0.095756
Si Si2 0.613433 0.930665 0.423595
Si Si3 0.886477 0.570338 0.652566
Si Si4 0.517959 0.329263 0.961701
Si Si5 0.925371 0.747606 0.134921
Si Si6 0.223304 0.699473 0.705513
O O1 0.261200 0.081845 0.381764
O O2 0.391600 0.153922 0.054300
O O3 0.135237 0.111568 0.906317
O O4 0.099687 0.839420 0.113598
O O5 0.515127 0.740107 0.311371
O O6 0.500000 0.000000 0.500000
O O7 0.714784 0.096511 0.276302
O O8 0.894195 0.672287 0.399772
O O9 0.784300 0.375555 0.558553
O O10 0.053038 0.599413 0.738187
O O11 0.848703 0.635973 0.883019
O O12 0.500000 0.500000 0.000000
O O13 0.667415 0.344373 0.108762
#
# Coordination Sequence:
#
# PCOD9066721 Si02
#       6
#     2   2   2   2   2   2
#     4  11  26  44  75 106 150 198 248 316 381 454
#     4  12  26  47  76 109 150 197 257 313 382 455
#     4  11  26  47  75 109 152 196 258 307 379 449
#     4  12  28  48  74 109 151 199 255 317 382 454
#     4  11  26  47  76 111 151 201 250 316 374 460
#     4  11  25  46  74 110 148 199 250 317 374 459
#
# _framework density 27.060034999999999
#
# number of rings (size 3 to 8) (size 9 to 14) (size 15 to 20)
#    0.000    0.667    3.333    2.500    7.000    7.333 
#    0.000    0.000    0.000    0.000    0.000    0.000 
#    0.000    0.000    0.000    0.000    0.000    0.000 
#
# Total GULP energy -66933.976845 kJ/mol
# GULP energy per Si atom -5577.831404 kJ/mol
# Density = 2.699845 g / cm^3
# Si number density = 27.060035 Si / 1000 Ang^3
#
#
#
# Elastic Constant Matrix: (Units=GPa)
#
#
# Indices 1 2 3 4 5 6 
#
# 1 17.1125 21.4181 35.1201 -17.3851 20.8228 9.8111
# 2 21.4181 164.9814 81.4037 28.8401 6.6286 -0.1624
# 3 35.1201 81.4037 140.4747 12.2201 37.6977 -8.5482
# 4 -17.3851 28.8401 12.2201 74.8217 0.4693 -3.0130
# 5 20.8228 6.6286 37.6977 0.4693 55.3711 -6.7439
# 6 9.8111 -0.1624 -8.5482 -3.0130 -6.7439 44.0474
#
#
#
# Elastic Compliance Matrix: (Units=1/GPa)
#
#
# Indices 1 2 3 4 5 6 
#
# 1 -0.237264 0.020786 0.038616 -0.067207 0.069103 0.066402
# 2 0.020786 0.007575 -0.009427 0.003200 -0.003148 -0.006694
# 3 0.038616 -0.009427 0.006482 0.011284 -0.019062 -0.009525
# 4 -0.067207 0.003200 0.011284 -0.004650 0.019667 0.019864
# 5 0.069103 -0.003148 -0.019062 0.019667 0.003157 -0.017274
# 6 0.066402 -0.006694 -0.009525 0.019864 -0.017274 0.004753
#
#
# Mechanical properties :
#
#
# Convention : Reuss Voigt Hill
#
# Bulk Modulus (GPa) = -8.11302 66.49473 29.19086
# Shear Modulus (GPa) = -13.85108 47.15648 16.65270
#
# Velocity S-wave (km/s) = -2.26490 4.17905 2.48341
# Velocity P-wave (km/s) = 3.13757 6.92187 4.36280
#
# Compressibility (1/GPa) = -0.12325870
#
# Stress axis : x y z
#
# Youngs Moduli (GPa) = -4.21471 132.01491 154.28406
#
# Poissons Ratio (x) = -2.74403 -5.95783
# Poissons Ratio (y) = 0.08761 1.45447
# Poissons Ratio (z) = 0.16276 1.24454
#
# Static dielectric constant tensor:
#      x y z
#    x 2.318140 -0.014640 -0.288880 
#    y -0.014640 2.351890 0.003520 
#    z -0.288880 0.003520 2.462960 
# 
# From -- ./inp_files/58419.got.cif
#   From: 2010.05.17/outbox.cif.g08.bks.cpg/sg2_30_cif.got.tgz:58419.got - 2010.06.03 11:33:40.
