data_PCOD9066014
_publ_section_title
;
Structure prediction by ZEFSAII (Michael W. Deem and Ramdas Pophale) SiO2 
 PCOD9066014
Probable space group: P -1
;
_chemical_formula_sum "Si O2"
_cell_formula_units_Z 13
_cell_length_a 11.362990
_cell_length_b 18.047393
_cell_length_c 11.339046
_cell_angle_alpha 149.226414
_cell_angle_beta 34.778406
_cell_angle_gamma 148.739872
_cell_volume 583.377283
_symmetry_space_group_name_H-M "P -1"
_symmetry_group_IT_number 2
_symmetry_cell_setting 'triclinic'
loop_
_space_group_symop_operation_xyz
x,y,z
-x,-y,-z
loop_
_atom_site_type_symbol
_atom_site_label
_atom_site_fract_x
_atom_site_fract_y
_atom_site_fract_z
Si Si1 0.744522 0.371715 0.976244
Si Si2 0.848748 0.147521 0.403336
Si Si3 0.500000 0.500000 0.000000
Si Si4 0.377148 0.741351 0.827592
Si Si5 0.658245 0.571317 0.705618
Si Si6 0.444409 0.131028 0.562302
Si Si7 0.770984 0.016761 0.715832
O O1 0.586631 0.271125 0.081527
O O2 0.599134 0.448973 0.140806
O O3 0.794290 0.261700 0.693622
O O4 0.000000 0.500000 0.000000
O O5 0.673305 0.120194 0.401688
O O6 0.121988 0.251587 0.278663
O O7 0.758993 0.978225 0.321048
O O8 0.655466 0.540180 0.803593
O O9 0.494758 0.319082 0.772530
O O10 0.319631 0.571726 0.578732
O O11 0.606144 0.895433 0.788996
O O12 0.176178 0.794459 0.050881
O O13 0.360475 0.048553 0.390360
O O14 0.000000 0.000000 0.500000
#
# Coordination Sequence:
#
# PCOD9066014 Si02
#       7
#     2   2   1   2   2   2   2
#     4  12  25  44  74 109 148 187 247 303 363 444
#     4  11  26  49  75 103 149 197 246 305 368 441
#     4  12  26  50  72 106 148 192 254 302 372 436
#     4  11  25  44  71 113 142 191 244 299 370 436
#     4  12  27  47  77 109 143 198 248 302 375 433
#     4  11  25  50  71 106 147 192 247 304 362 441
#     4  11  26  46  74 107 150 191 240 308 373 434
#
# _framework density 22.284033999999998
#
# number of rings (size 3 to 8) (size 9 to 14) (size 15 to 20)
#    0.000    0.615    6.154    0.462    4.308    2.462 
#    8.308    0.000    0.000    0.000    0.000    0.000 
#    0.000    0.000    0.000    0.000    0.000    0.000 
#
# Total GULP energy -72464.563093 kJ/mol
# GULP energy per Si atom -5574.197161 kJ/mol
# Density = 2.223331 g / cm^3
# Si number density = 22.284034 Si / 1000 Ang^3
#
#
#
# Elastic Constant Matrix: (Units=GPa)
#
#
# Indices 1 2 3 4 5 6 
#
# 1 79.2616 47.3778 17.0163 -16.9742 13.8303 -6.9165
# 2 47.3778 131.2109 28.2957 -4.9510 -17.4572 -27.2516
# 3 17.0163 28.2957 95.7744 -7.8799 -1.5283 -8.4697
# 4 -16.9742 -4.9510 -7.8799 32.2050 -10.5187 -2.5814
# 5 13.8303 -17.4572 -1.5283 -10.5187 30.9433 -3.2369
# 6 -6.9165 -27.2516 -8.4697 -2.5814 -3.2369 39.4813
#
#
#
# Elastic Compliance Matrix: (Units=1/GPa)
#
#
# Indices 1 2 3 4 5 6 
#
# 1 0.022405 -0.010611 -0.001104 0.004660 -0.014947 -0.004557
# 2 -0.010611 0.016116 -0.001503 0.002474 0.015688 0.010390
# 3 -0.001104 -0.001503 0.011438 0.002502 0.001216 0.001486
# 4 0.004660 0.002474 0.002502 0.039470 0.013560 0.006753
# 5 -0.014947 0.015688 0.001216 0.013560 0.053960 0.013782
# 6 -0.004557 0.010390 0.001486 0.006753 0.013782 0.033592
#
#
# Mechanical properties :
#
#
# Convention : Reuss Voigt Hill
#
# Bulk Modulus (GPa) = 42.51336 54.62516 48.56926
# Shear Modulus (GPa) = 23.66780 34.76305 29.21542
#
# Velocity S-wave (km/s) = 3.26252 3.95397 3.62477
# Velocity P-wave (km/s) = 5.77160 6.73880 6.27387
#
# Compressibility (1/GPa) = 0.02352202
#
# Stress axis : x y z
#
# Youngs Moduli (GPa) = 44.63365 62.05180 87.42696
#
# Poissons Ratio (x) = 0.65844 0.09650
# Poissons Ratio (y) = 0.47362 0.13142
# Poissons Ratio (z) = 0.04926 0.09328
#
# Static dielectric constant tensor:
#      x y z
#    x 1.822180 0.012860 -0.006730 
#    y 0.012860 1.845150 0.011520 
#    z -0.006730 0.011520 1.831670 
# 
# From -- ./inp_files/361527.got.cif
#   From: 2010.05.17/outbox.cif.g08.bks.cpg/sg2_181_cif.got.tgz:361527.got - 2010.06.03 11:33:40.
