data_PCOD9066291
_publ_section_title
;
Structure prediction by ZEFSAII (Michael W. Deem and Ramdas Pophale) SiO2 
 PCOD9066291
Probable space group: P -1
;
_chemical_formula_sum "Si O2"
_cell_formula_units_Z 16
_cell_length_a 5.906130
_cell_length_b 14.293623
_cell_length_c 10.861049
_cell_angle_alpha 68.995052
_cell_angle_beta 54.589376
_cell_angle_gamma 90.023268
_cell_volume 671.025448
_symmetry_space_group_name_H-M "P -1"
_symmetry_group_IT_number 2
_symmetry_cell_setting 'triclinic'
loop_
_space_group_symop_operation_xyz
x,y,z
-x,-y,-z
loop_
_atom_site_type_symbol
_atom_site_label
_atom_site_fract_x
_atom_site_fract_y
_atom_site_fract_z
Si Si1 0.424030 0.152399 0.701366
Si Si2 0.028164 0.737228 0.163374
Si Si3 0.099260 0.718656 0.886011
Si Si4 0.402947 0.103888 0.012217
Si Si5 0.745847 0.515610 0.313391
Si Si6 0.729904 0.054410 0.298694
Si Si7 0.026581 0.687227 0.652986
Si Si8 0.451150 0.551622 0.857487
O O1 0.425661 0.151970 0.846629
O O2 0.732045 0.215102 0.520560
O O3 0.182163 0.212380 0.714687
O O4 0.337153 0.032060 0.746030
O O5 0.348267 0.812514 0.032675
O O6 0.987516 0.614390 0.248611
O O7 0.930864 0.732121 0.053887
O O8 0.326869 0.832780 0.752496
O O9 0.944358 0.707320 0.809082
O O10 0.223385 0.619556 0.913146
O O11 0.082417 0.077698 0.186822
O O12 0.500000 0.000000 0.000000
O O13 0.500000 0.500000 0.500000
O O14 0.842392 0.410587 0.332800
O O15 0.634761 0.519927 0.203920
O O16 0.500000 0.000000 0.500000
O O17 0.739093 0.641684 0.689073
O O18 0.500000 0.500000 0.000000
#
# Coordination Sequence:
#
# PCOD9066291 Si02
#       8
#     2   2   2   2   2   2   2   2
#     4  12  25  45  72 105 150 188 242 314 367 436
#     4  12  25  45  74 105 144 192 245 294 377 445
#     4  11  25  46  74 102 149 191 238 308 369 439
#     4  12  27  46  76 105 147 195 246 304 373 446
#     4  11  25  45  73 107 151 190 243 315 372 435
#     4  12  25  48  74 108 150 195 246 309 375 441
#     4  11  25  46  72 109 145 191 246 308 369 446
#     4  11  26  47  75 107 149 198 252 304 378 451
#
# _framework density 23.844104999999999
#
# number of rings (size 3 to 8) (size 9 to 14) (size 15 to 20)
#    0.000    0.500    5.000    2.625    3.500    5.500 
#    0.000    1.875    0.000    0.000    0.000    0.000 
#    0.000    0.000    0.000    0.000    0.000    0.000 
#
# Total GULP energy -89237.555897 kJ/mol
# GULP energy per Si atom -5577.347244 kJ/mol
# Density = 2.378983 g / cm^3
# Si number density = 23.844105 Si / 1000 Ang^3
#
#
#
# Elastic Constant Matrix: (Units=GPa)
#
#
# Indices 1 2 3 4 5 6 
#
# 1 80.1539 49.8641 46.4201 1.1481 -15.9446 22.4144
# 2 49.8641 145.0025 36.6224 -16.4375 6.4098 35.6344
# 3 46.4201 36.6224 105.7467 0.2388 -28.3657 15.5427
# 4 1.1481 -16.4375 0.2388 52.8315 9.9451 -4.6984
# 5 -15.9446 6.4098 -28.3657 9.9451 35.6162 -15.6386
# 6 22.4144 35.6344 15.5427 -4.6984 -15.6386 37.2324
#
#
#
# Elastic Compliance Matrix: (Units=1/GPa)
#
#
# Indices 1 2 3 4 5 6 
#
# 1 0.021311 -0.006122 -0.005101 -0.003799 0.006505 -0.002588
# 2 -0.006122 0.016363 -0.005834 0.007482 -0.019858 -0.016937
# 3 -0.005101 -0.005834 0.017139 -0.004293 0.017209 0.008186
# 4 -0.003799 0.007482 -0.004293 0.023782 -0.016115 -0.006849
# 5 0.006505 -0.019858 0.017209 -0.016115 0.067862 0.034376
# 6 -0.002588 -0.016937 0.008186 -0.006849 0.034376 0.054783
#
#
# Mechanical properties :
#
#
# Convention : Reuss Voigt Hill
#
# Bulk Modulus (GPa) = 48.31132 66.30183 57.30658
# Shear Modulus (GPa) = 20.63945 38.33580 29.48762
#
# Velocity S-wave (km/s) = 2.94530 4.01405 3.52047
# Velocity P-wave (km/s) = 5.64550 7.02497 6.37267
#
# Compressibility (1/GPa) = 0.02069908
#
# Stress axis : x y z
#
# Youngs Moduli (GPa) = 46.92432 61.11202 58.34738
#
# Poissons Ratio (x) = 0.37416 0.29762
# Poissons Ratio (y) = 0.28729 0.34037
# Poissons Ratio (z) = 0.23936 0.35650
#
# Static dielectric constant tensor:
#      x y z
#    x 2.044390 -0.044110 0.038310 
#    y -0.044110 1.930100 -0.065440 
#    z 0.038310 -0.065440 1.915210 
# 
# From -- ./inp_files/367657.got.cif
#   From: 2010.05.17/outbox.cif.g08.bks.cpg/sg2_184_cif.got.tgz:367657.got - 2010.06.03 11:33:40.
