data_PCOD9066986
_publ_section_title
;
Structure prediction by ZEFSAII (Michael W. Deem and Ramdas Pophale) SiO2 
 PCOD9066986
Probable space group: P -1
;
_chemical_formula_sum "Si O2"
_cell_formula_units_Z 14
_cell_length_a 11.767220
_cell_length_b 9.714931
_cell_length_c 9.621189
_cell_angle_alpha 145.505240
_cell_angle_beta 103.759427
_cell_angle_gamma 74.625105
_cell_volume 600.223128
_symmetry_space_group_name_H-M "P -1"
_symmetry_group_IT_number 2
_symmetry_cell_setting 'triclinic'
loop_
_space_group_symop_operation_xyz
x,y,z
-x,-y,-z
loop_
_atom_site_type_symbol
_atom_site_label
_atom_site_fract_x
_atom_site_fract_y
_atom_site_fract_z
Si Si1 0.445604 0.237533 0.272869
Si Si2 0.448048 0.871434 0.207691
Si Si3 0.685600 0.840948 0.364270
Si Si4 0.999897 0.187716 0.031310
Si Si5 0.752972 0.389899 0.187495
Si Si6 0.193924 0.510105 0.402066
Si Si7 0.116660 0.976643 0.608279
O O1 0.500000 0.500000 0.500000
O O2 0.307745 0.306878 0.250121
O O3 0.457987 0.124787 0.338194
O O4 0.500000 0.000000 0.000000
O O5 0.578571 0.741407 0.167878
O O6 0.380185 0.925393 0.378565
O O7 0.366409 0.722773 0.967640
O O8 0.737849 0.664063 0.354613
O O9 0.786852 0.887836 0.327948
O O10 0.069465 0.405420 0.285051
O O11 0.862188 0.260287 0.022196
O O12 0.071328 0.086372 0.833680
O O13 0.000000 0.000000 0.000000
O O14 0.784171 0.373464 0.344769
O O15 0.179364 0.705396 0.436715
O O16 0.000000 0.000000 0.500000
#
# Coordination Sequence:
#
# PCOD9066986 Si02
#       7
#     2   2   2   2   2   2   2
#     4  12  27  47  79 114 156 204 265 329 393 472
#     4  11  25  47  74 108 152 204 260 322 397 466
#     4  11  26  45  73 107 156 200 259 321 397 470
#     4  12  27  45  79 109 149 199 264 325 393 472
#     4  12  24  47  77 107 150 209 261 318 395 475
#     4  12  27  47  78 109 151 203 262 326 395 476
#     4  12  28  49  75 114 157 200 262 328 398 467
#
# _framework density 23.324660000000002
#
# number of rings (size 3 to 8) (size 9 to 14) (size 15 to 20)
#    0.000    0.286    2.857    5.143    6.000    3.429 
#    0.000    0.000    0.000    0.000    0.000    0.000 
#    0.000    0.000    0.000    0.000    0.000    0.000 
#
# Total GULP energy -78346.622973 kJ/mol
# GULP energy per Si atom -5596.187355 kJ/mol
# Density = 2.327157 g / cm^3
# Si number density = 23.324660 Si / 1000 Ang^3
#
#
#
# Elastic Constant Matrix: (Units=GPa)
#
#
# Indices 1 2 3 4 5 6 
#
# 1 134.4400 34.0117 31.1938 -13.1886 -11.3898 4.6694
# 2 34.0117 111.5517 18.6038 -11.8973 -3.9725 0.0397
# 3 31.1938 18.6038 73.7728 -14.3428 -1.2096 13.9674
# 4 -13.1886 -11.8973 -14.3428 32.2046 -5.9771 -0.8907
# 5 -11.3898 -3.9725 -1.2096 -5.9771 51.2124 0.0154
# 6 4.6694 0.0397 13.9674 -0.8907 0.0154 48.6994
#
#
#
# Elastic Compliance Matrix: (Units=1/GPa)
#
#
# Indices 1 2 3 4 5 6 
#
# 1 0.008973 -0.001968 -0.002867 0.002044 0.002014 0.000000
# 2 -0.001968 0.010069 -0.001337 0.002446 0.000597 0.000608
# 3 -0.002867 -0.001337 0.017113 0.005894 0.000352 -0.004524
# 4 0.002044 0.002446 0.005894 0.036315 0.005022 -0.001226
# 5 0.002014 0.000597 0.000352 0.005022 0.020615 -0.000209
# 6 0.000000 0.000608 -0.004524 -0.001226 -0.000209 0.021809
#
#
# Mechanical properties :
#
#
# Convention : Reuss Voigt Hill
#
# Bulk Modulus (GPa) = 41.99809 54.15365 48.07587
# Shear Modulus (GPa) = 36.98899 42.15362 39.57131
#
# Velocity S-wave (km/s) = 3.98657 4.25579 4.12338
# Velocity P-wave (km/s) = 6.26381 6.88599 6.58225
#
# Compressibility (1/GPa) = 0.02381060
#
# Stress axis : x y z
#
# Youngs Moduli (GPa) = 111.45154 99.31131 58.43544
#
# Poissons Ratio (x) = 0.19542 0.16755
# Poissons Ratio (y) = 0.21931 0.07813
# Poissons Ratio (z) = 0.31956 0.13278
#
# Static dielectric constant tensor:
#      x y z
#    x 1.771300 -0.057330 -0.029650 
#    y -0.057330 1.846120 0.002480 
#    z -0.029650 0.002480 1.960970 
# 
# From -- ./inp_files/84431.got.cif
#   From: 2010.05.17/outbox.cif.g08.bks.cpg/sg2_43_cif.got.tgz:84431.got - 2010.06.03 11:33:40.
