data_PCOD9066955
_publ_section_title
;
Structure prediction by ZEFSAII (Michael W. Deem and Ramdas Pophale) SiO2 
 PCOD9066955
Probable space group: P -1
;
_chemical_formula_sum "Si O2"
_cell_formula_units_Z 14
_cell_length_a 9.406255
_cell_length_b 20.599145
_cell_length_c 5.299414
_cell_angle_alpha 118.672053
_cell_angle_beta 117.847631
_cell_angle_gamma 41.013116
_cell_volume 581.275323
_symmetry_space_group_name_H-M "P -1"
_symmetry_group_IT_number 2
_symmetry_cell_setting 'triclinic'
loop_
_space_group_symop_operation_xyz
x,y,z
-x,-y,-z
loop_
_atom_site_type_symbol
_atom_site_label
_atom_site_fract_x
_atom_site_fract_y
_atom_site_fract_z
Si Si1 0.883654 0.008389 0.669720
Si Si2 0.526107 0.616999 0.326197
Si Si3 0.482235 0.238753 0.689985
Si Si4 0.140926 0.234296 0.211747
Si Si5 0.220656 0.595916 0.083474
Si Si6 0.848161 0.600758 0.898175
Si Si7 0.740900 0.892788 0.425703
O O1 0.877007 0.922834 0.524502
O O2 0.644812 0.121367 0.668675
O O3 0.000000 0.000000 0.500000
O O4 0.000000 0.000000 0.000000
O O5 0.418830 0.723020 0.308620
O O6 0.614784 0.524731 0.041401
O O7 0.752548 0.578387 0.556908
O O8 0.354422 0.622979 0.362156
O O9 0.280650 0.265272 0.421141
O O10 0.376323 0.305186 0.975906
O O11 0.169481 0.177843 0.385031
O O12 0.887489 0.334200 0.129065
O O13 0.245981 0.160015 0.916424
O O14 0.999847 0.626468 0.059647
O O15 0.000000 0.500000 0.000000
O O16 0.500000 0.000000 0.500000
#
# Coordination Sequence:
#
# PCOD9066955 Si02
#       7
#     2   2   2   2   2   2   2
#     4  12  31  50  77 112 157 203 260 328 393 453
#     4  11  26  47  71 111 159 194 260 318 387 472
#     4  12  27  48  76 106 153 203 258 320 394 463
#     4  12  26  47  81 109 148 202 258 318 390 458
#     4  11  25  47  73 112 153 203 255 317 392 469
#     4  12  24  47  77 110 153 206 255 321 389 470
#     4  12  27  49  75 109 146 195 259 315 380 462
#
# _framework density 24.084976000000001
#
# number of rings (size 3 to 8) (size 9 to 14) (size 15 to 20)
#    0.000    0.286    4.286    3.429    8.000    0.571 
#    2.571    0.000    0.000    0.000    0.000    0.000 
#    0.000    0.000    0.000    0.000    0.000    0.000 
#
# Total GULP energy -78256.079900 kJ/mol
# GULP energy per Si atom -5589.719993 kJ/mol
# Density = 2.403016 g / cm^3
# Si number density = 24.084976 Si / 1000 Ang^3
#
#
#
# Elastic Constant Matrix: (Units=GPa)
#
#
# Indices 1 2 3 4 5 6 
#
# 1 171.0914 23.5854 53.7935 1.8986 23.4799 32.6396
# 2 23.5854 99.9072 7.8358 -5.8693 1.9341 16.4225
# 3 53.7935 7.8358 87.5004 5.8334 9.8901 15.9347
# 4 1.8986 -5.8693 5.8334 36.3742 2.4881 4.6329
# 5 23.4799 1.9341 9.8901 2.4881 46.8517 4.9718
# 6 32.6396 16.4225 15.9347 4.6329 4.9718 48.2419
#
#
#
# Elastic Compliance Matrix: (Units=1/GPa)
#
#
# Indices 1 2 3 4 5 6 
#
# 1 0.008374 -0.000936 -0.004098 0.000749 -0.002934 -0.003763
# 2 -0.000936 0.010899 0.000030 0.002209 0.000248 -0.003325
# 3 -0.004098 0.000030 0.014470 -0.001828 -0.000718 -0.001768
# 4 0.000749 0.002209 -0.001828 0.028605 -0.001252 -0.003273
# 5 -0.002934 0.000248 -0.000718 -0.001252 0.023034 -0.000116
# 6 -0.003763 -0.003325 -0.001768 -0.003273 -0.000116 0.025317
#
#
# Mechanical properties :
#
#
# Convention : Reuss Voigt Hill
#
# Bulk Modulus (GPa) = 42.13139 58.76984 50.45061
# Shear Modulus (GPa) = 38.87405 44.51251 41.69328
#
# Velocity S-wave (km/s) = 4.02187 4.30367 4.16515
# Velocity P-wave (km/s) = 6.25284 7.01067 6.64257
#
# Compressibility (1/GPa) = 0.02373527
#
# Stress axis : x y z
#
# Youngs Moduli (GPa) = 119.41023 91.74787 69.10909
#
# Poissons Ratio (x) = 0.08589 0.28318
# Poissons Ratio (y) = 0.11179 -0.00204
# Poissons Ratio (z) = 0.48930 -0.00271
#
# Static dielectric constant tensor:
#      x y z
#    x 2.008170 -0.032880 -0.036010 
#    y -0.032880 1.978150 -0.008430 
#    z -0.036010 -0.008430 1.968150 
# 
# From -- ./inp_files/53834.got.cif
#   From: 2010.05.17/outbox.cif.g08.bks.cpg/sg2_27_cif.got.tgz:53834.got - 2010.06.03 11:33:40.
