data_PCOD9066396
_publ_section_title
;
Structure prediction by ZEFSAII (Michael W. Deem and Ramdas Pophale) SiO2 
 PCOD9066396
Probable space group: P -1
;
_chemical_formula_sum "Si O2"
_cell_formula_units_Z 10
_cell_length_a 8.969342
_cell_length_b 15.372220
_cell_length_c 12.670224
_cell_angle_alpha 152.725499
_cell_angle_beta 47.165714
_cell_angle_gamma 149.895282
_cell_volume 370.182709
_symmetry_space_group_name_H-M "P -1"
_symmetry_group_IT_number 2
_symmetry_cell_setting 'triclinic'
loop_
_space_group_symop_operation_xyz
x,y,z
-x,-y,-z
loop_
_atom_site_type_symbol
_atom_site_label
_atom_site_fract_x
_atom_site_fract_y
_atom_site_fract_z
Si Si1 0.435786 0.245177 0.587273
Si Si2 0.681521 0.771656 0.596416
Si Si3 0.161066 0.110871 0.924926
Si Si4 0.997400 0.363497 0.752906
Si Si5 0.958049 0.389733 0.573080
O O1 0.238229 0.079166 0.394939
O O2 0.794488 0.414698 0.598781
O O3 0.257455 0.992621 0.488380
O O4 0.531490 0.533600 0.860374
O O5 0.322462 0.590336 0.590885
O O6 0.698351 0.555135 0.334514
O O7 0.906130 0.974706 0.807190
O O8 0.245243 0.951734 0.700737
O O9 0.000000 0.000000 0.000000
O O10 0.945578 0.445869 0.760766
O O11 0.000000 0.500000 0.000000
#
# Coordination Sequence:
#
# PCOD9066396 Si02
#       5
#     2   2   2   2   2
#     4  12  27  46  78 115 149 196 253 308 380 435
#     4  11  26  51  75 111 151 197 253 307 368 445
#     4  11  25  45  76 109 154 191 248 312 370 438
#     4  11  27  50  76 109 158 198 245 312 380 442
#     4  11  26  50  76 112 151 200 251 305 374 450
#
# _framework density 27.013687999999998
#
# number of rings (size 3 to 8) (size 9 to 14) (size 15 to 20)
#    0.000    0.800    2.000    4.200    5.600    4.000 
#    0.000    0.000    0.000    0.000    0.000    0.000 
#    0.000    0.000    0.000    0.000    0.000    0.000 
#
# Total GULP energy -55947.174263 kJ/mol
# GULP energy per Si atom -5594.717426 kJ/mol
# Density = 2.695220 g / cm^3
# Si number density = 27.013688 Si / 1000 Ang^3
#
#
#
# Elastic Constant Matrix: (Units=GPa)
#
#
# Indices 1 2 3 4 5 6 
#
# 1 144.3153 5.5513 17.3072 -19.9618 38.5092 -1.9846
# 2 5.5513 106.1720 33.1112 -11.7522 16.9629 -9.5222
# 3 17.3072 33.1112 136.6751 -4.4216 14.8884 -3.2147
# 4 -19.9618 -11.7522 -4.4216 46.4663 -11.8044 7.8723
# 5 38.5092 16.9629 14.8884 -11.8044 39.6021 -3.5492
# 6 -1.9846 -9.5222 -3.2147 7.8723 -3.5492 44.3779
#
#
#
# Elastic Compliance Matrix: (Units=1/GPa)
#
#
# Indices 1 2 3 4 5 6 
#
# 1 0.009684 0.001315 -0.000484 0.002188 -0.009186 -0.000443
# 2 0.001315 0.011118 -0.002273 0.001739 -0.004524 0.001610
# 3 -0.000484 -0.002273 0.008103 -0.000456 -0.001737 0.000020
# 4 0.002188 0.001739 -0.000456 0.024555 0.004298 -0.003574
# 5 -0.009186 -0.004524 -0.001737 0.004298 0.038125 0.000780
# 6 -0.000443 0.001610 0.000020 -0.003574 0.000780 0.023557
#
#
# Mechanical properties :
#
#
# Convention : Reuss Voigt Hill
#
# Bulk Modulus (GPa) = 38.42954 55.45577 46.94265
# Shear Modulus (GPa) = 39.46279 48.16877 43.81578
#
# Velocity S-wave (km/s) = 3.82625 4.22729 4.03176
# Velocity P-wave (km/s) = 5.81180 6.66333 6.25208
#
# Compressibility (1/GPa) = 0.02602165
#
# Stress axis : x y z
#
# Youngs Moduli (GPa) = 103.25812 89.94094 123.40396
#
# Poissons Ratio (x) = -0.11824 0.05970
# Poissons Ratio (y) = -0.13575 0.28052
# Poissons Ratio (z) = 0.04996 0.20445
#
# Static dielectric constant tensor:
#      x y z
#    x 2.101600 0.076720 0.059000 
#    y 0.076720 2.271300 -0.002740 
#    z 0.059000 -0.002740 2.111770 
# 
# From -- ./inp_files/148313.got.cif
#   From: 2010.05.17/outbox.cif.g08.bks.cpg/sg2_75_cif.got.tgz:148313.got - 2010.06.03 11:33:40.
