data_PCOD9066726
_publ_section_title
;
Structure prediction by ZEFSAII (Michael W. Deem and Ramdas Pophale) SiO2 
 PCOD9066726
Probable space group: P -1
;
_chemical_formula_sum "Si O2"
_cell_formula_units_Z 14
_cell_length_a 20.444186
_cell_length_b 12.097520
_cell_length_c 14.554688
_cell_angle_alpha 149.230108
_cell_angle_beta 159.620812
_cell_angle_gamma 27.977238
_cell_volume 577.115282
_symmetry_space_group_name_H-M "P -1"
_symmetry_group_IT_number 2
_symmetry_cell_setting 'triclinic'
loop_
_space_group_symop_operation_xyz
x,y,z
-x,-y,-z
loop_
_atom_site_type_symbol
_atom_site_label
_atom_site_fract_x
_atom_site_fract_y
_atom_site_fract_z
Si Si1 0.000000 0.000000 0.500000
Si Si2 0.318045 0.380755 0.623213
Si Si3 0.563829 0.077790 0.044640
Si Si4 0.009012 0.736572 0.987266
Si Si5 0.551311 0.385473 0.743291
Si Si6 0.000000 0.000000 0.000000
Si Si7 0.605187 0.639355 0.679402
Si Si8 0.257837 0.894672 0.948296
O O1 0.193892 0.970641 0.665182
O O2 0.152752 0.981749 0.774646
O O3 0.118779 0.336735 0.309229
O O4 0.420670 0.384497 0.661446
O O5 0.258125 0.633818 0.773871
O O6 0.497643 0.172616 0.767788
O O7 0.436486 0.360535 0.060194
O O8 0.500000 0.000000 0.000000
O O9 0.525305 0.909695 0.800276
O O10 0.157532 0.502105 0.071963
O O11 0.111648 0.863217 0.147006
O O12 0.862678 0.918262 0.999194
O O13 0.420595 0.386475 0.480973
O O14 0.781062 0.169185 0.888035
O O15 0.500000 0.500000 0.500000
#
# Coordination Sequence:
#
# PCOD9066726 Si02
#       8
#     1   2   2   2   2   1   2   2
#     4  12  26  44  80 118 148 208 270 308 404 470
#     4  11  26  48  74 107 154 202 253 318 391 471
#     4  12  26  49  77 111 162 205 262 335 389 473
#     4  12  26  48  76 111 153 203 254 328 390 470
#     4  12  26  50  72 109 154 202 260 321 392 470
#     4  12  26  48  74 108 150 198 262 310 400 466
#     4  12  26  46  76 112 152 204 259 324 394 468
#     4  11  25  46  74 111 151 193 257 320 380 476
#
# _framework density 24.258586000000001
#
# number of rings (size 3 to 8) (size 9 to 14) (size 15 to 20)
#    0.000    0.286    5.714    2.143    2.000    0.571 
#    0.000    1.429    0.000    0.000    0.000    0.000 
#    0.000    0.000    0.000    0.000    0.000    0.000 
#
# Total GULP energy -77935.417908 kJ/mol
# GULP energy per Si atom -5566.815565 kJ/mol
# Density = 2.420337 g / cm^3
# Si number density = 24.258586 Si / 1000 Ang^3
#
#
#
# Elastic Constant Matrix: (Units=GPa)
#
#
# Indices 1 2 3 4 5 6 
#
# 1 60.2240 21.7228 17.9151 -4.2387 -8.6658 20.9207
# 2 21.7228 93.3402 32.1062 9.1060 -13.7168 5.6959
# 3 17.9151 32.1062 106.6797 -10.0146 -23.5540 -3.2222
# 4 -4.2387 9.1060 -10.0146 35.3838 3.7650 -12.2732
# 5 -8.6658 -13.7168 -23.5540 3.7650 56.1439 -9.2044
# 6 20.9207 5.6959 -3.2222 -12.2732 -9.2044 41.0842
#
#
#
# Elastic Compliance Matrix: (Units=1/GPa)
#
#
# Indices 1 2 3 4 5 6 
#
# 1 0.022817 -0.003329 -0.003469 -0.001493 -0.000616 -0.012013
# 2 -0.003329 0.013705 -0.003894 -0.005847 0.001270 -0.001973
# 3 -0.003469 -0.003894 0.012857 0.005852 0.004510 0.006073
# 4 -0.001493 -0.005847 0.005852 0.035625 0.000503 0.012785
# 5 -0.000616 0.001270 0.004510 0.000503 0.020752 0.005291
# 6 -0.012013 -0.001973 0.006073 0.012785 0.005291 0.036212
#
#
# Mechanical properties :
#
#
# Convention : Reuss Voigt Hill
#
# Bulk Modulus (GPa) = 35.71972 44.85914 40.28943
# Shear Modulus (GPa) = 28.95489 39.08904 34.02196
#
# Velocity S-wave (km/s) = 3.45859 4.01852 3.74902
# Velocity P-wave (km/s) = 5.54127 6.32957 5.94849
#
# Compressibility (1/GPa) = 0.02799574
#
# Stress axis : x y z
#
# Youngs Moduli (GPa) = 43.82758 72.96668 77.77907
#
# Poissons Ratio (x) = 0.24288 0.26982
# Poissons Ratio (y) = 0.14588 0.30285
# Poissons Ratio (z) = 0.15204 0.28412
#
# Static dielectric constant tensor:
#      x y z
#    x 1.945130 0.031040 0.073030 
#    y 0.031040 2.000680 0.030900 
#    z 0.073030 0.030900 2.011070 
# 
# From -- ./inp_files/541131.got.cif
#   From: 2010.05.17/outbox.cif.g08.bks.cpg/sg2_271_cif.got.tgz:541131.got - 2010.06.03 11:33:40.
