data_PCOD9066637
_publ_section_title
;
Structure prediction by ZEFSAII (Michael W. Deem and Ramdas Pophale) SiO2 
 PCOD9066637
Probable space group: P -1
;
_chemical_formula_sum "Si O2"
_cell_formula_units_Z 13
_cell_length_a 8.228902
_cell_length_b 8.626387
_cell_length_c 11.202654
_cell_angle_alpha 98.376546
_cell_angle_beta 43.838191
_cell_angle_gamma 82.747504
_cell_volume 512.930535
_symmetry_space_group_name_H-M "P -1"
_symmetry_group_IT_number 2
_symmetry_cell_setting 'triclinic'
loop_
_space_group_symop_operation_xyz
x,y,z
-x,-y,-z
loop_
_atom_site_type_symbol
_atom_site_label
_atom_site_fract_x
_atom_site_fract_y
_atom_site_fract_z
Si Si1 0.147900 0.422246 0.531892
Si Si2 0.500000 0.000000 0.000000
Si Si3 0.424591 0.849762 0.475630
Si Si4 0.649823 0.498143 0.228932
Si Si5 0.920777 0.959059 0.902812
Si Si6 0.765692 0.943973 0.611606
Si Si7 0.153270 0.361539 0.067778
O O1 0.421206 0.437300 0.371780
O O2 0.183582 0.228497 0.503365
O O3 0.977388 0.530180 0.738885
O O4 0.000000 0.500000 0.500000
O O5 0.282596 0.901533 0.049980
O O6 0.319295 0.080252 0.215945
O O7 0.599891 0.659988 0.359558
O O8 0.169344 0.872106 0.684403
O O9 0.500000 0.000000 0.500000
O O10 0.412710 0.900703 0.349273
O O11 0.921083 0.369948 0.103589
O O12 0.672940 0.560685 0.089578
O O13 0.750020 0.833442 0.967970
O O14 0.000000 0.000000 0.000000
O O15 0.000000 0.000000 0.500000
#
# Coordination Sequence:
#
# PCOD9066637 Si02
#       7
#     2   1   2   2   2   2   2
#     4  12  26  44  73 104 145 192 237 302 372 435
#     4  12  26  48  72 106 152 186 248 308 366 440
#     4  12  24  45  72 107 144 194 247 306 366 442
#     4  11  25  46  73 101 145 187 242 300 365 430
#     4  12  26  45  75 109 149 197 251 306 374 440
#     4  12  26  46  72 106 148 191 241 305 373 437
#     4  11  25  47  72 105 142 190 246 298 362 441
#
# _framework density 25.344563000000001
#
# number of rings (size 3 to 8) (size 9 to 14) (size 15 to 20)
#    0.000    0.308    3.077    6.000    4.308    3.077 
#    0.000    0.000    0.000    0.000    0.000    0.000 
#    0.000    0.000    0.000    0.000    0.000    0.000 
#
# Total GULP energy -72458.530685 kJ/mol
# GULP energy per Si atom -5573.733130 kJ/mol
# Density = 2.528688 g / cm^3
# Si number density = 25.344563 Si / 1000 Ang^3
#
#
#
# Elastic Constant Matrix: (Units=GPa)
#
#
# Indices 1 2 3 4 5 6 
#
# 1 67.1031 -3.5662 -2.8999 3.0029 17.1075 5.2546
# 2 -3.5662 126.2399 32.5657 -0.8624 -2.6385 14.6679
# 3 -2.8999 32.5657 168.2969 -22.6877 23.9351 17.0922
# 4 3.0029 -0.8624 -22.6877 35.0361 -3.4971 -1.0421
# 5 17.1075 -2.6385 23.9351 -3.4971 46.0458 -5.6544
# 6 5.2546 14.6679 17.0922 -1.0421 -5.6544 40.9571
#
#
#
# Elastic Compliance Matrix: (Units=1/GPa)
#
#
# Indices 1 2 3 4 5 6 
#
# 1 0.017385 0.000392 0.001581 -0.001366 -0.007872 -0.004152
# 2 0.000392 0.008649 -0.001670 -0.000886 0.000861 -0.002354
# 3 0.001581 -0.001670 0.007931 0.004367 -0.004902 -0.003480
# 4 -0.001366 -0.000886 0.004367 0.031504 0.000524 -0.000456
# 5 -0.007872 0.000861 -0.004902 0.000524 0.028094 0.006639
# 6 -0.004152 -0.002354 -0.003480 -0.000456 0.006639 0.028149
#
#
# Mechanical properties :
#
#
# Convention : Reuss Voigt Hill
#
# Bulk Modulus (GPa) = 28.92605 45.98213 37.45409
# Shear Modulus (GPa) = 37.69903 46.77716 42.23810
#
# Velocity S-wave (km/s) = 3.86094 4.30076 4.08677
# Velocity P-wave (km/s) = 5.59587 6.54555 6.08925
#
# Compressibility (1/GPa) = 0.03457091
#
# Stress axis : x y z
#
# Youngs Moduli (GPa) = 57.52187 115.62401 126.08093
#
# Poissons Ratio (x) = -0.04531 -0.19931
# Poissons Ratio (y) = -0.02254 0.21051
# Poissons Ratio (z) = -0.09093 0.19305
#
# Static dielectric constant tensor:
#      x y z
#    x 3.063000 0.774360 -0.271520 
#    y 0.774360 2.007060 -0.142260 
#    z -0.271520 -0.142260 2.044150 
# 
# From -- ./inp_files/173823.got.cif
#   From: 2010.05.17/outbox.cif.g08.bks.cpg/sg2_87_cif.got.tgz:173823.got - 2010.06.03 11:33:40.
