data_PCOD9066724
_publ_section_title
;
Structure prediction by ZEFSAII (Michael W. Deem and Ramdas Pophale) SiO2 
 PCOD9066724
Probable space group: P -1
;
_chemical_formula_sum "Si O2"
_cell_formula_units_Z 13
_cell_length_a 8.282815
_cell_length_b 8.269733
_cell_length_c 12.609414
_cell_angle_alpha 114.366048
_cell_angle_beta 126.845993
_cell_angle_gamma 59.976851
_cell_volume 590.494299
_symmetry_space_group_name_H-M "P -1"
_symmetry_group_IT_number 2
_symmetry_cell_setting 'triclinic'
loop_
_space_group_symop_operation_xyz
x,y,z
-x,-y,-z
loop_
_atom_site_type_symbol
_atom_site_label
_atom_site_fract_x
_atom_site_fract_y
_atom_site_fract_z
Si Si1 0.982292 0.143799 0.625705
Si Si2 0.340658 0.817563 0.129215
Si Si3 0.938006 0.739042 0.857997
Si Si4 0.000000 0.500000 0.000000
Si Si5 0.658940 0.837185 0.089615
Si Si6 0.899568 0.539822 0.588134
Si Si7 0.452706 0.806021 0.410744
O O1 0.958439 0.342674 0.617505
O O2 0.777741 0.165452 0.623202
O O3 0.198529 0.074455 0.759975
O O4 0.000000 0.000000 0.500000
O O5 0.518324 0.759614 0.092393
O O6 0.441233 0.763825 0.270065
O O7 0.151090 0.735171 0.006996
O O8 0.225877 0.046395 0.144124
O O9 0.871020 0.589812 0.859734
O O10 0.976760 0.673851 0.733884
O O11 0.173240 0.326227 0.956142
O O12 0.500000 0.000000 0.000000
O O13 0.644852 0.643668 0.499733
O O14 0.000000 0.500000 0.500000
O O15 0.500000 0.000000 0.500000
#
# Coordination Sequence:
#
# PCOD9066724 Si02
#       7
#     2   2   2   1   2   2   2
#     4  12  28  49  72 107 148 198 252 313 379 449
#     4  11  25  46  74 111 147 199 246 311 383 444
#     4  11  25  46  77 106 152 194 251 311 373 451
#     4  12  24  48  72 110 150 186 254 306 364 460
#     4  12  26  47  75 108 149 195 246 311 378 445
#     4  12  26  49  74 112 150 200 251 313 379 460
#     4  12  25  47  76 108 150 195 249 312 378 452
#
# _framework density 22.015453000000001
#
# number of rings (size 3 to 8) (size 9 to 14) (size 15 to 20)
#    0.000    0.308    4.615    4.154    2.154    0.615 
#    8.308    0.000    0.000    0.000    0.000    0.000 
#    0.000    0.000    0.000    0.000    0.000    0.000 
#
# Total GULP energy -72549.830593 kJ/mol
# GULP energy per Si atom -5580.756199 kJ/mol
# Density = 2.196534 g / cm^3
# Si number density = 22.015453 Si / 1000 Ang^3
#
#
#
# Elastic Constant Matrix: (Units=GPa)
#
#
# Indices 1 2 3 4 5 6 
#
# 1 33.5556 -26.0443 15.2027 2.7662 -9.6274 -3.6016
# 2 -26.0443 93.5664 39.8202 -6.0041 2.9092 -9.7381
# 3 15.2027 39.8202 161.5699 -13.9806 -14.0715 -10.2640
# 4 2.7662 -6.0041 -13.9806 39.7611 -12.3595 -9.2465
# 5 -9.6274 2.9092 -14.0715 -12.3595 43.7493 -0.1461
# 6 -3.6016 -9.7381 -10.2640 -9.2465 -0.1461 26.7893
#
#
#
# Elastic Compliance Matrix: (Units=1/GPa)
#
#
# Indices 1 2 3 4 5 6 
#
# 1 0.051165 0.018606 -0.007856 0.001577 0.007978 0.011220
# 2 0.018606 0.019186 -0.005665 0.001959 0.001577 0.007990
# 3 -0.007856 -0.005665 0.009033 0.004130 0.002726 0.001786
# 4 0.001577 0.001959 0.004130 0.033513 0.011060 0.014134
# 5 0.007978 0.001577 0.002726 0.011060 0.028532 0.006663
# 6 0.011220 0.007990 0.001786 0.014134 0.006663 0.047340
#
#
# Mechanical properties :
#
#
# Convention : Reuss Voigt Hill
#
# Bulk Modulus (GPa) = 11.16647 38.51657 24.84152
# Shear Modulus (GPa) = 23.98670 39.37417 31.68044
#
# Velocity S-wave (km/s) = 3.30440 4.23363 3.79754
# Velocity P-wave (km/s) = 4.43191 6.43672 5.52599
#
# Compressibility (1/GPa) = 0.08955381
#
# Stress axis : x y z
#
# Youngs Moduli (GPa) = 19.54473 52.12241 110.70801
#
# Poissons Ratio (x) = -0.96978 0.86970
# Poissons Ratio (y) = -0.36365 0.62713
# Poissons Ratio (z) = 0.15354 0.29526
#
# Static dielectric constant tensor:
#      x y z
#    x 1.882810 0.158830 0.036650 
#    y 0.158830 1.698360 -0.016380 
#    z 0.036650 -0.016380 1.794170 
# 
# From -- ./inp_files/159291.got.cif
#   From: 2010.05.17/outbox.cif.g08.bks.cpg/sg2_80_cif.got.tgz:159291.got - 2010.06.03 11:33:40.
