data_PCOD9066969
_publ_section_title
;
Structure prediction by ZEFSAII (Michael W. Deem and Ramdas Pophale) SiO2 
 PCOD9066969
Probable space group: P -1
;
_chemical_formula_sum "Si O2"
_cell_formula_units_Z 16
_cell_length_a 9.461263
_cell_length_b 7.904126
_cell_length_c 23.408418
_cell_angle_alpha 125.709151
_cell_angle_beta 41.625187
_cell_angle_gamma 95.567708
_cell_volume 734.002245
_symmetry_space_group_name_H-M "P -1"
_symmetry_group_IT_number 2
_symmetry_cell_setting 'triclinic'
loop_
_space_group_symop_operation_xyz
x,y,z
-x,-y,-z
loop_
_atom_site_type_symbol
_atom_site_label
_atom_site_fract_x
_atom_site_fract_y
_atom_site_fract_z
Si Si1 0.748375 0.580909 0.782388
Si Si2 0.779463 0.393590 0.863606
Si Si3 0.158120 0.986615 0.504874
Si Si4 0.972650 0.204215 0.301414
Si Si5 0.241726 0.315228 0.782101
Si Si6 0.753259 0.124044 0.245509
Si Si7 0.825252 0.215370 0.045460
Si Si8 0.821611 0.426430 0.512555
O O1 0.717714 0.532835 0.848275
O O2 0.791090 0.796610 0.797261
O O3 0.486917 0.664356 0.842508
O O4 0.020510 0.288498 0.623298
O O5 0.977300 0.430054 0.845450
O O6 0.937363 0.074393 0.755189
O O7 0.500000 0.500000 0.000000
O O8 0.482261 0.804708 0.360073
O O9 0.096018 0.848798 0.543127
O O10 0.000000 0.000000 0.500000
O O11 0.786179 0.265068 0.315310
O O12 0.847505 0.405785 0.432228
O O13 0.302185 0.067169 0.748971
O O14 0.179344 0.538537 0.888941
O O15 0.493126 0.345399 0.330499
O O16 0.023525 0.936130 0.088939
O O17 0.000000 0.000000 0.000000
O O18 0.000000 0.500000 0.500000
#
# Coordination Sequence:
#
# PCOD9066969 Si02
#       8
#     2   2   2   2   2   2   2   2
#     4  12  26  47  77 104 150 192 239 306 366 437
#     4  11  27  48  75 109 147 197 243 300 367 439
#     4  12  24  46  72 109 145 188 246 301 367 425
#     4  11  26  48  71 108 146 191 245 294 368 436
#     4  11  25  47  74 105 147 187 247 303 363 436
#     4  11  26  47  70 103 146 191 238 300 367 433
#     4  12  28  46  71 108 141 193 247 299 370 435
#     4  12  26  44  76 107 145 191 245 304 356 438
#
# _framework density 21.798299
#
# number of rings (size 3 to 8) (size 9 to 14) (size 15 to 20)
#    0.000    0.500    2.500    5.250    7.000    2.500 
#    0.000    0.000    0.000    0.000    0.000    0.000 
#    0.000    0.000    0.000    0.000    0.000    0.000 
#
# Total GULP energy -89485.732451 kJ/mol
# GULP energy per Si atom -5592.858278 kJ/mol
# Density = 2.174869 g / cm^3
# Si number density = 21.798299 Si / 1000 Ang^3
#
#
#
# Elastic Constant Matrix: (Units=GPa)
#
#
# Indices 1 2 3 4 5 6 
#
# 1 136.2747 39.7196 44.3835 -6.2532 -12.8273 14.1393
# 2 39.7196 88.8793 -12.3575 -18.7814 -4.1658 0.9553
# 3 44.3835 -12.3575 87.4740 -13.2325 -4.2225 5.5701
# 4 -6.2532 -18.7814 -13.2325 32.4193 -3.1341 2.2421
# 5 -12.8273 -4.1658 -4.2225 -3.1341 36.4103 -1.8855
# 6 14.1393 0.9553 5.5701 2.2421 -1.8855 35.7136
#
#
#
# Elastic Compliance Matrix: (Units=1/GPa)
#
#
# Indices 1 2 3 4 5 6 
#
# 1 0.012311 -0.007432 -0.007709 -0.004668 0.002032 -0.003072
# 2 -0.007432 0.018522 0.008381 0.012843 0.001600 0.000418
# 3 -0.007709 0.008381 0.018295 0.011004 0.001278 -0.000649
# 4 -0.004668 0.012843 0.011004 0.042507 0.004623 -0.002636
# 5 0.002032 0.001600 0.001278 0.004623 0.028920 0.000190
# 6 -0.003072 0.000418 -0.000649 -0.002636 0.000190 0.029483
#
#
# Mechanical properties :
#
#
# Convention : Reuss Voigt Hill
#
# Bulk Modulus (GPa) = 28.08280 50.67991 39.38136
# Shear Modulus (GPa) = 28.50222 36.96747 32.73484
#
# Velocity S-wave (km/s) = 3.61992 4.12258 3.87940
# Velocity P-wave (km/s) = 5.51205 6.77945 6.17833
#
# Compressibility (1/GPa) = 0.03560899
#
# Stress axis : x y z
#
# Youngs Moduli (GPa) = 81.23061 53.98965 54.66003
#
# Poissons Ratio (x) = 0.40123 0.42135
# Poissons Ratio (y) = 0.60367 -0.45810
# Poissons Ratio (z) = 0.62618 -0.45248
#
# Static dielectric constant tensor:
#      x y z
#    x 1.743520 -0.050180 0.050260 
#    y -0.050180 1.745550 0.040700 
#    z 0.050260 0.040700 1.807430 
# 
# From -- ./inp_files/403509.got.cif
#   From: 2010.05.17/outbox.cif.g08.bks.cpg/sg2_202_cif.got.tgz:403509.got - 2010.06.03 11:33:40.
