data_PCOD9066273
_publ_section_title
;
Structure prediction by ZEFSAII (Michael W. Deem and Ramdas Pophale) SiO2 
 PCOD9066273
Probable space group: P -1
;
_chemical_formula_sum "Si O2"
_cell_formula_units_Z 16
_cell_length_a 9.088373
_cell_length_b 11.746833
_cell_length_c 9.178337
_cell_angle_alpha 76.873307
_cell_angle_beta 47.719520
_cell_angle_gamma 87.065782
_cell_volume 698.973797
_symmetry_space_group_name_H-M "P -1"
_symmetry_group_IT_number 2
_symmetry_cell_setting 'triclinic'
loop_
_space_group_symop_operation_xyz
x,y,z
-x,-y,-z
loop_
_atom_site_type_symbol
_atom_site_label
_atom_site_fract_x
_atom_site_fract_y
_atom_site_fract_z
Si Si1 0.274077 0.517917 0.189198
Si Si2 0.455895 0.989399 0.202270
Si Si3 0.947819 0.664704 0.393113
Si Si4 0.369099 0.369111 0.640146
Si Si5 0.084669 0.398641 0.066967
Si Si6 0.207917 0.990517 0.786288
Si Si7 0.868624 0.902290 0.510314
Si Si8 0.291358 0.794759 0.575726
O O1 0.194997 0.444938 0.405494
O O2 0.178496 0.640067 0.231203
O O3 0.500000 0.500000 0.000000
O O4 0.147058 0.456603 0.159936
O O5 0.309051 0.874904 0.394995
O O6 0.638969 0.977980 0.191964
O O7 0.351032 0.104985 0.270886
O O8 0.500000 0.000000 0.000000
O O9 0.828214 0.667934 0.319156
O O10 0.941901 0.778087 0.466307
O O11 0.500000 0.500000 0.500000
O O12 0.275183 0.361331 0.866315
O O13 0.524833 0.279754 0.527587
O O14 0.000000 0.500000 0.000000
O O15 0.914474 0.291471 0.245552
O O16 0.288467 0.875978 0.697035
O O17 0.173973 0.055409 0.637660
O O18 0.000000 0.000000 0.000000
O O19 0.000000 0.000000 0.500000
#
# Coordination Sequence:
#
# PCOD9066273 Si02
#       8
#     2   2   2   2   2   2   2   2
#     4  11  26  48  70 106 152 193 246 310 387 453
#     4  11  25  50  75 110 150 202 257 314 393 454
#     4  11  25  45  73 104 150 193 247 313 379 451
#     4  12  23  45  77 110 152 200 254 313 383 460
#     4  12  25  46  73 110 146 196 254 302 384 462
#     4  11  25  47  74 110 148 196 259 317 382 462
#     4  11  25  48  72 108 152 198 258 319 377 459
#     4  11  26  44  77 109 153 196 251 321 376 456
#
# _framework density 22.890699000000001
#
# number of rings (size 3 to 8) (size 9 to 14) (size 15 to 20)
#    0.000    0.750    2.500    4.500    7.000    2.000 
#    4.500    0.000    0.000    0.000    0.000    0.000 
#    0.000    0.000    0.000    0.000    0.000    0.000 
#
# Total GULP energy -89242.123197 kJ/mol
# GULP energy per Si atom -5577.632700 kJ/mol
# Density = 2.283860 g / cm^3
# Si number density = 22.890699 Si / 1000 Ang^3
#
#
#
# Elastic Constant Matrix: (Units=GPa)
#
#
# Indices 1 2 3 4 5 6 
#
# 1 92.7614 38.2212 35.1997 -3.3582 -1.6875 -0.7256
# 2 38.2212 126.6422 60.0496 23.9622 -12.3097 -15.5196
# 3 35.1997 60.0496 161.7742 32.7342 -3.3637 -5.5159
# 4 -3.3582 23.9622 32.7342 42.1736 -4.5042 -14.7586
# 5 -1.6875 -12.3097 -3.3637 -4.5042 50.5936 19.0763
# 6 -0.7256 -15.5196 -5.5159 -14.7586 19.0763 32.3246
#
#
#
# Elastic Compliance Matrix: (Units=1/GPa)
#
#
# Indices 1 2 3 4 5 6 
#
# 1 0.013557 -0.003839 -0.002627 0.005536 -0.000473 0.000819
# 2 -0.003839 0.011391 -0.002508 -0.003827 0.001192 0.002504
# 3 -0.002627 -0.002508 0.008959 -0.006773 0.000464 -0.003101
# 4 0.005536 -0.003827 -0.006773 0.036881 -0.004091 0.016384
# 5 -0.000473 0.001192 0.000464 -0.004091 0.025941 -0.016536
# 6 0.000819 0.002504 -0.003101 0.016384 -0.016536 0.048867
#
#
# Mechanical properties :
#
#
# Convention : Reuss Voigt Hill
#
# Bulk Modulus (GPa) = 62.66356 72.01320 67.33838
# Shear Modulus (GPa) = 29.60964 41.53218 35.57091
#
# Velocity S-wave (km/s) = 3.60046 4.26416 3.94629
# Velocity P-wave (km/s) = 6.68722 7.46806 7.08840
#
# Compressibility (1/GPa) = 0.01595824
#
# Stress axis : x y z
#
# Youngs Moduli (GPa) = 73.76141 87.78695 111.62561
#
# Poissons Ratio (x) = 0.33702 0.29323
# Poissons Ratio (y) = 0.28317 0.28000
# Poissons Ratio (z) = 0.19376 0.22021
#
# Static dielectric constant tensor:
#      x y z
#    x 1.975210 0.040010 -0.056820 
#    y 0.040010 1.967080 0.019960 
#    z -0.056820 0.019960 1.875000 
# 
# From -- ./inp_files/186424.got.cif
#   From: 2010.05.17/outbox.cif.g08.bks.cpg/sg2_94_cif.got.tgz:186424.got - 2010.06.03 11:33:40.
