data_PCOD9066330
_publ_section_title
;
Structure prediction by ZEFSAII (Michael W. Deem and Ramdas Pophale) SiO2 
 PCOD9066330
Probable space group: P -1
;
_chemical_formula_sum "Si O2"
_cell_formula_units_Z 16
_cell_length_a 18.376230
_cell_length_b 8.858796
_cell_length_c 12.859954
_cell_angle_alpha 131.127064
_cell_angle_beta 48.560094
_cell_angle_gamma 151.559569
_cell_volume 730.383829
_symmetry_space_group_name_H-M "P -1"
_symmetry_group_IT_number 2
_symmetry_cell_setting 'triclinic'
loop_
_space_group_symop_operation_xyz
x,y,z
-x,-y,-z
loop_
_atom_site_type_symbol
_atom_site_label
_atom_site_fract_x
_atom_site_fract_y
_atom_site_fract_z
Si Si1 0.626097 0.392076 0.790934
Si Si2 0.569766 0.870922 0.510582
Si Si3 0.410502 0.243196 0.774312
Si Si4 0.928869 0.280938 0.069385
Si Si5 0.955868 0.882375 0.801085
Si Si6 0.872418 0.341116 0.758446
Si Si7 0.238774 0.128315 0.531901
Si Si8 0.466097 0.161889 0.060710
O O1 0.563664 0.443140 0.787157
O O2 0.810663 0.695426 0.776842
O O3 0.581752 0.100752 0.660159
O O4 0.531318 0.275841 0.934167
O O5 0.609304 0.943768 0.384669
O O6 0.393111 0.498358 0.517069
O O7 0.692493 0.921372 0.473601
O O8 0.437891 0.508439 0.820713
O O9 0.258622 0.003256 0.881294
O O10 0.989170 0.474027 0.207440
O O11 0.000000 0.500000 0.000000
O O12 0.976571 0.123191 0.952984
O O13 0.902035 0.604038 0.794385
O O14 0.111797 0.066400 0.677338
O O15 0.842264 0.127798 0.600984
O O16 0.716378 0.098929 0.866232
O O17 0.500000 0.000000 0.000000
#
# Coordination Sequence:
#
# PCOD9066330 Si02
#       8
#     2   2   2   2   2   2   2   2
#     4  12  26  45  73 104 145 185 231 289 357 416
#     4  11  25  47  73 104 136 187 239 286 349 419
#     4  12  26  48  71 102 146 188 231 290 347 426
#     4  12  29  47  69 104 144 186 231 288 354 418
#     4  12  26  46  71 107 140 182 233 295 351 411
#     4  12  24  47  72 103 138 185 232 289 353 411
#     4  11  25  45  74 105 139 179 240 297 343 411
#     4  12  23  44  74 103 136 183 241 288 343 413
#
# _framework density 21.906291
#
# number of rings (size 3 to 8) (size 9 to 14) (size 15 to 20)
#    0.000    0.250    5.000    3.000    8.750    0.000 
#    0.000    1.250    0.000    0.000    0.000    0.000 
#    0.000    0.000    0.000    0.000    0.000    0.000 
#
# Total GULP energy -89576.637587 kJ/mol
# GULP energy per Si atom -5598.539849 kJ/mol
# Density = 2.185643 g / cm^3
# Si number density = 21.906291 Si / 1000 Ang^3
#
#
#
# Elastic Constant Matrix: (Units=GPa)
#
#
# Indices 1 2 3 4 5 6 
#
# 1 71.7175 27.9060 19.5561 -7.1401 6.7312 24.6650
# 2 27.9060 84.2756 27.4849 -11.3471 -0.8260 14.2510
# 3 19.5561 27.4849 121.6945 -2.6194 -0.6261 15.0759
# 4 -7.1401 -11.3471 -2.6194 44.0853 10.7463 -2.4034
# 5 6.7312 -0.8260 -0.6261 10.7463 28.2854 2.2298
# 6 24.6650 14.2510 15.0759 -2.4034 2.2298 24.2617
#
#
#
# Elastic Compliance Matrix: (Units=1/GPa)
#
#
# Indices 1 2 3 4 5 6 
#
# 1 0.023354 -0.003815 -0.000310 0.002921 -0.005166 -0.020544
# 2 -0.003815 0.014781 -0.002271 0.002760 0.000490 -0.003164
# 3 -0.000310 -0.002271 0.009299 -0.000493 0.000735 -0.004246
# 4 0.002921 0.002760 -0.000493 0.026382 -0.010594 -0.000698
# 5 -0.005166 0.000490 0.000735 -0.010594 0.040661 -0.000279
# 6 -0.020544 -0.003164 -0.004246 -0.000698 -0.000279 0.066556
#
#
# Mechanical properties :
#
#
# Convention : Reuss Voigt Hill
#
# Bulk Modulus (GPa) = 28.86720 47.50908 38.18814
# Shear Modulus (GPa) = 24.34584 32.84252 28.59418
#
# Velocity S-wave (km/s) = 3.33733 3.87619 3.61681
# Velocity P-wave (km/s) = 5.29684 6.46279 5.90864
#
# Compressibility (1/GPa) = 0.03464139
#
# Stress axis : x y z
#
# Youngs Moduli (GPa) = 42.81914 67.65279 107.53585
#
# Poissons Ratio (x) = 0.25812 0.03332
# Poissons Ratio (y) = 0.16337 0.24426
# Poissons Ratio (z) = 0.01327 0.15367
#
# Static dielectric constant tensor:
#      x y z
#    x 1.799300 0.007860 0.015680 
#    y 0.007860 1.814940 0.032290 
#    z 0.015680 0.032290 1.776620 
# 
# From -- ./inp_files/184109.got.cif
#   From: 2010.05.17/outbox.cif.g08.bks.cpg/sg2_93_cif.got.tgz:184109.got - 2010.06.03 11:33:40.
