data_PCOD9066377
_publ_section_title
;
Structure prediction by ZEFSAII (Michael W. Deem and Ramdas Pophale) SiO2 
 PCOD9066377
Probable space group: P -1
;
_chemical_formula_sum "Si O2"
_cell_formula_units_Z 13
_cell_length_a 5.505647
_cell_length_b 8.964240
_cell_length_c 17.820725
_cell_angle_alpha 37.556677
_cell_angle_beta 110.520532
_cell_angle_gamma 99.401707
_cell_volume 491.881880
_symmetry_space_group_name_H-M "P -1"
_symmetry_group_IT_number 2
_symmetry_cell_setting 'triclinic'
loop_
_space_group_symop_operation_xyz
x,y,z
-x,-y,-z
loop_
_atom_site_type_symbol
_atom_site_label
_atom_site_fract_x
_atom_site_fract_y
_atom_site_fract_z
Si Si1 0.500000 0.500000 0.000000
Si Si2 0.426687 0.888326 0.298700
Si Si3 0.321322 0.734318 0.035172
Si Si4 0.397473 0.245167 0.789057
Si Si5 0.048644 0.308472 0.175507
Si Si6 0.864811 0.548380 0.566757
Si Si7 0.796933 0.852321 0.577926
O O1 0.532942 0.594063 0.053748
O O2 0.768873 0.285561 0.122022
O O3 0.437135 0.881987 0.212969
O O4 0.716295 0.779746 0.408450
O O5 0.246050 0.688435 0.380434
O O6 0.286314 0.150551 0.213714
O O7 0.438741 0.681323 0.152887
O O8 0.077923 0.594660 0.057278
O O9 0.259532 0.029826 0.896144
O O10 0.179680 0.468213 0.640881
O O11 0.090166 0.223792 0.298261
O O12 0.776180 0.624004 0.611686
O O13 0.500000 0.000000 0.500000
O O14 0.000000 0.000000 0.500000
#
# Coordination Sequence:
#
# PCOD9066377 Si02
#       7
#     1   2   2   2   2   2   2
#     4  12  26  46  74 104 152 208 260 332 386 478
#     4  11  25  46  75 113 158 204 263 336 398 479
#     4  11  26  47  76 110 151 208 261 330 386 484
#     4  11  25  46  75 112 160 208 261 321 406 477
#     4  12  27  50  78 112 156 204 274 327 411 472
#     4  11  25  45  75 112 157 206 260 328 403 480
#     4  12  29  51  85 120 161 210 269 338 406 482
#
# _framework density 26.429106999999998
#
# number of rings (size 3 to 8) (size 9 to 14) (size 15 to 20)
#    0.000    0.615    1.538    4.615    6.462    3.692 
#    0.000    6.154    0.000    0.000    0.000    0.000 
#    0.000    0.000    0.000    0.000    0.000    0.000 
#
# Total GULP energy -72698.839990 kJ/mol
# GULP energy per Si atom -5592.218461 kJ/mol
# Density = 2.636895 g / cm^3
# Si number density = 26.429107 Si / 1000 Ang^3
#
#
#
# Elastic Constant Matrix: (Units=GPa)
#
#
# Indices 1 2 3 4 5 6 
#
# 1 86.4386 26.3797 49.7231 0.8393 3.7651 -17.9274
# 2 26.3797 160.1087 47.7704 27.6778 -1.5025 -20.4963
# 3 49.7231 47.7704 145.6749 28.7004 21.1538 -1.9493
# 4 0.8393 27.6778 28.7004 57.0909 -0.2192 -15.6578
# 5 3.7651 -1.5025 21.1538 -0.2192 35.3549 -1.2216
# 6 -17.9274 -20.4963 -1.9493 -15.6578 -1.2216 45.5092
#
#
#
# Elastic Compliance Matrix: (Units=1/GPa)
#
#
# Indices 1 2 3 4 5 6 
#
# 1 0.017501 -0.000661 -0.007232 0.006022 0.002764 0.008433
# 2 -0.000661 0.007658 -0.002120 -0.001952 0.001738 0.002472
# 3 -0.007232 -0.002120 0.012259 -0.006631 -0.006894 -0.005745
# 4 0.006022 -0.001952 -0.006631 0.024381 0.003729 0.009698
# 5 0.002764 0.001738 -0.006894 0.003729 0.032341 0.003727
# 6 0.008433 0.002472 -0.005745 0.009698 0.003727 0.029600
#
#
# Mechanical properties :
#
#
# Convention : Reuss Voigt Hill
#
# Bulk Modulus (GPa) = 57.50063 71.10762 64.30413
# Shear Modulus (GPa) = 33.43100 45.48090 39.45595
#
# Velocity S-wave (km/s) = 3.56045 4.15283 3.86799
# Velocity P-wave (km/s) = 6.22143 7.06811 6.65824
#
# Compressibility (1/GPa) = 0.01739111
#
# Stress axis : x y z
#
# Youngs Moduli (GPa) = 57.14050 130.59033 81.57439
#
# Poissons Ratio (x) = 0.08638 0.58991
# Poissons Ratio (y) = 0.03779 0.17293
# Poissons Ratio (z) = 0.41322 0.27685
#
# Static dielectric constant tensor:
#      x y z
#    x 2.250160 0.117570 -0.152530 
#    y 0.117570 2.081380 -0.067410 
#    z -0.152530 -0.067410 2.119030 
# 
# From -- ./inp_files/106873.got.cif
#   From: 2010.05.17/outbox.cif.g08.bks.cpg/sg2_54_cif.got.tgz:106873.got - 2010.06.03 11:33:40.
