data_PCOD9066368
_publ_section_title
;
Structure prediction by ZEFSAII (Michael W. Deem and Ramdas Pophale) SiO2 
 PCOD9066368
Probable space group: P -1
;
_chemical_formula_sum "Si O2"
_cell_formula_units_Z 16
_cell_length_a 18.324304
_cell_length_b 11.008490
_cell_length_c 5.129566
_cell_angle_alpha 111.677716
_cell_angle_beta 122.961009
_cell_angle_gamma 44.754211
_cell_volume 611.017433
_symmetry_space_group_name_H-M "P -1"
_symmetry_group_IT_number 2
_symmetry_cell_setting 'triclinic'
loop_
_space_group_symop_operation_xyz
x,y,z
-x,-y,-z
loop_
_atom_site_type_symbol
_atom_site_label
_atom_site_fract_x
_atom_site_fract_y
_atom_site_fract_z
Si Si1 0.479754 0.166026 0.971842
Si Si2 0.795096 0.779347 0.800896
Si Si3 0.646227 0.149094 0.560962
Si Si4 0.967605 0.810654 0.348592
Si Si5 0.121195 0.966087 0.148504
Si Si6 0.830326 0.333086 0.703247
Si Si7 0.439417 0.428565 0.701905
Si Si8 0.759558 0.641701 0.113386
O O1 0.452340 0.270527 0.733781
O O2 0.359113 0.310318 0.998051
O O3 0.605879 0.101654 0.207375
O O4 0.500000 0.000000 0.000000
O O5 0.800926 0.685341 0.476872
O O6 0.709158 0.984275 0.740103
O O7 0.915654 0.724783 0.078935
O O8 0.745249 0.746400 0.915842
O O9 0.740376 0.161744 0.692261
O O10 0.524159 0.328165 0.542914
O O11 0.101589 0.697129 0.452358
O O12 0.920730 0.884785 0.604433
O O13 0.912586 0.970055 0.163701
O O14 0.101920 0.847118 0.155099
O O15 0.698179 0.423357 0.466985
O O16 0.837938 0.450754 0.998573
O O17 0.500000 0.500000 0.000000
#
# Coordination Sequence:
#
# PCOD9066368 Si02
#       8
#     2   2   2   2   2   2   2   2
#     4  12  25  43  73 109 154 203 256 309 381 476
#     4  11  25  46  74 108 150 205 258 310 377 464
#     4  11  25  45  75 107 150 199 251 312 386 461
#     4  11  27  51  79 109 145 208 262 318 382 464
#     4  11  27  49  80 108 149 203 263 316 385 468
#     4  12  28  48  75 112 156 196 256 324 389 463
#     4  12  29  47  76 115 162 203 252 324 407 459
#     4  12  26  44  73 113 155 197 253 317 391 445
#
# _framework density 26.185828999999998
#
# number of rings (size 3 to 8) (size 9 to 14) (size 15 to 20)
#    0.000    0.500    2.500    4.500    8.750    6.000 
#    0.000    0.000    0.000    0.000    0.000    0.000 
#    0.000    0.000    0.000    0.000    0.000    0.000 
#
# Total GULP energy -89353.293287 kJ/mol
# GULP energy per Si atom -5584.580830 kJ/mol
# Density = 2.612623 g / cm^3
# Si number density = 26.185829 Si / 1000 Ang^3
#
#
#
# Elastic Constant Matrix: (Units=GPa)
#
#
# Indices 1 2 3 4 5 6 
#
# 1 83.6748 -8.0798 24.1342 -7.9926 -3.1080 -16.7536
# 2 -8.0798 74.4337 11.7582 -6.9522 -2.5499 -3.8058
# 3 24.1342 11.7582 107.6789 1.9694 8.7907 -0.9566
# 4 -7.9926 -6.9522 1.9694 37.5105 -1.2222 5.2006
# 5 -3.1080 -2.5499 8.7907 -1.2222 46.6943 -9.2173
# 6 -16.7536 -3.8058 -0.9566 5.2006 -9.2173 46.7377
#
#
#
# Elastic Compliance Matrix: (Units=1/GPa)
#
#
# Indices 1 2 3 4 5 6 
#
# 1 0.014953 0.002950 -0.003936 0.003241 0.003122 0.005775
# 2 0.002950 0.014627 -0.002459 0.003224 0.001983 0.002230
# 3 -0.003936 -0.002459 0.010682 -0.001703 -0.002798 -0.001755
# 4 0.003241 0.003224 -0.001703 0.028286 0.001150 -0.001531
# 5 0.003122 0.001983 -0.002798 0.001150 0.023417 0.005713
# 6 0.005775 0.002230 -0.001755 -0.001531 0.005713 0.024909
#
#
# Mechanical properties :
#
#
# Convention : Reuss Voigt Hill
#
# Bulk Modulus (GPa) = 29.96749 35.71252 32.84000
# Shear Modulus (GPa) = 37.06772 42.05347 39.56060
#
# Velocity S-wave (km/s) = 3.76648 4.01179 3.89107
# Velocity P-wave (km/s) = 5.51218 5.92681 5.72325
#
# Compressibility (1/GPa) = 0.03336950
#
# Stress axis : x y z
#
# Youngs Moduli (GPa) = 66.87621 68.36876 93.61804
#
# Poissons Ratio (x) = -0.20168 0.36852
# Poissons Ratio (y) = -0.19728 0.23024
# Poissons Ratio (z) = 0.26325 0.16814
#
# Static dielectric constant tensor:
#      x y z
#    x 2.039310 0.081110 0.134410 
#    y 0.081110 2.216550 -0.097610 
#    z 0.134410 -0.097610 1.429860 
# 
# From -- ./inp_files/118886.got.cif
#   From: 2010.05.17/outbox.cif.g08.bks.cpg/sg2_60_cif.got.tgz:118886.got - 2010.06.03 11:33:40.
