data_PCOD9066915
_publ_section_title
;
Structure prediction by ZEFSAII (Michael W. Deem and Ramdas Pophale) SiO2 
 PCOD9066915
Probable space group: P -1
;
_chemical_formula_sum "Si O2"
_cell_formula_units_Z 13
_cell_length_a 8.414986
_cell_length_b 10.661719
_cell_length_c 9.137290
_cell_angle_alpha 54.609685
_cell_angle_beta 69.725988
_cell_angle_gamma 52.670559
_cell_volume 531.398342
_symmetry_space_group_name_H-M "P -1"
_symmetry_group_IT_number 2
_symmetry_cell_setting 'triclinic'
loop_
_space_group_symop_operation_xyz
x,y,z
-x,-y,-z
loop_
_atom_site_type_symbol
_atom_site_label
_atom_site_fract_x
_atom_site_fract_y
_atom_site_fract_z
Si Si1 0.696603 0.029065 0.568403
Si Si2 0.892329 0.184348 0.592983
Si Si3 0.115672 0.461729 0.702099
Si Si4 0.395732 0.170834 0.029825
Si Si5 0.000000 0.000000 0.000000
Si Si6 0.695952 0.639952 0.591726
Si Si7 0.635572 0.355465 0.927960
O O1 0.735689 0.142524 0.600510
O O2 0.500196 0.168037 0.447326
O O3 0.891030 0.934593 0.471346
O O4 0.664186 0.892301 0.764627
O O5 0.829053 0.386624 0.432608
O O6 0.928980 0.124574 0.790065
O O7 0.207624 0.333512 0.896798
O O8 0.211421 0.345378 0.601285
O O9 0.877978 0.563745 0.697726
O O10 0.538819 0.243140 0.977608
O O11 0.500000 0.000000 0.000000
O O12 0.142127 0.807728 0.987977
O O13 0.638048 0.489015 0.715846
O O14 0.500000 0.500000 0.000000
#
# Coordination Sequence:
#
# PCOD9066915 Si02
#       7
#     2   2   2   2   1   2   2
#     4  11  26  47  77 111 152 197 266 329 389 467
#     4  11  26  47  76 109 153 203 259 325 397 472
#     4  11  26  45  76 109 150 202 253 319 394 467
#     4  12  27  48  81 114 154 210 266 324 397 477
#     4  12  26  46  82 110 154 206 272 314 400 478
#     4  11  25  47  72 108 155 197 256 321 394 465
#     4  12  29  48  76 114 159 208 260 328 401 472
#
# _framework density 24.463757000000001
#
# number of rings (size 3 to 8) (size 9 to 14) (size 15 to 20)
#    0.000    0.615    3.077    2.769    8.615    3.692 
#    0.000    0.000    0.000    0.000    0.000    0.000 
#    0.000    0.000    0.000    0.000    0.000    0.000 
#
# Total GULP energy -72586.573491 kJ/mol
# GULP energy per Si atom -5583.582576 kJ/mol
# Density = 2.440808 g / cm^3
# Si number density = 24.463757 Si / 1000 Ang^3
#
#
#
# Elastic Constant Matrix: (Units=GPa)
#
#
# Indices 1 2 3 4 5 6 
#
# 1 97.5416 20.1361 64.4075 -10.6954 -25.2655 14.1415
# 2 20.1361 129.0929 37.7532 -16.1789 3.5087 2.7235
# 3 64.4075 37.7532 169.7921 -33.7956 0.4919 -5.6018
# 4 -10.6954 -16.1789 -33.7956 44.8427 -4.3092 1.9020
# 5 -25.2655 3.5087 0.4919 -4.3092 27.6945 -7.5720
# 6 14.1415 2.7235 -5.6018 1.9020 -7.5720 38.9484
#
#
#
# Elastic Compliance Matrix: (Units=1/GPa)
#
#
# Indices 1 2 3 4 5 6 
#
# 1 0.021358 -0.001330 -0.007902 0.000656 0.018463 -0.005241
# 2 -0.001330 0.008566 -0.001063 0.001793 -0.002216 -0.000787
# 3 -0.007902 -0.001063 0.010183 0.004730 -0.005679 0.003073
# 4 0.000656 0.001793 0.004730 0.027103 0.004466 -0.000138
# 5 0.018463 -0.002216 -0.005679 0.004466 0.054872 0.003084
# 6 -0.005241 -0.000787 0.003073 -0.000138 0.003084 0.028681
#
#
# Mechanical properties :
#
#
# Convention : Reuss Voigt Hill
#
# Bulk Modulus (GPa) = 51.23572 71.22447 61.23009
# Shear Modulus (GPa) = 28.11211 40.57243 34.34227
#
# Velocity S-wave (km/s) = 3.39356 4.07685 3.75080
# Velocity P-wave (km/s) = 6.02860 7.16508 6.62127
#
# Compressibility (1/GPa) = 0.01951763
#
# Stress axis : x y z
#
# Youngs Moduli (GPa) = 46.81977 116.73837 98.20522
#
# Poissons Ratio (x) = 0.15522 0.77604
# Poissons Ratio (y) = 0.06225 0.10440
# Poissons Ratio (z) = 0.36998 0.12410
#
# Static dielectric constant tensor:
#      x y z
#    x 1.996540 0.031470 -0.011450 
#    y 0.031470 2.050050 0.046680 
#    z -0.011450 0.046680 1.841870 
# 
# From -- ./inp_files/174016.got.cif
#   From: 2010.05.17/outbox.cif.g08.bks.cpg/sg2_88_cif.got.tgz:174016.got - 2010.06.03 11:33:40.
