data_PCOD9066241
_publ_section_title
;
Structure prediction by ZEFSAII (Michael W. Deem and Ramdas Pophale) SiO2 
 PCOD9066241
Probable space group: P -1
;
_chemical_formula_sum "Si O2"
_cell_formula_units_Z 14
_cell_length_a 11.579676
_cell_length_b 4.984758
_cell_length_c 24.450243
_cell_angle_alpha 62.818979
_cell_angle_beta 154.457184
_cell_angle_gamma 120.993618
_cell_volume 521.537391
_symmetry_space_group_name_H-M "P -1"
_symmetry_group_IT_number 2
_symmetry_cell_setting 'triclinic'
loop_
_space_group_symop_operation_xyz
x,y,z
-x,-y,-z
loop_
_atom_site_type_symbol
_atom_site_label
_atom_site_fract_x
_atom_site_fract_y
_atom_site_fract_z
Si Si1 0.784683 0.604154 0.504540
Si Si2 0.968310 0.098217 0.687207
Si Si3 0.746385 0.363661 0.666250
Si Si4 0.985210 0.197081 0.894062
Si Si5 0.209716 0.282598 0.619288
Si Si6 0.479132 0.651709 0.037004
Si Si7 0.731722 0.226355 0.896242
O O1 0.887024 0.291131 0.583965
O O2 0.562286 0.616534 0.454505
O O3 0.635449 0.632135 0.380932
O O4 0.039687 0.918583 0.584884
O O5 0.762726 0.142785 0.643424
O O6 0.263093 0.315515 0.814856
O O7 0.933231 0.725438 0.702901
O O8 0.842252 0.191290 0.775344
O O9 0.786793 0.106571 0.869919
O O10 0.179152 0.545252 0.947710
O O11 0.239357 0.034230 0.024251
O O12 0.450636 0.332330 0.762636
O O13 0.000000 0.500000 0.500000
O O14 0.500000 0.500000 0.000000
O O15 0.500000 0.000000 0.000000
O O16 0.000000 0.500000 0.000000
#
# Coordination Sequence:
#
# PCOD9066241 Si02
#       7
#     2   2   2   2   2   2   2
#     4  11  27  47  72 105 150 192 261 298 382 448
#     4  12  26  46  75 112 147 198 247 306 379 453
#     4  12  26  46  78 106 152 194 245 313 375 454
#     4  11  25  45  72 105 147 192 254 306 381 444
#     4  11  27  48  75 106 150 202 248 324 374 444
#     4  12  24  44  69 106 147 192 234 304 371 446
#     4  11  27  46  77 108 143 198 258 318 376 448
#
# _framework density 26.843713999999999
#
# number of rings (size 3 to 8) (size 9 to 14) (size 15 to 20)
#    0.000    0.571    4.286    1.714   10.000    2.286 
#    0.000    0.000    0.000    0.000    0.000    0.000 
#    0.000    0.000    0.000    0.000    0.000    0.000 
#
# Total GULP energy -78304.854036 kJ/mol
# GULP energy per Si atom -5593.203860 kJ/mol
# Density = 2.678262 g / cm^3
# Si number density = 26.843714 Si / 1000 Ang^3
#
#
#
# Elastic Constant Matrix: (Units=GPa)
#
#
# Indices 1 2 3 4 5 6 
#
# 1 86.8969 11.3659 15.6605 -14.6310 -12.7360 -2.2859
# 2 11.3659 92.8730 18.4780 -16.1863 -23.8718 -11.7722
# 3 15.6605 18.4780 179.9745 -26.2826 -26.3314 -0.5935
# 4 -14.6310 -16.1863 -26.2826 43.6295 9.3526 -0.6887
# 5 -12.7360 -23.8718 -26.3314 9.3526 44.1903 -5.4676
# 6 -2.2859 -11.7722 -0.5935 -0.6887 -5.4676 40.2438
#
#
#
# Elastic Compliance Matrix: (Units=1/GPa)
#
#
# Indices 1 2 3 4 5 6 
#
# 1 0.012589 0.000009 -0.000147 0.003524 0.002945 0.001176
# 2 0.000009 0.013973 0.000238 0.003798 0.007530 0.005179
# 3 -0.000147 0.000238 0.006514 0.003253 0.003362 0.000670
# 4 0.003524 0.003798 0.003253 0.027632 -0.000627 0.001747
# 5 0.002945 0.007530 0.003362 -0.000627 0.030492 0.006551
# 6 0.001176 0.005179 0.000670 0.001747 0.006551 0.027360
#
#
# Mechanical properties :
#
#
# Convention : Reuss Voigt Hill
#
# Bulk Modulus (GPa) = 30.05248 50.08369 40.06808
# Shear Modulus (GPa) = 38.62415 46.56205 42.59310
#
# Velocity S-wave (km/s) = 3.79734 4.16932 3.98767
# Velocity P-wave (km/s) = 5.51779 6.47114 6.01339
#
# Compressibility (1/GPa) = 0.03327513
#
# Stress axis : x y z
#
# Youngs Moduli (GPa) = 79.43371 71.56793 153.51989
#
# Poissons Ratio (x) = -0.00063 0.02257
# Poissons Ratio (y) = -0.00070 -0.03653
# Poissons Ratio (z) = 0.01168 -0.01703
#
# Static dielectric constant tensor:
#      x y z
#    x 2.192710 -0.052470 0.037950 
#    y -0.052470 2.036190 -0.049240 
#    z 0.037950 -0.049240 2.141950 
# 
# From -- ./inp_files/127377.got.cif
#   From: 2010.05.17/outbox.cif.g08.bks.cpg/sg2_64_cif.got.tgz:127377.got - 2010.06.03 11:33:40.
