data_PCOD9066254
_publ_section_title
;
Structure prediction by ZEFSAII (Michael W. Deem and Ramdas Pophale) SiO2 
 PCOD9066254
Probable space group: P -1
;
_chemical_formula_sum "Si O2"
_cell_formula_units_Z 14
_cell_length_a 5.296847
_cell_length_b 17.340844
_cell_length_c 8.904809
_cell_angle_alpha 122.496679
_cell_angle_beta 122.409296
_cell_angle_gamma 66.238006
_cell_volume 574.758726
_symmetry_space_group_name_H-M "P -1"
_symmetry_group_IT_number 2
_symmetry_cell_setting 'triclinic'
loop_
_space_group_symop_operation_xyz
x,y,z
-x,-y,-z
loop_
_atom_site_type_symbol
_atom_site_label
_atom_site_fract_x
_atom_site_fract_y
_atom_site_fract_z
Si Si1 0.253062 0.073183 0.813911
Si Si2 0.914723 0.132370 0.071698
Si Si3 0.786911 0.787621 0.291988
Si Si4 0.526941 0.878404 0.576750
Si Si5 0.639678 0.489939 0.868606
Si Si6 0.379516 0.698086 0.506489
Si Si7 0.562901 0.324464 0.155664
O O1 0.083396 0.144544 0.711645
O O2 0.314106 0.969918 0.661988
O O3 0.084990 0.086076 0.931540
O O4 0.584919 0.105100 0.966810
O O5 0.134557 0.104528 0.251995
O O6 0.853438 0.244045 0.144984
O O7 0.537926 0.853916 0.378769
O O8 0.017131 0.732806 0.425791
O O9 0.670817 0.713290 0.070599
O O10 0.489818 0.786620 0.560966
O O11 0.585084 0.392284 0.680297
O O12 0.450017 0.571139 0.792174
O O13 0.500000 0.500000 0.000000
O O14 0.000000 0.500000 0.000000
O O15 0.504721 0.677619 0.691307
#
# Coordination Sequence:
#
# PCOD9066254 Si02
#       7
#     2   2   2   2   2   2   2
#     4  11  27  44  74 107 154 200 251 310 368 434
#     4  11  25  46  74 109 147 202 249 307 372 442
#     4  11  25  45  72 108 151 195 253 305 369 435
#     4  12  25  45  72 110 152 199 255 307 367 440
#     4  12  28  51  83 114 149 191 246 307 375 449
#     4  12  27  48  78 110 150 199 246 305 376 444
#     4  11  25  52  75 110 153 192 248 309 374 442
#
# _framework density 24.358048
#
# number of rings (size 3 to 8) (size 9 to 14) (size 15 to 20)
#    0.000    0.571    2.857    4.286    8.000    1.714 
#    0.000    2.143    0.000    0.000    0.000    0.000 
#    0.000    0.000    0.000    0.000    0.000    0.000 
#
# Total GULP energy -78393.458318 kJ/mol
# GULP energy per Si atom -5599.532737 kJ/mol
# Density = 2.430261 g / cm^3
# Si number density = 24.358048 Si / 1000 Ang^3
#
#
#
# Elastic Constant Matrix: (Units=GPa)
#
#
# Indices 1 2 3 4 5 6 
#
# 1 111.7568 14.7997 44.3559 2.9858 -22.6849 -2.3189
# 2 14.7997 122.4236 27.1504 23.0036 -8.5281 4.7678
# 3 44.3559 27.1504 121.8143 8.7910 -37.9833 -0.6086
# 4 2.9858 23.0036 8.7910 57.0297 -8.9722 -6.1688
# 5 -22.6849 -8.5281 -37.9833 -8.9722 44.2077 -5.6971
# 6 -2.3189 4.7678 -0.6086 -6.1688 -5.6971 34.7339
#
#
#
# Elastic Compliance Matrix: (Units=1/GPa)
#
#
# Indices 1 2 3 4 5 6 
#
# 1 0.010842 -0.000667 -0.002794 0.000824 0.003391 0.001469
# 2 -0.000667 0.009425 -0.002003 -0.003915 -0.001334 -0.002288
# 3 -0.002794 -0.002003 0.012551 0.000705 0.009360 0.001969
# 4 0.000824 -0.003915 0.000705 0.020300 0.005043 0.005037
# 5 0.003391 -0.001334 0.009360 0.005043 0.034078 0.007059
# 6 0.001469 -0.002288 0.001969 0.005037 0.007059 0.031289
#
#
# Mechanical properties :
#
#
# Convention : Reuss Voigt Hill
#
# Bulk Modulus (GPa) = 45.68280 58.73408 52.20844
# Shear Modulus (GPa) = 36.57376 45.17351 40.87364
#
# Velocity S-wave (km/s) = 3.87913 4.31113 4.10083
# Velocity P-wave (km/s) = 6.23370 6.99617 6.62591
#
# Compressibility (1/GPa) = 0.02189007
#
# Stress axis : x y z
#
# Youngs Moduli (GPa) = 92.23370 106.10083 79.67766
#
# Poissons Ratio (x) = 0.07076 0.22263
# Poissons Ratio (y) = 0.06152 0.15957
# Poissons Ratio (z) = 0.25771 0.21249
#
# Static dielectric constant tensor:
#      x y z
#    x 1.975640 -0.051130 0.087580 
#    y -0.051130 1.946940 -0.032580 
#    z 0.087580 -0.032580 1.955560 
# 
# From -- ./inp_files/139638.got.cif
#   From: 2010.05.17/outbox.cif.g08.bks.cpg/sg2_70_cif.got.tgz:139638.got - 2010.06.03 11:33:40.
