data_PCOD9066753
_publ_section_title
;
Structure prediction by ZEFSAII (Michael W. Deem and Ramdas Pophale) SiO2 
 PCOD9066753
Probable space group: P -1
;
_chemical_formula_sum "Si O2"
_cell_formula_units_Z 14
_cell_length_a 9.127775
_cell_length_b 9.839193
_cell_length_c 11.680777
_cell_angle_alpha 138.878278
_cell_angle_beta 103.354428
_cell_angle_gamma 56.687033
_cell_volume 543.744378
_symmetry_space_group_name_H-M "P -1"
_symmetry_group_IT_number 2
_symmetry_cell_setting 'triclinic'
loop_
_space_group_symop_operation_xyz
x,y,z
-x,-y,-z
loop_
_atom_site_type_symbol
_atom_site_label
_atom_site_fract_x
_atom_site_fract_y
_atom_site_fract_z
Si Si1 0.886791 0.342395 0.082474
Si Si2 0.313410 0.994348 0.661846
Si Si3 0.312882 0.171116 0.296022
Si Si4 0.166509 0.189153 0.529375
Si Si5 0.342994 0.495739 0.334299
Si Si6 0.108853 0.750625 0.223317
Si Si7 0.741809 0.140870 0.087223
O O1 0.933453 0.535072 0.253527
O O2 0.755839 0.350974 0.162223
O O3 0.802445 0.386869 0.968935
O O4 0.074124 0.053787 0.930792
O O5 0.464137 0.007760 0.761914
O O6 0.358296 0.719431 0.517619
O O7 0.329637 0.020255 0.545020
O O8 0.095432 0.187659 0.772965
O O9 0.224489 0.220531 0.435704
O O10 0.264507 0.415102 0.369770
O O11 0.249777 0.027766 0.121234
O O12 0.084880 0.021120 0.397716
O O13 0.227736 0.590755 0.254432
O O14 0.551323 0.256933 0.191058
#
# Coordination Sequence:
#
# PCOD9066753 Si02
#       7
#     2   2   2   2   2   2   2
#     4  11  26  49  76 108 151 192 248 306 361 436
#     4  11  26  48  73 111 146 193 246 301 368 439
#     4  12  25  46  75 110 149 192 246 302 366 437
#     4  11  25  48  80 109 140 200 248 296 370 433
#     4  11  25  46  75 107 149 194 242 303 369 433
#     4  11  26  51  77 107 152 190 247 302 367 437
#     4  11  26  46  70 116 146 191 251 300 366 438
#
# _framework density 25.747394
#
# number of rings (size 3 to 8) (size 9 to 14) (size 15 to 20)
#    0.000    0.857    1.429    4.714    6.000    5.143 
#    0.000    0.000    0.000    0.000    0.000    0.000 
#    0.000    0.000    0.000    0.000    0.000    0.000 
#
# Total GULP energy -78454.386856 kJ/mol
# GULP energy per Si atom -5603.884775 kJ/mol
# Density = 2.568879 g / cm^3
# Si number density = 25.747394 Si / 1000 Ang^3
#
#
#
# Elastic Constant Matrix: (Units=GPa)
#
#
# Indices 1 2 3 4 5 6 
#
# 1 96.3430 55.0370 13.1032 -11.7480 7.3924 21.6416
# 2 55.0370 159.0775 40.1734 -25.9441 -0.4489 32.3519
# 3 13.1032 40.1734 74.4670 -7.7962 4.3138 17.9260
# 4 -11.7480 -25.9441 -7.7962 40.4575 0.9351 1.8536
# 5 7.3924 -0.4489 4.3138 0.9351 35.3317 -10.8256
# 6 21.6416 32.3519 17.9260 1.8536 -10.8256 56.3936
#
#
#
# Elastic Compliance Matrix: (Units=1/GPa)
#
#
# Indices 1 2 3 4 5 6 
#
# 1 0.014075 -0.003934 0.001208 0.002108 -0.004570 -0.004475
# 2 -0.003934 0.009931 -0.003415 0.004709 0.000259 -0.003207
# 3 0.001208 -0.003415 0.016540 0.001642 -0.003749 -0.004536
# 4 0.002108 0.004709 0.001642 0.028991 -0.003056 -0.005572
# 5 -0.004570 0.000259 -0.003749 -0.003056 0.032607 0.009156
# 6 -0.004475 -0.003207 -0.004536 -0.005572 0.009156 0.024672
#
#
# Mechanical properties :
#
#
# Convention : Reuss Voigt Hill
#
# Bulk Modulus (GPa) = 35.38076 60.72386 48.05231
# Shear Modulus (GPa) = 33.66575 41.20813 37.43694
#
# Velocity S-wave (km/s) = 3.61992 4.00494 3.81728
# Velocity P-wave (km/s) = 5.58955 6.70982 6.17514
#
# Compressibility (1/GPa) = 0.02826395
#
# Stress axis : x y z
#
# Youngs Moduli (GPa) = 71.04552 100.69902 60.46116
#
# Poissons Ratio (x) = 0.39613 -0.07305
# Poissons Ratio (y) = 0.27948 0.20649
# Poissons Ratio (z) = -0.08584 0.34391
#
# Static dielectric constant tensor:
#      x y z
#    x 2.012680 0.026070 -0.056550 
#    y 0.026070 2.070290 0.020870 
#    z -0.056550 0.020870 1.984180 
# 
# From -- ./inp_files/383573.got.cif
#   From: 2010.05.17/outbox.cif.g08.bks.cpg/sg2_192_cif.got.tgz:383573.got - 2010.06.03 11:33:40.
