data_PCOD9066354
_publ_section_title
;
Structure prediction by ZEFSAII (Michael W. Deem and Ramdas Pophale) SiO2 
 PCOD9066354
Probable space group: P -1
;
_chemical_formula_sum "Si O2"
_cell_formula_units_Z 16
_cell_length_a 15.526489
_cell_length_b 11.197755
_cell_length_c 9.122839
_cell_angle_alpha 114.475869
_cell_angle_beta 115.717164
_cell_angle_gamma 117.950385
_cell_volume 795.965932
_symmetry_space_group_name_H-M "P -1"
_symmetry_group_IT_number 2
_symmetry_cell_setting 'triclinic'
loop_
_space_group_symop_operation_xyz
x,y,z
-x,-y,-z
loop_
_atom_site_type_symbol
_atom_site_label
_atom_site_fract_x
_atom_site_fract_y
_atom_site_fract_z
Si Si1 0.341108 0.816339 0.198534
Si Si2 0.415204 0.794811 0.922662
Si Si3 0.114598 0.365303 0.314154
Si Si4 0.598706 0.750656 0.941763
Si Si5 0.123180 0.031201 0.536462
Si Si6 0.941991 0.588425 0.030363
Si Si7 0.265553 0.262013 0.452118
Si Si8 0.772467 0.028934 0.923320
O O1 0.500000 0.000000 0.500000
O O2 0.272046 0.883925 0.142038
O O3 0.375975 0.789376 0.055177
O O4 0.215062 0.598951 0.087158
O O5 0.257909 0.590417 0.615143
O O6 0.530151 0.796430 0.007067
O O7 0.500000 0.000000 0.000000
O O8 0.163039 0.265558 0.304252
O O9 0.093675 0.390814 0.145442
O O10 0.953159 0.223123 0.205233
O O11 0.746164 0.852227 0.185266
O O12 0.448992 0.493667 0.688025
O O13 0.656382 0.868390 0.888117
O O14 0.208966 0.189443 0.540446
O O15 0.000000 0.000000 0.500000
O O16 0.049285 0.812052 0.310847
O O17 0.000000 0.500000 0.000000
O O18 0.235475 0.093868 0.264106
#
# Coordination Sequence:
#
# PCOD9066354 Si02
#       8
#     2   2   2   2   2   2   2   2
#     4  12  28  44  71 105 145 184 238 290 357 426
#     4  11  25  46  68 102 139 188 231 289 354 422
#     4  11  25  45  74  98 142 181 238 290 354 428
#     4  11  27  43  73  99 144 180 237 291 354 424
#     4  12  28  47  73 108 143 187 240 297 359 423
#     4  12  27  47  72 107 142 191 235 297 357 418
#     4  11  25  48  71 102 139 187 235 291 362 423
#     4  12  24  46  71 105 135 191 233 294 355 425
#
# _framework density 20.101362000000002
#
# number of rings (size 3 to 8) (size 9 to 14) (size 15 to 20)
#    0.000    0.500    3.750    2.625   14.000    1.500 
#    0.000    0.000    0.000    0.000    0.000    0.000 
#    0.000    0.000    0.000    0.000    0.000    0.000 
#
# Total GULP energy -89476.950718 kJ/mol
# GULP energy per Si atom -5592.309420 kJ/mol
# Density = 2.005561 g / cm^3
# Si number density = 20.101362 Si / 1000 Ang^3
#
#
#
# Elastic Constant Matrix: (Units=GPa)
#
#
# Indices 1 2 3 4 5 6 
#
# 1 101.9706 20.3215 55.6427 8.8849 6.1761 -0.1243
# 2 20.3215 116.3837 33.5471 9.7965 7.8234 20.8552
# 3 55.6427 33.5471 81.1192 4.2577 26.4847 -2.5639
# 4 8.8849 9.7965 4.2577 33.5302 6.6482 11.0495
# 5 6.1761 7.8234 26.4847 6.6482 36.5705 -3.7151
# 6 -0.1243 20.8552 -2.5639 11.0495 -3.7151 34.9373
#
#
#
# Elastic Compliance Matrix: (Units=1/GPa)
#
#
# Indices 1 2 3 4 5 6 
#
# 1 0.017826 0.000936 -0.015196 -0.005130 0.008824 0.000950
# 2 0.000936 0.011335 -0.005869 -0.000787 0.001117 -0.006826
# 3 -0.015196 -0.005869 0.031381 0.004947 -0.019590 0.002104
# 4 -0.005130 -0.000787 0.004947 0.036788 -0.010448 -0.011932
# 5 0.008824 0.001117 -0.019590 -0.010448 0.042284 0.005728
# 6 0.000950 -0.006826 0.002104 -0.011932 0.005728 0.037238
#
#
# Mechanical properties :
#
#
# Convention : Reuss Voigt Hill
#
# Bulk Modulus (GPa) = 49.29945 57.61070 53.45508
# Shear Modulus (GPa) = 22.33417 33.67173 28.00295
#
# Velocity S-wave (km/s) = 3.33690 4.09724 3.73646
# Velocity P-wave (km/s) = 6.27895 7.14881 6.72795
#
# Compressibility (1/GPa) = 0.02028420
#
# Stress axis : x y z
#
# Youngs Moduli (GPa) = 56.09723 88.22427 31.86609
#
# Poissons Ratio (x) = -0.08259 0.48425
# Poissons Ratio (y) = -0.05251 0.18701
# Poissons Ratio (z) = 0.85248 0.51777
#
# Static dielectric constant tensor:
#      x y z
#    x 1.702740 -0.010350 -0.002890 
#    y -0.010350 1.371620 -0.348680 
#    z -0.002890 -0.348680 1.246080 
# 
# From -- ./inp_files/177944.got.cif
#   From: 2010.05.17/outbox.cif.g08.bks.cpg/sg2_89_cif.got.tgz:177944.got - 2010.06.03 11:33:40.
