data_PCOD9066415
_publ_section_title
;
Structure prediction by ZEFSAII (Michael W. Deem and Ramdas Pophale) SiO2 
 PCOD9066415
Probable space group: P -1
;
_chemical_formula_sum "Si O2"
_cell_formula_units_Z 16
_cell_length_a 12.365626
_cell_length_b 8.577960
_cell_length_c 21.778117
_cell_angle_alpha 38.213295
_cell_angle_beta 29.214892
_cell_angle_gamma 49.014725
_cell_volume 694.033301
_symmetry_space_group_name_H-M "P -1"
_symmetry_group_IT_number 2
_symmetry_cell_setting 'triclinic'
loop_
_space_group_symop_operation_xyz
x,y,z
-x,-y,-z
loop_
_atom_site_type_symbol
_atom_site_label
_atom_site_fract_x
_atom_site_fract_y
_atom_site_fract_z
Si Si1 0.833542 0.754450 0.136426
Si Si2 0.830544 0.670510 0.499484
Si Si3 0.582825 0.264997 0.566986
Si Si4 0.032585 0.406977 0.681251
Si Si5 0.991070 0.854061 0.901346
Si Si6 0.050711 0.222752 0.198407
Si Si7 0.490475 0.566765 0.056353
Si Si8 0.551543 0.278674 0.240860
O O1 0.590473 0.767024 0.280925
O O2 0.938519 0.487872 0.182446
O O3 0.815785 0.779957 0.063978
O O4 0.000000 0.000000 0.000000
O O5 0.844452 0.611616 0.438874
O O6 0.602938 0.603632 0.669534
O O7 0.000000 0.500000 0.500000
O O8 0.907113 0.971550 0.371210
O O9 0.500000 0.500000 0.500000
O O10 0.842240 0.341771 0.429308
O O11 0.543785 0.012111 0.626442
O O12 0.765451 0.391782 0.815065
O O13 0.070326 0.152632 0.777799
O O14 0.201032 0.707903 0.860196
O O15 0.927689 0.815044 0.874222
O O16 0.297892 0.227323 0.102750
O O17 0.543230 0.377721 0.144456
O O18 0.500000 0.500000 0.000000
#
# Coordination Sequence:
#
# PCOD9066415 Si02
#       8
#     2   2   2   2   2   2   2   2
#     4  12  23  44  74 116 146 187 246 313 372 438
#     4  11  26  49  71 106 152 197 250 297 364 455
#     4  12  25  42  74 108 147 193 241 311 376 427
#     4  11  27  48  71 110 148 196 249 305 370 443
#     4  11  25  45  77 111 148 188 255 311 369 444
#     4  11  27  47  77 108 149 202 242 311 379 433
#     4  12  29  47  72 106 155 191 249 311 369 449
#     4  12  25  47  75 108 150 193 249 311 367 445
#
# _framework density 23.053647000000002
#
# number of rings (size 3 to 8) (size 9 to 14) (size 15 to 20)
#    0.000    0.500    5.000    1.125    8.750    4.500 
#    0.000    0.000    0.000    0.000    0.000    0.000 
#    0.000    0.000    0.000    0.000    0.000    0.000 
#
# Total GULP energy -89429.485630 kJ/mol
# GULP energy per Si atom -5589.342852 kJ/mol
# Density = 2.300118 g / cm^3
# Si number density = 23.053647 Si / 1000 Ang^3
#
#
#
# Elastic Constant Matrix: (Units=GPa)
#
#
# Indices 1 2 3 4 5 6 
#
# 1 116.1292 15.8760 53.7407 15.2916 7.5749 5.4898
# 2 15.8760 51.2429 13.2538 8.3811 6.1550 7.6939
# 3 53.7407 13.2538 95.9314 21.8630 13.9578 8.1683
# 4 15.2916 8.3811 21.8630 54.9572 4.2357 -0.3735
# 5 7.5749 6.1550 13.9578 4.2357 51.6634 -3.5831
# 6 5.4898 7.6939 8.1683 -0.3735 -3.5831 34.6352
#
#
#
# Elastic Compliance Matrix: (Units=1/GPa)
#
#
# Indices 1 2 3 4 5 6 
#
# 1 0.011839 -0.002000 -0.006282 -0.000509 0.000246 0.000069
# 2 -0.002000 0.021640 -0.000613 -0.002358 -0.002245 -0.004603
# 3 -0.006282 -0.000613 0.015681 -0.004178 -0.003103 -0.002932
# 4 -0.000509 -0.002358 -0.004178 0.020376 -0.000061 0.001803
# 5 0.000246 -0.002245 -0.003103 -0.000061 0.020662 0.003328
# 6 0.000069 -0.004603 -0.002932 0.001803 0.003328 0.030939
#
#
# Mechanical properties :
#
#
# Convention : Reuss Voigt Hill
#
# Bulk Modulus (GPa) = 31.87783 47.67160 39.77471
# Shear Modulus (GPa) = 33.47087 40.28004 36.87545
#
# Velocity S-wave (km/s) = 3.81447 4.18452 4.00378
# Velocity P-wave (km/s) = 5.76697 6.63856 6.21805
#
# Compressibility (1/GPa) = 0.03136977
#
# Stress axis : x y z
#
# Youngs Moduli (GPa) = 84.46550 46.21158 63.77079
#
# Poissons Ratio (x) = 0.09242 0.40059
# Poissons Ratio (y) = 0.16893 0.03912
# Poissons Ratio (z) = 0.53059 0.02834
#
# Static dielectric constant tensor:
#      x y z
#    x 1.849770 -0.008710 -0.064230 
#    y -0.008710 1.853230 -0.066490 
#    z -0.064230 -0.066490 1.812170 
# 
# From -- ./inp_files/243957.got.cif
#   From: 2010.05.17/outbox.cif.g08.bks.cpg/sg2_122_cif.got.tgz:243957.got - 2010.06.03 11:33:40.
