data_PCOD9066714
_publ_section_title
;
Structure prediction by ZEFSAII (Michael W. Deem and Ramdas Pophale) SiO2 
 PCOD9066714
Probable space group: P -1
;
_chemical_formula_sum "Si O2"
_cell_formula_units_Z 13
_cell_length_a 16.811706
_cell_length_b 9.680987
_cell_length_c 8.627964
_cell_angle_alpha 55.658148
_cell_angle_beta 56.474283
_cell_angle_gamma 29.919487
_cell_volume 571.431125
_symmetry_space_group_name_H-M "P -1"
_symmetry_group_IT_number 2
_symmetry_cell_setting 'triclinic'
loop_
_space_group_symop_operation_xyz
x,y,z
-x,-y,-z
loop_
_atom_site_type_symbol
_atom_site_label
_atom_site_fract_x
_atom_site_fract_y
_atom_site_fract_z
Si Si1 0.112115 0.562651 0.232079
Si Si2 0.756098 0.406831 0.407577
Si Si3 0.348146 0.153923 0.965817
Si Si4 0.651840 0.162098 0.034765
Si Si5 0.243487 0.084256 0.594154
Si Si6 0.500000 0.500000 0.500000
Si Si7 0.115254 0.866266 0.232406
O O1 0.198256 0.327076 0.418623
O O2 0.137994 0.719260 0.149835
O O3 0.924631 0.780025 0.298944
O O4 0.193519 0.395407 0.089512
O O5 0.676034 0.689179 0.252233
O O6 0.642169 0.415688 0.478261
O O7 0.793967 0.349310 0.584830
O O8 0.928259 0.141915 0.304076
O O9 0.370011 0.934166 0.022758
O O10 0.500000 0.000000 0.000000
O O11 0.677001 0.025892 0.252540
O O12 0.500000 0.500000 0.000000
O O13 0.806443 0.062505 0.911155
O O14 0.362710 0.819150 0.520146
#
# Coordination Sequence:
#
# PCOD9066714 Si02
#       7
#     2   2   2   2   2   1   2
#     4  11  25  46  74 109 146 192 244 302 363 435
#     4  11  26  44  75 103 151 190 245 299 367 430
#     4  12  28  46  72 108 149 195 241 303 368 441
#     4  12  28  46  72 108 149 195 241 303 368 441
#     4  11  26  44  75 103 151 190 245 299 367 430
#     4  12  24  44  72 108 138 196 242 302 360 426
#     4  11  25  46  74 109 146 192 244 302 363 435
#
# _framework density 22.749898999999999
#
# number of rings (size 3 to 8) (size 9 to 14) (size 15 to 20)
#    0.000    0.615    1.538    4.615   10.769    4.923 
#    0.000    4.615    0.000    0.000    0.000    0.000 
#    0.000    0.000    0.000    0.000    0.000    0.000 
#
# Total GULP energy -72603.548203 kJ/mol
# GULP energy per Si atom -5584.888323 kJ/mol
# Density = 2.269812 g / cm^3
# Si number density = 22.749899 Si / 1000 Ang^3
#
#
#
# Elastic Constant Matrix: (Units=GPa)
#
#
# Indices 1 2 3 4 5 6 
#
# 1 159.3917 86.8954 19.7860 1.4425 -8.8410 32.7970
# 2 86.8954 101.4347 18.3774 1.7599 4.5794 -16.1871
# 3 19.7860 18.3774 70.3397 -29.4048 15.5912 -0.2158
# 4 1.4425 1.7599 -29.4048 26.4649 -6.6291 5.6831
# 5 -8.8410 4.5794 15.5912 -6.6291 18.7023 1.1561
# 6 32.7970 -16.1871 -0.2158 5.6831 1.1561 42.6301
#
#
#
# Elastic Compliance Matrix: (Units=1/GPa)
#
#
# Indices 1 2 3 4 5 6 
#
# 1 0.088127 -0.099206 0.002615 0.051683 0.089185 -0.114764
# 2 -0.099206 0.124102 -0.010430 -0.068885 -0.101372 0.135326
# 3 0.002615 -0.010430 0.034778 0.038780 -0.010798 -0.010673
# 4 0.051683 -0.068885 0.038780 0.113972 0.054461 -0.082393
# 5 0.089185 -0.101372 -0.010798 0.054461 0.156091 -0.118653
# 6 -0.114764 0.135326 -0.010673 -0.082393 -0.118653 0.177283
#
#
# Mechanical properties :
#
#
# Convention : Reuss Voigt Hill
#
# Bulk Modulus (GPa) = 30.33518 64.58708 47.46113
# Shear Modulus (GPa) = 5.43844 31.29995 18.36919
#
# Velocity S-wave (km/s) = 1.54781 3.71324 2.84463
# Velocity P-wave (km/s) = 4.06908 6.84367 5.62998
#
# Compressibility (1/GPa) = 0.03296503
#
# Stress axis : x y z
#
# Youngs Moduli (GPa) = 11.34728 8.05790 28.75365
#
# Poissons Ratio (x) = 0.79939 -0.07519
# Poissons Ratio (y) = 1.12572 0.29989
# Poissons Ratio (z) = -0.02967 0.08404
#
# Static dielectric constant tensor:
#      x y z
#    x 1.798950 -0.007110 0.005470 
#    y -0.007110 1.807770 -0.009000 
#    z 0.005470 -0.009000 1.894110 
# 
# From -- ./inp_files/149701.got.cif
#   From: 2010.05.17/outbox.cif.g08.bks.cpg/sg2_75_cif.got.tgz:149701.got - 2010.06.03 11:33:40.
