data_PCOD9066094
_publ_section_title
;
Structure prediction by ZEFSAII (Michael W. Deem and Ramdas Pophale) SiO2 
 PCOD9066094
Probable space group: P -1
;
_chemical_formula_sum "Si O2"
_cell_formula_units_Z 13
_cell_length_a 8.496268
_cell_length_b 5.721840
_cell_length_c 14.488388
_cell_angle_alpha 123.837356
_cell_angle_beta 76.106447
_cell_angle_gamma 89.236046
_cell_volume 558.402895
_symmetry_space_group_name_H-M "P -1"
_symmetry_group_IT_number 2
_symmetry_cell_setting 'triclinic'
loop_
_space_group_symop_operation_xyz
x,y,z
-x,-y,-z
loop_
_atom_site_type_symbol
_atom_site_label
_atom_site_fract_x
_atom_site_fract_y
_atom_site_fract_z
Si Si1 0.500000 0.000000 0.500000
Si Si2 0.739323 0.830398 0.253177
Si Si3 0.264833 0.122902 0.113136
Si Si4 0.996457 0.761984 0.680354
Si Si5 0.421872 0.221376 0.933092
Si Si6 0.086398 0.698961 0.964398
Si Si7 0.153035 0.129159 0.465753
O O1 0.379282 0.068777 0.622777
O O2 0.330086 0.007381 0.458496
O O3 0.642482 0.829068 0.170150
O O4 0.830133 0.500867 0.174081
O O5 0.880302 0.022640 0.267453
O O6 0.121294 0.295873 0.232807
O O7 0.442484 0.061018 0.122647
O O8 0.283248 0.246172 0.036915
O O9 0.217587 0.813035 0.036030
O O10 0.110137 0.468756 0.567445
O O11 0.869640 0.893831 0.646174
O O12 0.500000 0.500000 0.000000
O O13 0.000000 0.500000 0.000000
O O14 0.000000 0.000000 0.000000
O O15 0.000000 0.000000 0.500000
#
# Coordination Sequence:
#
# PCOD9066094 Si02
#       7
#     1   2   2   2   2   2   2
#     4  12  28  48  84 114 162 218 270 358 406 504
#     4  12  26  50  77 120 161 212 285 338 427 503
#     4  11  25  44  75 110 155 216 262 348 417 497
#     4  11  26  49  82 112 159 215 278 349 416 511
#     4  11  25  48  69 115 164 210 272 339 426 497
#     4  12  26  45  78 116 161 212 276 345 415 506
#     4  11  26  54  75 118 160 215 280 339 423 497
#
# _framework density 23.280681000000001
#
# number of rings (size 3 to 8) (size 9 to 14) (size 15 to 20)
#    0.000    0.615    4.615    1.846    2.154    3.077 
#    2.769    0.000    0.000    0.000    0.000    0.000 
#    0.000    0.000    0.000    0.000    0.000    0.000 
#
# Total GULP energy -72424.867773 kJ/mol
# GULP energy per Si atom -5571.143675 kJ/mol
# Density = 2.322769 g / cm^3
# Si number density = 23.280681 Si / 1000 Ang^3
#
#
#
# Elastic Constant Matrix: (Units=GPa)
#
#
# Indices 1 2 3 4 5 6 
#
# 1 162.5399 56.6689 44.8800 -18.2949 12.3930 -15.6484
# 2 56.6689 100.8438 39.5617 -17.9584 2.5733 1.0071
# 3 44.8800 39.5617 116.3442 -40.7468 5.5874 4.1668
# 4 -18.2949 -17.9584 -40.7468 51.3741 9.1354 0.7911
# 5 12.3930 2.5733 5.5874 9.1354 47.3885 -8.9798
# 6 -15.6484 1.0071 4.1668 0.7911 -8.9798 43.6053
#
#
#
# Elastic Compliance Matrix: (Units=1/GPa)
#
#
# Indices 1 2 3 4 5 6 
#
# 1 0.008477 -0.003976 -0.001845 0.000345 -0.001274 0.003042
# 2 -0.003976 0.013379 -0.002521 0.001270 0.000081 -0.001501
# 3 -0.001845 -0.002521 0.014034 0.010270 -0.003558 -0.002864
# 4 0.000345 0.001270 0.010270 0.029582 -0.007641 -0.002997
# 5 -0.001274 0.000081 -0.003558 -0.007641 0.024274 0.005019
# 6 0.003042 -0.001501 -0.002864 -0.002997 0.005019 0.025421
#
#
# Mechanical properties :
#
#
# Convention : Reuss Voigt Hill
#
# Bulk Modulus (GPa) = 52.06660 73.54991 62.80825
# Shear Modulus (GPa) = 36.16581 44.38141 40.27361
#
# Velocity S-wave (km/s) = 3.94568 4.37093 4.16374
# Velocity P-wave (km/s) = 6.57048 7.55874 7.08187
#
# Compressibility (1/GPa) = 0.01920617
#
# Stress axis : x y z
#
# Youngs Moduli (GPa) = 117.96941 74.74529 71.25512
#
# Poissons Ratio (x) = 0.29720 0.13144
# Poissons Ratio (y) = 0.46907 0.17962
# Poissons Ratio (z) = 0.21762 0.18842
#
# Static dielectric constant tensor:
#      x y z
#    x 2.280740 0.424110 -0.490160 
#    y 0.424110 2.973720 -1.100750 
#    z -0.490160 -1.100750 3.012650 
# 
# From -- ./inp_files/488029.got.cif
#   From: 2010.05.17/outbox.cif.g08.bks.cpg/sg2_245_cif.got.tgz:488029.got - 2010.06.03 11:33:40.
