data_PCOD9066669
_publ_section_title
;
Structure prediction by ZEFSAII (Michael W. Deem and Ramdas Pophale) SiO2 
 PCOD9066669
Probable space group: P -1
;
_chemical_formula_sum "Si O2"
_cell_formula_units_Z 12
_cell_length_a 13.547459
_cell_length_b 8.463846
_cell_length_c 5.381765
_cell_angle_alpha 112.250541
_cell_angle_beta 88.554873
_cell_angle_gamma 56.370367
_cell_volume 452.916515
_symmetry_space_group_name_H-M "P -1"
_symmetry_group_IT_number 2
_symmetry_cell_setting 'triclinic'
loop_
_space_group_symop_operation_xyz
x,y,z
-x,-y,-z
loop_
_atom_site_type_symbol
_atom_site_label
_atom_site_fract_x
_atom_site_fract_y
_atom_site_fract_z
Si Si1 0.690044 0.406106 0.856360
Si Si2 0.428107 0.689900 0.808087
Si Si3 0.487834 0.114054 0.317831
Si Si4 0.974639 0.830876 0.820941
Si Si5 0.175999 0.057379 0.610896
Si Si6 0.226675 0.397331 0.691646
O O1 0.544341 0.610841 0.939496
O O2 0.751040 0.205468 0.545331
O O3 0.677331 0.291266 0.025452
O O4 0.759736 0.503206 0.997309
O O5 0.500000 0.500000 0.500000
O O6 0.400173 0.874277 0.737845
O O7 0.346841 0.330032 0.481495
O O8 0.500000 0.000000 0.500000
O O9 0.500000 0.000000 0.000000
O O10 0.919843 0.877234 0.574666
O O11 0.101362 0.589284 0.684255
O O12 0.887508 0.852471 0.062661
O O13 0.000000 0.000000 0.000000
O O14 0.228889 0.190134 0.603827
#
# Coordination Sequence:
#
# PCOD9066669 Si02
#       6
#     2   2   2   2   2   2
#     4  11  26  48  78 115 157 210 258 323 386 468
#     4  11  25  46  73 108 158 201 257 315 387 452
#     4  12  28  48  74 114 153 199 259 314 378 466
#     4  12  28  53  78 114 156 201 263 323 386 460
#     4  12  29  49  80 113 157 199 263 319 391 459
#     4  12  27  50  81 112 156 208 254 323 391 455
#
# _framework density 26.494948000000001
#
# number of rings (size 3 to 8) (size 9 to 14) (size 15 to 20)
#    0.000    0.333    3.333    3.500    9.333    4.000 
#    0.000    0.000    0.000    0.000    0.000    0.000 
#    0.000    0.000    0.000    0.000    0.000    0.000 
#
# Total GULP energy -67071.333553 kJ/mol
# GULP energy per Si atom -5589.277796 kJ/mol
# Density = 2.643464 g / cm^3
# Si number density = 26.494948 Si / 1000 Ang^3
#
#
#
# Elastic Constant Matrix: (Units=GPa)
#
#
# Indices 1 2 3 4 5 6 
#
# 1 83.3740 24.1484 6.3065 7.8228 8.0614 14.2972
# 2 24.1484 132.2294 17.5904 5.3747 10.3396 -8.4162
# 3 6.3065 17.5904 104.6478 -0.2882 -8.6594 -0.8221
# 4 7.8228 5.3747 -0.2882 52.0810 6.4528 -4.4498
# 5 8.0614 10.3396 -8.6594 6.4528 66.4342 5.1134
# 6 14.2972 -8.4162 -0.8221 -4.4498 5.1134 57.8497
#
#
#
# Elastic Compliance Matrix: (Units=1/GPa)
#
#
# Indices 1 2 3 4 5 6 
#
# 1 0.013695 -0.002530 -0.000505 -0.002023 -0.000842 -0.003841
# 2 -0.002530 0.008439 -0.001360 -0.000170 -0.001316 0.001937
# 3 -0.000505 -0.001360 0.009944 0.000072 0.001567 -0.000065
# 4 -0.002023 -0.000170 0.000072 0.019934 -0.001822 0.002171
# 5 -0.000842 -0.001316 0.001567 -0.001822 0.015856 -0.001503
# 6 -0.003841 0.001937 -0.000065 0.002171 -0.001503 0.018816
#
#
# Mechanical properties :
#
#
# Convention : Reuss Voigt Hill
#
# Bulk Modulus (GPa) = 42.94336 46.26020 44.60178
# Shear Modulus (GPa) = 48.43157 53.42005 50.92581
#
# Velocity S-wave (km/s) = 4.28010 4.49512 4.38893
# Velocity P-wave (km/s) = 6.37722 6.66629 6.52336
#
# Compressibility (1/GPa) = 0.02328649
#
# Stress axis : x y z
#
# Youngs Moduli (GPa) = 73.01877 118.50087 100.55987
#
# Poissons Ratio (x) = 0.29984 0.05082
# Poissons Ratio (y) = 0.18476 0.13678
# Poissons Ratio (z) = 0.03690 0.16118
#
# Static dielectric constant tensor:
#      x y z
#    x 2.234130 -0.010330 0.149730 
#    y -0.010330 2.294630 0.040480 
#    z 0.149730 0.040480 2.046090 
# 
# From -- ./inp_files/34258.got.cif
#   From: 2010.05.17/outbox.cif.g08.bks.cpg/sg2_18_cif.got.tgz:34258.got - 2010.06.03 11:33:40.
