data_PCOD9066924
_publ_section_title
;
Structure prediction by ZEFSAII (Michael W. Deem and Ramdas Pophale) SiO2 
 PCOD9066924
Probable space group: P -1
;
_chemical_formula_sum "Si O2"
_cell_formula_units_Z 14
_cell_length_a 9.357299
_cell_length_b 13.558080
_cell_length_c 13.794708
_cell_angle_alpha 149.273743
_cell_angle_beta 83.503931
_cell_angle_gamma 117.410906
_cell_volume 620.881277
_symmetry_space_group_name_H-M "P -1"
_symmetry_group_IT_number 2
_symmetry_cell_setting 'triclinic'
loop_
_space_group_symop_operation_xyz
x,y,z
-x,-y,-z
loop_
_atom_site_type_symbol
_atom_site_label
_atom_site_fract_x
_atom_site_fract_y
_atom_site_fract_z
Si Si1 0.020831 0.098093 0.795615
Si Si2 0.105764 0.771410 0.592247
Si Si3 0.166150 0.771786 0.960610
Si Si4 0.190242 0.037855 0.001046
Si Si5 0.525348 0.984164 0.677424
Si Si6 0.424147 0.403336 0.665291
Si Si7 0.344222 0.498058 0.958431
O O1 0.782644 0.812091 0.563522
O O2 0.132371 0.017170 0.760373
O O3 0.122796 0.248447 0.812561
O O4 0.018135 0.282401 0.020468
O O5 0.918435 0.494266 0.315086
O O6 0.302462 0.833610 0.603196
O O7 0.101580 0.794739 0.727396
O O8 0.324062 0.874122 0.120379
O O9 0.253445 0.997725 0.062393
O O10 0.387220 0.328001 0.182400
O O11 0.000000 0.000000 0.000000
O O12 0.525706 0.768869 0.453945
O O13 0.600347 0.223338 0.801189
O O14 0.364821 0.469203 0.819390
O O15 0.500000 0.500000 0.000000
#
# Coordination Sequence:
#
# PCOD9066924 Si02
#       7
#     2   2   2   2   2   2   2
#     4  11  25  47  73 101 144 189 232 300 348 417
#     4  12  24  46  72 104 142 188 235 290 353 422
#     4  11  27  46  71 107 143 183 242 289 351 419
#     4  12  24  48  75 102 147 188 232 291 354 422
#     4  11  26  45  73 108 140 185 238 293 351 421
#     4  11  26  46  71 107 143 183 242 288 355 420
#     4  12  24  46  71 103 143 187 237 289 357 418
#
# _framework density 22.548591999999999
#
# number of rings (size 3 to 8) (size 9 to 14) (size 15 to 20)
#    0.000    0.571    4.286    2.571    2.000    6.857 
#    2.571    0.000    0.000    0.000    0.000    0.000 
#    0.000    0.000    0.000    0.000    0.000    0.000 
#
# Total GULP energy -78334.800364 kJ/mol
# GULP energy per Si atom -5595.342883 kJ/mol
# Density = 2.249727 g / cm^3
# Si number density = 22.548592 Si / 1000 Ang^3
#
#
#
# Elastic Constant Matrix: (Units=GPa)
#
#
# Indices 1 2 3 4 5 6 
#
# 1 94.2085 22.9386 19.6571 12.8652 -21.2570 -2.7440
# 2 22.9386 121.6514 41.1966 19.2673 -11.0552 6.3341
# 3 19.6571 41.1966 83.7044 14.7055 -3.4591 7.6832
# 4 12.8652 19.2673 14.7055 27.8734 0.9253 -4.5362
# 5 -21.2570 -11.0552 -3.4591 0.9253 40.0415 -0.0422
# 6 -2.7440 6.3341 7.6832 -4.5362 -0.0422 40.5344
#
#
#
# Elastic Compliance Matrix: (Units=1/GPa)
#
#
# Indices 1 2 3 4 5 6 
#
# 1 0.013381 -0.000544 -0.001790 -0.004958 0.006914 0.000782
# 2 -0.000544 0.010855 -0.004004 -0.005481 0.002487 -0.001585
# 3 -0.001790 -0.004004 0.015472 -0.005036 -0.000606 -0.002992
# 4 -0.004958 -0.005481 -0.005036 0.045872 -0.005633 0.006603
# 5 0.006914 0.002487 -0.000606 -0.005633 0.029409 -0.000406
# 6 0.000782 -0.001585 -0.002992 0.006603 -0.000406 0.026277
#
#
# Mechanical properties :
#
#
# Convention : Reuss Voigt Hill
#
# Bulk Modulus (GPa) = 36.99203 51.90545 44.44874
# Shear Modulus (GPa) = 30.68414 36.07467 33.37941
#
# Velocity S-wave (km/s) = 3.69291 4.00417 3.85168
# Velocity P-wave (km/s) = 5.88426 6.66687 6.28775
#
# Compressibility (1/GPa) = 0.02703285
#
# Stress axis : x y z
#
# Youngs Moduli (GPa) = 74.73554 92.12139 64.63311
#
# Poissons Ratio (x) = 0.05014 0.11566
# Poissons Ratio (y) = 0.04067 0.25877
# Poissons Ratio (z) = 0.13374 0.36882
#
# Static dielectric constant tensor:
#      x y z
#    x 1.829120 -0.011110 -0.014590 
#    y -0.011110 1.818090 -0.003620 
#    z -0.014590 -0.003620 1.859390 
# 
# From -- ./inp_files/313490.got.cif
#   From: 2010.05.17/outbox.cif.g08.bks.cpg/sg2_157_cif.got.tgz:313490.got - 2010.06.03 11:33:40.
