data_PCOD9066088
_publ_section_title
;
Structure prediction by ZEFSAII (Michael W. Deem and Ramdas Pophale) SiO2 
 PCOD9066088
Probable space group: P -1
;
_chemical_formula_sum "Si O2"
_cell_formula_units_Z 16
_cell_length_a 14.254676
_cell_length_b 11.166033
_cell_length_c 10.792491
_cell_angle_alpha 36.272096
_cell_angle_beta 41.787814
_cell_angle_gamma 53.738391
_cell_volume 677.031562
_symmetry_space_group_name_H-M "P -1"
_symmetry_group_IT_number 2
_symmetry_cell_setting 'triclinic'
loop_
_space_group_symop_operation_xyz
x,y,z
-x,-y,-z
loop_
_atom_site_type_symbol
_atom_site_label
_atom_site_fract_x
_atom_site_fract_y
_atom_site_fract_z
Si Si1 0.042216 0.390080 0.333549
Si Si2 0.766020 0.297844 0.580180
Si Si3 0.894289 0.294762 0.208996
Si Si4 0.481460 0.244939 0.812365
Si Si5 0.605543 0.220084 0.455800
Si Si6 0.833286 0.846346 0.797922
Si Si7 0.510124 0.155038 0.244881
Si Si8 0.690874 0.471382 0.915269
O O1 0.099226 0.191711 0.372656
O O2 0.873595 0.361827 0.529312
O O3 0.068798 0.559424 0.061455
O O4 0.146614 0.460388 0.281301
O O5 0.824342 0.400858 0.309555
O O6 0.599323 0.325991 0.726877
O O7 0.792460 0.065343 0.707887
O O8 0.762370 0.165717 0.391139
O O9 0.038296 0.209677 0.191238
O O10 0.530417 0.314657 0.569031
O O11 0.316151 0.273273 0.967443
O O12 0.500000 0.000000 0.000000
O O13 0.628111 0.368844 0.191173
O O14 0.517447 0.012124 0.692997
O O15 0.652235 0.290205 0.008504
O O16 0.500000 0.000000 0.500000
O O17 0.392321 0.326958 0.207889
#
# Coordination Sequence:
#
# PCOD9066088 Si02
#       8
#     2   2   2   2   2   2   2   2
#     4  10  18  29  47  70 102 130 161 215 247 289
#     4   9  17  28  43  66  96 136 171 201 238 290
#     4   9  17  29  44  70  96 132 172 201 248 293
#     4   9  19  31  46  73 107 142 179 193 236 309
#     4   9  18  33  53  73 107 137 163 215 253 293
#     4  10  18  28  46  69 101 141 170 197 235 299
#     4   9  18  33  54  77 104 123 160 222 273 300
#     4   9  19  31  50  83  99 124 173 211 265 311
#
# _framework density 23.632574999999999
#
# number of rings (size 3 to 8) (size 9 to 14) (size 15 to 20)
#    0.000    2.750    0.000    3.000    7.000    0.000 
#    0.000   10.000    0.000    0.000    0.000   19.250 
#    0.000    0.625    0.000    0.000    0.000    0.000 
#
# Total GULP energy -89129.560477 kJ/mol
# GULP energy per Si atom -5570.597530 kJ/mol
# Density = 2.357879 g / cm^3
# Si number density = 23.632575 Si / 1000 Ang^3
#
#
#
# Elastic Constant Matrix: (Units=GPa)
#
#
# Indices 1 2 3 4 5 6 
#
# 1 161.2343 46.6504 73.3018 0.0910 -57.3338 -23.6587
# 2 46.6504 65.9484 44.5641 -3.2489 -17.3108 -21.3635
# 3 73.3018 44.5641 110.0450 7.8350 -35.9839 -9.7848
# 4 0.0910 -3.2489 7.8350 42.6503 -5.8895 -10.4214
# 5 -57.3338 -17.3108 -35.9839 -5.8895 66.7479 -2.1308
# 6 -23.6587 -21.3635 -9.7848 -10.4214 -2.1308 41.1951
#
#
#
# Elastic Compliance Matrix: (Units=1/GPa)
#
#
# Indices 1 2 3 4 5 6 
#
# 1 0.012873 -0.000983 -0.004975 0.003744 0.008678 0.007098
# 2 -0.000983 0.027231 -0.008881 0.007336 0.002506 0.013433
# 3 -0.004975 -0.008881 0.016489 -0.004579 0.001762 -0.004613
# 4 0.003744 0.007336 -0.004579 0.028638 0.005573 0.012400
# 5 0.008678 0.002506 0.001762 0.005573 0.024827 0.009396
# 6 0.007098 0.013433 -0.004613 0.012400 0.009396 0.037845
#
#
# Mechanical properties :
#
#
# Convention : Reuss Voigt Hill
#
# Bulk Modulus (GPa) = 37.15297 74.02890 55.59094
# Shear Modulus (GPa) = 26.80197 41.63276 34.21737
#
# Velocity S-wave (km/s) = 3.37131 4.20178 3.80924
# Velocity P-wave (km/s) = 5.55963 7.41167 6.55143
#
# Compressibility (1/GPa) = 0.02691575
#
# Stress axis : x y z
#
# Youngs Moduli (GPa) = 77.67899 36.72295 60.64519
#
# Poissons Ratio (x) = 0.03610 0.30170
# Poissons Ratio (y) = 0.07636 0.53859
# Poissons Ratio (z) = 0.38645 0.32614
#
# Static dielectric constant tensor:
#      x y z
#    x 1.969310 0.008310 0.003590 
#    y 0.008310 1.896940 -0.094580 
#    z 0.003590 -0.094580 2.070860 
# 
# From -- ./inp_files/304557.got.cif
#   From: 2010.05.17/outbox.cif.g08.bks.cpg/sg2_153_cif.got.tgz:304557.got - 2010.06.03 11:33:40.
