data_PCOD9066571
_publ_section_title
;
Structure prediction by ZEFSAII (Michael W. Deem and Ramdas Pophale) SiO2 
 PCOD9066571
Probable space group: P -1
;
_chemical_formula_sum "Si O2"
_cell_formula_units_Z 14
_cell_length_a 9.259560
_cell_length_b 5.023733
_cell_length_c 11.489887
_cell_angle_alpha 83.404981
_cell_angle_beta 80.163394
_cell_angle_gamma 74.650723
_cell_volume 506.473967
_symmetry_space_group_name_H-M "P -1"
_symmetry_group_IT_number 2
_symmetry_cell_setting 'triclinic'
loop_
_space_group_symop_operation_xyz
x,y,z
-x,-y,-z
loop_
_atom_site_type_symbol
_atom_site_label
_atom_site_fract_x
_atom_site_fract_y
_atom_site_fract_z
Si Si1 0.500000 0.000000 0.000000
Si Si2 0.170220 0.223713 0.643072
Si Si3 0.422009 0.680399 0.232044
Si Si4 0.977135 0.731338 0.895612
Si Si5 0.778757 0.006310 0.109797
Si Si6 0.000000 0.000000 0.500000
Si Si7 0.360587 0.623101 0.599225
Si Si8 0.218318 0.254719 0.304650
O O1 0.450490 0.749724 0.091843
O O2 0.607076 0.039772 0.095773
O O3 0.305187 0.953645 0.600722
O O4 0.172626 0.223470 0.783676
O O5 0.021326 0.143493 0.618853
O O6 0.217191 0.504988 0.585114
O O7 0.572420 0.511241 0.282682
O O8 0.301600 0.500078 0.283019
O O9 0.350818 0.975721 0.286045
O O10 0.885419 0.691777 0.798115
O O11 0.861740 0.971514 0.973692
O O12 0.141055 0.779460 0.851499
O O13 0.000000 0.500000 0.000000
O O14 0.113099 0.182191 0.423003
O O15 0.500000 0.500000 0.500000
#
# Coordination Sequence:
#
# PCOD9066571 Si02
#       8
#     1   2   2   2   2   1   2   2
#     4  12  24  48  78 114 158 206 254 314 398 466
#     4  12  27  47  77 110 148 197 255 315 377 461
#     4  12  27  48  75 114 155 196 258 318 387 467
#     4  11  25  46  75 105 159 200 257 322 387 462
#     4  11  25  46  71 113 146 202 250 316 383 458
#     4  12  28  52  80 110 152 202 270 318 386 458
#     4  12  26  49  74 108 153 197 249 313 385 453
#     4  12  27  49  76 112 151 205 259 323 381 461
#
# _framework density 27.642092000000002
#
# number of rings (size 3 to 8) (size 9 to 14) (size 15 to 20)
#    0.000    0.286    4.286    3.857    4.000    2.857 
#    0.000    0.000    0.000    0.000    0.000    0.000 
#    0.000    0.000    0.000    0.000    0.000    0.000 
#
# Total GULP energy -77938.708662 kJ/mol
# GULP energy per Si atom -5567.050619 kJ/mol
# Density = 2.757918 g / cm^3
# Si number density = 27.642092 Si / 1000 Ang^3
#
#
#
# Elastic Constant Matrix: (Units=GPa)
#
#
# Indices 1 2 3 4 5 6 
#
# 1 179.5937 32.7589 34.8490 6.1500 4.7282 28.6514
# 2 32.7589 92.4069 10.9834 6.4948 -24.4329 8.2640
# 3 34.8490 10.9834 136.8456 -13.5469 -0.9999 9.9936
# 4 6.1500 6.4948 -13.5469 32.3400 11.9892 -12.7491
# 5 4.7282 -24.4329 -0.9999 11.9892 63.5976 -4.5335
# 6 28.6514 8.2640 9.9936 -12.7491 -4.5335 56.6258
#
#
#
# Elastic Compliance Matrix: (Units=1/GPa)
#
#
# Indices 1 2 3 4 5 6 
#
# 1 0.006948 -0.002059 -0.001606 -0.002593 -0.001101 -0.003604
# 2 -0.002059 0.013944 -0.001011 -0.005875 0.006487 -0.001618
# 3 -0.001606 -0.001011 0.008201 0.004471 -0.000951 0.000443
# 4 -0.002593 -0.005875 0.004471 0.041832 -0.009163 0.010065
# 5 -0.001101 0.006487 -0.000951 -0.009163 0.019961 -0.000687
# 6 -0.003604 -0.001618 0.000443 0.010065 -0.000687 0.021852
#
#
# Mechanical properties :
#
#
# Convention : Reuss Voigt Hill
#
# Bulk Modulus (GPa) = 50.65230 62.89208 56.77219
# Shear Modulus (GPa) = 38.85907 52.52966 45.69436
#
# Velocity S-wave (km/s) = 3.75346 4.36403 4.07021
# Velocity P-wave (km/s) = 6.09497 6.94224 6.53236
#
# Compressibility (1/GPa) = 0.01974244
#
# Stress axis : x y z
#
# Youngs Moduli (GPa) = 143.92862 71.71299 121.93888
#
# Poissons Ratio (x) = 0.14764 0.19579
# Poissons Ratio (y) = 0.29632 0.12327
# Poissons Ratio (z) = 0.23110 0.07250
#
# Static dielectric constant tensor:
#      x y z
#    x 2.189840 -0.115700 -0.097510 
#    y -0.115700 3.493490 0.017210 
#    z -0.097510 0.017210 2.818490 
# 
# From -- ./inp_files/60766.got.cif
#   From: 2010.05.17/outbox.cif.g08.bks.cpg/sg2_31_cif.got.tgz:60766.got - 2010.06.03 11:33:40.
