data_PCOD9066826
_publ_section_title
;
Structure prediction by ZEFSAII (Michael W. Deem and Ramdas Pophale) SiO2 
 PCOD9066826
Probable space group: P -1
;
_chemical_formula_sum "Si O2"
_cell_formula_units_Z 12
_cell_length_a 9.326238
_cell_length_b 12.453687
_cell_length_c 7.638205
_cell_angle_alpha 49.184052
_cell_angle_beta 68.625637
_cell_angle_gamma 43.071540
_cell_volume 447.412850
_symmetry_space_group_name_H-M "P -1"
_symmetry_group_IT_number 2
_symmetry_cell_setting 'triclinic'
loop_
_space_group_symop_operation_xyz
x,y,z
-x,-y,-z
loop_
_atom_site_type_symbol
_atom_site_label
_atom_site_fract_x
_atom_site_fract_y
_atom_site_fract_z
Si Si1 0.988953 0.945721 0.867385
Si Si2 0.831083 0.527624 0.425373
Si Si3 0.719467 0.437146 0.027219
Si Si4 0.638179 0.782655 0.882171
Si Si5 0.186595 0.097155 0.570961
Si Si6 0.407795 0.667812 0.506423
O O1 0.090403 0.730494 0.007215
O O2 0.139767 0.965204 0.683392
O O3 0.745954 0.115847 0.736090
O O4 0.000000 0.000000 0.000000
O O5 0.622481 0.607640 0.541547
O O6 0.000000 0.500000 0.500000
O O7 0.975817 0.305770 0.523390
O O8 0.728119 0.680125 0.142268
O O9 0.741426 0.334491 0.306315
O O10 0.500000 0.500000 0.000000
O O11 0.699171 0.612258 0.906826
O O12 0.746416 0.852812 0.678911
O O13 0.382738 0.969830 0.761108
O O14 0.500000 0.500000 0.500000
#
# Coordination Sequence:
#
# PCOD9066826 Si02
#       6
#     2   2   2   2   2   2
#     4  12  25  47  80 117 152 205 267 331 401 479
#     4  12  28  48  76 113 164 217 262 331 401 475
#     4  12  25  45  81 115 152 206 262 326 400 472
#     4  11  25  50  76 116 163 207 268 330 401 481
#     4  11  25  46  80 112 159 209 264 334 406 473
#     4  12  24  47  76 112 156 201 272 325 390 472
#
# _framework density 26.820868999999998
#
# number of rings (size 3 to 8) (size 9 to 14) (size 15 to 20)
#    0.000    0.333    5.000    3.000    2.333    0.667 
#    0.000    3.333    0.000    0.000    0.000    0.000 
#    0.000    0.000    0.000    0.000    0.000    0.000 
#
# Total GULP energy -67278.104007 kJ/mol
# GULP energy per Si atom -5606.508667 kJ/mol
# Density = 2.675982 g / cm^3
# Si number density = 26.820869 Si / 1000 Ang^3
#
#
#
# Elastic Constant Matrix: (Units=GPa)
#
#
# Indices 1 2 3 4 5 6 
#
# 1 161.8077 31.0964 44.2574 -15.6892 12.7007 -6.2750
# 2 31.0964 104.8454 42.6899 -20.7349 17.0396 -7.1656
# 3 44.2574 42.6899 154.8446 -14.4174 10.9258 -9.1257
# 4 -15.6892 -20.7349 -14.4174 36.7014 -18.6311 8.6909
# 5 12.7007 17.0396 10.9258 -18.6311 57.1882 -3.7567
# 6 -6.2750 -7.1656 -9.1257 8.6909 -3.7567 50.1645
#
#
#
# Elastic Compliance Matrix: (Units=1/GPa)
#
#
# Indices 1 2 3 4 5 6 
#
# 1 0.006990 -0.001071 -0.001521 0.001530 -0.000435 0.000147
# 2 -0.001071 0.012008 -0.002466 0.004618 -0.001349 0.000232
# 3 -0.001521 -0.002466 0.007693 0.000756 -0.000104 0.000718
# 4 0.001530 0.004618 0.000756 0.036918 0.009861 -0.004669
# 5 -0.000435 -0.001349 -0.000104 0.009861 0.021191 -0.000387
# 6 0.000147 0.000232 0.000718 -0.004669 -0.000387 0.020896
#
#
# Mechanical properties :
#
#
# Convention : Reuss Voigt Hill
#
# Bulk Modulus (GPa) = 60.32784 73.06500 66.69642
# Shear Modulus (GPa) = 41.20778 49.04108 45.12443
#
# Velocity S-wave (km/s) = 3.92396 4.28070 4.10620
# Velocity P-wave (km/s) = 6.56290 7.19260 6.88495
#
# Compressibility (1/GPa) = 0.01657609
#
# Stress axis : x y z
#
# Youngs Moduli (GPa) = 143.05880 83.27987 129.99511
#
# Poissons Ratio (x) = 0.08916 0.19771
# Poissons Ratio (y) = 0.15316 0.32052
# Poissons Ratio (z) = 0.21758 0.20534
#
# Static dielectric constant tensor:
#      x y z
#    x 2.362170 0.104090 0.444580 
#    y 0.104090 2.140670 0.293050 
#    z 0.444580 0.293050 2.771790 
# 
# From -- ./inp_files/173698.got.cif
#   From: 2010.05.17/outbox.cif.g08.bks.cpg/sg2_87_cif.got.tgz:173698.got - 2010.06.03 11:33:40.
