data_PCOD9066651
_publ_section_title
;
Structure prediction by ZEFSAII (Michael W. Deem and Ramdas Pophale) SiO2 
 PCOD9066651
Probable space group: P -1
;
_chemical_formula_sum "Si O2"
_cell_formula_units_Z 16
_cell_length_a 14.816398
_cell_length_b 11.901662
_cell_length_c 17.130676
_cell_angle_alpha 51.060236
_cell_angle_beta 148.848242
_cell_angle_gamma 149.310043
_cell_volume 728.569520
_symmetry_space_group_name_H-M "P -1"
_symmetry_group_IT_number 2
_symmetry_cell_setting 'triclinic'
loop_
_space_group_symop_operation_xyz
x,y,z
-x,-y,-z
loop_
_atom_site_type_symbol
_atom_site_label
_atom_site_fract_x
_atom_site_fract_y
_atom_site_fract_z
Si Si1 0.933290 0.314755 0.957215
Si Si2 0.193965 0.778048 0.914866
Si Si3 0.494091 0.490458 0.293267
Si Si4 0.188676 0.366460 0.814664
Si Si5 0.006899 0.828632 0.410062
Si Si6 0.217230 0.054282 0.194932
Si Si7 0.778450 0.737225 0.557227
Si Si8 0.394423 0.800943 0.709264
O O1 0.249859 0.450970 0.139274
O O2 0.796579 0.235308 0.978052
O O3 0.994004 0.502710 0.871612
O O4 0.705743 0.060438 0.857874
O O5 0.033868 0.816410 0.751871
O O6 0.500000 0.000000 0.000000
O O7 0.320431 0.227224 0.265877
O O8 0.718046 0.655917 0.458438
O O9 0.688186 0.628476 0.299369
O O10 0.255588 0.575131 0.750630
O O11 0.041259 0.188515 0.709947
O O12 0.500000 0.500000 0.000000
O O13 0.977334 0.203372 0.802297
O O14 0.174800 0.788514 0.558885
O O15 0.182907 0.069189 0.480176
O O16 0.507302 0.190840 0.306634
O O17 0.000000 0.000000 0.000000
O O18 0.500000 0.500000 0.500000
#
# Coordination Sequence:
#
# PCOD9066651 Si02
#       8
#     2   2   2   2   2   2   2   2
#     4  11  25  46  73 104 149 189 236 301 354 427
#     4  11  26  46  72 107 146 190 244 292 359 432
#     4  12  24  47  73 100 147 190 237 294 363 426
#     4  12  25  46  76 103 141 195 243 288 361 434
#     4  12  28  47  72 108 148 187 242 306 358 429
#     4  12  24  48  74 107 144 192 239 299 359 427
#     4  12  25  46  71 105 144 190 237 294 368 430
#     4  12  27  48  72 109 149 187 243 302 360 423
#
# _framework density 21.960843000000001
#
# number of rings (size 3 to 8) (size 9 to 14) (size 15 to 20)
#    0.000    0.250    5.000    3.000    5.250    1.500 
#    2.250    0.000    0.000    0.000    0.000    0.000 
#    0.000    0.000    0.000    0.000    0.000    0.000 
#
# Total GULP energy -89393.233062 kJ/mol
# GULP energy per Si atom -5587.077066 kJ/mol
# Density = 2.191086 g / cm^3
# Si number density = 21.960843 Si / 1000 Ang^3
#
#
#
# Elastic Constant Matrix: (Units=GPa)
#
#
# Indices 1 2 3 4 5 6 
#
# 1 88.9343 66.2639 30.5779 -13.4546 10.9226 5.1468
# 2 66.2639 157.0574 31.6460 -3.1021 8.9736 8.1258
# 3 30.5779 31.6460 69.3841 -5.2118 12.3573 1.7277
# 4 -13.4546 -3.1021 -5.2118 28.4864 -2.9028 0.1242
# 5 10.9226 8.9736 12.3573 -2.9028 45.3250 13.8340
# 6 5.1468 8.1258 1.7277 0.1242 13.8340 49.8374
#
#
#
# Elastic Compliance Matrix: (Units=1/GPa)
#
#
# Indices 1 2 3 4 5 6 
#
# 1 0.019324 -0.007001 -0.004497 0.007393 -0.001478 -0.000307
# 2 -0.007001 0.009604 -0.001516 -0.002503 0.000304 -0.000868
# 3 -0.004497 -0.001516 0.017772 0.000573 -0.003773 0.001141
# 4 0.007393 -0.002503 0.000573 0.038562 0.001280 -0.000827
# 5 -0.001478 0.000304 -0.003773 0.001280 0.025565 -0.006866
# 6 -0.000307 -0.000868 0.001141 -0.000827 -0.006866 0.022107
#
#
# Mechanical properties :
#
#
# Convention : Reuss Voigt Hill
#
# Bulk Modulus (GPa) = 48.37034 63.59458 55.98246
# Shear Modulus (GPa) = 30.14706 37.18898 33.66802
#
# Velocity S-wave (km/s) = 3.70910 4.11959 3.91972
# Velocity P-wave (km/s) = 6.35742 7.18672 6.78476
#
# Compressibility (1/GPa) = 0.02067383
#
# Stress axis : x y z
#
# Youngs Moduli (GPa) = 51.74854 104.12033 56.26690
#
# Poissons Ratio (x) = 0.72890 0.25304
# Poissons Ratio (y) = 0.36227 0.08529
# Poissons Ratio (z) = 0.23272 0.15782
#
# Static dielectric constant tensor:
#      x y z
#    x 1.955520 -0.122360 -0.094550 
#    y -0.122360 1.715780 -0.037500 
#    z -0.094550 -0.037500 1.769340 
# 
# From -- ./inp_files/573596.got.cif
#   From: 2010.05.17/outbox.cif.g08.bks.cpg/sg2_287_cif.got.tgz:573596.got - 2010.06.03 11:33:40.
