data_PCOD9066528
_publ_section_title
;
Structure prediction by ZEFSAII (Michael W. Deem and Ramdas Pophale) SiO2 
 PCOD9066528
Probable space group: P -1
;
_chemical_formula_sum "Si O2"
_cell_formula_units_Z 16
_cell_length_a 27.596197
_cell_length_b 6.462471
_cell_length_c 5.431964
_cell_angle_alpha 95.570860
_cell_angle_beta 118.082346
_cell_angle_gamma 55.643893
_cell_volume 686.424752
_symmetry_space_group_name_H-M "P -1"
_symmetry_group_IT_number 2
_symmetry_cell_setting 'triclinic'
loop_
_space_group_symop_operation_xyz
x,y,z
-x,-y,-z
loop_
_atom_site_type_symbol
_atom_site_label
_atom_site_fract_x
_atom_site_fract_y
_atom_site_fract_z
Si Si1 0.751430 0.973335 0.018250
Si Si2 0.210641 0.474049 0.264539
Si Si3 0.858551 0.053802 0.190162
Si Si4 0.674646 0.834406 0.168847
Si Si5 0.425049 0.573667 0.848987
Si Si6 0.992564 0.640072 0.249050
Si Si7 0.620665 0.549749 0.772714
Si Si8 0.073943 0.798081 0.270895
O O1 0.726945 0.864878 0.149830
O O2 0.821536 0.938599 0.200235
O O3 0.760657 0.810997 0.783480
O O4 0.693557 0.274703 0.899841
O O5 0.273758 0.418796 0.570063
O O6 0.138013 0.595079 0.234235
O O7 0.194267 0.665348 0.022818
O O8 0.900714 0.060974 0.508352
O O9 0.914640 0.890821 0.096259
O O10 0.624824 0.110892 0.217702
O O11 0.632923 0.767401 0.885884
O O12 0.412622 0.450950 0.566740
O O13 0.500000 0.500000 0.000000
O O14 0.414919 0.470489 0.070569
O O15 0.000000 0.500000 0.500000
O O16 0.052898 0.672476 0.403738
O O17 0.000000 0.500000 0.000000
O O18 0.000000 0.000000 0.000000
#
# Coordination Sequence:
#
# PCOD9066528 Si02
#       8
#     2   2   2   2   2   2   2   2
#     4  11  25  46  70 112 148 197 259 318 388 464
#     4  12  25  45  75 103 148 194 260 319 397 461
#     4  12  28  45  75 103 144 192 257 321 399 465
#     4  11  27  48  79 112 161 206 263 316 391 458
#     4  11  26  49  80 123 166 208 261 316 377 459
#     4  12  28  48  73 101 139 189 246 313 394 468
#     4  11  25  47  80 114 163 207 262 315 384 454
#     4  12  26  49  68 103 143 193 252 325 397 476
#
# _framework density 23.309182
#
# number of rings (size 3 to 8) (size 9 to 14) (size 15 to 20)
#    0.000    0.500    2.500    4.500    8.750    2.000 
#    0.000    0.000    0.000    0.000    0.000    0.000 
#    0.000    0.000    0.000    0.000    0.000    0.000 
#
# Total GULP energy -89450.077783 kJ/mol
# GULP energy per Si atom -5590.629861 kJ/mol
# Density = 2.325613 g / cm^3
# Si number density = 23.309182 Si / 1000 Ang^3
#
#
#
# Elastic Constant Matrix: (Units=GPa)
#
#
# Indices 1 2 3 4 5 6 
#
# 1 168.2653 52.2183 61.1734 11.1409 4.0801 -10.3524
# 2 52.2183 77.0118 38.4649 12.4157 6.2254 -4.4062
# 3 61.1734 38.4649 142.9151 26.5058 6.6521 -1.1769
# 4 11.1409 12.4157 26.5058 37.7700 4.9083 3.8259
# 5 4.0801 6.2254 6.6521 4.9083 31.9923 2.0154
# 6 -10.3524 -4.4062 -1.1769 3.8259 2.0154 39.0842
#
#
#
# Elastic Compliance Matrix: (Units=1/GPa)
#
#
# Indices 1 2 3 4 5 6 
#
# 1 0.008248 -0.004381 -0.002447 0.000550 0.000127 0.001557
# 2 -0.004381 0.017782 -0.002286 -0.002797 -0.002070 0.001156
# 3 -0.002447 -0.002286 0.009650 -0.005234 -0.000442 -0.000080
# 4 0.000550 -0.002797 -0.005234 0.031638 -0.003086 -0.003265
# 5 0.000127 -0.002070 -0.000442 -0.003086 0.032309 -0.001577
# 6 0.001557 0.001156 -0.000080 -0.003265 -0.001577 0.026527
#
#
# Mechanical properties :
#
#
# Convention : Reuss Voigt Hill
#
# Bulk Modulus (GPa) = 57.29582 76.87837 67.08709
# Shear Modulus (GPa) = 33.28941 37.52500 35.40720
#
# Velocity S-wave (km/s) = 3.78321 4.01668 3.90169
# Velocity P-wave (km/s) = 6.61194 7.38683 7.01010
#
# Compressibility (1/GPa) = 0.01745328
#
# Stress axis : x y z
#
# Youngs Moduli (GPa) = 121.23844 56.23821 103.62410
#
# Poissons Ratio (x) = 0.24635 0.25353
# Poissons Ratio (y) = 0.53109 0.23690
# Poissons Ratio (z) = 0.29662 0.12857
#
# Static dielectric constant tensor:
#      x y z
#    x 1.885580 0.032880 -0.066220 
#    y 0.032880 1.938740 -0.006800 
#    z -0.066220 -0.006800 1.938670 
# 
# From -- ./inp_files/125896.got.cif
#   From: 2010.05.17/outbox.cif.g08.bks.cpg/sg2_63_cif.got.tgz:125896.got - 2010.06.03 11:33:40.
