data_PCOD9066713
_publ_section_title
;
Structure prediction by ZEFSAII (Michael W. Deem and Ramdas Pophale) SiO2 
 PCOD9066713
Probable space group: P -1
;
_chemical_formula_sum "Si O2"
_cell_formula_units_Z 15
_cell_length_a 17.477403
_cell_length_b 11.970186
_cell_length_c 8.879265
_cell_angle_alpha 96.050797
_cell_angle_beta 106.564801
_cell_angle_gamma 149.986862
_cell_volume 604.109812
_symmetry_space_group_name_H-M "P -1"
_symmetry_group_IT_number 2
_symmetry_cell_setting 'triclinic'
loop_
_space_group_symop_operation_xyz
x,y,z
-x,-y,-z
loop_
_atom_site_type_symbol
_atom_site_label
_atom_site_fract_x
_atom_site_fract_y
_atom_site_fract_z
Si Si1 0.208706 0.491314 0.116057
Si Si2 0.477894 0.761512 0.771501
Si Si3 0.069499 0.212398 0.710309
Si Si4 0.700050 0.084332 0.359652
Si Si5 0.732734 0.869654 0.241592
Si Si6 0.001719 0.578446 0.861954
Si Si7 0.937529 0.812792 0.743444
Si Si8 0.500000 0.000000 0.000000
O O1 0.046865 0.188648 0.072310
O O2 0.170450 0.549482 0.202887
O O3 0.467753 0.788096 0.288644
O O4 0.129689 0.393659 0.883051
O O5 0.333485 0.548544 0.509110
O O6 0.285381 0.481722 0.755150
O O7 0.725024 0.026766 0.949379
O O8 0.521179 0.949707 0.852946
O O9 0.839036 0.941315 0.452910
O O10 0.043279 0.065465 0.769437
O O11 0.656288 0.112299 0.201050
O O12 0.907050 0.394291 0.631775
O O13 0.712067 0.971964 0.291660
O O14 0.500000 0.500000 0.000000
O O15 0.932000 0.113949 0.262882
O O16 0.000000 0.500000 0.000000
#
# Coordination Sequence:
#
# PCOD9066713 Si02
#       8
#     2   2   2   2   2   2   2   1
#     4  12  25  48  70 112 151 201 253 311 385 446
#     4  11  25  46  74 108 149 202 250 314 373 453
#     4  11  25  50  76 108 157 201 249 317 382 455
#     4  12  27  48  76 111 156 206 253 317 383 453
#     4  11  26  47  78 113 144 199 265 314 375 458
#     4  12  27  47  75 113 156 201 258 313 385 463
#     4  11  26  46  78 109 156 197 249 319 387 448
#     4  12  26  44  74  98 154 190 258 300 378 426
#
# _framework density 24.829923000000001
#
# number of rings (size 3 to 8) (size 9 to 14) (size 15 to 20)
#    0.000    0.533    1.333    6.400    7.467    0.533 
#    0.000    2.000    0.000    0.000    0.000    0.000 
#    0.000    0.000    0.000    0.000    0.000    0.000 
#
# Total GULP energy -83761.640052 kJ/mol
# GULP energy per Si atom -5584.109337 kJ/mol
# Density = 2.477341 g / cm^3
# Si number density = 24.829923 Si / 1000 Ang^3
#
#
#
# Elastic Constant Matrix: (Units=GPa)
#
#
# Indices 1 2 3 4 5 6 
#
# 1 185.3754 49.0357 46.7083 5.1235 6.5583 5.3689
# 2 49.0357 94.0260 44.4041 -9.7132 11.9436 12.0361
# 3 46.7083 44.4041 152.3098 9.2195 -5.9372 5.4253
# 4 5.1235 -9.7132 9.2195 41.7511 0.5353 5.7982
# 5 6.5583 11.9436 -5.9372 0.5353 41.8859 -0.4404
# 6 5.3689 12.0361 5.4253 5.7982 -0.4404 37.8584
#
#
#
# Elastic Compliance Matrix: (Units=1/GPa)
#
#
# Indices 1 2 3 4 5 6 
#
# 1 0.006500 -0.003047 -0.001050 -0.001326 -0.000277 0.000397
# 2 -0.003047 0.015998 -0.004086 0.005755 -0.004790 -0.005005
# 3 -0.001050 -0.004086 0.008322 -0.002791 0.002552 0.000713
# 4 -0.001326 0.005755 -0.002791 0.026845 -0.002228 -0.005379
# 5 -0.000277 -0.004790 0.002552 -0.002228 0.025693 0.001837
# 6 0.000397 -0.005005 0.000713 -0.005379 0.001837 0.028692
#
#
# Mechanical properties :
#
#
# Convention : Reuss Voigt Hill
#
# Bulk Modulus (GPa) = 69.18585 79.11192 74.14888
# Shear Modulus (GPa) = 37.52822 43.73663 40.63243
#
# Velocity S-wave (km/s) = 3.89190 4.20151 4.04967
# Velocity P-wave (km/s) = 6.93688 7.44766 7.19680
#
# Compressibility (1/GPa) = 0.01445382
#
# Stress axis : x y z
#
# Youngs Moduli (GPa) = 153.85077 62.50900 120.16544
#
# Poissons Ratio (x) = 0.19045 0.12614
# Poissons Ratio (y) = 0.46874 0.49104
# Poissons Ratio (z) = 0.16150 0.25543
#
# Static dielectric constant tensor:
#      x y z
#    x 1.968820 -0.114560 -0.005640 
#    y -0.114560 2.162620 -0.023710 
#    z -0.005640 -0.023710 2.044910 
# 
# From -- ./inp_files/332093.got.cif
#   From: 2010.05.17/outbox.cif.g08.bks.cpg/sg2_167_cif.got.tgz:332093.got - 2010.06.03 11:33:40.
