data_PCOD9066001
_publ_section_title
;
Structure prediction by ZEFSAII (Michael W. Deem and Ramdas Pophale) SiO2 
 PCOD9066001
Probable space group: P -1
;
_chemical_formula_sum "Si O2"
_cell_formula_units_Z 16
_cell_length_a 11.278190
_cell_length_b 11.557118
_cell_length_c 6.273358
_cell_angle_alpha 61.850281
_cell_angle_beta 88.996685
_cell_angle_gamma 76.644436
_cell_volume 697.475344
_symmetry_space_group_name_H-M "P -1"
_symmetry_group_IT_number 2
_symmetry_cell_setting 'triclinic'
loop_
_space_group_symop_operation_xyz
x,y,z
-x,-y,-z
loop_
_atom_site_type_symbol
_atom_site_label
_atom_site_fract_x
_atom_site_fract_y
_atom_site_fract_z
Si Si1 0.877910 0.440989 0.066344
Si Si2 0.419375 0.147189 0.940718
Si Si3 0.810337 0.772775 0.392489
Si Si4 0.027291 0.733682 0.147490
Si Si5 0.808926 0.217582 0.551791
Si Si6 0.349018 0.333930 0.172706
Si Si7 0.471127 0.638286 0.509974
Si Si8 0.887978 0.939496 0.619252
O O1 0.877372 0.307911 0.323741
O O2 0.753762 0.550489 0.044926
O O3 0.000000 0.500000 0.000000
O O4 0.877424 0.385194 0.874243
O O5 0.284693 0.157114 0.844644
O O6 0.477951 0.253786 0.721870
O O7 0.400606 0.203005 0.135479
O O8 0.500000 0.000000 0.000000
O O9 0.932766 0.687967 0.348084
O O10 0.736743 0.693476 0.609947
O O11 0.843886 0.877494 0.465456
O O12 0.106695 0.812746 0.214195
O O13 0.940231 0.827230 0.894343
O O14 0.673783 0.307914 0.513721
O O15 0.793571 0.075021 0.586380
O O16 0.460378 0.375857 0.250599
O O17 0.500000 0.500000 0.500000
O O18 0.000000 0.000000 0.500000
#
# Coordination Sequence:
#
# PCOD9066001 Si02
#       8
#     2   2   2   2   2   2   2   2
#     4  12  25  44  71 102 140 188 234 291 366 432
#     4  11  27  46  74 105 140 198 249 301 362 428
#     4  11  25  44  71 102 146 184 236 297 360 432
#     4  12  24  43  68 103 141 180 234 290 366 430
#     4  12  27  42  70 104 139 186 239 294 361 430
#     4  11  26  49  72 103 151 191 243 298 358 430
#     4  11  27  48  72 107 148 193 247 301 360 433
#     4  12  24  43  67 105 143 184 232 299 362 425
#
# _framework density 22.939879000000001
#
# number of rings (size 3 to 8) (size 9 to 14) (size 15 to 20)
#    0.000    0.500    2.500    4.875    5.250    8.000 
#    0.000    0.000    0.000    0.000    0.000    0.000 
#    0.000    0.000    0.000    0.000    0.000    0.000 
#
# Total GULP energy -89424.120870 kJ/mol
# GULP energy per Si atom -5589.007554 kJ/mol
# Density = 2.288767 g / cm^3
# Si number density = 22.939879 Si / 1000 Ang^3
#
#
#
# Elastic Constant Matrix: (Units=GPa)
#
#
# Indices 1 2 3 4 5 6 
#
# 1 113.6189 34.5082 37.2907 9.4731 7.1076 -7.4891
# 2 34.5082 164.0101 39.3229 9.0628 12.0266 -14.7938
# 3 37.2907 39.3229 65.1723 14.1223 -0.6576 7.3277
# 4 9.4731 9.0628 14.1223 35.3714 9.0954 0.6453
# 5 7.1076 12.0266 -0.6576 9.0954 41.3689 6.0259
# 6 -7.4891 -14.7938 7.3277 0.6453 6.0259 43.9125
#
#
#
# Elastic Compliance Matrix: (Units=1/GPa)
#
#
# Indices 1 2 3 4 5 6 
#
# 1 0.011503 -0.000299 -0.006878 0.000340 -0.002562 0.003355
# 2 -0.000299 0.007965 -0.005300 0.000885 -0.003115 0.003931
# 3 -0.006878 -0.005300 0.025222 -0.008294 0.006095 -0.007882
# 4 0.000340 0.000885 -0.008294 0.033309 -0.008115 0.002364
# 5 -0.002562 -0.003115 0.006095 -0.008115 0.028313 -0.006270
# 6 0.003355 0.003931 -0.007882 0.002364 -0.006270 0.026810
#
#
# Mechanical properties :
#
#
# Convention : Reuss Voigt Hill
#
# Bulk Modulus (GPa) = 50.66922 62.78278 56.72600
# Shear Modulus (GPa) = 30.36684 39.57584 34.97134
#
# Velocity S-wave (km/s) = 3.64230 4.15806 3.90869
# Velocity P-wave (km/s) = 6.31064 7.10496 6.71955
#
# Compressibility (1/GPa) = 0.01973585
#
# Stress axis : x y z
#
# Youngs Moduli (GPa) = 86.93591 125.54936 39.64835
#
# Poissons Ratio (x) = 0.03760 0.27269
# Poissons Ratio (y) = 0.02604 0.21012
# Poissons Ratio (z) = 0.59792 0.66536
#
# Static dielectric constant tensor:
#      x y z
#    x 1.850460 -0.018500 -0.000960 
#    y -0.018500 1.949820 -0.005750 
#    z -0.000960 -0.005750 1.921080 
# 
# From -- ./inp_files/69187.got.cif
#   From: 2010.05.17/outbox.cif.g08.bks.cpg/sg2_35_cif.got.tgz:69187.got - 2010.06.03 11:33:40.
