data_PCOD9066192
_publ_section_title
;
Structure prediction by ZEFSAII (Michael W. Deem and Ramdas Pophale) SiO2 
 PCOD9066192
Probable space group: P -1
;
_chemical_formula_sum "Si O2"
_cell_formula_units_Z 16
_cell_length_a 9.822616
_cell_length_b 12.172478
_cell_length_c 19.364121
_cell_angle_alpha 45.731407
_cell_angle_beta 27.870168
_cell_angle_gamma 51.945552
_cell_volume 775.024280
_symmetry_space_group_name_H-M "P -1"
_symmetry_group_IT_number 2
_symmetry_cell_setting 'triclinic'
loop_
_space_group_symop_operation_xyz
x,y,z
-x,-y,-z
loop_
_atom_site_type_symbol
_atom_site_label
_atom_site_fract_x
_atom_site_fract_y
_atom_site_fract_z
Si Si1 0.962525 0.054971 0.307396
Si Si2 0.693674 0.656148 0.020297
Si Si3 0.410566 0.609463 0.429491
Si Si4 0.672874 0.874208 0.389890
Si Si5 0.246026 0.951826 0.357808
Si Si6 0.025672 0.563713 0.382201
Si Si7 0.934501 0.614470 0.085433
Si Si8 0.780393 0.079675 0.116073
O O1 0.671826 0.130960 0.437051
O O2 0.840680 0.965154 0.335567
O O3 0.107827 0.945670 0.346731
O O4 0.206120 0.178784 0.124203
O O5 0.352446 0.618477 0.195186
O O6 0.820954 0.648233 0.044386
O O7 0.853747 0.530010 0.956287
O O8 0.500000 0.500000 0.500000
O O9 0.391060 0.787908 0.380202
O O10 0.654695 0.587353 0.270821
O O11 0.096996 0.564033 0.558845
O O12 0.810955 0.706573 0.402717
O O13 0.725937 0.970388 0.254475
O O14 0.485304 0.084347 0.202229
O O15 0.000000 0.000000 0.500000
O O16 0.000000 0.500000 0.500000
O O17 0.104103 0.759221 0.978063
O O18 0.000000 0.000000 0.000000
#
# Coordination Sequence:
#
# PCOD9066192 Si02
#       8
#     2   2   2   2   2   2   2   2
#     4  11  25  45  72 102 140 184 238 294 354 420
#     4  11  26  44  73 105 140 185 240 299 345 425
#     4  12  27  48  71 101 149 191 230 289 363 425
#     4  11  25  45  71 101 138 188 236 291 358 423
#     4  12  27  45  71 107 143 189 238 295 355 428
#     4  12  26  43  71 102 137 181 240 288 349 420
#     4  11  25  47  70 103 143 189 235 293 357 420
#     4  12  25  46  71 101 141 185 233 289 359 419
#
# _framework density 20.644515999999999
#
# number of rings (size 3 to 8) (size 9 to 14) (size 15 to 20)
#    0.000    0.500    5.000    2.250    7.000    0.500 
#    0.000    1.250    0.000    0.000    0.000    0.000 
#    0.000    0.000    0.000    0.000    0.000    0.000 
#
# Total GULP energy -89487.918924 kJ/mol
# GULP energy per Si atom -5592.994933 kJ/mol
# Density = 2.059753 g / cm^3
# Si number density = 20.644516 Si / 1000 Ang^3
#
#
#
# Elastic Constant Matrix: (Units=GPa)
#
#
# Indices 1 2 3 4 5 6 
#
# 1 101.1982 10.7817 22.8784 -8.0545 -7.5016 7.3260
# 2 10.7817 80.8112 19.8781 -3.6453 -0.0761 9.4923
# 3 22.8784 19.8781 124.3825 0.7824 -14.1824 9.0090
# 4 -8.0545 -3.6453 0.7824 34.9198 4.6579 0.2830
# 5 -7.5016 -0.0761 -14.1824 4.6579 49.9413 -6.9627
# 6 7.3260 9.4923 9.0090 0.2830 -6.9627 36.6285
#
#
#
# Elastic Compliance Matrix: (Units=1/GPa)
#
#
# Indices 1 2 3 4 5 6 
#
# 1 0.010681 -0.000740 -0.001678 0.002341 0.000711 -0.001415
# 2 -0.000740 0.013373 -0.001924 0.001454 -0.001203 -0.003084
# 3 -0.001678 -0.001924 0.008989 -0.001084 0.002268 -0.000937
# 4 0.002341 0.001454 -0.001084 0.029753 -0.002919 -0.001363
# 5 0.000711 -0.001203 0.002268 -0.002919 0.021565 0.003733
# 6 -0.001415 -0.003084 -0.000937 -0.001363 0.003733 0.029334
#
#
# Mechanical properties :
#
#
# Convention : Reuss Voigt Hill
#
# Bulk Modulus (GPa) = 41.05017 45.94092 43.49554
# Shear Modulus (GPa) = 38.31426 41.15483 39.73455
#
# Velocity S-wave (km/s) = 4.31270 4.46971 4.39190
# Velocity P-wave (km/s) = 6.68779 6.99567 6.84346
#
# Compressibility (1/GPa) = 0.02436044
#
# Stress axis : x y z
#
# Youngs Moduli (GPa) = 93.62305 74.77603 111.24587
#
# Poissons Ratio (x) = 0.05533 0.18662
# Poissons Ratio (y) = 0.06928 0.21404
# Poissons Ratio (z) = 0.15705 0.14387
#
# Static dielectric constant tensor:
#      x y z
#    x 1.728990 0.009850 -0.007820 
#    y 0.009850 1.710470 -0.021430 
#    z -0.007820 -0.021430 1.696270 
# 
# From -- ./inp_files/559738.got.cif
#   From: 2010.05.17/outbox.cif.g08.bks.cpg/sg2_280_cif.got.tgz:559738.got - 2010.06.03 11:33:40.
