data_PCOD9066809
_publ_section_title
;
Structure prediction by ZEFSAII (Michael W. Deem and Ramdas Pophale) SiO2 
 PCOD9066809
Probable space group: P -1
;
_chemical_formula_sum "Si O2"
_cell_formula_units_Z 15
_cell_length_a 13.736558
_cell_length_b 5.052446
_cell_length_c 9.633753
_cell_angle_alpha 76.821931
_cell_angle_beta 103.413255
_cell_angle_gamma 110.753881
_cell_volume 600.311890
_symmetry_space_group_name_H-M "P -1"
_symmetry_group_IT_number 2
_symmetry_cell_setting 'triclinic'
loop_
_space_group_symop_operation_xyz
x,y,z
-x,-y,-z
loop_
_atom_site_type_symbol
_atom_site_label
_atom_site_fract_x
_atom_site_fract_y
_atom_site_fract_z
Si Si1 0.068992 0.110144 0.802215
Si Si2 0.537883 0.390085 0.166118
Si Si3 0.229949 0.513380 0.348756
Si Si4 0.000000 0.000000 0.500000
Si Si5 0.854930 0.355982 0.418736
Si Si6 0.907857 0.249992 0.925482
Si Si7 0.372704 0.137357 0.383783
Si Si8 0.366580 0.083744 0.690934
O O1 0.038418 0.926298 0.675490
O O2 0.123215 0.429477 0.728378
O O3 0.964476 0.103289 0.851622
O O4 0.138603 0.984981 0.942539
O O5 0.445650 0.287368 0.262997
O O6 0.626337 0.646996 0.243256
O O7 0.580148 0.123240 0.189716
O O8 0.500000 0.500000 0.000000
O O9 0.160343 0.445552 0.476923
O O10 0.168326 0.612343 0.195193
O O11 0.275891 0.266751 0.347317
O O12 0.326350 0.797217 0.384349
O O13 0.937707 0.209598 0.521467
O O14 0.749333 0.104276 0.373224
O O15 0.000000 0.500000 0.000000
O O16 0.423725 0.181607 0.549124
#
# Coordination Sequence:
#
# PCOD9066809 Si02
#       8
#     2   2   2   1   2   2   2   2
#     4  11  26  42  70  99 141 198 246 302 364 429
#     4  12  26  50  75 109 150 185 233 309 379 436
#     4  11  26  45  74 104 148 188 252 298 365 443
#     4  12  24  44  72 102 150 188 258 296 368 416
#     4  11  26  43  72 109 140 195 245 313 352 433
#     4  11  26  46  64 100 147 199 240 302 369 438
#     4  11  25  48  76 107 137 196 238 301 365 445
#     4  11  25  46  78 106 145 188 249 292 364 452
#
# _framework density 24.987010999999999
#
# number of rings (size 3 to 8) (size 9 to 14) (size 15 to 20)
#    0.000    0.800    1.333    4.800   11.200    1.067 
#    4.800    0.000    0.000    0.000    0.000    0.000 
#    0.000    0.000    0.000    0.000    0.000    0.000 
#
# Total GULP energy -83921.795678 kJ/mol
# GULP energy per Si atom -5594.786379 kJ/mol
# Density = 2.493014 g / cm^3
# Si number density = 24.987011 Si / 1000 Ang^3
#
#
#
# Elastic Constant Matrix: (Units=GPa)
#
#
# Indices 1 2 3 4 5 6 
#
# 1 68.1544 5.4906 14.8694 -25.1713 9.5525 -11.9528
# 2 5.4906 72.1164 17.7738 -14.0843 -5.1091 -1.8374
# 3 14.8694 17.7738 170.9607 -35.4763 4.6684 7.7027
# 4 -25.1713 -14.0843 -35.4763 58.2019 -7.6421 4.2996
# 5 9.5525 -5.1091 4.6684 -7.6421 36.0385 -7.2476
# 6 -11.9528 -1.8374 7.7027 4.2996 -7.2476 33.5337
#
#
#
# Elastic Compliance Matrix: (Units=1/GPa)
#
#
# Indices 1 2 3 4 5 6 
#
# 1 0.018645 0.000032 -0.000309 0.007189 -0.002308 0.005298
# 2 0.000032 0.015034 -0.001018 0.003358 0.003236 0.001338
# 3 -0.000309 -0.001018 0.006923 0.003937 -0.000605 -0.002392
# 4 0.007189 0.003358 0.003937 0.023942 0.003022 -0.000575
# 5 -0.002308 0.003236 -0.000605 0.003022 0.030692 0.005740
# 6 0.005298 0.001338 -0.002392 -0.000575 0.005740 0.033646
#
#
# Mechanical properties :
#
#
# Convention : Reuss Voigt Hill
#
# Bulk Modulus (GPa) = 26.30673 43.05546 34.68110
# Shear Modulus (GPa) = 34.68782 43.76133 39.22457
#
# Velocity S-wave (km/s) = 3.72994 4.18947 3.96637
# Velocity P-wave (km/s) = 5.39453 6.37736 5.90643
#
# Compressibility (1/GPa) = 0.03801308
#
# Stress axis : x y z
#
# Youngs Moduli (GPa) = 53.63372 66.51628 144.43968
#
# Poissons Ratio (x) = -0.00213 0.04462
# Poissons Ratio (y) = -0.00172 0.14699
# Poissons Ratio (z) = 0.01657 0.06769
#
# Static dielectric constant tensor:
#      x y z
#    x 2.042810 -0.008880 -0.063280 
#    y -0.008880 1.901770 -0.008860 
#    z -0.063280 -0.008860 1.941800 
# 
# From -- ./inp_files/287781.got.cif
#   From: 2010.05.17/outbox.cif.g08.bks.cpg/sg2_144_cif.got.tgz:287781.got - 2010.06.03 11:33:40.
