data_PCOD9066808
_publ_section_title
;
Structure prediction by ZEFSAII (Michael W. Deem and Ramdas Pophale) SiO2 
 PCOD9066808
Probable space group: P -1
;
_chemical_formula_sum "Si O2"
_cell_formula_units_Z 14
_cell_length_a 9.549549
_cell_length_b 18.459842
_cell_length_c 9.135557
_cell_angle_alpha 35.307633
_cell_angle_beta 131.549435
_cell_angle_gamma 143.110494
_cell_volume 558.464466
_symmetry_space_group_name_H-M "P -1"
_symmetry_group_IT_number 2
_symmetry_cell_setting 'triclinic'
loop_
_space_group_symop_operation_xyz
x,y,z
-x,-y,-z
loop_
_atom_site_type_symbol
_atom_site_label
_atom_site_fract_x
_atom_site_fract_y
_atom_site_fract_z
Si Si1 0.067468 0.948674 0.820404
Si Si2 0.300949 0.501747 0.778632
Si Si3 0.960175 0.153496 0.573212
Si Si4 0.389550 0.992034 0.201923
Si Si5 0.146406 0.684549 0.017139
Si Si6 0.391499 0.166490 0.432456
Si Si7 0.740872 0.552650 0.508275
O O1 0.212472 0.021657 0.652641
O O2 0.086070 0.089076 0.687211
O O3 0.207693 0.907831 0.082208
O O4 0.792454 0.822326 0.804631
O O5 0.411670 0.682618 0.590100
O O6 0.281047 0.469456 0.645662
O O7 0.500000 0.500000 0.000000
O O8 0.054476 0.388528 0.878157
O O9 0.918188 0.244811 0.274024
O O10 0.091825 0.274168 0.597237
O O11 0.736884 0.007133 0.743261
O O12 0.598089 0.164468 0.009270
O O13 0.483133 0.892327 0.472302
O O14 0.174218 0.551017 0.209913
O O15 0.500000 0.500000 0.500000
#
# Coordination Sequence:
#
# PCOD9066808 Si02
#       7
#     2   2   2   2   2   2   2
#     4  11  25  46  77 113 147 198 251 313 376 456
#     4  12  28  50  78 110 152 202 252 314 380 455
#     4  12  26  50  72 112 151 198 252 315 380 446
#     4  12  26  46  79 107 153 196 258 312 380 442
#     4  12  26  50  75 109 156 198 255 313 380 457
#     4  11  25  47  76 108 153 192 256 306 381 450
#     4  12  27  47  77 113 153 197 253 310 386 453
#
# _framework density 25.068739999999998
#
# number of rings (size 3 to 8) (size 9 to 14) (size 15 to 20)
#    0.000    0.286    1.429    7.286    4.000    2.286 
#    0.000    0.000    0.000    0.000    0.000    0.000 
#    0.000    0.000    0.000    0.000    0.000    0.000 
#
# Total GULP energy -78422.450683 kJ/mol
# GULP energy per Si atom -5601.603620 kJ/mol
# Density = 2.501168 g / cm^3
# Si number density = 25.068740 Si / 1000 Ang^3
#
#
#
# Elastic Constant Matrix: (Units=GPa)
#
#
# Indices 1 2 3 4 5 6 
#
# 1 101.6117 37.7865 8.6058 -2.7109 1.0730 16.4613
# 2 37.7865 154.8754 39.8349 11.7297 -17.1128 -7.4800
# 3 8.6058 39.8349 48.1560 4.9069 -5.9823 16.6111
# 4 -2.7109 11.7297 4.9069 39.9082 -6.0011 3.1650
# 5 1.0730 -17.1128 -5.9823 -6.0011 38.4778 -5.6946
# 6 16.4613 -7.4800 16.6111 3.1650 -5.6946 46.3741
#
#
#
# Elastic Compliance Matrix: (Units=1/GPa)
#
#
# Indices 1 2 3 4 5 6 
#
# 1 0.012505 -0.004737 0.003548 0.001960 -0.002623 -0.006930
# 2 -0.004737 0.011365 -0.010527 -0.002344 0.004366 0.007981
# 3 0.003548 -0.010527 0.033894 0.000118 -0.001760 -0.015322
# 4 0.001960 -0.002344 0.000118 0.026472 0.002666 -0.002596
# 5 -0.002623 0.004366 -0.001760 0.002666 0.028981 0.005643
# 6 -0.006930 0.007981 -0.015322 -0.002596 0.005643 0.031669
#
#
# Mechanical properties :
#
#
# Convention : Reuss Voigt Hill
#
# Bulk Modulus (GPa) = 29.12579 53.01083 41.06831
# Shear Modulus (GPa) = 27.81445 39.51309 33.66377
#
# Velocity S-wave (km/s) = 3.33457 3.97443 3.66848
# Velocity P-wave (km/s) = 5.14484 6.50028 5.86187
#
# Compressibility (1/GPa) = 0.03433383
#
# Stress axis : x y z
#
# Youngs Moduli (GPa) = 79.96862 87.98593 29.50339
#
# Poissons Ratio (x) = 0.41675 -0.10468
# Poissons Ratio (y) = 0.37878 0.31058
# Poissons Ratio (z) = -0.28374 0.92623
#
# Static dielectric constant tensor:
#      x y z
#    x 1.926200 0.051630 0.007830 
#    y 0.051630 2.049830 -0.018200 
#    z 0.007830 -0.018200 2.008910 
# 
# From -- ./inp_files/214174.got.cif
#   From: 2010.05.17/outbox.cif.g08.bks.cpg/sg2_108_cif.got.tgz:214174.got - 2010.06.03 11:33:40.
