data_PCOD9066535
_publ_section_title
;
Structure prediction by ZEFSAII (Michael W. Deem and Ramdas Pophale) SiO2 
 PCOD9066535
Probable space group: P -1
;
_chemical_formula_sum "Si O2"
_cell_formula_units_Z 16
_cell_length_a 11.793883
_cell_length_b 9.388495
_cell_length_c 9.537386
_cell_angle_alpha 59.073968
_cell_angle_beta 104.945825
_cell_angle_gamma 67.489068
_cell_volume 685.441275
_symmetry_space_group_name_H-M "P -1"
_symmetry_group_IT_number 2
_symmetry_cell_setting 'triclinic'
loop_
_space_group_symop_operation_xyz
x,y,z
-x,-y,-z
loop_
_atom_site_type_symbol
_atom_site_label
_atom_site_fract_x
_atom_site_fract_y
_atom_site_fract_z
Si Si1 0.176043 0.443922 0.777035
Si Si2 0.684389 0.221405 0.725160
Si Si3 0.092830 0.147364 0.832527
Si Si4 0.906236 0.931766 0.436595
Si Si5 0.234347 0.486579 0.363263
Si Si6 0.309144 0.300913 0.198334
Si Si7 0.633948 0.119694 0.465205
Si Si8 0.565605 0.785061 0.212349
O O1 0.162106 0.271088 0.797305
O O2 0.310230 0.409294 0.749047
O O3 0.018030 0.675338 0.605216
O O4 0.231546 0.385534 0.982681
O O5 0.674627 0.422257 0.657277
O O6 0.660993 0.218552 0.554066
O O7 0.568017 0.214676 0.781063
O O8 0.844210 0.010477 0.935768
O O9 0.128685 0.020293 0.764201
O O10 0.917005 0.337326 0.694332
O O11 0.757464 0.037638 0.426619
O O12 0.000000 0.000000 0.500000
O O13 0.204353 0.454408 0.213624
O O14 0.338835 0.262668 0.591427
O O15 0.465593 0.263396 0.278412
O O16 0.343649 0.079247 0.353672
O O17 0.500000 0.000000 0.000000
#
# Coordination Sequence:
#
# PCOD9066535 Si02
#       8
#     2   2   2   2   2   2   2   2
#     4  12  27  47  72 105 142 190 244 291 356 432
#     4  12  26  47  75 108 142 190 239 297 363 419
#     4  12  26  48  73 103 142 196 237 290 362 435
#     4  12  29  46  70 104 149 185 234 299 361 422
#     4  12  27  46  75 104 145 185 244 299 355 425
#     4  11  26  44  72 105 136 186 235 296 351 417
#     4  11  25  46  71 101 144 182 232 295 355 425
#     4  12  25  47  75 103 144 192 244 293 350 434
#
# _framework density 23.342625999999999
#
# number of rings (size 3 to 8) (size 9 to 14) (size 15 to 20)
#    0.000    0.250    5.000    2.625    8.750    1.000 
#    0.000    1.250    0.000    0.000    0.000    0.000 
#    0.000    0.000    0.000    0.000    0.000    0.000 
#
# Total GULP energy -89650.316299 kJ/mol
# GULP energy per Si atom -5603.144769 kJ/mol
# Density = 2.328950 g / cm^3
# Si number density = 23.342626 Si / 1000 Ang^3
#
#
#
# Elastic Constant Matrix: (Units=GPa)
#
#
# Indices 1 2 3 4 5 6 
#
# 1 91.9244 18.5699 34.8019 7.3464 -4.9062 -22.5159
# 2 18.5699 85.6077 18.5958 22.1268 -5.9498 -1.2239
# 3 34.8019 18.5958 91.4647 11.4523 10.8582 -2.4821
# 4 7.3464 22.1268 11.4523 50.3270 -3.9666 1.8377
# 5 -4.9062 -5.9498 10.8582 -3.9666 20.7635 3.0940
# 6 -22.5159 -1.2239 -2.4821 1.8377 3.0940 44.3119
#
#
#
# Elastic Compliance Matrix: (Units=1/GPa)
#
#
# Indices 1 2 3 4 5 6 
#
# 1 0.015503 -0.001577 -0.006006 -0.000047 0.005280 0.007131
# 2 -0.001577 0.014069 -0.002088 -0.005155 0.003853 -0.000585
# 3 -0.006006 -0.002088 0.015109 -0.002391 -0.010158 -0.001455
# 4 -0.000047 -0.005155 -0.002391 0.023092 0.004407 -0.001566
# 5 0.005280 0.003853 -0.010158 0.004407 0.056956 -0.001939
# 6 0.007131 -0.000585 -0.001455 -0.001566 -0.001939 0.026293
#
#
# Mechanical properties :
#
#
# Convention : Reuss Voigt Hill
#
# Bulk Modulus (GPa) = 39.46539 45.88134 42.67336
# Shear Modulus (GPa) = 27.96268 36.21577 32.08922
#
# Velocity S-wave (km/s) = 3.46486 3.94316 3.71172
# Velocity P-wave (km/s) = 5.74027 6.35843 6.05724
#
# Compressibility (1/GPa) = 0.02533866
#
# Stress axis : x y z
#
# Youngs Moduli (GPa) = 64.50382 71.07968 66.18737
#
# Poissons Ratio (x) = 0.11211 0.39749
# Poissons Ratio (y) = 0.10174 0.13820
# Poissons Ratio (z) = 0.38738 0.14842
#
# Static dielectric constant tensor:
#      x y z
#    x 1.917620 0.011880 0.019560 
#    y 0.011880 1.860360 0.002780 
#    z 0.019560 0.002780 1.884660 
# 
# From -- ./inp_files/243117.got.cif
#   From: 2010.05.17/outbox.cif.g08.bks.cpg/sg2_122_cif.got.tgz:243117.got - 2010.06.03 11:33:40.
