data_PCOD9066970
_publ_section_title
;
Structure prediction by ZEFSAII (Michael W. Deem and Ramdas Pophale) SiO2 
 PCOD9066970
Probable space group: P -1
;
_chemical_formula_sum "Si O2"
_cell_formula_units_Z 16
_cell_length_a 14.992676
_cell_length_b 8.699734
_cell_length_c 5.792278
_cell_angle_alpha 102.639357
_cell_angle_beta 73.510561
_cell_angle_gamma 80.178398
_cell_volume 684.663851
_symmetry_space_group_name_H-M "P -1"
_symmetry_group_IT_number 2
_symmetry_cell_setting 'triclinic'
loop_
_space_group_symop_operation_xyz
x,y,z
-x,-y,-z
loop_
_atom_site_type_symbol
_atom_site_label
_atom_site_fract_x
_atom_site_fract_y
_atom_site_fract_z
Si Si1 0.780412 0.197629 0.522739
Si Si2 0.698732 0.929968 0.349665
Si Si3 0.237941 0.434604 0.926267
Si Si4 0.091832 0.992974 0.273246
Si Si5 0.920874 0.643889 0.724249
Si Si6 0.605773 0.396564 0.954062
Si Si7 0.398068 0.959328 0.039329
Si Si8 0.917341 0.289733 0.129640
O O1 0.812196 0.117400 0.719771
O O2 0.677775 0.325771 0.663177
O O3 0.865186 0.275919 0.405947
O O4 0.771789 0.046348 0.321810
O O5 0.648034 0.983506 0.653457
O O6 0.740300 0.737600 0.273948
O O7 0.645648 0.962174 0.148606
O O8 0.179385 0.400757 0.182845
O O9 0.333310 0.495442 0.921877
O O10 0.159676 0.574839 0.904262
O O11 0.099737 0.176493 0.307359
O O12 0.072406 0.886329 0.041558
O O13 0.000000 0.000000 0.500000
O O14 0.000000 0.500000 0.500000
O O15 0.979849 0.670387 0.919777
O O16 0.595604 0.233978 0.039545
O O17 0.500000 0.500000 0.000000
O O18 0.500000 0.000000 0.000000
#
# Coordination Sequence:
#
# PCOD9066970 Si02
#       8
#     2   2   2   2   2   2   2   2
#     4  11  25  47  74 105 149 200 253 311 383 459
#     4  11  27  44  76 111 147 202 251 315 391 459
#     4  12  26  44  72 110 151 195 254 318 389 454
#     4  12  25  46  75 105 148 201 249 307 384 462
#     4  12  27  43  73 107 156 194 254 314 387 467
#     4  11  25  49  77 109 149 200 257 318 384 455
#     4  11  25  51  77 109 148 195 263 322 386 461
#     4  12  25  47  69 109 147 196 251 311 384 466
#
# _framework density 23.369133000000001
#
# number of rings (size 3 to 8) (size 9 to 14) (size 15 to 20)
#    0.000    0.500    2.500    4.875    8.750    3.000 
#    0.000    3.750    0.000    0.000    0.000    0.000 
#    0.000    0.000    0.000    0.000    0.000    0.000 
#
# Total GULP energy -89363.917582 kJ/mol
# GULP energy per Si atom -5585.244849 kJ/mol
# Density = 2.331594 g / cm^3
# Si number density = 23.369133 Si / 1000 Ang^3
#
#
#
# Elastic Constant Matrix: (Units=GPa)
#
#
# Indices 1 2 3 4 5 6 
#
# 1 135.4566 35.6466 26.5635 3.8396 -2.6052 4.4465
# 2 35.6466 152.5384 47.3902 10.6926 -6.1555 -3.6215
# 3 26.5635 47.3902 86.8042 14.3098 0.9303 1.1394
# 4 3.8396 10.6926 14.3098 42.1077 2.2711 5.3874
# 5 -2.6052 -6.1555 0.9303 2.2711 36.2654 0.5985
# 6 4.4465 -3.6215 1.1394 5.3874 0.5985 45.8331
#
#
#
# Elastic Compliance Matrix: (Units=1/GPa)
#
#
# Indices 1 2 3 4 5 6 
#
# 1 0.008120 -0.001372 -0.001779 0.000306 0.000392 -0.000893
# 2 -0.001372 0.008250 -0.003977 -0.000819 0.001439 0.000961
# 3 -0.001779 -0.003977 0.014878 -0.003826 -0.000944 -0.000049
# 4 0.000306 -0.000819 -0.003826 0.025698 -0.001579 -0.002999
# 5 0.000392 0.001439 -0.000944 -0.001579 0.027971 -0.000081
# 6 -0.000893 0.000961 -0.000049 -0.002999 -0.000081 0.022336
#
#
# Mechanical properties :
#
#
# Convention : Reuss Voigt Hill
#
# Bulk Modulus (GPa) = 58.85116 65.99996 62.42556
# Shear Modulus (GPa) = 39.31629 42.52117 40.91873
#
# Velocity S-wave (km/s) = 4.10616 4.27024 4.18900
# Velocity P-wave (km/s) = 6.90787 7.25375 7.08292
#
# Compressibility (1/GPa) = 0.01699202
#
# Stress axis : x y z
#
# Youngs Moduli (GPa) = 123.14543 121.20750 67.21518
#
# Poissons Ratio (x) = 0.16627 0.11957
# Poissons Ratio (y) = 0.16893 0.26735
# Poissons Ratio (z) = 0.21907 0.48210
#
# Static dielectric constant tensor:
#      x y z
#    x 1.901880 0.032520 0.017050 
#    y 0.032520 1.983220 -0.009600 
#    z 0.017050 -0.009600 1.991190 
# 
# From -- ./inp_files/90698.got.cif
#   From: 2010.05.17/outbox.cif.g08.bks.cpg/sg2_46_cif.got.tgz:90698.got - 2010.06.03 11:33:40.
