data_PCOD9066559
_publ_section_title
;
Structure prediction by ZEFSAII (Michael W. Deem and Ramdas Pophale) SiO2 
 PCOD9066559
Probable space group: P -1
;
_chemical_formula_sum "Si O2"
_cell_formula_units_Z 16
_cell_length_a 9.121849
_cell_length_b 5.420590
_cell_length_c 19.979143
_cell_angle_alpha 60.825347
_cell_angle_beta 49.819183
_cell_angle_gamma 60.025677
_cell_volume 633.130693
_symmetry_space_group_name_H-M "P -1"
_symmetry_group_IT_number 2
_symmetry_cell_setting 'triclinic'
loop_
_space_group_symop_operation_xyz
x,y,z
-x,-y,-z
loop_
_atom_site_type_symbol
_atom_site_label
_atom_site_fract_x
_atom_site_fract_y
_atom_site_fract_z
Si Si1 0.380604 0.802815 0.646537
Si Si2 0.885430 0.791764 0.097009
Si Si3 0.514978 0.065308 0.875559
Si Si4 0.227140 0.232849 0.060651
Si Si5 0.023604 0.183204 0.782259
Si Si6 0.707945 0.291732 0.671740
Si Si7 0.940795 0.667085 0.625930
Si Si8 0.664186 0.193817 0.494013
O O1 0.513088 0.473048 0.664474
O O2 0.294604 0.880612 0.586900
O O3 0.194264 0.916650 0.734623
O O4 0.547066 0.976457 0.586189
O O5 0.658666 0.940596 0.123986
O O6 0.896939 0.756201 0.177624
O O7 0.019873 0.472146 0.076242
O O8 0.000000 0.000000 0.000000
O O9 0.641570 0.237757 0.773853
O O10 0.657387 0.762509 0.903795
O O11 0.382240 0.223059 0.956842
O O12 0.168161 0.928891 0.128139
O O13 0.990096 0.449417 0.704687
O O14 0.861839 0.488111 0.614906
O O15 0.795675 0.974319 0.654302
O O16 0.142482 0.752735 0.535716
O O17 0.500000 0.500000 0.500000
#
# Coordination Sequence:
#
# PCOD9066559 Si02
#       8
#     2   2   2   2   2   2   2   2
#     4  11  28  48  80 111 151 200 256 322 388 480
#     4  12  27  43  73 110 149 204 263 322 381 456
#     4  11  25  46  71 106 151 202 260 316 382 456
#     4  11  25  48  68 106 155 203 253 326 382 453
#     4  12  25  49  75 106 151 206 255 314 388 463
#     4  12  29  48  76 117 155 199 262 318 387 465
#     4  12  28  49  77 112 156 201 252 327 392 465
#     4  11  26  51  79 110 148 198 253 315 402 470
#
# _framework density 25.271245
#
# number of rings (size 3 to 8) (size 9 to 14) (size 15 to 20)
#    0.000    0.500    3.750    2.625   10.500    1.500 
#    0.000    0.000    0.000    0.000    0.000    0.000 
#    0.000    0.000    0.000    0.000    0.000    0.000 
#
# Total GULP energy -89551.852690 kJ/mol
# GULP energy per Si atom -5596.990793 kJ/mol
# Density = 2.521373 g / cm^3
# Si number density = 25.271245 Si / 1000 Ang^3
#
#
#
# Elastic Constant Matrix: (Units=GPa)
#
#
# Indices 1 2 3 4 5 6 
#
# 1 107.6530 15.9808 16.3579 -6.0814 3.5348 -5.7606
# 2 15.9808 117.2831 17.9563 -4.7599 -5.9652 -18.1076
# 3 16.3579 17.9563 105.0264 -0.2720 -19.8445 -2.0116
# 4 -6.0814 -4.7599 -0.2720 38.4908 -2.2492 2.3250
# 5 3.5348 -5.9652 -19.8445 -2.2492 43.5200 -9.3253
# 6 -5.7606 -18.1076 -2.0116 2.3250 -9.3253 32.2226
#
#
#
# Elastic Compliance Matrix: (Units=1/GPa)
#
#
# Indices 1 2 3 4 5 6 
#
# 1 0.009841 -0.001030 -0.001625 0.001295 -0.001496 0.000552
# 2 -0.001030 0.009880 -0.000978 0.000829 0.002302 0.005913
# 3 -0.001625 -0.000978 0.010968 -0.000075 0.005291 0.001381
# 4 0.001295 0.000829 -0.000075 0.026407 0.001151 -0.000879
# 5 -0.001496 0.002302 0.005291 0.001151 0.027889 0.009344
# 6 0.000552 0.005913 0.001381 -0.000879 0.009344 0.037310
#
#
# Mechanical properties :
#
#
# Convention : Reuss Voigt Hill
#
# Bulk Modulus (GPa) = 42.69723 47.83917 45.26820
# Shear Modulus (GPa) = 36.39790 41.49119 38.94454
#
# Velocity S-wave (km/s) = 3.79923 4.05635 3.92989
# Velocity P-wave (km/s) = 6.01480 6.39609 6.20837
#
# Compressibility (1/GPa) = 0.02342072
#
# Stress axis : x y z
#
# Youngs Moduli (GPa) = 101.61690 101.21198 91.17552
#
# Poissons Ratio (x) = 0.10428 0.14819
# Poissons Ratio (y) = 0.10470 0.08921
# Poissons Ratio (z) = 0.16517 0.09903
#
# Static dielectric constant tensor:
#      x y z
#    x 2.121940 -0.000610 0.033200 
#    y -0.000610 2.033730 -0.031020 
#    z 0.033200 -0.031020 2.042160 
# 
# From -- ./inp_files/585525.got.cif
#   From: 2010.05.17/outbox.cif.g08.bks.cpg/sg2_293_cif.got.tgz:585525.got - 2010.06.03 11:33:40.
