data_PCOD9066232
_publ_section_title
;
Structure prediction by ZEFSAII (Michael W. Deem and Ramdas Pophale) SiO2 
 PCOD9066232
Probable space group: P -1
;
_chemical_formula_sum "Si O2"
_cell_formula_units_Z 14
_cell_length_a 16.704900
_cell_length_b 6.746549
_cell_length_c 9.674632
_cell_angle_alpha 48.434267
_cell_angle_beta 57.067768
_cell_angle_gamma 58.802918
_cell_volume 662.874009
_symmetry_space_group_name_H-M "P -1"
_symmetry_group_IT_number 2
_symmetry_cell_setting 'triclinic'
loop_
_space_group_symop_operation_xyz
x,y,z
-x,-y,-z
loop_
_atom_site_type_symbol
_atom_site_label
_atom_site_fract_x
_atom_site_fract_y
_atom_site_fract_z
Si Si1 0.961461 0.821427 0.857212
Si Si2 0.598027 0.080445 0.922246
Si Si3 0.383647 0.887601 0.792488
Si Si4 0.539985 0.576462 0.573003
Si Si5 0.836781 0.065054 0.120437
Si Si6 0.911071 0.773648 0.461750
Si Si7 0.805317 0.692442 0.868662
O O1 0.872067 0.845365 0.823868
O O2 0.042031 0.974185 0.658099
O O3 0.000000 0.500000 0.000000
O O4 0.918533 0.969736 0.970553
O O5 0.612039 0.314366 0.696327
O O6 0.691537 0.823706 0.944426
O O7 0.590847 0.185589 0.037859
O O8 0.500000 0.000000 0.000000
O O9 0.451066 0.679011 0.718302
O O10 0.269683 0.918869 0.852560
O O11 0.409143 0.177641 0.610592
O O12 0.500000 0.500000 0.500000
O O13 0.861596 0.857534 0.320915
O O14 0.834140 0.372375 0.027062
O O15 0.832899 0.724814 0.668795
O O16 0.000000 0.500000 0.500000
#
# Coordination Sequence:
#
# PCOD9066232 Si02
#       7
#     2   2   2   2   2   2   2
#     4  12  24  48  74 101 145 192 238 300 366 428
#     4  12  25  46  74 103 145 191 243 296 362 442
#     4  11  26  45  71 104 141 193 234 304 364 426
#     4  11  25  45  72 103 143 186 240 296 365 426
#     4  12  26  46  71 105 148 183 242 297 371 426
#     4  12  26  46  74 105 147 189 242 307 360 434
#     4  12  27  45  73 108 142 194 243 298 364 433
#
# _framework density 21.120152000000001
#
# number of rings (size 3 to 8) (size 9 to 14) (size 15 to 20)
#    0.000    0.286    5.714    3.000    2.000    3.429 
#    0.000    0.000    0.000    0.000    0.000    0.000 
#    0.000    0.000    0.000    0.000    0.000    0.000 
#
# Total GULP energy -78382.183759 kJ/mol
# GULP energy per Si atom -5598.727411 kJ/mol
# Density = 2.107208 g / cm^3
# Si number density = 21.120152 Si / 1000 Ang^3
#
#
#
# Elastic Constant Matrix: (Units=GPa)
#
#
# Indices 1 2 3 4 5 6 
#
# 1 109.6755 14.2039 14.7930 8.5292 10.8143 13.5642
# 2 14.2039 102.6979 18.0250 1.1895 9.6971 -2.1896
# 3 14.7930 18.0250 85.0011 2.8135 25.7638 4.7979
# 4 8.5292 1.1895 2.8135 46.3017 4.0109 2.8012
# 5 10.8143 9.6971 25.7638 4.0109 44.8500 3.6818
# 6 13.5642 -2.1896 4.7979 2.8012 3.6818 32.4548
#
#
#
# Elastic Compliance Matrix: (Units=1/GPa)
#
#
# Indices 1 2 3 4 5 6 
#
# 1 0.010106 -0.001197 -0.000863 -0.001435 -0.001233 -0.003913
# 2 -0.001197 0.010344 -0.001750 0.000059 -0.001078 0.001574
# 3 -0.000863 -0.001750 0.014701 0.000048 -0.007776 -0.001053
# 4 -0.001435 0.000059 0.000048 0.022062 -0.001575 -0.001129
# 5 -0.001233 -0.001078 -0.007776 -0.001575 0.027549 -0.001397
# 6 -0.003913 0.001574 -0.001053 -0.001129 -0.001397 0.032965
#
#
# Mechanical properties :
#
#
# Convention : Reuss Voigt Hill
#
# Bulk Modulus (GPa) = 36.32037 43.49092 39.90565
# Shear Modulus (GPa) = 37.16806 41.41148 39.28977
#
# Velocity S-wave (km/s) = 4.19959 4.43285 4.31780
# Velocity P-wave (km/s) = 6.38356 6.84376 6.61766
#
# Compressibility (1/GPa) = 0.02753276
#
# Stress axis : x y z
#
# Youngs Moduli (GPa) = 98.94793 96.66976 68.02480
#
# Poissons Ratio (x) = 0.11569 0.05871
# Poissons Ratio (y) = 0.11841 0.11901
# Poissons Ratio (z) = 0.08539 0.16913
#
# Static dielectric constant tensor:
#      x y z
#    x 1.765220 0.008910 0.007480 
#    y 0.008910 1.758130 -0.004450 
#    z 0.007480 -0.004450 1.743110 
# 
# From -- ./inp_files/39060.got.cif
#   From: 2010.05.17/outbox.cif.g08.bks.cpg/sg2_20_cif.got.tgz:39060.got - 2010.06.03 11:33:40.
