data_PCOD9066460
_publ_section_title
;
Structure prediction by ZEFSAII (Michael W. Deem and Ramdas Pophale) SiO2 
 PCOD9066460
Probable space group: P -1
;
_chemical_formula_sum "Si O2"
_cell_formula_units_Z 16
_cell_length_a 11.552405
_cell_length_b 9.371830
_cell_length_c 8.358767
_cell_angle_alpha 90.212506
_cell_angle_beta 57.340403
_cell_angle_gamma 101.944494
_cell_volume 738.965972
_symmetry_space_group_name_H-M "P -1"
_symmetry_group_IT_number 2
_symmetry_cell_setting 'triclinic'
loop_
_space_group_symop_operation_xyz
x,y,z
-x,-y,-z
loop_
_atom_site_type_symbol
_atom_site_label
_atom_site_fract_x
_atom_site_fract_y
_atom_site_fract_z
Si Si1 0.134356 0.618193 0.201225
Si Si2 0.442017 0.652921 0.881418
Si Si3 0.450669 0.573482 0.382742
Si Si4 0.140440 0.946625 0.085732
Si Si5 0.555632 0.936332 0.617056
Si Si6 0.144277 0.625104 0.579191
Si Si7 0.439024 0.156277 0.897977
Si Si8 0.862291 0.050975 0.297567
O O1 0.133878 0.781616 0.144980
O O2 0.144637 0.621859 0.385904
O O3 0.991111 0.499379 0.262186
O O4 0.275785 0.580602 0.025628
O O5 0.533638 0.537675 0.772214
O O6 0.465678 0.774384 0.723749
O O7 0.496798 0.746489 0.998764
O O8 0.500000 0.500000 0.500000
O O9 0.292718 0.593031 0.519986
O O10 0.550400 0.730270 0.257380
O O11 0.148795 0.951531 0.886535
O O12 0.001471 0.998507 0.240312
O O13 0.281605 0.059802 0.042679
O O14 0.500000 0.000000 0.500000
O O15 0.532796 0.044437 0.776420
O O16 0.720372 0.945238 0.473615
O O17 0.133521 0.784817 0.646362
#
# Coordination Sequence:
#
# PCOD9066460 Si02
#       8
#     2   2   2   2   2   2   2   2
#     4  11  25  48  68 104 137 182 227 280 344 408
#     4  12  26  43  72 101 138 180 227 288 337 409
#     4  12  28  45  69 103 138 184 232 281 346 410
#     4  11  27  43  72 101 139 178 230 280 344 407
#     4  12  22  43  72  99 136 178 225 285 339 399
#     4  11  27  46  71  97 145 180 228 281 343 411
#     4  12  24  45  69 101 136 179 232 282 344 401
#     4  11  25  46  66 104 139 179 225 283 340 413
#
# _framework density 21.651878
#
# number of rings (size 3 to 8) (size 9 to 14) (size 15 to 20)
#    0.000    0.500    5.000    1.500    7.000    3.000 
#    0.000    0.000    0.000    0.000    0.000    0.000 
#    0.000    0.000    0.000    0.000    0.000    0.000 
#
# Total GULP energy -89635.418011 kJ/mol
# GULP energy per Si atom -5602.213626 kJ/mol
# Density = 2.160260 g / cm^3
# Si number density = 21.651878 Si / 1000 Ang^3
#
#
#
# Elastic Constant Matrix: (Units=GPa)
#
#
# Indices 1 2 3 4 5 6 
#
# 1 75.2645 -0.2057 31.9577 -2.2978 -22.5045 -1.5234
# 2 -0.2057 66.1805 17.5538 0.4808 -10.3577 4.4891
# 3 31.9577 17.5538 94.3702 -4.7246 -32.6955 6.9580
# 4 -2.2978 0.4808 -4.7246 49.2440 -2.0376 -1.1497
# 5 -22.5045 -10.3577 -32.6955 -2.0376 41.5265 -6.3550
# 6 -1.5234 4.4891 6.9580 -1.1497 -6.3550 31.1650
#
#
#
# Elastic Compliance Matrix: (Units=1/GPa)
#
#
# Indices 1 2 3 4 5 6 
#
# 1 0.017183 0.002008 -0.003851 0.000782 0.007266 0.002921
# 2 0.002008 0.016348 -0.002646 -0.000225 0.002906 -0.001082
# 3 -0.003851 -0.002646 0.015931 0.001744 0.009679 -0.001326
# 4 0.000782 -0.000225 0.001744 0.020658 0.002913 0.001037
# 5 0.007266 0.002906 0.009679 0.002913 0.037349 0.005499
# 6 0.002921 -0.001082 -0.001326 0.001037 0.005499 0.033841
#
#
# Mechanical properties :
#
#
# Convention : Reuss Voigt Hill
#
# Bulk Modulus (GPa) = 24.70043 37.15855 30.92949
# Shear Modulus (GPa) = 30.52836 36.82108 33.67472
#
# Velocity S-wave (km/s) = 3.75902 4.12830 3.94798
# Velocity P-wave (km/s) = 5.50210 6.31846 5.92436
#
# Compressibility (1/GPa) = 0.04048512
#
# Stress axis : x y z
#
# Youngs Moduli (GPa) = 58.19790 61.16952 62.76934
#
# Poissons Ratio (x) = -0.12284 0.24174
# Poissons Ratio (y) = -0.11688 0.16606
# Poissons Ratio (z) = 0.22413 0.16182
#
# Static dielectric constant tensor:
#      x y z
#    x 1.775980 0.003720 0.035550 
#    y 0.003720 1.766920 0.003930 
#    z 0.035550 0.003930 1.817970 
# 
# From -- ./inp_files/206938.got.cif
#   From: 2010.05.17/outbox.cif.g08.bks.cpg/sg2_104_cif.got.tgz:206938.got - 2010.06.03 11:33:40.
