data_PCOD9066569
_publ_section_title
;
Structure prediction by ZEFSAII (Michael W. Deem and Ramdas Pophale) SiO2 
 PCOD9066569
Probable space group: P -1
;
_chemical_formula_sum "Si O2"
_cell_formula_units_Z 15
_cell_length_a 18.478135
_cell_length_b 9.631009
_cell_length_c 13.241066
_cell_angle_alpha 145.722473
_cell_angle_beta 27.027519
_cell_angle_gamma 142.288706
_cell_volume 588.972392
_symmetry_space_group_name_H-M "P -1"
_symmetry_group_IT_number 2
_symmetry_cell_setting 'triclinic'
loop_
_space_group_symop_operation_xyz
x,y,z
-x,-y,-z
loop_
_atom_site_type_symbol
_atom_site_label
_atom_site_fract_x
_atom_site_fract_y
_atom_site_fract_z
Si Si1 0.000000 0.000000 0.500000
Si Si2 0.732328 0.688436 0.504105
Si Si3 0.382700 0.135597 0.871707
Si Si4 0.276552 0.901339 0.661305
Si Si5 0.825781 0.214716 0.617477
Si Si6 0.357982 0.454357 0.819690
Si Si7 0.245544 0.700015 0.912692
Si Si8 0.154602 0.486631 0.431091
O O1 0.000151 0.250164 0.481197
O O2 0.896338 0.183170 0.795199
O O3 0.548571 0.533943 0.657385
O O4 0.809675 0.496198 0.226986
O O5 0.824968 0.813013 0.562533
O O6 0.732099 0.931375 0.578896
O O7 0.264413 0.986858 0.842159
O O8 0.555117 0.183764 0.629212
O O9 0.379284 0.936853 0.845579
O O10 0.309996 0.368121 0.141183
O O11 0.286457 0.157309 0.740355
O O12 0.147292 0.658969 0.640588
O O13 0.858827 0.320577 0.527715
O O14 0.732767 0.403101 0.901521
O O15 0.325023 0.557982 0.814311
#
# Coordination Sequence:
#
# PCOD9066569 Si02
#       8
#     1   2   2   2   2   2   2   2
#     4  12  28  46  70 112 152 198 238 310 382 438
#     4  12  26  50  76 108 155 195 255 311 371 453
#     4  11  25  46  71 112 146 189 255 304 375 442
#     4  11  25  49  75 106 145 200 247 312 370 444
#     4  11  25  47  73 112 143 203 254 303 372 448
#     4  12  25  51  79 111 150 200 258 307 376 448
#     4  12  27  47  79 113 151 198 248 313 379 449
#     4  11  25  47  75 102 155 196 248 310 371 450
#
# _framework density 25.468088000000002
#
# number of rings (size 3 to 8) (size 9 to 14) (size 15 to 20)
#    0.000    0.533    4.000    3.200    1.867    2.667 
#    4.800    0.000    0.000    0.000    0.000    0.000 
#    0.000    0.000    0.000    0.000    0.000    0.000 
#
# Total GULP energy -83857.480918 kJ/mol
# GULP energy per Si atom -5590.498728 kJ/mol
# Density = 2.541012 g / cm^3
# Si number density = 25.468088 Si / 1000 Ang^3
#
#
#
# Elastic Constant Matrix: (Units=GPa)
#
#
# Indices 1 2 3 4 5 6 
#
# 1 78.6731 24.7483 19.6470 22.7176 16.4322 3.5523
# 2 24.7483 121.4776 8.7210 29.5286 -0.3518 -18.5451
# 3 19.6470 8.7210 146.7156 26.7612 8.2739 26.7096
# 4 22.7176 29.5286 26.7612 44.9681 7.9359 6.8380
# 5 16.4322 -0.3518 8.2739 7.9359 36.9347 12.6079
# 6 3.5523 -18.5451 26.7096 6.8380 12.6079 32.6402
#
#
#
# Elastic Compliance Matrix: (Units=1/GPa)
#
#
# Indices 1 2 3 4 5 6 
#
# 1 0.016404 -0.001604 -0.001021 -0.005764 -0.006477 0.001849
# 2 -0.001604 0.011993 -0.000737 -0.007973 -0.000525 0.009465
# 3 -0.001021 -0.000737 0.008903 -0.003463 0.001775 -0.007554
# 4 -0.005764 -0.007973 -0.003463 0.033853 -0.001410 -0.007616
# 5 -0.006477 -0.000525 0.001775 -0.001410 0.034687 -0.014149
# 6 0.001849 0.009465 -0.007554 -0.007616 -0.014149 0.049056
#
#
# Mechanical properties :
#
#
# Convention : Reuss Voigt Hill
#
# Bulk Modulus (GPa) = 32.70599 50.34432 41.52515
# Shear Modulus (GPa) = 29.10130 42.49192 35.79661
#
# Velocity S-wave (km/s) = 3.38399 4.08908 3.75313
# Velocity P-wave (km/s) = 5.30456 6.48881 5.92634
#
# Compressibility (1/GPa) = 0.03057544
#
# Stress axis : x y z
#
# Youngs Moduli (GPa) = 60.95935 83.38063 112.31967
#
# Poissons Ratio (x) = 0.13375 0.11470
# Poissons Ratio (y) = 0.09778 0.08282
# Poissons Ratio (z) = 0.06225 0.06148
#
# Static dielectric constant tensor:
#      x y z
#    x 2.081090 0.027760 -0.046540 
#    y 0.027760 1.968800 -0.044170 
#    z -0.046540 -0.044170 1.904300 
# 
# From -- ./inp_files/462540.got.cif
#   From: 2010.05.17/outbox.cif.g08.bks.cpg/sg2_232_cif.got.tgz:462540.got - 2010.06.03 11:33:40.
