data_PCOD9066230
_publ_section_title
;
Structure prediction by ZEFSAII (Michael W. Deem and Ramdas Pophale) SiO2 
 PCOD9066230
Probable space group: P -1
;
_chemical_formula_sum "Si O2"
_cell_formula_units_Z 14
_cell_length_a 22.904026
_cell_length_b 5.576687
_cell_length_c 9.433642
_cell_angle_alpha 124.503253
_cell_angle_beta 133.363896
_cell_angle_gamma 41.255760
_cell_volume 574.472447
_symmetry_space_group_name_H-M "P -1"
_symmetry_group_IT_number 2
_symmetry_cell_setting 'triclinic'
loop_
_space_group_symop_operation_xyz
x,y,z
-x,-y,-z
loop_
_atom_site_type_symbol
_atom_site_label
_atom_site_fract_x
_atom_site_fract_y
_atom_site_fract_z
Si Si1 0.331440 0.360725 0.332158
Si Si2 0.600827 0.177322 0.978367
Si Si3 0.111783 0.625580 0.082633
Si Si4 0.859690 0.458473 0.559783
Si Si5 0.652629 0.709549 0.174475
Si Si6 0.030019 0.337437 0.652055
Si Si7 0.592840 0.169717 0.457497
O O1 0.212107 0.569733 0.177191
O O2 0.352798 0.652349 0.442835
O O3 0.354895 0.173546 0.462321
O O4 0.402718 0.016598 0.230793
O O5 0.654967 0.359337 0.082785
O O6 0.655807 0.843021 0.070160
O O7 0.500000 0.500000 0.000000
O O8 0.124435 0.565785 0.253440
O O9 0.105329 0.351499 0.882704
O O10 0.000000 0.000000 0.000000
O O11 0.745382 0.657071 0.394087
O O12 0.923618 0.579677 0.640459
O O13 0.913609 0.082175 0.435482
O O14 0.560549 0.051673 0.226859
O O15 0.000000 0.500000 0.500000
O O16 0.500000 0.500000 0.500000
#
# Coordination Sequence:
#
# PCOD9066230 Si02
#       7
#     2   2   2   2   2   2   2
#     4  12  27  46  73 111 148 195 253 303 384 450
#     4  12  26  48  75 109 148 194 248 317 383 446
#     4  12  26  45  74 106 152 197 248 311 373 452
#     4  11  26  45  70 106 143 195 246 311 370 443
#     4  12  26  44  76 102 148 190 246 301 381 448
#     4  11  25  45  72 102 143 191 252 302 372 441
#     4  12  25  47  74 107 147 191 246 310 374 453
#
# _framework density 24.370183999999998
#
# number of rings (size 3 to 8) (size 9 to 14) (size 15 to 20)
#    0.000    0.286    2.857    5.571    6.000    1.143 
#    0.000    0.000    0.000    0.000    0.000    0.000 
#    0.000    0.000    0.000    0.000    0.000    0.000 
#
# Total GULP energy -78235.533611 kJ/mol
# GULP energy per Si atom -5588.252401 kJ/mol
# Density = 2.431472 g / cm^3
# Si number density = 24.370184 Si / 1000 Ang^3
#
#
#
# Elastic Constant Matrix: (Units=GPa)
#
#
# Indices 1 2 3 4 5 6 
#
# 1 154.4411 45.6642 62.3551 -3.9746 -3.9860 33.3022
# 2 45.6642 76.1120 26.3744 16.3242 1.1483 14.5137
# 3 62.3551 26.3744 136.0525 11.5123 -17.8994 28.7153
# 4 -3.9746 16.3242 11.5123 54.4190 -0.0159 -3.6536
# 5 -3.9860 1.1483 -17.8994 -0.0159 47.6013 7.5927
# 6 33.3022 14.5137 28.7153 -3.6536 7.5927 46.9148
#
#
#
# Elastic Compliance Matrix: (Units=1/GPa)
#
#
# Indices 1 2 3 4 5 6 
#
# 1 0.009977 -0.004801 -0.003053 0.002574 0.000377 -0.003589
# 2 -0.004801 0.017820 -0.000379 -0.005765 -0.000622 -0.002221
# 3 -0.003053 -0.000379 0.010781 -0.002743 0.004649 -0.005280
# 4 0.002574 -0.005765 -0.002743 0.021107 -0.001224 0.003477
# 5 0.000377 -0.000622 0.004649 -0.001224 0.023900 -0.006884
# 6 -0.003589 -0.002221 -0.005280 0.003477 -0.006884 0.029167
#
#
# Mechanical properties :
#
#
# Convention : Reuss Voigt Hill
#
# Bulk Modulus (GPa) = 45.22567 70.59923 57.91245
# Shear Modulus (GPa) = 36.60645 45.26780 40.93713
#
# Velocity S-wave (km/s) = 3.87990 4.31456 4.10299
# Velocity P-wave (km/s) = 6.21848 7.33846 6.80156
#
# Compressibility (1/GPa) = 0.02211134
#
# Stress axis : x y z
#
# Youngs Moduli (GPa) = 100.23174 56.11696 92.75665
#
# Poissons Ratio (x) = 0.26944 0.28315
# Poissons Ratio (y) = 0.48125 0.03518
# Poissons Ratio (z) = 0.30597 0.02128
#
# Static dielectric constant tensor:
#      x y z
#    x 1.844700 0.097060 -0.135680 
#    y 0.097060 1.484330 -0.035460 
#    z -0.135680 -0.035460 1.701890 
# 
# From -- ./inp_files/139213.got.cif
#   From: 2010.05.17/outbox.cif.g08.bks.cpg/sg2_70_cif.got.tgz:139213.got - 2010.06.03 11:33:40.
