data_PCOD9066299
_publ_section_title
;
Structure prediction by ZEFSAII (Michael W. Deem and Ramdas Pophale) SiO2 
 PCOD9066299
Probable space group: P -1
;
_chemical_formula_sum "Si O2"
_cell_formula_units_Z 16
_cell_length_a 9.169171
_cell_length_b 11.901628
_cell_length_c 20.524980
_cell_angle_alpha 27.689731
_cell_angle_beta 44.389553
_cell_angle_gamma 38.018329
_cell_volume 639.923002
_symmetry_space_group_name_H-M "P -1"
_symmetry_group_IT_number 2
_symmetry_cell_setting 'triclinic'
loop_
_space_group_symop_operation_xyz
x,y,z
-x,-y,-z
loop_
_atom_site_type_symbol
_atom_site_label
_atom_site_fract_x
_atom_site_fract_y
_atom_site_fract_z
Si Si1 0.425245 0.001658 0.912999
Si Si2 0.985878 0.408321 0.774914
Si Si3 0.463739 0.488806 0.217043
Si Si4 0.838268 0.092580 0.195489
Si Si5 0.350057 0.278829 0.620278
Si Si6 0.895823 0.585519 0.915797
Si Si7 0.117828 0.104028 0.353853
Si Si8 0.345243 0.618882 0.323351
O O1 0.620555 0.807451 0.897995
O O2 0.163971 0.137975 0.896563
O O3 0.491024 0.239484 0.787063
O O4 0.474100 0.776880 0.068583
O O5 0.172096 0.443050 0.650484
O O6 0.784078 0.416841 0.788865
O O7 0.858015 0.658131 0.737064
O O8 0.664117 0.261088 0.224471
O O9 0.448375 0.412440 0.335236
O O10 0.719149 0.955925 0.258869
O O11 0.900624 0.311096 0.028088
O O12 0.085325 0.855339 0.265329
O O13 0.317660 0.466769 0.472307
O O14 0.626000 0.141208 0.619683
O O15 0.002391 0.734364 0.758464
O O16 0.000000 0.500000 0.000000
O O17 0.000000 0.000000 0.500000
#
# Coordination Sequence:
#
# PCOD9066299 Si02
#       8
#     2   2   2   2   2   2   2   2
#     4  11  25  45  73 108 149 193 251 312 380 445
#     4  12  26  46  75 107 150 198 251 309 372 456
#     4  11  26  45  74 112 146 200 251 316 370 454
#     4  11  25  46  74 108 149 195 253 310 379 441
#     4  12  27  49  71 111 149 203 249 312 382 448
#     4  11  25  48  78 110 150 199 244 317 378 445
#     4  12  29  49  77 112 154 202 250 312 382 457
#     4  12  26  46  75 106 156 199 254 313 378 451
#
# _framework density 25.00301
#
# number of rings (size 3 to 8) (size 9 to 14) (size 15 to 20)
#    0.000    0.500    5.000    1.875    3.500    8.000 
#    0.000    0.000    0.000    0.000    0.000    0.000 
#    0.000    0.000    0.000    0.000    0.000    0.000 
#
# Total GULP energy -89575.931074 kJ/mol
# GULP energy per Si atom -5598.495692 kJ/mol
# Density = 2.494610 g / cm^3
# Si number density = 25.003010 Si / 1000 Ang^3
#
#
#
# Elastic Constant Matrix: (Units=GPa)
#
#
# Indices 1 2 3 4 5 6 
#
# 1 85.0409 20.1971 24.6650 1.3179 -6.9669 -4.7872
# 2 20.1971 117.0155 8.5445 9.8869 15.6687 -14.9741
# 3 24.6650 8.5445 104.8735 22.0615 19.3560 5.6581
# 4 1.3179 9.8869 22.0615 33.6846 13.0294 4.1765
# 5 -6.9669 15.6687 19.3560 13.0294 38.5189 2.6300
# 6 -4.7872 -14.9741 5.6581 4.1765 2.6300 44.0531
#
#
#
# Elastic Compliance Matrix: (Units=1/GPa)
#
#
# Indices 1 2 3 4 5 6 
#
# 1 0.014184 -0.002860 -0.004357 0.000897 0.005567 0.000711
# 2 -0.002860 0.010228 0.000965 -0.002150 -0.004676 0.003525
# 3 -0.004357 0.000965 0.012864 -0.006323 -0.005446 -0.000873
# 4 0.000897 -0.002150 -0.006323 0.038059 -0.008460 -0.002925
# 5 0.005567 -0.004676 -0.005446 -0.008460 0.034574 -0.001547
# 6 0.000711 0.003525 -0.000873 -0.002925 -0.001547 0.024457
#
#
# Mechanical properties :
#
#
# Convention : Reuss Voigt Hill
#
# Bulk Modulus (GPa) = 40.37134 45.97144 43.17139
# Shear Modulus (GPa) = 32.23106 40.15287 36.19197
#
# Velocity S-wave (km/s) = 3.59428 4.01174 3.80874
# Velocity P-wave (km/s) = 5.77986 6.31546 6.05359
#
# Compressibility (1/GPa) = 0.02477005
#
# Stress axis : x y z
#
# Youngs Moduli (GPa) = 70.50021 97.77097 77.73673
#
# Poissons Ratio (x) = 0.27964 0.33873
# Poissons Ratio (y) = 0.20164 -0.07498
# Poissons Ratio (z) = 0.30720 -0.09430
#
# Static dielectric constant tensor:
#      x y z
#    x 1.976240 0.003560 -0.004360 
#    y 0.003560 1.966690 0.038060 
#    z -0.004360 0.038060 2.014320 
# 
# From -- ./inp_files/589354.got.cif
#   From: 2010.05.17/outbox.cif.g08.bks.cpg/sg2_295_cif.got.tgz:589354.got - 2010.06.03 11:33:40.
