data_PCOD9066685
_publ_section_title
;
Structure prediction by ZEFSAII (Michael W. Deem and Ramdas Pophale) SiO2 
 PCOD9066685
Probable space group: P -1
;
_chemical_formula_sum "Si O2"
_cell_formula_units_Z 16
_cell_length_a 8.029511
_cell_length_b 9.724267
_cell_length_c 10.265251
_cell_angle_alpha 87.459925
_cell_angle_beta 56.510277
_cell_angle_gamma 74.920779
_cell_volume 640.521047
_symmetry_space_group_name_H-M "P -1"
_symmetry_group_IT_number 2
_symmetry_cell_setting 'triclinic'
loop_
_space_group_symop_operation_xyz
x,y,z
-x,-y,-z
loop_
_atom_site_type_symbol
_atom_site_label
_atom_site_fract_x
_atom_site_fract_y
_atom_site_fract_z
Si Si1 0.593570 0.171632 0.412256
Si Si2 0.670460 0.125890 0.841428
Si Si3 0.956422 0.834176 0.734254
Si Si4 0.467504 0.633856 0.912117
Si Si5 0.957375 0.280194 0.557206
Si Si6 0.354094 0.094132 0.757488
Si Si7 0.024325 0.660250 0.969862
Si Si8 0.714941 0.566153 0.558522
O O1 0.821046 0.134052 0.375731
O O2 0.431186 0.135562 0.582878
O O3 0.491386 0.340980 0.426188
O O4 0.630986 0.073030 0.269527
O O5 0.840801 0.199040 0.705158
O O6 0.519906 0.109467 0.791956
O O7 0.544660 0.229379 0.001102
O O8 0.790531 0.973584 0.855205
O O9 0.898234 0.817524 0.610037
O O10 0.990509 0.708711 0.831013
O O11 0.252878 0.652843 0.925451
O O12 0.657843 0.600639 0.732725
O O13 0.500000 0.500000 0.000000
O O14 0.790126 0.395470 0.534810
O O15 0.095332 0.370137 0.563230
O O16 0.139666 0.211875 0.884892
O O17 0.000000 0.500000 0.000000
#
# Coordination Sequence:
#
# PCOD9066685 Si02
#       8
#     2   2   2   2   2   2   2   2
#     4  11  25  46  74 101 143 184 240 295 348 418
#     4  12  26  47  74 105 147 186 237 291 352 422
#     4  12  27  46  74 103 142 189 237 293 349 424
#     4  12  26  48  73 102 145 188 233 292 355 421
#     4  11  26  45  73 107 143 185 237 292 353 418
#     4  11  27  46  72 108 142 189 232 296 354 411
#     4  12  30  48  72 106 145 185 237 291 356 422
#     4  11  26  45  73 105 142 188 237 289 356 420
#
# _framework density 24.979666000000002
#
# number of rings (size 3 to 8) (size 9 to 14) (size 15 to 20)
#    0.000    0.500    3.750    2.625   12.250    2.000 
#    0.000    0.000    0.000    0.000    0.000    0.000 
#    0.000    0.000    0.000    0.000    0.000    0.000 
#
# Total GULP energy -89610.225603 kJ/mol
# GULP energy per Si atom -5600.639100 kJ/mol
# Density = 2.492281 g / cm^3
# Si number density = 24.979666 Si / 1000 Ang^3
#
#
#
# Elastic Constant Matrix: (Units=GPa)
#
#
# Indices 1 2 3 4 5 6 
#
# 1 79.0650 24.2156 4.6330 3.7798 -11.8904 -5.0927
# 2 24.2156 101.6801 13.1382 5.5281 -7.2348 -14.0701
# 3 4.6330 13.1382 101.5431 5.8363 -6.2695 4.4411
# 4 3.7798 5.5281 5.8363 52.1226 -1.4293 1.1962
# 5 -11.8904 -7.2348 -6.2695 -1.4293 37.1448 5.6097
# 6 -5.0927 -14.0701 4.4411 1.1962 5.6097 45.3715
#
#
#
# Elastic Compliance Matrix: (Units=1/GPa)
#
#
# Indices 1 2 3 4 5 6 
#
# 1 0.014209 -0.003050 0.000014 -0.000606 0.003906 0.000181
# 2 -0.003050 0.011271 -0.001382 -0.000881 0.000460 0.003254
# 3 0.000014 -0.001382 0.010253 -0.000920 0.001674 -0.001613
# 4 -0.000606 -0.000881 -0.000920 0.019454 0.000350 -0.000807
# 5 0.003906 0.000460 0.001674 0.000350 0.029038 -0.003182
# 6 0.000181 0.003254 -0.001613 -0.000807 -0.003182 0.023642
#
#
# Mechanical properties :
#
#
# Convention : Reuss Voigt Hill
#
# Bulk Modulus (GPa) = 37.17880 40.69575 38.93728
# Shear Modulus (GPa) = 39.78694 42.94786 41.36740
#
# Velocity S-wave (km/s) = 3.99529 4.15096 4.07387
# Velocity P-wave (km/s) = 6.01656 6.26904 6.14410
#
# Compressibility (1/GPa) = 0.02689705
#
# Stress axis : x y z
#
# Youngs Moduli (GPa) = 70.37717 88.72516 97.53219
#
# Poissons Ratio (x) = 0.27061 -0.00141
# Poissons Ratio (y) = 0.21465 0.13483
# Poissons Ratio (z) = -0.00101 0.12265
#
# Static dielectric constant tensor:
#      x y z
#    x 1.949260 0.020680 0.018090 
#    y 0.020680 2.015000 0.005250 
#    z 0.018090 0.005250 1.936930 
# 
# From -- ./inp_files/208964.got.cif
#   From: 2010.05.17/outbox.cif.g08.bks.cpg/sg2_105_cif.got.tgz:208964.got - 2010.06.03 11:33:40.
