data_PCOD9066804
_publ_section_title
;
Structure prediction by ZEFSAII (Michael W. Deem and Ramdas Pophale) SiO2 
 PCOD9066804
Probable space group: P -1
;
_chemical_formula_sum "Si O2"
_cell_formula_units_Z 15
_cell_length_a 9.283404
_cell_length_b 12.751746
_cell_length_c 9.151652
_cell_angle_alpha 95.528636
_cell_angle_beta 117.903505
_cell_angle_gamma 127.042494
_cell_volume 645.030575
_symmetry_space_group_name_H-M "P -1"
_symmetry_group_IT_number 2
_symmetry_cell_setting 'triclinic'
loop_
_space_group_symop_operation_xyz
x,y,z
-x,-y,-z
loop_
_atom_site_type_symbol
_atom_site_label
_atom_site_fract_x
_atom_site_fract_y
_atom_site_fract_z
Si Si1 0.296704 0.480391 0.960365
Si Si2 0.373815 0.327380 0.370580
Si Si3 0.736647 0.405650 0.314880
Si Si4 0.722795 0.183122 0.146017
Si Si5 0.071754 0.798608 0.032947
Si Si6 0.128180 0.884853 0.537800
Si Si7 0.500000 0.000000 0.500000
Si Si8 0.343565 0.215504 0.660200
O O1 0.107762 0.333433 0.951354
O O2 0.413908 0.627583 0.133570
O O3 0.500000 0.500000 0.000000
O O4 0.205798 0.485183 0.769461
O O5 0.500000 0.500000 0.500000
O O6 0.560529 0.365568 0.349341
O O7 0.111551 0.213591 0.150900
O O8 0.348051 0.243002 0.492472
O O9 0.631863 0.250047 0.172602
O O10 0.000000 0.500000 0.500000
O O11 0.889994 0.199534 0.342619
O O12 0.850684 0.249650 0.059429
O O13 0.500000 0.000000 0.000000
O O14 0.314141 0.944138 0.257689
O O15 0.869939 0.814436 0.377653
O O16 0.267596 0.888965 0.479860
O O17 0.292373 0.069595 0.652883
#
# Coordination Sequence:
#
# PCOD9066804 Si02
#       8
#     2   2   2   2   2   2   1   2
#     4  12  25  47  77 112 151 194 262 320 383 462
#     4  12  24  50  78 115 153 204 257 328 395 469
#     4  12  30  46  78 117 153 202 258 326 401 466
#     4  12  26  51  71 107 160 203 255 321 387 463
#     4  12  26  46  81 106 156 208 250 319 397 458
#     4  11  26  46  73 106 154 205 251 317 380 464
#     4  12  28  46  70 112 152 200 252 320 382 452
#     4  11  25  46  77 110 148 206 260 308 393 462
#
# _framework density 23.254714
#
# number of rings (size 3 to 8) (size 9 to 14) (size 15 to 20)
#    0.000    0.267    5.333    2.400    5.600    0.533 
#    0.000    1.333    0.000    0.000    0.000    0.000 
#    0.000    0.000    0.000    0.000    0.000    0.000 
#
# Total GULP energy -83588.486815 kJ/mol
# GULP energy per Si atom -5572.565788 kJ/mol
# Density = 2.320178 g / cm^3
# Si number density = 23.254714 Si / 1000 Ang^3
#
#
#
# Elastic Constant Matrix: (Units=GPa)
#
#
# Indices 1 2 3 4 5 6 
#
# 1 125.3422 43.3228 33.4131 -19.8506 -12.9745 32.3265
# 2 43.3228 83.5967 16.5976 -24.8802 -16.8401 18.7502
# 3 33.4131 16.5976 137.2451 -19.8806 10.1635 6.7816
# 4 -19.8506 -24.8802 -19.8806 46.9014 -3.9717 -5.8125
# 5 -12.9745 -16.8401 10.1635 -3.9717 31.2367 -7.7194
# 6 32.3265 18.7502 6.7816 -5.8125 -7.7194 45.9456
#
#
#
# Elastic Compliance Matrix: (Units=1/GPa)
#
#
# Indices 1 2 3 4 5 6 
#
# 1 0.011765 -0.003284 -0.002097 0.001825 0.002556 -0.005968
# 2 -0.003284 0.018962 -0.000799 0.008824 0.009603 -0.002580
# 3 -0.002097 -0.000799 0.008449 0.001973 -0.003757 0.000173
# 4 0.001825 0.008824 0.001973 0.028302 0.008427 -0.000180
# 5 0.002556 0.009603 -0.003757 0.008427 0.041246 0.002833
# 6 -0.005968 -0.002580 0.000173 -0.000180 0.002833 0.027444
#
#
# Mechanical properties :
#
#
# Convention : Reuss Voigt Hill
#
# Bulk Modulus (GPa) = 37.29198 59.20563 48.24880
# Shear Modulus (GPa) = 31.75246 41.67345 36.71296
#
# Velocity S-wave (km/s) = 3.69917 4.23785 3.97764
# Velocity P-wave (km/s) = 5.85801 7.03283 6.47213
#
# Compressibility (1/GPa) = 0.02681542
#
# Stress axis : x y z
#
# Youngs Moduli (GPa) = 84.99790 52.73682 118.35803
#
# Poissons Ratio (x) = 0.17319 0.24821
# Poissons Ratio (y) = 0.27914 0.09458
# Poissons Ratio (z) = 0.17825 0.04214
#
# Static dielectric constant tensor:
#      x y z
#    x 1.812580 -0.037120 -0.066730 
#    y -0.037120 1.848160 0.101890 
#    z -0.066730 0.101890 2.220650 
# 
# From -- ./inp_files/202677.got.cif
#   From: 2010.05.17/outbox.cif.g08.bks.cpg/sg2_102_cif.got.tgz:202677.got - 2010.06.03 11:33:40.
