data_PCOD9066518
_publ_section_title
;
Structure prediction by ZEFSAII (Michael W. Deem and Ramdas Pophale) SiO2 
 PCOD9066518
Probable space group: P -1
;
_chemical_formula_sum "Si O2"
_cell_formula_units_Z 12
_cell_length_a 11.794848
_cell_length_b 12.812673
_cell_length_c 5.261477
_cell_angle_alpha 70.761768
_cell_angle_beta 88.790978
_cell_angle_gamma 136.633450
_cell_volume 472.006845
_symmetry_space_group_name_H-M "P -1"
_symmetry_group_IT_number 2
_symmetry_cell_setting 'triclinic'
loop_
_space_group_symop_operation_xyz
x,y,z
-x,-y,-z
loop_
_atom_site_type_symbol
_atom_site_label
_atom_site_fract_x
_atom_site_fract_y
_atom_site_fract_z
Si Si1 0.880129 0.342137 0.839674
Si Si2 0.341386 0.643524 0.923597
Si Si3 0.884539 0.980209 0.218573
Si Si4 0.969174 0.721901 0.750537
Si Si5 0.302756 0.979936 0.151238
Si Si6 0.472118 0.404299 0.326063
O O1 0.000000 0.500000 0.500000
O O2 0.709307 0.150055 0.872576
O O3 0.793119 0.352521 0.056242
O O4 0.000061 0.337159 0.965104
O O5 0.521011 0.830800 0.888571
O O6 0.406053 0.615533 0.706414
O O7 0.213805 0.458010 0.227214
O O8 0.731015 0.792797 0.504262
O O9 0.023967 0.149395 0.254378
O O10 0.770750 0.988207 0.073131
O O11 0.000000 0.000000 0.000000
O O12 0.146350 0.848100 0.472803
O O13 0.500000 0.500000 0.500000
O O14 0.500000 0.500000 0.000000
#
# Coordination Sequence:
#
# PCOD9066518 Si02
#       6
#     2   2   2   2   2   2
#     4  11  25  46  73 110 153 199 254 316 388 461
#     4  12  25  47  77 106 153 196 256 320 382 458
#     4  11  26  49  75 104 155 199 255 326 386 461
#     4  11  25  46  70 108 146 196 252 314 381 459
#     4  11  25  48  71 111 147 198 256 306 391 459
#     4  12  28  49  76 117 149 202 266 319 394 469
#
# _framework density 25.423361
#
# number of rings (size 3 to 8) (size 9 to 14) (size 15 to 20)
#    0.000    0.667    3.333    3.000    2.333    4.000 
#    0.000    0.000    0.000    0.000    0.000    0.000 
#    0.000    0.000    0.000    0.000    0.000    0.000 
#
# Total GULP energy -67073.119248 kJ/mol
# GULP energy per Si atom -5589.426604 kJ/mol
# Density = 2.536550 g / cm^3
# Si number density = 25.423361 Si / 1000 Ang^3
#
#
#
# Elastic Constant Matrix: (Units=GPa)
#
#
# Indices 1 2 3 4 5 6 
#
# 1 111.6659 57.9833 57.5684 1.0881 -27.1804 -21.8584
# 2 57.9833 236.9476 71.3536 -39.3463 -23.0119 -29.7850
# 3 57.5684 71.3536 166.2324 -32.0844 5.0467 2.2034
# 4 1.0881 -39.3463 -32.0844 60.3442 -2.3234 -18.4111
# 5 -27.1804 -23.0119 5.0467 -2.3234 44.7743 8.6675
# 6 -21.8584 -29.7850 2.2034 -18.4111 8.6675 53.9260
#
#
#
# Elastic Compliance Matrix: (Units=1/GPa)
#
#
# Indices 1 2 3 4 5 6 
#
# 1 0.015209 -0.001242 -0.005548 -0.002659 0.008415 0.003445
# 2 -0.001242 0.006610 -0.001575 0.004969 0.002196 0.004555
# 3 -0.005548 -0.001575 0.009441 0.003431 -0.004760 -0.001568
# 4 -0.002659 0.004969 0.003431 0.024726 -0.000097 0.009984
# 5 0.008415 0.002196 -0.004760 -0.000097 0.029081 0.000111
# 6 0.003445 0.004555 -0.001568 0.009984 0.000111 0.025911
#
#
# Mechanical properties :
#
#
# Convention : Reuss Voigt Hill
#
# Bulk Modulus (GPa) = 68.83008 98.73960 83.78484
# Shear Modulus (GPa) = 37.72112 53.67160 45.69636
#
# Velocity S-wave (km/s) = 3.85609 4.59967 4.24419
# Velocity P-wave (km/s) = 6.85260 8.19340 7.55281
#
# Compressibility (1/GPa) = 0.01452853
#
# Stress axis : x y z
#
# Youngs Moduli (GPa) = 65.74949 151.29446 105.92534
#
# Poissons Ratio (x) = 0.18796 0.58770
# Poissons Ratio (y) = 0.08168 0.16682
# Poissons Ratio (z) = 0.36480 0.23827
#
# Static dielectric constant tensor:
#      x y z
#    x 2.060030 0.011660 -0.015400 
#    y 0.011660 2.068570 0.101470 
#    z -0.015400 0.101470 2.026290 
# 
# From -- ./inp_files/60149.got.cif
#   From: 2010.05.17/outbox.cif.g08.bks.cpg/sg2_31_cif.got.tgz:60149.got - 2010.06.03 11:33:40.
