data_PCOD9066268
_publ_section_title
;
Structure prediction by ZEFSAII (Michael W. Deem and Ramdas Pophale) SiO2 
 PCOD9066268
Probable space group: P -1
;
_chemical_formula_sum "Si O2"
_cell_formula_units_Z 12
_cell_length_a 6.644649
_cell_length_b 14.430935
_cell_length_c 11.264119
_cell_angle_alpha 33.916176
_cell_angle_beta 118.212265
_cell_angle_gamma 132.291842
_cell_volume 436.103696
_symmetry_space_group_name_H-M "P -1"
_symmetry_group_IT_number 2
_symmetry_cell_setting 'triclinic'
loop_
_space_group_symop_operation_xyz
x,y,z
-x,-y,-z
loop_
_atom_site_type_symbol
_atom_site_label
_atom_site_fract_x
_atom_site_fract_y
_atom_site_fract_z
Si Si1 0.381300 0.397970 0.699748
Si Si2 0.733176 0.242027 0.917934
Si Si3 0.764897 0.213544 0.695679
Si Si4 0.702895 0.612592 0.761928
Si Si5 0.779072 0.140861 0.505340
Si Si6 0.773690 0.776813 0.844243
O O1 0.500000 0.500000 0.500000
O O2 0.565356 0.311485 0.869244
O O3 0.481973 0.570656 0.643125
O O4 0.055563 0.232977 0.777481
O O5 0.786153 0.327318 0.706140
O O6 0.019503 0.288528 0.998196
O O7 0.519216 0.000857 0.127269
O O8 0.764609 0.226071 0.537604
O O9 0.762806 0.780159 0.695719
O O10 0.986747 0.684736 0.699285
O O11 0.534646 0.401794 0.009985
O O12 0.500000 0.000000 0.500000
O O13 0.870584 0.985229 0.712547
#
# Coordination Sequence:
#
# PCOD9066268 Si02
#       6
#     2   2   2   2   2   2
#     4  12  25  46  69 106 145 183 235 296 352 422
#     4  11  26  44  74 104 142 190 235 291 358 417
#     4  11  25  45  73 103 142 186 239 290 354 425
#     4  11  25  47  73 102 148 182 241 291 351 425
#     4  12  27  47  73 104 145 188 238 296 354 420
#     4  11  26  48  73 105 142 190 239 291 355 421
#
# _framework density 27.516393999999998
#
# number of rings (size 3 to 8) (size 9 to 14) (size 15 to 20)
#    0.000    0.667    3.333    3.000    4.667    6.000 
#    3.000    0.000    0.000    0.000    0.000    0.000 
#    0.000    0.000    0.000    0.000    0.000    0.000 
#
# Total GULP energy -67109.198148 kJ/mol
# GULP energy per Si atom -5592.433179 kJ/mol
# Density = 2.745377 g / cm^3
# Si number density = 27.516394 Si / 1000 Ang^3
#
#
#
# Elastic Constant Matrix: (Units=GPa)
#
#
# Indices 1 2 3 4 5 6 
#
# 1 161.1492 72.8627 33.2618 14.5118 -28.3142 -2.9030
# 2 72.8627 184.7587 25.8880 25.2991 -21.0742 -0.2178
# 3 33.2618 25.8880 49.7442 8.9578 -30.6245 3.2336
# 4 14.5118 25.2991 8.9578 49.9124 -4.4612 -17.7844
# 5 -28.3142 -21.0742 -30.6245 -4.4612 58.5742 0.2867
# 6 -2.9030 -0.2178 3.2336 -17.7844 0.2867 76.6543
#
#
#
# Elastic Compliance Matrix: (Units=1/GPa)
#
#
# Indices 1 2 3 4 5 6 
#
# 1 0.008356 -0.002640 -0.003404 -0.000224 0.001290 0.000396
# 2 -0.002640 0.007041 -0.001037 -0.002817 0.000504 -0.000692
# 3 -0.003404 -0.001037 0.032993 -0.003961 0.014942 -0.002498
# 4 -0.000224 -0.002817 -0.003961 0.024169 -0.001380 0.005763
# 5 0.001290 0.000504 0.014942 -0.001380 0.025589 -0.000996
# 6 0.000396 -0.000692 -0.002498 0.005763 -0.000996 0.014505
#
#
# Mechanical properties :
#
#
# Convention : Reuss Voigt Hill
#
# Bulk Modulus (GPa) = 29.21548 73.29746 51.25647
# Shear Modulus (GPa) = 36.17315 54.60416 45.38866
#
# Velocity S-wave (km/s) = 3.62968 4.45952 4.06583
# Velocity P-wave (km/s) = 5.31099 7.29465 6.38038
#
# Compressibility (1/GPa) = 0.03422843
#
# Stress axis : x y z
#
# Youngs Moduli (GPa) = 119.67854 142.02141 30.30941
#
# Poissons Ratio (x) = 0.37492 0.10318
# Poissons Ratio (y) = 0.31594 0.03142
# Poissons Ratio (z) = 0.40741 0.14723
#
# Static dielectric constant tensor:
#      x y z
#    x 2.193300 -0.070110 0.159160 
#    y -0.070110 2.155340 0.009460 
#    z 0.159160 0.009460 2.229440 
# 
# From -- ./inp_files/131917.got.cif
#   From: 2010.05.17/outbox.cif.g08.bks.cpg/sg2_66_cif.got.tgz:131917.got - 2010.06.03 11:33:40.
