data_PCOD9066489
_publ_section_title
;
Structure prediction by ZEFSAII (Michael W. Deem and Ramdas Pophale) SiO2 
 PCOD9066489
Probable space group: P -1
;
_chemical_formula_sum "Si O2"
_cell_formula_units_Z 12
_cell_length_a 14.140743
_cell_length_b 7.788949
_cell_length_c 6.938537
_cell_angle_alpha 71.593043
_cell_angle_beta 65.848882
_cell_angle_gamma 114.056217
_cell_volume 519.109337
_symmetry_space_group_name_H-M "P -1"
_symmetry_group_IT_number 2
_symmetry_cell_setting 'triclinic'
loop_
_space_group_symop_operation_xyz
x,y,z
-x,-y,-z
loop_
_atom_site_type_symbol
_atom_site_label
_atom_site_fract_x
_atom_site_fract_y
_atom_site_fract_z
Si Si1 0.881930 0.296056 0.801016
Si Si2 0.710961 0.735383 0.647121
Si Si3 0.610802 0.322909 0.598669
Si Si4 0.747052 0.483110 0.035673
Si Si5 0.019238 0.851059 0.899036
Si Si6 0.340240 0.007640 0.156034
O O1 0.000000 0.500000 0.500000
O O2 0.779112 0.335576 0.945591
O O3 0.943179 0.271080 0.946679
O O4 0.791195 0.072862 0.819462
O O5 0.856750 0.969245 0.401360
O O6 0.665192 0.567282 0.561787
O O7 0.711964 0.597212 0.871303
O O8 0.629361 0.821481 0.755299
O O9 0.637670 0.351315 0.339524
O O10 0.461226 0.142794 0.859113
O O11 0.679961 0.215985 0.663429
O O12 0.885807 0.674246 0.957614
O O13 0.000000 0.000000 0.000000
#
# Coordination Sequence:
#
# PCOD9066489 Si02
#       6
#     2   2   2   2   2   2
#     4  12  24  44  71 102 137 179 227 277 342 403
#     4  12  24  46  69 103 137 176 228 280 336 399
#     4  11  25  48  68 100 139 176 231 276 334 405
#     4  12  24  44  71  99 137 181 221 283 337 399
#     4  12  23  41  68 100 137 173 225 281 333 398
#     4  11  25  46  70 100 136 182 224 279 338 401
#
# _framework density 23.116520000000001
#
# number of rings (size 3 to 8) (size 9 to 14) (size 15 to 20)
#    0.000    0.333    3.333    6.500    0.000    1.333 
#    3.000    0.000    0.000    0.000    0.000    0.000 
#    0.000    0.000    0.000    0.000    0.000    0.000 
#
# Total GULP energy -67219.102505 kJ/mol
# GULP energy per Si atom -5601.591875 kJ/mol
# Density = 2.306391 g / cm^3
# Si number density = 23.116520 Si / 1000 Ang^3
#
#
#
# Elastic Constant Matrix: (Units=GPa)
#
#
# Indices 1 2 3 4 5 6 
#
# 1 31.9541 3.3044 5.6537 7.7947 -2.9908 -0.4859
# 2 3.3044 92.7944 9.0016 24.5870 -5.4157 -14.3125
# 3 5.6537 9.0016 170.3075 20.5930 -6.2938 -19.2097
# 4 7.7947 24.5870 20.5930 33.3645 2.3495 -7.6016
# 5 -2.9908 -5.4157 -6.2938 2.3495 26.4093 3.7511
# 6 -0.4859 -14.3125 -19.2097 -7.6016 3.7511 27.6855
#
#
#
# Elastic Compliance Matrix: (Units=1/GPa)
#
#
# Indices 1 2 3 4 5 6 
#
# 1 0.034011 0.001362 -0.000066 -0.009769 0.005289 -0.002144
# 2 0.001362 0.014450 0.001185 -0.010855 0.003679 0.004838
# 3 -0.000066 0.001185 0.006839 -0.004298 0.001687 0.003948
# 4 -0.009769 -0.010855 -0.004298 0.044611 -0.008993 0.004702
# 5 0.005289 0.003679 0.001687 -0.008993 0.041113 -0.004875
# 6 -0.002144 0.004838 0.003948 0.004702 -0.004875 0.043274
#
#
# Mechanical properties :
#
#
# Convention : Reuss Voigt Hill
#
# Bulk Modulus (GPa) = 16.59429 36.77504 26.68467
# Shear Modulus (GPa) = 25.07224 35.96496 30.51860
#
# Velocity S-wave (km/s) = 3.29690 3.94866 3.63741
# Velocity P-wave (km/s) = 4.65692 6.06072 5.40459
#
# Compressibility (1/GPa) = 0.06026170
#
# Stress axis : x y z
#
# Youngs Moduli (GPa) = 29.40201 69.20386 146.22779
#
# Poissons Ratio (x) = -0.09424 0.00967
# Poissons Ratio (y) = -0.04004 -0.17331
# Poissons Ratio (z) = 0.00194 -0.08202
#
# Static dielectric constant tensor:
#      x y z
#    x 2.012980 0.062180 0.133450 
#    y 0.062180 1.986540 0.100600 
#    z 0.133450 0.100600 1.960810 
# 
# From -- ./inp_files/89775.got.cif
#   From: 2010.05.17/outbox.cif.g08.bks.cpg/sg2_45_cif.got.tgz:89775.got - 2010.06.03 11:33:40.
