data_PCOD9066150
_publ_section_title
;
Structure prediction by ZEFSAII (Michael W. Deem and Ramdas Pophale) SiO2 
 PCOD9066150
Probable space group: P -1
;
_chemical_formula_sum "Si O2"
_cell_formula_units_Z 16
_cell_length_a 9.254971
_cell_length_b 14.627670
_cell_length_c 20.155501
_cell_angle_alpha 159.020030
_cell_angle_beta 108.143631
_cell_angle_gamma 61.402082
_cell_volume 773.962946
_symmetry_space_group_name_H-M "P -1"
_symmetry_group_IT_number 2
_symmetry_cell_setting 'triclinic'
loop_
_space_group_symop_operation_xyz
x,y,z
-x,-y,-z
loop_
_atom_site_type_symbol
_atom_site_label
_atom_site_fract_x
_atom_site_fract_y
_atom_site_fract_z
Si Si1 0.789696 0.641168 0.057835
Si Si2 0.436023 0.331300 0.692480
Si Si3 0.797192 0.294707 0.693424
Si Si4 0.039232 0.674448 0.803623
Si Si5 0.677063 0.409194 0.003266
Si Si6 0.678060 0.301482 0.436995
Si Si7 0.990108 0.700515 0.572299
Si Si8 0.701507 0.696532 0.826964
O O1 0.736559 0.598553 0.095811
O O2 0.698254 0.987731 0.251766
O O3 0.784197 0.420681 0.851807
O O4 0.000000 0.500000 0.000000
O O5 0.618744 0.279016 0.650978
O O6 0.247803 0.479755 0.726284
O O7 0.375958 0.519082 0.879288
O O8 0.500000 0.000000 0.500000
O O9 0.748325 0.557513 0.812442
O O10 0.000000 0.000000 0.500000
O O11 0.026096 0.483061 0.613823
O O12 0.867029 0.739895 0.866833
O O13 0.000000 0.000000 0.000000
O O14 0.500000 0.500000 0.000000
O O15 0.821884 0.048171 0.778844
O O16 0.500000 0.500000 0.500000
O O17 0.693995 0.469282 0.618475
O O18 0.839474 0.266589 0.390535
O O19 0.000000 0.500000 0.500000
O O20 0.500000 0.000000 0.000000
#
# Coordination Sequence:
#
# PCOD9066150 Si02
#       8
#     2   2   2   2   2   2   2   2
#     4  12  26  46  73 103 142 187 235 286 350 417
#     4  12  27  44  70 104 139 184 233 284 351 413
#     4  12  27  45  70 102 142 182 230 289 347 415
#     4  11  25  46  70 101 140 183 234 286 348 417
#     4  12  26  47  71 103 144 184 234 290 347 412
#     4  11  26  45  71 102 138 185 236 283 349 415
#     4  11  26  46  70 101 140 183 233 291 344 414
#     4  11  25  45  69 101 142 182 232 288 346 415
#
# _framework density 20.672826000000001
#
# number of rings (size 3 to 8) (size 9 to 14) (size 15 to 20)
#    0.000    0.500    2.500    4.500    8.750    6.000 
#    0.000    0.000    0.000    0.000    0.000    0.000 
#    0.000    0.000    0.000    0.000    0.000    0.000 
#
# Total GULP energy -89214.893590 kJ/mol
# GULP energy per Si atom -5575.930849 kJ/mol
# Density = 2.062577 g / cm^3
# Si number density = 20.672826 Si / 1000 Ang^3
#
#
#
# Elastic Constant Matrix: (Units=GPa)
#
#
# Indices 1 2 3 4 5 6 
#
# 1 175.5922 38.2308 41.8278 26.3492 -5.2847 -4.6579
# 2 38.2308 79.2344 11.9060 34.6132 -7.7242 -7.7058
# 3 41.8278 11.9060 103.4878 38.1215 -2.7666 2.0383
# 4 26.3492 34.6132 38.1215 47.1990 -2.4557 -3.0647
# 5 -5.2847 -7.7242 -2.7666 -2.4557 31.1555 6.1032
# 6 -4.6579 -7.7058 2.0383 -3.0647 6.1032 46.6680
#
#
#
# Elastic Compliance Matrix: (Units=1/GPa)
#
#
# Indices 1 2 3 4 5 6 
#
# 1 0.006943 -0.003191 -0.002684 0.000660 0.000140 0.000308
# 2 -0.003191 0.021929 0.005699 -0.018625 0.003669 0.001351
# 3 -0.002684 0.005699 0.015863 -0.015500 0.001383 -0.001219
# 4 0.000660 -0.018625 -0.015500 0.046941 -0.002390 0.001063
# 5 0.000140 0.003669 0.001383 -0.002390 0.033751 -0.004011
# 6 0.000308 0.001351 -0.001219 0.001063 -0.004011 0.022329
#
#
# Mechanical properties :
#
#
# Convention : Reuss Voigt Hill
#
# Bulk Modulus (GPa) = 22.53149 60.24929 41.39039
# Shear Modulus (GPa) = 30.69323 42.76115 36.72719
#
# Velocity S-wave (km/s) = 3.85738 4.55298 4.21954
# Velocity P-wave (km/s) = 5.54634 7.53969 6.61849
#
# Compressibility (1/GPa) = 0.04438233
#
# Stress axis : x y z
#
# Youngs Moduli (GPa) = 144.03822 45.60109 63.03981
#
# Poissons Ratio (x) = 0.14552 0.16922
# Poissons Ratio (y) = 0.45964 -0.35927
# Poissons Ratio (z) = 0.38664 -0.25989
#
# Static dielectric constant tensor:
#      x y z
#    x 1.553580 0.013890 -0.033600 
#    y 0.013890 1.669660 -0.015380 
#    z -0.033600 -0.015380 1.656340 
# 
# From -- ./inp_files/590544.got.cif
#   From: 2010.05.17/outbox.cif.g08.bks.cpg/sg2_296_cif.got.tgz:590544.got - 2010.06.03 11:33:40.
