data_PCOD9066885
_publ_section_title
;
Structure prediction by ZEFSAII (Michael W. Deem and Ramdas Pophale) SiO2 
 PCOD9066885
Probable space group: P -1
;
_chemical_formula_sum "Si O2"
_cell_formula_units_Z 14
_cell_length_a 5.809784
_cell_length_b 14.430764
_cell_length_c 10.544455
_cell_angle_alpha 50.795284
_cell_angle_beta 91.651371
_cell_angle_gamma 119.131863
_cell_volume 545.224889
_symmetry_space_group_name_H-M "P -1"
_symmetry_group_IT_number 2
_symmetry_cell_setting 'triclinic'
loop_
_space_group_symop_operation_xyz
x,y,z
-x,-y,-z
loop_
_atom_site_type_symbol
_atom_site_label
_atom_site_fract_x
_atom_site_fract_y
_atom_site_fract_z
Si Si1 0.278989 0.424656 0.944695
Si Si2 0.726802 0.233008 0.247425
Si Si3 0.777486 0.074823 0.849622
Si Si4 0.486529 0.284500 0.438597
Si Si5 0.166836 0.934907 0.415179
Si Si6 0.660222 0.419229 0.582240
Si Si7 0.248043 0.213140 0.938220
O O1 0.440626 0.552874 0.729191
O O2 0.213510 0.275300 0.011796
O O3 0.500000 0.500000 0.000000
O O4 0.965602 0.362951 0.047058
O O5 0.680488 0.291979 0.323844
O O6 0.826584 0.138451 0.390820
O O7 0.422933 0.110858 0.280849
O O8 0.768563 0.121547 0.664675
O O9 0.036974 0.198809 0.836703
O O10 0.500000 0.000000 0.000000
O O11 0.817948 0.947365 0.925878
O O12 0.529946 0.292056 0.581869
O O13 0.166237 0.134562 0.539737
O O14 0.500000 0.500000 0.500000
O O15 0.570104 0.337296 0.786705
O O16 0.000000 0.500000 0.500000
#
# Coordination Sequence:
#
# PCOD9066885 Si02
#       7
#     2   2   2   2   2   2   2
#     4  12  26  48  72 109 158 199 260 315 404 469
#     4  11  27  45  73 107 149 204 253 323 382 481
#     4  11  26  46  76 104 148 201 260 323 394 466
#     4  12  26  46  78 106 151 199 261 321 398 464
#     4  11  25  47  71 107 147 194 265 316 393 458
#     4  12  29  49  80 114 154 202 257 326 400 472
#     4  11  27  47  71 111 148 199 258 325 386 474
#
# _framework density 25.677477
#
# number of rings (size 3 to 8) (size 9 to 14) (size 15 to 20)
#    0.000    0.571    4.286    1.714   10.000    3.429 
#    0.000    0.000    0.000    0.000    0.000    0.000 
#    0.000    0.000    0.000    0.000    0.000    0.000 
#
# Total GULP energy -78248.497032 kJ/mol
# GULP energy per Si atom -5589.178359 kJ/mol
# Density = 2.561903 g / cm^3
# Si number density = 25.677477 Si / 1000 Ang^3
#
#
#
# Elastic Constant Matrix: (Units=GPa)
#
#
# Indices 1 2 3 4 5 6 
#
# 1 77.0999 49.4713 31.9825 -9.6502 -30.6686 -9.8709
# 2 49.4713 164.5372 17.9186 5.8545 -9.6551 -13.7305
# 3 31.9825 17.9186 106.1052 3.5250 -36.7350 1.9978
# 4 -9.6502 5.8545 3.5250 47.8921 -2.9373 -10.6576
# 5 -30.6686 -9.6551 -36.7350 -2.9373 47.3045 0.6322
# 6 -9.8709 -13.7305 1.9978 -10.6576 0.6322 43.7877
#
#
#
# Elastic Compliance Matrix: (Units=1/GPa)
#
#
# Indices 1 2 3 4 5 6 
#
# 1 0.025106 -0.006337 -0.002098 0.008064 0.013781 0.005532
# 2 -0.006337 0.007983 -0.000387 -0.002274 -0.002929 0.000581
# 3 -0.002098 -0.000387 0.013234 -0.001169 0.008786 -0.001610
# 4 0.008064 -0.002274 -0.001169 0.024777 0.005300 0.007112
# 5 0.013781 -0.002929 0.008786 0.005300 0.036594 0.002549
# 6 0.005532 0.000581 -0.001610 0.007112 0.002549 0.026034
#
#
# Mechanical properties :
#
#
# Convention : Reuss Voigt Hill
#
# Bulk Modulus (GPa) = 34.87112 60.72079 47.79596
# Shear Modulus (GPa) = 31.06921 44.35487 37.71204
#
# Velocity S-wave (km/s) = 3.48225 4.16069 3.83650
# Velocity P-wave (km/s) = 5.45692 6.83964 6.18703
#
# Compressibility (1/GPa) = 0.02867702
#
# Stress axis : x y z
#
# Youngs Moduli (GPa) = 39.83162 125.27192 75.56548
#
# Poissons Ratio (x) = 0.79380 0.15856
# Poissons Ratio (y) = 0.25240 0.02928
# Poissons Ratio (z) = 0.08358 0.04853
#
# Static dielectric constant tensor:
#      x y z
#    x 2.155550 -0.041440 0.093570 
#    y -0.041440 2.176700 -0.017330 
#    z 0.093570 -0.017330 2.171610 
# 
# From -- ./inp_files/101278.got.cif
#   From: 2010.05.17/outbox.cif.g08.bks.cpg/sg2_51_cif.got.tgz:101278.got - 2010.06.03 11:33:40.
