data_PCOD9066329
_publ_section_title
;
Structure prediction by ZEFSAII (Michael W. Deem and Ramdas Pophale) SiO2 
 PCOD9066329
Probable space group: P -1
;
_chemical_formula_sum "Si O2"
_cell_formula_units_Z 15
_cell_length_a 8.836901
_cell_length_b 12.036612
_cell_length_c 18.162914
_cell_angle_alpha 37.269969
_cell_angle_beta 47.808292
_cell_angle_gamma 74.003223
_cell_volume 707.950600
_symmetry_space_group_name_H-M "P -1"
_symmetry_group_IT_number 2
_symmetry_cell_setting 'triclinic'
loop_
_space_group_symop_operation_xyz
x,y,z
-x,-y,-z
loop_
_atom_site_type_symbol
_atom_site_label
_atom_site_fract_x
_atom_site_fract_y
_atom_site_fract_z
Si Si1 0.500000 0.000000 0.000000
Si Si2 0.202988 0.340246 0.189643
Si Si3 0.723850 0.915854 0.109596
Si Si4 0.489573 0.572854 0.625768
Si Si5 0.086756 0.883518 0.456083
Si Si6 0.035964 0.724557 0.399797
Si Si7 0.430056 0.039992 0.703626
Si Si8 0.980345 0.564769 0.055086
O O1 0.687003 0.031962 0.991398
O O2 0.273771 0.923553 0.173591
O O3 0.076736 0.453446 0.136385
O O4 0.131104 0.280877 0.329982
O O5 0.088713 0.096473 0.319199
O O6 0.500000 0.500000 0.000000
O O7 0.587693 0.659196 0.263524
O O8 0.614321 0.945558 0.203750
O O9 0.000000 0.000000 0.000000
O O10 0.478965 0.730360 0.487585
O O11 0.777077 0.698440 0.488477
O O12 0.295043 0.516159 0.785113
O O13 0.081223 0.750253 0.458299
O O14 0.346117 0.989638 0.359171
O O15 0.000000 0.500000 0.500000
O O16 0.175838 0.831745 0.861535
O O17 0.000000 0.500000 0.000000
#
# Coordination Sequence:
#
# PCOD9066329 Si02
#       8
#     1   2   2   2   2   2   2   2
#     4  12  26  46  72 116 150 190 250 298 370 454
#     4  11  25  47  72 102 138 190 248 302 364 428
#     4  12  25  48  78 110 150 194 244 306 379 456
#     4  12  27  48  72 110 149 196 242 308 382 440
#     4  11  25  45  74 105 138 190 246 299 368 442
#     4  12  27  46  72 109 152 189 239 306 371 452
#     4  12  24  48  74 103 144 194 242 304 376 448
#     4  12  29  46  71 108 145 193 252 306 369 445
#
# _framework density 21.187919000000001
#
# number of rings (size 3 to 8) (size 9 to 14) (size 15 to 20)
#    0.000    0.267    6.667    1.200    3.733    3.733 
#    0.000    0.000    0.000    0.000    0.000    0.000 
#    0.000    0.000    0.000    0.000    0.000    0.000 
#
# Total GULP energy -83599.913382 kJ/mol
# GULP energy per Si atom -5573.327559 kJ/mol
# Density = 2.113969 g / cm^3
# Si number density = 21.187919 Si / 1000 Ang^3
#
#
#
# Elastic Constant Matrix: (Units=GPa)
#
#
# Indices 1 2 3 4 5 6 
#
# 1 83.5815 12.8823 25.3734 20.9314 -26.9420 4.5973
# 2 12.8823 115.4189 37.1635 24.1222 0.2527 20.7508
# 3 25.3734 37.1635 91.8850 41.1916 -17.7173 5.4925
# 4 20.9314 24.1222 41.1916 39.1781 -10.6647 -2.0180
# 5 -26.9420 0.2527 -17.7173 -10.6647 36.9343 13.0474
# 6 4.5973 20.7508 5.4925 -2.0180 13.0474 36.0475
#
#
#
# Elastic Compliance Matrix: (Units=1/GPa)
#
#
# Indices 1 2 3 4 5 6 
#
# 1 0.018994 0.000739 0.002034 -0.008998 0.015503 -0.009273
# 2 0.000739 0.011655 -0.001735 -0.006008 0.000368 -0.007009
# 3 0.002034 -0.001735 0.023155 -0.022370 0.008681 -0.007183
# 4 -0.008998 -0.006008 -0.022370 0.056723 -0.005536 0.013194
# 5 0.015503 0.000368 0.008681 -0.005536 0.048499 -0.021376
# 6 -0.009273 -0.007009 -0.007183 0.013194 -0.021376 0.042529
#
#
# Mechanical properties :
#
#
# Convention : Reuss Voigt Hill
#
# Bulk Modulus (GPa) = 17.89559 49.08043 33.48801
# Shear Modulus (GPa) = 22.92465 36.79639 29.86052
#
# Velocity S-wave (km/s) = 3.29290 4.17186 3.75816
# Velocity P-wave (km/s) = 4.78770 6.81326 5.88823
#
# Compressibility (1/GPa) = 0.05587969
#
# Stress axis : x y z
#
# Youngs Moduli (GPa) = 52.64811 85.79949 43.18728
#
# Poissons Ratio (x) = -0.06341 -0.08783
# Poissons Ratio (y) = -0.03891 0.07492
# Poissons Ratio (z) = -0.10707 0.14885
#
# Static dielectric constant tensor:
#      x y z
#    x 1.848340 -0.068590 -0.028680 
#    y -0.068590 1.787930 -0.015850 
#    z -0.028680 -0.015850 1.781110 
# 
# From -- ./inp_files/305346.got.cif
#   From: 2010.05.17/outbox.cif.g08.bks.cpg/sg2_153_cif.got.tgz:305346.got - 2010.06.03 11:33:40.
