data_PCOD9066382
_publ_section_title
;
Structure prediction by ZEFSAII (Michael W. Deem and Ramdas Pophale) SiO2 
 PCOD9066382
Probable space group: P -1
;
_chemical_formula_sum "Si O2"
_cell_formula_units_Z 14
_cell_length_a 15.946669
_cell_length_b 21.744226
_cell_length_c 5.154444
_cell_angle_alpha 123.800863
_cell_angle_beta 64.457445
_cell_angle_gamma 155.429968
_cell_volume 602.926308
_symmetry_space_group_name_H-M "P -1"
_symmetry_group_IT_number 2
_symmetry_cell_setting 'triclinic'
loop_
_space_group_symop_operation_xyz
x,y,z
-x,-y,-z
loop_
_atom_site_type_symbol
_atom_site_label
_atom_site_fract_x
_atom_site_fract_y
_atom_site_fract_z
Si Si1 0.301481 0.809139 0.364258
Si Si2 0.461972 0.172453 0.934699
Si Si3 0.302236 0.164709 0.783530
Si Si4 0.641444 0.586304 0.764955
Si Si5 0.041752 0.618271 0.760552
Si Si6 0.328532 0.548400 0.360892
Si Si7 0.916371 0.029472 0.882766
O O1 0.386244 0.786772 0.163622
O O2 0.217929 0.761037 0.650543
O O3 0.500000 0.000000 0.500000
O O4 0.121828 0.691016 0.113879
O O5 0.410742 0.161916 0.686356
O O6 0.569531 0.317842 0.274474
O O7 0.232674 0.003661 0.967895
O O8 0.492327 0.345222 0.837973
O O9 0.130146 0.034046 0.488213
O O10 0.191872 0.098550 0.051580
O O11 0.500000 0.500000 0.500000
O O12 0.718255 0.556421 0.647058
O O13 0.500000 0.500000 0.000000
O O14 0.847954 0.783318 0.942948
O O15 0.000000 0.500000 0.500000
O O16 0.854644 0.539685 0.749332
#
# Coordination Sequence:
#
# PCOD9066382 Si02
#       7
#     2   2   2   2   2   2   2
#     4  12  27  42  66 107 149 188 237 288 335 427
#     4   9  22  42  71  95 145 180 238 265 353 414
#     4   9  20  40  70  97 126 183 226 266 339 424
#     4  12  29  48  70 104 138 172 237 297 352 415
#     4  12  26  44  71 108 145 186 242 285 347 418
#     4  11  25  45  75  98 142 187 227 293 354 401
#     4   9  21  42  69  93 131 180 216 286 345 405
#
# _framework density 23.220085000000001
#
# number of rings (size 3 to 8) (size 9 to 14) (size 15 to 20)
#    0.857    0.571    1.429    2.571    8.000    1.143 
#    0.000   10.000    0.000    0.000    0.000    0.000 
#    0.000    0.000    0.000    0.000    0.000    0.000 
#
# Total GULP energy -78202.450166 kJ/mol
# GULP energy per Si atom -5585.889298 kJ/mol
# Density = 2.316724 g / cm^3
# Si number density = 23.220085 Si / 1000 Ang^3
#
#
#
# Elastic Constant Matrix: (Units=GPa)
#
#
# Indices 1 2 3 4 5 6 
#
# 1 170.3038 31.9957 36.1413 14.2041 24.0159 15.8607
# 2 31.9957 101.5980 7.5259 0.2051 0.7126 -5.3427
# 3 36.1413 7.5259 67.4584 -2.4905 20.5021 -9.5790
# 4 14.2041 0.2051 -2.4905 39.1987 0.9122 4.9969
# 5 24.0159 0.7126 20.5021 0.9122 39.9296 -0.6196
# 6 15.8607 -5.3427 -9.5790 4.9969 -0.6196 48.6773
#
#
#
# Elastic Compliance Matrix: (Units=1/GPa)
#
#
# Indices 1 2 3 4 5 6 
#
# 1 0.008065 -0.002415 -0.003760 -0.002649 -0.002870 -0.003397
# 2 -0.002415 0.010694 0.000006 0.000545 0.001276 0.001922
# 3 -0.003760 0.000006 0.020039 0.002205 -0.008003 0.004841
# 4 -0.002649 0.000545 0.002205 0.026790 -0.000182 -0.001396
# 5 -0.002870 0.001276 -0.008003 -0.000182 0.030859 -0.000088
# 6 -0.003397 0.001922 0.004841 -0.001396 -0.000088 0.022956
#
#
# Mechanical properties :
#
#
# Convention : Reuss Voigt Hill
#
# Bulk Modulus (GPa) = 37.79186 54.52067 46.15626
# Shear Modulus (GPa) = 35.57176 43.14095 39.35636
#
# Velocity S-wave (km/s) = 3.91825 4.31503 4.12142
# Velocity P-wave (km/s) = 6.06474 6.95391 6.52449
#
# Compressibility (1/GPa) = 0.02646072
#
# Stress axis : x y z
#
# Youngs Moduli (GPa) = 123.98600 93.51270 49.90343
#
# Poissons Ratio (x) = 0.22580 0.18763
# Poissons Ratio (y) = 0.29939 -0.00030
# Poissons Ratio (z) = 0.46616 -0.00055
#
# Static dielectric constant tensor:
#      x y z
#    x 1.847460 0.089110 -0.002850 
#    y 0.089110 1.849560 -0.036790 
#    z -0.002850 -0.036790 1.854630 
# 
# From -- ./inp_files/100280.got.cif
#   From: 2010.05.17/outbox.cif.g08.bks.cpg/sg2_51_cif.got.tgz:100280.got - 2010.06.03 11:33:40.
