data_PCOD9066718
_publ_section_title
;
Structure prediction by ZEFSAII (Michael W. Deem and Ramdas Pophale) SiO2 
 PCOD9066718
Probable space group: P -1
;
_chemical_formula_sum "Si O2"
_cell_formula_units_Z 12
_cell_length_a 8.902712
_cell_length_b 12.511384
_cell_length_c 10.035807
_cell_angle_alpha 39.445814
_cell_angle_beta 76.947987
_cell_angle_gamma 53.926655
_cell_volume 513.881090
_symmetry_space_group_name_H-M "P -1"
_symmetry_group_IT_number 2
_symmetry_cell_setting 'triclinic'
loop_
_space_group_symop_operation_xyz
x,y,z
-x,-y,-z
loop_
_atom_site_type_symbol
_atom_site_label
_atom_site_fract_x
_atom_site_fract_y
_atom_site_fract_z
Si Si1 0.151783 0.432930 0.916096
Si Si2 0.959398 0.706379 0.378208
Si Si3 0.930723 0.828148 0.986294
Si Si4 0.240097 0.695994 0.529641
Si Si5 0.597291 0.024676 0.330193
Si Si6 0.380155 0.622566 0.044041
O O1 0.390393 0.227610 0.099272
O O2 0.123879 0.316647 0.917531
O O3 0.118975 0.656801 0.690100
O O4 0.000000 0.500000 0.000000
O O5 0.000000 0.500000 0.500000
O O6 0.161151 0.653446 0.452559
O O7 0.773691 0.801787 0.427397
O O8 0.881305 0.878505 0.104958
O O9 0.175878 0.664983 0.069555
O O10 0.819949 0.065472 0.704741
O O11 0.469545 0.513558 0.725984
O O12 0.500000 0.000000 0.500000
O O13 0.703408 0.130039 0.212512
O O14 0.500000 0.500000 0.000000
#
# Coordination Sequence:
#
# PCOD9066718 Si02
#       6
#     2   2   2   2   2   2
#     4  11  25  46  74 109 150 199 252 310 378 450
#     4  12  26  49  77 108 153 201 252 315 377 448
#     4  12  26  47  75 106 153 197 250 310 382 443
#     4  11  25  49  69 109 150 194 250 311 371 449
#     4  11  26  47  75 107 150 196 254 308 379 454
#     4  11  27  45  75 113 145 195 254 309 380 450
#
# _framework density 23.351707000000001
#
# number of rings (size 3 to 8) (size 9 to 14) (size 15 to 20)
#    0.000    0.667    3.333    3.500    4.667    2.667 
#    3.000    0.000    0.000    0.000    0.000    0.000 
#    0.000    0.000    0.000    0.000    0.000    0.000 
#
# Total GULP energy -66853.582064 kJ/mol
# GULP energy per Si atom -5571.131839 kJ/mol
# Density = 2.329856 g / cm^3
# Si number density = 23.351707 Si / 1000 Ang^3
#
#
#
# Elastic Constant Matrix: (Units=GPa)
#
#
# Indices 1 2 3 4 5 6 
#
# 1 41.0802 -7.2561 27.8760 -3.2401 6.8067 -11.2399
# 2 -7.2561 90.7223 23.0841 -7.1873 2.8950 -5.7591
# 3 27.8760 23.0841 147.2218 -9.0467 2.5506 -3.8952
# 4 -3.2401 -7.1873 -9.0467 41.2825 -2.7380 -6.5738
# 5 6.8067 2.8950 2.5506 -2.7380 41.0726 2.0211
# 6 -11.2399 -5.7591 -3.8952 -6.5738 2.0211 30.1854
#
#
#
# Elastic Compliance Matrix: (Units=1/GPa)
#
#
# Indices 1 2 3 4 5 6 
#
# 1 0.035576 0.006093 -0.006925 0.004283 -0.006342 0.014874
# 2 0.006093 0.012830 -0.002829 0.002781 -0.001803 0.005078
# 3 -0.006925 -0.002829 0.008515 0.000582 0.000953 -0.001957
# 4 0.004283 0.002781 0.000582 0.026463 0.000432 0.007935
# 5 -0.006342 -0.001803 0.000953 0.000432 0.025702 -0.004209
# 6 0.014874 0.005078 -0.001957 0.007935 -0.004209 0.041393
#
#
# Mechanical properties :
#
#
# Convention : Reuss Voigt Hill
#
# Bulk Modulus (GPa) = 20.16142 40.71471 30.43807
# Shear Modulus (GPa) = 28.68055 38.19612 33.43834
#
# Velocity S-wave (km/s) = 3.50837 4.04875 3.78821
# Velocity P-wave (km/s) = 5.00641 6.27135 5.67424
#
# Compressibility (1/GPa) = 0.04959968
#
# Stress axis : x y z
#
# Youngs Moduli (GPa) = 28.10862 77.94197 117.44329
#
# Poissons Ratio (x) = -0.47493 0.81331
# Poissons Ratio (y) = -0.17128 0.33225
# Poissons Ratio (z) = 0.19465 0.22050
#
# Static dielectric constant tensor:
#      x y z
#    x 1.433090 0.018730 0.314180 
#    y 0.018730 1.260690 0.430620 
#    z 0.314180 0.430620 1.645710 
# 
# From -- ./inp_files/183699.got.cif
#   From: 2010.05.17/outbox.cif.g08.bks.cpg/sg2_92_cif.got.tgz:183699.got - 2010.06.03 11:33:40.
