data_PCOD9066656
_publ_section_title
;
Structure prediction by ZEFSAII (Michael W. Deem and Ramdas Pophale) SiO2 
 PCOD9066656
Probable space group: P -1
;
_chemical_formula_sum "Si O2"
_cell_formula_units_Z 14
_cell_length_a 11.747258
_cell_length_b 9.055051
_cell_length_c 18.449989
_cell_angle_alpha 137.783842
_cell_angle_beta 152.264746
_cell_angle_gamma 47.824259
_cell_volume 612.915069
_symmetry_space_group_name_H-M "P -1"
_symmetry_group_IT_number 2
_symmetry_cell_setting 'triclinic'
loop_
_space_group_symop_operation_xyz
x,y,z
-x,-y,-z
loop_
_atom_site_type_symbol
_atom_site_label
_atom_site_fract_x
_atom_site_fract_y
_atom_site_fract_z
Si Si1 0.122351 0.222267 0.670320
Si Si2 0.300753 0.892823 0.051029
Si Si3 0.482501 0.977089 0.394560
Si Si4 0.268408 0.895496 0.865411
Si Si5 0.093483 0.744820 0.281641
Si Si6 0.044222 0.728769 0.982574
Si Si7 0.800604 0.577372 0.358232
O O1 0.413854 0.173907 0.816009
O O2 0.014519 0.280931 0.708449
O O3 0.078261 0.386631 0.638247
O O4 0.000000 0.000000 0.500000
O O5 0.173911 0.732963 0.978033
O O6 0.222316 0.904226 0.927820
O O7 0.215283 0.133123 0.120398
O O8 0.220755 0.881977 0.186885
O O9 0.653771 0.789134 0.382705
O O10 0.500000 0.000000 0.500000
O O11 0.618285 0.201044 0.530404
O O12 0.349048 0.638167 0.807242
O O13 0.043469 0.037482 0.752608
O O14 0.500000 0.000000 0.000000
O O15 0.016916 0.517748 0.117469
O O16 0.000000 0.500000 0.500000
#
# Coordination Sequence:
#
# PCOD9066656 Si02
#       7
#     2   2   2   2   2   2   2
#     4  12  23  47  75 104 147 185 247 305 358 432
#     4  11  25  46  73 105 146 192 239 303 363 431
#     4  12  26  48  73 103 151 189 239 301 364 432
#     4  12  24  40  71 107 140 184 246 294 360 428
#     4  12  25  48  75 111 143 194 246 298 363 436
#     4  11  26  49  73 104 149 195 241 295 370 436
#     4  12  25  45  71 105 141 187 238 305 361 418
#
# _framework density 22.841661999999999
#
# number of rings (size 3 to 8) (size 9 to 14) (size 15 to 20)
#    0.000    0.286    5.714    2.571    0.000    4.571 
#    0.000    3.571    0.000    0.000    0.000    0.000 
#    0.000    0.000    0.000    0.000    0.000    0.000 
#
# Total GULP energy -78034.776501 kJ/mol
# GULP energy per Si atom -5573.912607 kJ/mol
# Density = 2.278967 g / cm^3
# Si number density = 22.841662 Si / 1000 Ang^3
#
#
#
# Elastic Constant Matrix: (Units=GPa)
#
#
# Indices 1 2 3 4 5 6 
#
# 1 135.6857 14.9115 53.4398 8.9496 -10.3543 18.0466
# 2 14.9115 49.6577 36.3802 15.5958 5.2091 30.2940
# 3 53.4398 36.3802 107.4405 29.6293 4.3517 19.4608
# 4 8.9496 15.5958 29.6293 45.1498 12.5328 4.9197
# 5 -10.3543 5.2091 4.3517 12.5328 34.2447 -9.3870
# 6 18.0466 30.2940 19.4608 4.9197 -9.3870 34.9056
#
#
#
# Elastic Compliance Matrix: (Units=1/GPa)
#
#
# Indices 1 2 3 4 5 6 
#
# 1 0.009860 0.003756 -0.005464 0.000431 0.001591 -0.004944
# 2 0.003756 0.067654 -0.012152 -0.003353 -0.022697 -0.059513
# 3 -0.005464 -0.012152 0.017016 -0.007067 0.002114 0.005449
# 4 0.000431 -0.003353 -0.007067 0.030597 -0.009743 -0.000305
# 5 0.001591 -0.022697 0.002114 -0.009743 0.044975 0.031165
# 6 -0.004944 -0.059513 0.005449 -0.000305 0.031165 0.088241
#
#
# Mechanical properties :
#
#
# Convention : Reuss Voigt Hill
#
# Bulk Modulus (GPa) = 14.96798 55.80520 35.38659
# Shear Modulus (GPa) = 16.21624 35.39685 25.80654
#
# Velocity S-wave (km/s) = 2.66736 3.94084 3.36490
# Velocity P-wave (km/s) = 4.00669 6.72245 5.53376
#
# Compressibility (1/GPa) = 0.06680927
#
# Stress axis : x y z
#
# Youngs Moduli (GPa) = 101.42388 14.78111 58.76817
#
# Poissons Ratio (x) = -0.05552 0.32108
# Poissons Ratio (y) = -0.38093 0.71417
# Poissons Ratio (z) = 0.55414 0.17963
#
# Static dielectric constant tensor:
#      x y z
#    x 1.820010 0.012120 0.012090 
#    y 0.012120 1.838640 -0.089400 
#    z 0.012090 -0.089400 1.912140 
# 
# From -- ./inp_files/567084.got.cif
#   From: 2010.05.17/outbox.cif.g08.bks.cpg/sg2_284_cif.got.tgz:567084.got - 2010.06.03 11:33:40.
