data_PCOD9066161
_publ_section_title
;
Structure prediction by ZEFSAII (Michael W. Deem and Ramdas Pophale) SiO2 
 PCOD9066161
Probable space group: P -1
;
_chemical_formula_sum "Si O2"
_cell_formula_units_Z 16
_cell_length_a 5.123943
_cell_length_b 23.663481
_cell_length_c 11.247420
_cell_angle_alpha 140.339107
_cell_angle_beta 109.104395
_cell_angle_gamma 97.363603
_cell_volume 638.526380
_symmetry_space_group_name_H-M "P -1"
_symmetry_group_IT_number 2
_symmetry_cell_setting 'triclinic'
loop_
_space_group_symop_operation_xyz
x,y,z
-x,-y,-z
loop_
_atom_site_type_symbol
_atom_site_label
_atom_site_fract_x
_atom_site_fract_y
_atom_site_fract_z
Si Si1 0.573061 0.994568 0.274461
Si Si2 0.345945 0.570933 0.906175
Si Si3 0.414291 0.765348 0.890751
Si Si4 0.067147 0.036904 0.207066
Si Si5 0.959440 0.669113 0.446894
Si Si6 0.070806 0.235576 0.862059
Si Si7 0.414585 0.704552 0.352802
Si Si8 0.083524 0.403099 0.277179
O O1 0.201972 0.972048 0.178229
O O2 0.755519 0.017588 0.208472
O O3 0.824723 0.106891 0.573479
O O4 0.521151 0.885777 0.138578
O O5 0.303855 0.460752 0.756347
O O6 0.073633 0.539615 0.708752
O O7 0.706301 0.682097 0.083316
O O8 0.267445 0.609777 0.076545
O O9 0.314919 0.746005 0.705915
O O10 0.041077 0.660680 0.721090
O O11 0.683506 0.752969 0.975675
O O12 0.398400 0.171657 0.475230
O O13 0.000000 0.000000 0.000000
O O14 0.112098 0.672965 0.347613
O O15 0.735893 0.714343 0.479568
O O16 0.917656 0.294346 0.989320
O O17 0.500000 0.500000 0.500000
#
# Coordination Sequence:
#
# PCOD9066161 Si02
#       8
#     2   2   2   2   2   2   2   2
#     4  12  26  46  76 105 144 185 242 298 353 429
#     4  11  25  45  69 107 141 188 240 290 365 422
#     4  11  27  46  69 111 140 187 243 292 362 419
#     4  12  25  47  73 102 146 193 238 291 359 424
#     4  12  27  44  73 103 145 185 237 298 350 428
#     4  11  25  45  74 102 147 190 237 300 353 434
#     4  12  26  46  71 105 141 187 237 295 357 422
#     4  11  25  45  77 101 147 190 237 299 356 433
#
# _framework density 25.057694999999999
#
# number of rings (size 3 to 8) (size 9 to 14) (size 15 to 20)
#    0.000    0.500    1.250    6.000   10.500    2.500 
#    0.000    0.000    0.000    0.000    0.000    0.000 
#    0.000    0.000    0.000    0.000    0.000    0.000 
#
# Total GULP energy -89623.775938 kJ/mol
# GULP energy per Si atom -5601.485996 kJ/mol
# Density = 2.500066 g / cm^3
# Si number density = 25.057695 Si / 1000 Ang^3
#
#
#
# Elastic Constant Matrix: (Units=GPa)
#
#
# Indices 1 2 3 4 5 6 
#
# 1 65.8914 14.5879 7.0096 7.0560 -15.0798 -6.2412
# 2 14.5879 86.1575 19.7674 8.6775 -3.7733 -17.0816
# 3 7.0096 19.7674 120.5267 6.3987 -19.1259 8.1158
# 4 7.0560 8.6775 6.3987 50.9962 -4.7471 -8.5234
# 5 -15.0798 -3.7733 -19.1259 -4.7471 36.7589 0.2000
# 6 -6.2412 -17.0816 8.1158 -8.5234 0.2000 34.3770
#
#
#
# Elastic Compliance Matrix: (Units=1/GPa)
#
#
# Indices 1 2 3 4 5 6 
#
# 1 0.017527 -0.002325 0.000430 -0.001163 0.007016 0.001596
# 2 -0.002325 0.014057 -0.002784 -0.000640 -0.001080 0.007068
# 3 0.000430 -0.002784 0.009821 -0.001015 0.004891 -0.003904
# 4 -0.001163 -0.000640 -0.001015 0.020976 0.001611 0.004902
# 5 0.007016 -0.001080 0.004891 0.001611 0.032726 -0.000209
# 6 0.001596 0.007068 -0.003904 0.004902 -0.000209 0.035029
#
#
# Mechanical properties :
#
#
# Convention : Reuss Voigt Hill
#
# Bulk Modulus (GPa) = 31.20395 39.47839 35.34117
# Shear Modulus (GPa) = 33.29398 39.84045 36.56722
#
# Velocity S-wave (km/s) = 3.64908 3.99174 3.82425
# Velocity P-wave (km/s) = 5.49857 6.08560 5.79952
#
# Compressibility (1/GPa) = 0.03204723
#
# Stress axis : x y z
#
# Youngs Moduli (GPa) = 57.05459 71.13678 101.81895
#
# Poissons Ratio (x) = 0.16542 -0.04375
# Poissons Ratio (y) = 0.13267 0.28343
# Poissons Ratio (z) = -0.02452 0.19802
#
# Static dielectric constant tensor:
#      x y z
#    x 1.985970 0.021170 0.010420 
#    y 0.021170 1.963010 -0.051900 
#    z 0.010420 -0.051900 1.957010 
# 
# From -- ./inp_files/69011.got.cif
#   From: 2010.05.17/outbox.cif.g08.bks.cpg/sg2_35_cif.got.tgz:69011.got - 2010.06.03 11:33:40.
