data_PCOD9066892
_publ_section_title
;
Structure prediction by ZEFSAII (Michael W. Deem and Ramdas Pophale) SiO2 
 PCOD9066892
Probable space group: P -1
;
_chemical_formula_sum "Si O2"
_cell_formula_units_Z 16
_cell_length_a 11.100145
_cell_length_b 8.945837
_cell_length_c 17.808736
_cell_angle_alpha 47.266341
_cell_angle_beta 148.608799
_cell_angle_gamma 121.077642
_cell_volume 667.326517
_symmetry_space_group_name_H-M "P -1"
_symmetry_group_IT_number 2
_symmetry_cell_setting 'triclinic'
loop_
_space_group_symop_operation_xyz
x,y,z
-x,-y,-z
loop_
_atom_site_type_symbol
_atom_site_label
_atom_site_fract_x
_atom_site_fract_y
_atom_site_fract_z
Si Si1 0.794903 0.066754 0.430859
Si Si2 0.130095 0.574473 0.379288
Si Si3 0.779780 0.345390 0.012045
Si Si4 0.607969 0.532941 0.125560
Si Si5 0.005306 0.905539 0.310035
Si Si6 0.043763 0.649714 0.140514
Si Si7 0.641139 0.022028 0.844086
Si Si8 0.621097 0.739329 0.261958
O O1 0.688705 0.308826 0.282631
O O2 0.883230 0.032303 0.573985
O O3 0.572421 0.957357 0.334625
O O4 0.000000 0.000000 0.500000
O O5 0.168848 0.555581 0.316661
O O6 0.234861 0.379851 0.552154
O O7 0.848958 0.613225 0.219131
O O8 0.176932 0.765568 0.390939
O O9 0.949898 0.498727 0.081119
O O10 0.914040 0.117612 0.146544
O O11 0.604507 0.329897 0.992802
O O12 0.577078 0.393889 0.824510
O O13 0.500000 0.500000 0.000000
O O14 0.801270 0.785866 0.277441
O O15 0.217451 0.789315 0.150344
O O16 0.817598 0.814699 0.989928
O O17 0.513803 0.046358 0.848638
#
# Coordination Sequence:
#
# PCOD9066892 Si02
#       8
#     2   2   2   2   2   2   2   2
#     4  12  22  40  67 103 131 171 222 282 339 387
#     4  12  24  43  66 103 138 172 222 275 341 393
#     4  12  25  40  67 100 134 176 220 271 338 393
#     4  12  21  35  65  97 135 169 219 276 330 396
#     4  12  25  39  68 105 136 169 219 282 343 389
#     4  11  27  47  69  94 134 187 226 269 321 414
#     4  11  25  47  71  93 134 180 232 267 334 394
#     4  12  25  42  68 102 137 171 217 288 333 393
#
# _framework density 23.97627
#
# number of rings (size 3 to 8) (size 9 to 14) (size 15 to 20)
#    0.000    0.250    6.250    3.000    3.500    1.000 
#    0.000    0.625    0.000    0.000    0.000    0.000 
#    0.000    0.000    0.000    0.000    0.000    0.000 
#
# Total GULP energy -89349.527377 kJ/mol
# GULP energy per Si atom -5584.345461 kJ/mol
# Density = 2.392170 g / cm^3
# Si number density = 23.976270 Si / 1000 Ang^3
#
#
#
# Elastic Constant Matrix: (Units=GPa)
#
#
# Indices 1 2 3 4 5 6 
#
# 1 27.5251 5.9392 11.6505 12.0111 5.1049 -5.7608
# 2 5.9392 95.2619 41.4323 16.1720 -0.4025 1.2518
# 3 11.6505 41.4323 106.4633 28.5937 -13.4707 7.8797
# 4 12.0111 16.1720 28.5937 51.1213 -12.8034 -1.1323
# 5 5.1049 -0.4025 -13.4707 -12.8034 25.3694 3.4400
# 6 -5.7608 1.2518 7.8797 -1.1323 3.4400 38.6319
#
#
#
# Elastic Compliance Matrix: (Units=1/GPa)
#
#
# Indices 1 2 3 4 5 6 
#
# 1 0.051061 0.001607 -0.005869 -0.014528 -0.022094 0.010301
# 2 0.001607 0.013074 -0.005185 -0.002685 -0.004385 0.001185
# 3 -0.005869 -0.005185 0.014175 -0.003088 0.007660 -0.004371
# 4 -0.014528 -0.002685 -0.003088 0.029632 0.016473 -0.002048
# 5 -0.022094 -0.004385 0.007660 0.016473 0.057442 -0.009347
# 6 0.010301 0.001185 -0.004371 -0.002048 -0.009347 0.029047
#
#
# Mechanical properties :
#
#
# Convention : Reuss Voigt Hill
#
# Bulk Modulus (GPa) = 16.83074 38.58824 27.70949
# Shear Modulus (GPa) = 21.44713 34.37309 27.91011
#
# Velocity S-wave (km/s) = 2.99409 3.79044 3.41555
# Velocity P-wave (km/s) = 4.35749 5.94019 5.20930
#
# Compressibility (1/GPa) = 0.05941508
#
# Stress axis : x y z
#
# Youngs Moduli (GPa) = 19.58440 76.48665 70.54616
#
# Poissons Ratio (x) = -0.12290 0.41404
# Poissons Ratio (y) = -0.03147 0.36580
# Poissons Ratio (z) = 0.11494 0.39661
#
# Static dielectric constant tensor:
#      x y z
#    x 1.943770 -0.096600 0.033090 
#    y -0.096600 2.092950 -0.034980 
#    z 0.033090 -0.034980 1.959890 
# 
# From -- ./inp_files/273882.got.cif
#   From: 2010.05.17/outbox.cif.g08.bks.cpg/sg2_137_cif.got.tgz:273882.got - 2010.06.03 11:33:40.
