data_PCOD9066454
_publ_section_title
;
Structure prediction by ZEFSAII (Michael W. Deem and Ramdas Pophale) SiO2 
 PCOD9066454
Probable space group: P -1
;
_chemical_formula_sum "Si O2"
_cell_formula_units_Z 10
_cell_length_a 5.352629
_cell_length_b 7.196204
_cell_length_c 10.801939
_cell_angle_alpha 120.761470
_cell_angle_beta 78.488305
_cell_angle_gamma 112.643726
_cell_volume 329.973635
_symmetry_space_group_name_H-M "P -1"
_symmetry_group_IT_number 2
_symmetry_cell_setting 'triclinic'
loop_
_space_group_symop_operation_xyz
x,y,z
-x,-y,-z
loop_
_atom_site_type_symbol
_atom_site_label
_atom_site_fract_x
_atom_site_fract_y
_atom_site_fract_z
Si Si1 0.246250 0.056541 0.397579
Si Si2 0.246022 0.904343 0.950949
Si Si3 0.488935 0.678638 0.315823
Si Si4 0.001781 0.315252 0.330162
Si Si5 0.254673 0.529717 0.958482
O O1 0.459336 0.258317 0.523516
O O2 0.118353 0.129860 0.316158
O O3 0.000000 0.000000 0.500000
O O4 0.390134 0.865321 0.318300
O O5 0.470963 0.834374 0.991623
O O6 0.249325 0.794496 0.774514
O O7 0.025606 0.651854 0.990936
O O8 0.000000 0.000000 0.000000
O O9 0.232299 0.456187 0.263174
O O10 0.739994 0.626049 0.215621
O O11 0.000000 0.500000 0.500000
O O12 0.500000 0.500000 0.000000
#
# Coordination Sequence:
#
# PCOD9066454 Si02
#       5
#     2   2   2   2   2
#     4  11  25  45  80 122 160 210 275 347 413 499
#     4  12  29  53  78 120 164 215 276 339 417 496
#     4  11  26  49  76 120 165 211 281 339 424 488
#     4  12  25  50  84 117 169 217 274 345 423 494
#     4  12  28  51  80 110 159 220 270 334 407 492
#
# _framework density 30.305454000000001
#
# number of rings (size 3 to 8) (size 9 to 14) (size 15 to 20)
#    0.000    0.400    2.000    5.400    5.600    3.200 
#    3.600    0.000    0.000    0.000    0.000    0.000 
#    0.000    0.000    0.000    0.000    0.000    0.000 
#
# Total GULP energy -55905.260724 kJ/mol
# GULP energy per Si atom -5590.526072 kJ/mol
# Density = 3.023648 g / cm^3
# Si number density = 30.305454 Si / 1000 Ang^3
#
#
#
# Elastic Constant Matrix: (Units=GPa)
#
#
# Indices 1 2 3 4 5 6 
#
# 1 299.7622 89.4603 88.7013 3.3727 15.8769 -16.9573
# 2 89.4603 184.8045 86.2143 -6.0239 23.6289 -57.4470
# 3 88.7013 86.2143 200.4976 8.1011 17.5949 -28.3716
# 4 3.3727 -6.0239 8.1011 44.5776 -15.3051 9.8701
# 5 15.8769 23.6289 17.5949 -15.3051 82.2418 -1.3709
# 6 -16.9573 -57.4470 -28.3716 9.8701 -1.3709 81.3787
#
#
#
# Elastic Compliance Matrix: (Units=1/GPa)
#
#
# Indices 1 2 3 4 5 6 
#
# 1 0.004157 -0.001660 -0.001206 -0.000204 -0.000117 -0.000703
# 2 -0.001660 0.009152 -0.002303 0.000020 -0.001724 0.005280
# 3 -0.001206 -0.002303 0.006767 -0.001912 -0.000897 0.000699
# 4 -0.000204 0.000020 -0.001912 0.025366 0.005102 -0.003686
# 5 -0.000117 -0.001724 -0.000897 0.005102 0.013786 -0.001941
# 6 -0.000703 0.005280 0.000699 -0.003686 -0.001941 0.016527
#
#
# Mechanical properties :
#
#
# Convention : Reuss Voigt Hill
#
# Bulk Modulus (GPa) = 102.70754 134.86845 118.78799
# Shear Modulus (GPa) = 55.96675 69.68552 62.82614
#
# Velocity S-wave (km/s) = 4.30205 4.80045 4.55807
# Velocity P-wave (km/s) = 7.65775 8.67902 8.18433
#
# Compressibility (1/GPa) = 0.00973638
#
# Stress axis : x y z
#
# Youngs Moduli (GPa) = 240.55686 109.27166 147.78648
#
# Poissons Ratio (x) = 0.18137 0.17828
# Poissons Ratio (y) = 0.39929 0.34037
# Poissons Ratio (z) = 0.29019 0.25167
#
# Static dielectric constant tensor:
#      x y z
#    x 2.585700 0.922110 -0.092030 
#    y 0.922110 5.277700 -1.093310 
#    z -0.092030 -1.093310 3.426120 
# 
# From -- ./inp_files/129453.got.cif
#   From: 2010.05.17/outbox.cif.g08.bks.cpg/sg2_65_cif.got.tgz:129453.got - 2010.06.03 11:33:40.
