data_PCOD9066773
_publ_section_title
;
Structure prediction by ZEFSAII (Michael W. Deem and Ramdas Pophale) SiO2 
 PCOD9066773
Probable space group: P -1
;
_chemical_formula_sum "Si O2"
_cell_formula_units_Z 14
_cell_length_a 14.051359
_cell_length_b 9.414856
_cell_length_c 15.390490
_cell_angle_alpha 133.401420
_cell_angle_beta 28.673213
_cell_angle_gamma 112.670356
_cell_volume 554.832580
_symmetry_space_group_name_H-M "P -1"
_symmetry_group_IT_number 2
_symmetry_cell_setting 'triclinic'
loop_
_space_group_symop_operation_xyz
x,y,z
-x,-y,-z
loop_
_atom_site_type_symbol
_atom_site_label
_atom_site_fract_x
_atom_site_fract_y
_atom_site_fract_z
Si Si1 0.003515 0.870925 0.170963
Si Si2 0.064672 0.233990 0.349207
Si Si3 0.479859 0.036932 0.729297
Si Si4 0.833205 0.388534 0.774298
Si Si5 0.621981 0.798763 0.691956
Si Si6 0.470904 0.510705 0.771597
Si Si7 0.180914 0.024445 0.809032
O O1 0.753189 0.950392 0.451036
O O2 0.997297 0.780211 0.041881
O O3 0.007252 0.107567 0.268201
O O4 0.240899 0.665504 0.952531
O O5 0.000000 0.500000 0.500000
O O6 0.909298 0.246088 0.562006
O O7 0.367428 0.044584 0.042150
O O8 0.533533 0.847353 0.682498
O O9 0.336163 0.053602 0.765573
O O10 0.306658 0.324168 0.019428
O O11 0.109404 0.258639 0.540847
O O12 0.648238 0.404853 0.000809
O O13 0.650977 0.576920 0.625586
O O14 0.615526 0.223158 0.513890
O O15 0.000000 0.000000 0.000000
#
# Coordination Sequence:
#
# PCOD9066773 Si02
#       7
#     2   2   2   2   2   2   2
#     4  11  26  47  69 111 144 183 245 295 354 432
#     4  11  25  46  76 104 146 191 236 293 361 424
#     4  12  25  47  73 106 143 191 240 296 355 427
#     4  12  25  46  73 105 142 193 235 291 360 420
#     4  11  25  47  71 109 146 181 245 292 355 428
#     4  11  26  45  72 107 143 187 239 292 358 426
#     4  12  26  46  75 102 145 191 240 295 362 419
#
# _framework density 25.232835000000001
#
# number of rings (size 3 to 8) (size 9 to 14) (size 15 to 20)
#    0.000    0.571    4.286    3.429    2.000    6.857 
#    2.571    0.000    0.000    0.000    0.000    0.000 
#    0.000    0.000    0.000    0.000    0.000    0.000 
#
# Total GULP energy -78347.700094 kJ/mol
# GULP energy per Si atom -5596.264292 kJ/mol
# Density = 2.517540 g / cm^3
# Si number density = 25.232835 Si / 1000 Ang^3
#
#
#
# Elastic Constant Matrix: (Units=GPa)
#
#
# Indices 1 2 3 4 5 6 
#
# 1 118.3452 13.4829 1.7293 -17.0413 -0.8508 -9.6068
# 2 13.4829 94.2913 13.2116 -26.8721 5.4136 -14.8595
# 3 1.7293 13.2116 73.2578 -25.4611 5.4679 -7.4136
# 4 -17.0413 -26.8721 -25.4611 39.9130 -5.8268 -4.9787
# 5 -0.8508 5.4136 5.4679 -5.8268 27.5409 -11.7528
# 6 -9.6068 -14.8595 -7.4136 -4.9787 -11.7528 39.6781
#
#
#
# Elastic Compliance Matrix: (Units=1/GPa)
#
#
# Indices 1 2 3 4 5 6 
#
# 1 0.009849 0.001054 0.002518 0.007679 0.003457 0.005237
# 2 0.001054 0.015421 0.002871 0.014344 0.003476 0.009396
# 3 0.002518 0.002871 0.019595 0.016942 0.002743 0.008284
# 4 0.007679 0.014344 0.016942 0.053593 0.014536 0.021427
# 5 0.003457 0.003476 0.002743 0.014536 0.045987 0.018096
# 6 0.005237 0.009396 0.008284 0.021427 0.018096 0.039586
#
#
# Mechanical properties :
#
#
# Convention : Reuss Voigt Hill
#
# Bulk Modulus (GPa) = 17.31547 38.08243 27.69895
# Shear Modulus (GPa) = 26.26117 38.59109 32.42613
#
# Velocity S-wave (km/s) = 3.22957 3.91500 3.58869
# Velocity P-wave (km/s) = 4.55895 5.96334 5.30780
#
# Compressibility (1/GPa) = 0.05775183
#
# Stress axis : x y z
#
# Youngs Moduli (GPa) = 101.53583 64.84468 51.03315
#
# Poissons Ratio (x) = -0.06836 -0.12852
# Poissons Ratio (y) = -0.10705 -0.14650
# Poissons Ratio (z) = -0.25571 -0.18614
#
# Static dielectric constant tensor:
#      x y z
#    x 2.065510 -0.038070 0.021170 
#    y -0.038070 2.049860 0.021170 
#    z 0.021170 0.021170 1.963330 
# 
# From -- ./inp_files/313077.got.cif
#   From: 2010.05.17/outbox.cif.g08.bks.cpg/sg2_157_cif.got.tgz:313077.got - 2010.06.03 11:33:40.
