data_PCOD9066896
_publ_section_title
;
Structure prediction by ZEFSAII (Michael W. Deem and Ramdas Pophale) SiO2 
 PCOD9066896
Probable space group: P -1
;
_chemical_formula_sum "Si O2"
_cell_formula_units_Z 16
_cell_length_a 8.699139
_cell_length_b 12.506994
_cell_length_c 15.587441
_cell_angle_alpha 117.960044
_cell_angle_beta 152.110890
_cell_angle_gamma 69.851372
_cell_volume 690.574573
_symmetry_space_group_name_H-M "P -1"
_symmetry_group_IT_number 2
_symmetry_cell_setting 'triclinic'
loop_
_space_group_symop_operation_xyz
x,y,z
-x,-y,-z
loop_
_atom_site_type_symbol
_atom_site_label
_atom_site_fract_x
_atom_site_fract_y
_atom_site_fract_z
Si Si1 0.052555 0.600274 0.286721
Si Si2 0.322819 0.494315 0.101996
Si Si3 0.787942 0.003857 0.481986
Si Si4 0.790821 0.736689 0.364962
Si Si5 0.181865 0.065110 0.874349
Si Si6 0.864062 0.914438 0.822935
Si Si7 0.846361 0.652348 0.667287
Si Si8 0.306661 0.702219 0.745893
O O1 0.440385 0.634354 0.459571
O O2 0.049795 0.470295 0.287276
O O3 0.909766 0.696134 0.315073
O O4 0.806221 0.576516 0.075481
O O5 0.521353 0.624845 0.222495
O O6 0.573715 0.427079 0.255035
O O7 0.000000 0.500000 0.000000
O O8 0.637791 0.858971 0.355700
O O9 0.529123 0.093256 0.372275
O O10 0.000000 0.000000 0.500000
O O11 0.986404 0.046648 0.681938
O O12 0.122940 0.747325 0.591097
O O13 0.352344 0.203777 0.030976
O O14 0.971544 0.989867 0.817526
O O15 0.500000 0.000000 0.000000
O O16 0.959422 0.779704 0.822983
O O17 0.000000 0.000000 0.000000
O O18 0.037998 0.683494 0.683589
#
# Coordination Sequence:
#
# PCOD9066896 Si02
#       8
#     2   2   2   2   2   2   2   2
#     4  11  27  45  75 104 140 187 240 298 348 426
#     4  12  29  45  72 106 141 186 240 294 361 415
#     4  12  28  47  73 107 150 188 241 299 359 432
#     4  12  26  48  72 106 143 188 240 290 360 425
#     4  12  25  48  71 107 140 192 241 293 360 429
#     4  12  28  45  76 107 144 191 240 299 363 427
#     4  11  25  47  72 100 146 183 240 284 364 412
#     4  12  27  47  76 100 148 186 236 294 358 431
#
# _framework density 23.169111999999998
#
# number of rings (size 3 to 8) (size 9 to 14) (size 15 to 20)
#    0.000    0.250    3.750    3.375   12.250    0.000 
#    0.000    0.000    0.000    0.000    0.000    0.000 
#    0.000    0.000    0.000    0.000    0.000    0.000 
#
# Total GULP energy -89549.771494 kJ/mol
# GULP energy per Si atom -5596.860718 kJ/mol
# Density = 2.311638 g / cm^3
# Si number density = 23.169112 Si / 1000 Ang^3
#
#
#
# Elastic Constant Matrix: (Units=GPa)
#
#
# Indices 1 2 3 4 5 6 
#
# 1 89.6370 2.3500 9.4117 15.3284 3.9096 -3.6075
# 2 2.3500 61.9420 10.0327 18.7414 -1.1819 -3.0983
# 3 9.4117 10.0327 67.5101 18.8511 -16.4698 -3.6893
# 4 15.3284 18.7414 18.8511 43.2910 4.7682 8.8769
# 5 3.9096 -1.1819 -16.4698 4.7682 45.0360 2.8383
# 6 -3.6075 -3.0983 -3.6893 8.8769 2.8383 33.3403
#
#
#
# Elastic Compliance Matrix: (Units=1/GPa)
#
#
# Indices 1 2 3 4 5 6 
#
# 1 0.012207 0.001304 -0.000508 -0.005153 -0.000844 0.002829
# 2 0.001304 0.019333 0.000309 -0.010037 0.001284 0.004535
# 3 -0.000508 0.000309 0.019983 -0.010433 0.008196 0.004265
# 4 -0.005153 -0.010037 -0.010433 0.037005 -0.006798 -0.011919
# 5 -0.000844 0.001284 0.008196 -0.006798 0.025995 0.000532
# 6 0.002829 0.004535 0.004265 -0.011919 0.000532 0.034321
#
#
# Mechanical properties :
#
#
# Convention : Reuss Voigt Hill
#
# Bulk Modulus (GPa) = 18.61085 29.18642 23.89864
# Shear Modulus (GPa) = 30.38667 37.48645 33.93656
#
# Velocity S-wave (km/s) = 3.62542 4.02674 3.83133
# Velocity P-wave (km/s) = 5.05716 5.85183 5.46895
#
# Compressibility (1/GPa) = 0.05373209
#
# Stress axis : x y z
#
# Youngs Moduli (GPa) = 81.91961 51.72561 50.04183
#
# Poissons Ratio (x) = -0.06743 0.02542
# Poissons Ratio (y) = -0.10679 -0.01546
# Poissons Ratio (z) = 0.04162 -0.01598
#
# Static dielectric constant tensor:
#      x y z
#    x 1.800470 -0.096890 -0.088120 
#    y -0.096890 1.620070 -0.269430 
#    z -0.088120 -0.269430 1.613730 
# 
# From -- ./inp_files/500637.got.cif
#   From: 2010.05.17/outbox.cif.g08.bks.cpg/sg2_251_cif.got.tgz:500637.got - 2010.06.03 11:33:40.
