data_PCOD9066292
_publ_section_title
;
Structure prediction by ZEFSAII (Michael W. Deem and Ramdas Pophale) SiO2 
 PCOD9066292
Probable space group: P -1
;
_chemical_formula_sum "Si O2"
_cell_formula_units_Z 14
_cell_length_a 15.864141
_cell_length_b 8.841567
_cell_length_c 9.869813
_cell_angle_alpha 112.511456
_cell_angle_beta 134.080663
_cell_angle_gamma 37.026256
_cell_volume 549.168694
_symmetry_space_group_name_H-M "P -1"
_symmetry_group_IT_number 2
_symmetry_cell_setting 'triclinic'
loop_
_space_group_symop_operation_xyz
x,y,z
-x,-y,-z
loop_
_atom_site_type_symbol
_atom_site_label
_atom_site_fract_x
_atom_site_fract_y
_atom_site_fract_z
Si Si1 0.013481 0.668012 0.133059
Si Si2 0.661354 0.348948 0.310931
Si Si3 0.606521 0.758070 0.434456
Si Si4 0.354935 0.800822 0.501548
Si Si5 0.761491 0.252117 0.099405
Si Si6 0.059121 0.704844 0.909497
Si Si7 0.568003 0.883515 0.887503
O O1 0.162677 0.485353 0.361578
O O2 0.098016 0.682511 0.106250
O O3 0.829294 0.986168 0.074935
O O4 0.000000 0.500000 0.000000
O O5 0.572290 0.607561 0.373270
O O6 0.754499 0.143401 0.465574
O O7 0.786470 0.262766 0.291045
O O8 0.470354 0.466004 0.087358
O O9 0.500000 0.000000 0.500000
O O10 0.520396 0.887368 0.235790
O O11 0.500000 0.500000 0.500000
O O12 0.481756 0.812536 0.700504
O O13 0.174513 0.050914 0.287796
O O14 0.861501 0.247911 0.091088
O O15 0.197218 0.393592 0.932297
O O16 0.500000 0.000000 0.000000
#
# Coordination Sequence:
#
# PCOD9066292 Si02
#       7
#     2   2   2   2   2   2   2
#     4  12  26  45  74 107 146 196 254 312 376 455
#     4  11  25  45  73 107 152 194 250 316 372 450
#     4  12  24  45  71 103 150 195 244 308 379 447
#     4  12  27  48  80 112 149 201 262 316 378 464
#     4  11  25  45  73 108 148 194 249 312 381 444
#     4  12  26  48  77 108 150 201 257 310 382 456
#     4  12  28  48  74 114 157 196 250 322 386 449
#
# _framework density 25.493077
#
# number of rings (size 3 to 8) (size 9 to 14) (size 15 to 20)
#    0.000    0.286    2.857    5.571    4.000    4.000 
#    0.000    0.000    0.000    0.000    0.000    0.000 
#    0.000    0.000    0.000    0.000    0.000    0.000 
#
# Total GULP energy -78268.049797 kJ/mol
# GULP energy per Si atom -5590.574986 kJ/mol
# Density = 2.543505 g / cm^3
# Si number density = 25.493077 Si / 1000 Ang^3
#
#
#
# Elastic Constant Matrix: (Units=GPa)
#
#
# Indices 1 2 3 4 5 6 
#
# 1 111.7256 24.6979 32.6154 0.8005 -19.6920 5.7896
# 2 24.6979 106.6280 54.8405 -11.4303 -6.6164 -8.9047
# 3 32.6154 54.8405 131.7701 -26.3800 -3.6517 6.7856
# 4 0.8005 -11.4303 -26.3800 54.2913 1.4082 -4.9941
# 5 -19.6920 -6.6164 -3.6517 1.4082 38.4175 -4.2830
# 6 5.7896 -8.9047 6.7856 -4.9941 -4.2830 35.5844
#
#
#
# Elastic Compliance Matrix: (Units=1/GPa)
#
#
# Indices 1 2 3 4 5 6 
#
# 1 0.010886 -0.001331 -0.002295 -0.001808 0.005053 -0.001312
# 2 -0.001331 0.012862 -0.005093 0.000644 0.001547 0.004683
# 3 -0.002295 -0.005093 0.011214 0.004206 -0.001434 -0.002622
# 4 -0.001808 0.000644 0.004206 0.020876 -0.000905 0.002474
# 5 0.005053 0.001547 -0.001434 -0.000905 0.029142 0.003219
# 6 -0.001312 0.004683 -0.002622 0.002474 0.003219 0.030722
#
#
# Mechanical properties :
#
#
# Convention : Reuss Voigt Hill
#
# Bulk Modulus (GPa) = 57.06283 63.82569 60.44426
# Shear Modulus (GPa) = 35.97589 41.52332 38.74960
#
# Velocity S-wave (km/s) = 3.76067 4.04023 3.90295
# Velocity P-wave (km/s) = 6.42566 6.84510 6.63870
#
# Compressibility (1/GPa) = 0.01752454
#
# Stress axis : x y z
#
# Youngs Moduli (GPa) = 91.85987 77.74708 89.17433
#
# Poissons Ratio (x) = 0.10349 0.20464
# Poissons Ratio (y) = 0.12227 0.45417
# Poissons Ratio (z) = 0.21080 0.39597
#
# Static dielectric constant tensor:
#      x y z
#    x 2.109350 0.011980 -0.006910 
#    y 0.011980 2.024480 0.008120 
#    z -0.006910 0.008120 2.033880 
# 
# From -- ./inp_files/298910.got.cif
#   From: 2010.05.17/outbox.cif.g08.bks.cpg/sg2_150_cif.got.tgz:298910.got - 2010.06.03 11:33:40.
