data_PCOD9066564
_publ_section_title
;
Structure prediction by ZEFSAII (Michael W. Deem and Ramdas Pophale) SiO2 
 PCOD9066564
Probable space group: P -1
;
_chemical_formula_sum "Si O2"
_cell_formula_units_Z 16
_cell_length_a 9.113145
_cell_length_b 22.469516
_cell_length_c 12.112293
_cell_angle_alpha 141.467703
_cell_angle_beta 45.323398
_cell_angle_gamma 154.487764
_cell_volume 665.425269
_symmetry_space_group_name_H-M "P -1"
_symmetry_group_IT_number 2
_symmetry_cell_setting 'triclinic'
loop_
_space_group_symop_operation_xyz
x,y,z
-x,-y,-z
loop_
_atom_site_type_symbol
_atom_site_label
_atom_site_fract_x
_atom_site_fract_y
_atom_site_fract_z
Si Si1 0.611040 0.001464 0.823840
Si Si2 0.993349 0.405174 0.709927
Si Si3 0.463907 0.332210 0.027552
Si Si4 0.169937 0.133071 0.446390
Si Si5 0.904342 0.992361 0.163771
Si Si6 0.831505 0.647155 0.968406
Si Si7 0.405075 0.924676 0.594501
Si Si8 0.870193 0.457282 0.629597
O O1 0.761228 0.951066 0.678921
O O2 0.329163 0.897205 0.726537
O O3 0.898814 0.177363 0.878872
O O4 0.500000 0.000000 0.000000
O O5 0.852137 0.246371 0.571667
O O6 0.987561 0.425367 0.612326
O O7 0.342973 0.554910 0.804888
O O8 0.732333 0.385294 0.875019
O O9 0.278035 0.348795 0.085309
O O10 0.237908 0.157841 0.926598
O O11 0.460033 0.298388 0.597658
O O12 0.189971 0.137462 0.308164
O O13 0.785607 0.024131 0.518142
O O14 0.639510 0.983253 0.287278
O O15 0.000000 0.000000 0.000000
O O16 0.004638 0.608929 0.816909
O O17 0.500000 0.500000 0.000000
O O18 0.000000 0.500000 0.500000
#
# Coordination Sequence:
#
# PCOD9066564 Si02
#       8
#     2   2   2   2   2   2   2   2
#     4  12  25  45  74 106 148 189 246 314 371 431
#     4  11  25  46  71 108 147 190 243 306 368 444
#     4  11  26  47  73 104 152 187 247 307 372 444
#     4  12  25  48  73 103 146 194 251 308 359 445
#     4  12  28  47  73 110 150 194 247 310 379 439
#     4  12  25  46  73 104 139 197 245 292 374 447
#     4  12  26  45  76 105 141 196 250 297 369 446
#     4  12  28  45  71 110 147 187 246 308 372 434
#
# _framework density 24.044775000000001
#
# number of rings (size 3 to 8) (size 9 to 14) (size 15 to 20)
#    0.000    0.250    5.000    3.000    5.250    1.000 
#    0.000    1.250    0.000    0.000    0.000    0.000 
#    0.000    0.000    0.000    0.000    0.000    0.000 
#
# Total GULP energy -89520.110456 kJ/mol
# GULP energy per Si atom -5595.006904 kJ/mol
# Density = 2.399005 g / cm^3
# Si number density = 24.044775 Si / 1000 Ang^3
#
#
#
# Elastic Constant Matrix: (Units=GPa)
#
#
# Indices 1 2 3 4 5 6 
#
# 1 108.6702 30.6003 34.2947 22.0710 1.1792 -18.8259
# 2 30.6003 70.8557 35.4299 7.1956 -7.7582 -14.7135
# 3 34.2947 35.4299 93.6135 6.9060 11.3625 -5.1151
# 4 22.0710 7.1956 6.9060 28.3812 2.4371 9.0210
# 5 1.1792 -7.7582 11.3625 2.4371 56.8356 1.9421
# 6 -18.8259 -14.7135 -5.1151 9.0210 1.9421 37.0145
#
#
#
# Elastic Compliance Matrix: (Units=1/GPa)
#
#
# Indices 1 2 3 4 5 6 
#
# 1 0.015275 -0.001206 -0.003613 -0.013969 0.000492 0.010169
# 2 -0.001206 0.020840 -0.007135 -0.005451 0.004264 0.007789
# 3 -0.003613 -0.007135 0.014844 0.002285 -0.003863 -0.002977
# 4 -0.013969 -0.005451 0.002285 0.054136 -0.002480 -0.022019
# 5 0.000492 0.004264 -0.003863 -0.002480 0.019010 0.001018
# 6 0.010169 0.007789 -0.002977 -0.022019 0.001018 0.040186
#
#
# Mechanical properties :
#
#
# Convention : Reuss Voigt Hill
#
# Bulk Modulus (GPa) = 36.96820 52.64323 44.80572
# Shear Modulus (GPa) = 25.35278 35.96723 30.66000
#
# Velocity S-wave (km/s) = 3.25067 3.87181 3.57476
# Velocity P-wave (km/s) = 5.43114 6.47528 5.97606
#
# Compressibility (1/GPa) = 0.02705028
#
# Stress axis : x y z
#
# Youngs Moduli (GPa) = 65.46453 47.98510 67.36748
#
# Poissons Ratio (x) = 0.05788 0.24341
# Poissons Ratio (y) = 0.07896 0.48067
# Poissons Ratio (z) = 0.23653 0.34238
#
# Static dielectric constant tensor:
#      x y z
#    x 1.911330 0.028570 0.039250 
#    y 0.028570 1.943480 -0.054200 
#    z 0.039250 -0.054200 1.899170 
# 
# From -- ./inp_files/243550.got.cif
#   From: 2010.05.17/outbox.cif.g08.bks.cpg/sg2_122_cif.got.tgz:243550.got - 2010.06.03 11:33:40.
