data_PCOD9066095
_publ_section_title
;
Structure prediction by ZEFSAII (Michael W. Deem and Ramdas Pophale) SiO2 
 PCOD9066095
Probable space group: P -1
;
_chemical_formula_sum "Si O2"
_cell_formula_units_Z 16
_cell_length_a 5.138195
_cell_length_b 18.210551
_cell_length_c 11.710239
_cell_angle_alpha 133.360159
_cell_angle_beta 116.257547
_cell_angle_gamma 53.073010
_cell_volume 635.995861
_symmetry_space_group_name_H-M "P -1"
_symmetry_group_IT_number 2
_symmetry_cell_setting 'triclinic'
loop_
_space_group_symop_operation_xyz
x,y,z
-x,-y,-z
loop_
_atom_site_type_symbol
_atom_site_label
_atom_site_fract_x
_atom_site_fract_y
_atom_site_fract_z
Si Si1 0.792019 0.469774 0.339536
Si Si2 0.314301 0.287459 0.955772
Si Si3 0.937814 0.467765 0.754082
Si Si4 0.918500 0.103402 0.442431
Si Si5 0.076554 0.068729 0.188389
Si Si6 0.183748 0.100484 0.814364
Si Si7 0.044025 0.781168 0.871856
Si Si8 0.617319 0.782264 0.347728
O O1 0.416033 0.508784 0.338501
O O2 0.967572 0.333649 0.220573
O O3 0.000000 0.500000 0.500000
O O4 0.821434 0.524290 0.285029
O O5 0.113511 0.217962 0.865386
O O6 0.498324 0.237975 0.820414
O O7 0.135806 0.423079 0.064050
O O8 0.576691 0.251055 0.069851
O O9 0.097030 0.343864 0.705362
O O10 0.629642 0.179837 0.553510
O O11 0.845411 0.113658 0.302094
O O12 0.214507 0.134857 0.545745
O O13 0.988496 0.974109 0.341896
O O14 0.067201 0.174306 0.228688
O O15 0.431185 0.984803 0.215957
O O16 0.000000 0.000000 0.000000
O O17 0.137493 0.125320 0.967112
#
# Coordination Sequence:
#
# PCOD9066095 Si02
#       8
#     2   2   2   2   2   2   2   2
#     4  11  25  46  75 112 153 190 235 315 373 436
#     4  11  26  49  77 107 145 202 249 312 359 442
#     4  11  25  51  74 110 145 197 256 291 374 443
#     4  12  28  48  73 114 145 200 241 311 371 437
#     4  12  24  45  74 106 147 196 240 303 364 455
#     4  12  23  47  73 112 150 190 255 293 381 435
#     4  11  25  44  75 112 148 192 253 300 374 448
#     4  12  29  50  76 108 154 194 254 307 367 436
#
# _framework density 25.157397
#
# number of rings (size 3 to 8) (size 9 to 14) (size 15 to 20)
#    0.000    0.500    5.000    1.875    3.500    2.000 
#    4.500    3.125    0.000    0.000    0.000    0.000 
#    0.000    0.000    0.000    0.000    0.000    0.000 
#
# Total GULP energy -89602.808436 kJ/mol
# GULP energy per Si atom -5600.175527 kJ/mol
# Density = 2.510014 g / cm^3
# Si number density = 25.157397 Si / 1000 Ang^3
#
#
#
# Elastic Constant Matrix: (Units=GPa)
#
#
# Indices 1 2 3 4 5 6 
#
# 1 137.2565 24.0982 37.9484 6.4260 0.5398 14.3158
# 2 24.0982 84.0427 35.9162 22.3586 11.0308 3.1641
# 3 37.9484 35.9162 105.8027 0.6983 -2.2173 7.1852
# 4 6.4260 22.3586 0.6983 37.8860 11.1697 -3.0671
# 5 0.5398 11.0308 -2.2173 11.1697 47.6833 9.6247
# 6 14.3158 3.1641 7.1852 -3.0671 9.6247 27.3974
#
#
#
# Elastic Compliance Matrix: (Units=1/GPa)
#
#
# Indices 1 2 3 4 5 6 
#
# 1 0.008663 -0.001043 -0.002418 -0.001542 0.001279 -0.004394
# 2 -0.001043 0.017295 -0.005450 -0.009380 -0.001968 -0.000382
# 3 -0.002418 -0.005450 0.012287 0.002831 0.001508 -0.001542
# 4 -0.001542 -0.009380 0.002831 0.034946 -0.007414 0.007663
# 5 0.001279 -0.001968 0.001508 -0.007414 0.025354 -0.010573
# 6 -0.004394 -0.000382 -0.001542 0.007663 -0.010573 0.043816
#
#
# Mechanical properties :
#
#
# Convention : Reuss Voigt Hill
#
# Bulk Modulus (GPa) = 48.96583 58.11417 53.54000
# Shear Modulus (GPa) = 29.94190 37.86928 33.90559
#
# Velocity S-wave (km/s) = 3.45364 3.88402 3.67514
# Velocity P-wave (km/s) = 5.95060 6.57758 6.27193
#
# Compressibility (1/GPa) = 0.02042240
#
# Stress axis : x y z
#
# Youngs Moduli (GPa) = 115.43900 57.81933 81.38961
#
# Poissons Ratio (x) = 0.06030 0.19677
# Poissons Ratio (y) = 0.12039 0.44361
# Poissons Ratio (z) = 0.27909 0.31514
#
# Static dielectric constant tensor:
#      x y z
#    x 2.055980 -0.011100 0.040480 
#    y -0.011100 1.991010 -0.023480 
#    z 0.040480 -0.023480 2.001420 
# 
# From -- ./inp_files/369524.got.cif
#   From: 2010.05.17/outbox.cif.g08.bks.cpg/sg2_185_cif.got.tgz:369524.got - 2010.06.03 11:33:40.
