data_PCOD9066621
_publ_section_title
;
Structure prediction by ZEFSAII (Michael W. Deem and Ramdas Pophale) SiO2 
 PCOD9066621
Probable space group: P -1
;
_chemical_formula_sum "Si O2"
_cell_formula_units_Z 14
_cell_length_a 13.189601
_cell_length_b 5.408549
_cell_length_c 14.464695
_cell_angle_alpha 115.739460
_cell_angle_beta 131.001249
_cell_angle_gamma 49.578847
_cell_volume 592.784329
_symmetry_space_group_name_H-M "P -1"
_symmetry_group_IT_number 2
_symmetry_cell_setting 'triclinic'
loop_
_space_group_symop_operation_xyz
x,y,z
-x,-y,-z
loop_
_atom_site_type_symbol
_atom_site_label
_atom_site_fract_x
_atom_site_fract_y
_atom_site_fract_z
Si Si1 0.732288 0.842923 0.425777
Si Si2 0.015112 0.790161 0.092235
Si Si3 0.536023 0.281071 0.077737
Si Si4 0.104006 0.866560 0.351828
Si Si5 0.725150 0.223588 0.860394
Si Si6 0.183909 0.889570 0.659907
Si Si7 0.406718 0.175843 0.379095
O O1 0.759826 0.487368 0.383242
O O2 0.850354 0.862470 0.572369
O O3 0.774195 0.948454 0.371652
O O4 0.549165 0.107931 0.384772
O O5 0.004292 0.876428 0.206149
O O6 0.193856 0.687990 0.156870
O O7 0.000000 0.500000 0.000000
O O8 0.867680 0.086161 0.998557
O O9 0.428409 0.504197 0.134657
O O10 0.714604 0.122967 0.193083
O O11 0.500000 0.500000 0.000000
O O12 0.500000 0.000000 0.000000
O O13 0.272513 0.532954 0.389259
O O14 0.999369 0.912292 0.386254
O O15 0.683756 0.977667 0.749776
O O16 0.500000 0.000000 0.500000
#
# Coordination Sequence:
#
# PCOD9066621 Si02
#       7
#     2   2   2   2   2   2   2
#     4  12  27  51  76 115 155 203 254 320 389 459
#     4  11  25  46  72 110 147 199 252 321 380 445
#     4  12  28  47  77 109 154 205 257 307 386 464
#     4  12  27  46  81 108 155 198 263 314 385 462
#     4  11  26  46  76 106 154 197 256 319 380 459
#     4  12  28  50  78 114 156 202 257 319 390 454
#     4  12  26  49  79 116 151 203 258 318 388 459
#
# _framework density 23.617360000000001
#
# number of rings (size 3 to 8) (size 9 to 14) (size 15 to 20)
#    0.000    0.286    2.857    4.714    6.000    2.286 
#    0.000    0.000    0.000    0.000    0.000    0.000 
#    0.000    0.000    0.000    0.000    0.000    0.000 
#
# Total GULP energy -78365.805835 kJ/mol
# GULP energy per Si atom -5597.557560 kJ/mol
# Density = 2.356361 g / cm^3
# Si number density = 23.617360 Si / 1000 Ang^3
#
#
#
# Elastic Constant Matrix: (Units=GPa)
#
#
# Indices 1 2 3 4 5 6 
#
# 1 171.3162 47.2231 39.1900 10.1018 9.7228 -21.0016
# 2 47.2231 94.3234 30.9323 12.9924 4.6730 0.6417
# 3 39.1900 30.9323 143.9882 12.8194 8.9632 11.4844
# 4 10.1018 12.9924 12.8194 48.0534 4.8498 6.9665
# 5 9.7228 4.6730 8.9632 4.8498 46.8293 -1.4571
# 6 -21.0016 0.6417 11.4844 6.9665 -1.4571 40.8891
#
#
#
# Elastic Compliance Matrix: (Units=1/GPa)
#
#
# Indices 1 2 3 4 5 6 
#
# 1 0.007768 -0.003211 -0.001667 -0.000919 -0.000734 0.004639
# 2 -0.003211 0.013073 -0.001645 -0.002262 -0.000120 -0.001011
# 3 -0.001667 -0.001645 0.008132 -0.000831 -0.001054 -0.003010
# 4 -0.000919 -0.002262 -0.000831 0.022626 -0.001896 -0.004125
# 5 -0.000734 -0.000120 -0.001054 -0.001896 0.021948 0.001026
# 6 0.004639 -0.001011 -0.003010 -0.004125 0.001026 0.028440
#
#
# Mechanical properties :
#
#
# Convention : Reuss Voigt Hill
#
# Bulk Modulus (GPa) = 62.78589 71.59095 67.18842
# Shear Modulus (GPa) = 41.54798 46.63985 44.09392
#
# Velocity S-wave (km/s) = 4.19885 4.44871 4.32558
# Velocity P-wave (km/s) = 7.08163 7.53436 7.31150
#
# Compressibility (1/GPa) = 0.01592715
#
# Stress axis : x y z
#
# Youngs Moduli (GPa) = 128.73118 76.49159 122.97375
#
# Poissons Ratio (x) = 0.24562 0.20500
# Poissons Ratio (y) = 0.41337 0.20229
# Poissons Ratio (z) = 0.21459 0.12582
#
# Static dielectric constant tensor:
#      x y z
#    x 1.932720 0.013360 -0.004420 
#    y 0.013360 1.930520 -0.053460 
#    z -0.004420 -0.053460 1.855090 
# 
# From -- ./inp_files/511275.got.cif
#   From: 2010.05.17/outbox.cif.g08.bks.cpg/sg2_256_cif.got.tgz:511275.got - 2010.06.03 11:33:40.
