data_PCOD9066041
_publ_section_title
;
Structure prediction by ZEFSAII (Michael W. Deem and Ramdas Pophale) SiO2 
 PCOD9066041
Probable space group: P -1
;
_chemical_formula_sum "Si O2"
_cell_formula_units_Z 10
_cell_length_a 9.537136
_cell_length_b 11.652874
_cell_length_c 5.624865
_cell_angle_alpha 111.648101
_cell_angle_beta 126.861658
_cell_angle_gamma 52.677115
_cell_volume 397.721439
_symmetry_space_group_name_H-M "P -1"
_symmetry_group_IT_number 2
_symmetry_cell_setting 'triclinic'
loop_
_space_group_symop_operation_xyz
x,y,z
-x,-y,-z
loop_
_atom_site_type_symbol
_atom_site_label
_atom_site_fract_x
_atom_site_fract_y
_atom_site_fract_z
Si Si1 0.011017 0.601536 0.392179
Si Si2 0.592657 0.920664 0.780418
Si Si3 0.646730 0.344904 0.165195
Si Si4 0.346461 0.355221 0.220395
Si Si5 0.885235 0.018043 0.143522
O O1 0.124121 0.683479 0.651774
O O2 0.173789 0.499773 0.279620
O O3 0.000000 0.500000 0.500000
O O4 0.781565 0.682156 0.125354
O O5 0.573382 0.780597 0.634380
O O6 0.500000 0.000000 0.500000
O O7 0.500000 0.000000 0.000000
O O8 0.817349 0.899880 0.993772
O O9 0.524870 0.371963 0.308375
O O10 0.691977 0.182425 0.048645
O O11 0.500000 0.500000 0.000000
O O12 0.000000 0.000000 0.500000
O O13 0.000000 0.000000 0.000000
#
# Coordination Sequence:
#
# PCOD9066041 Si02
#       5
#     2   2   2   2   2
#     4  11  25  44  72 109 150 190 248 319 382 457
#     4  12  27  48  78 108 148 200 260 309 381 464
#     4  12  26  47  80 111 151 201 258 316 388 464
#     4  11  26  47  74 108 148 199 251 316 388 457
#     4  12  29  51  78 114 159 204 258 326 391 461
#
# _framework density 25.143225000000001
#
# number of rings (size 3 to 8) (size 9 to 14) (size 15 to 20)
#    0.000    0.400    4.000    3.000    8.400    1.600 
#    0.000    0.000    0.000    0.000    0.000    0.000 
#    0.000    0.000    0.000    0.000    0.000    0.000 
#
# Total GULP energy -55782.255857 kJ/mol
# GULP energy per Si atom -5578.225586 kJ/mol
# Density = 2.508600 g / cm^3
# Si number density = 25.143225 Si / 1000 Ang^3
#
#
#
# Elastic Constant Matrix: (Units=GPa)
#
#
# Indices 1 2 3 4 5 6 
#
# 1 184.8684 8.1206 30.8469 9.6130 -5.0709 14.2234
# 2 8.1206 106.8437 3.8911 -12.3430 -17.5450 5.8365
# 3 30.8469 3.8911 132.2824 -13.7424 -5.0012 11.8040
# 4 9.6130 -12.3430 -13.7424 29.7869 12.9010 -11.7264
# 5 -5.0709 -17.5450 -5.0012 12.9010 37.1298 3.4238
# 6 14.2234 5.8365 11.8040 -11.7264 3.4238 59.2993
#
#
#
# Elastic Compliance Matrix: (Units=1/GPa)
#
#
# Indices 1 2 3 4 5 6 
#
# 1 0.006184 -0.000472 -0.001645 -0.004794 0.002267 -0.002188
# 2 -0.000472 0.010384 0.000286 0.002557 0.004057 -0.000694
# 3 -0.001645 0.000286 0.008428 0.004621 -0.000526 -0.000367
# 4 -0.004794 0.002557 0.004621 0.050045 -0.017215 0.010869
# 5 0.002267 0.004057 -0.000526 -0.017215 0.035651 -0.006301
# 6 -0.002188 -0.000694 -0.000367 0.010869 -0.006301 0.020043
#
#
# Mechanical properties :
#
#
# Convention : Reuss Voigt Hill
#
# Bulk Modulus (GPa) = 46.87585 56.63461 51.75523
# Shear Modulus (GPa) = 35.33318 50.65225 42.99271
#
# Velocity S-wave (km/s) = 3.75277 4.49324 4.13959
# Velocity P-wave (km/s) = 6.12060 7.03510 6.59372
#
# Compressibility (1/GPa) = 0.02133295
#
# Stress axis : x y z
#
# Youngs Moduli (GPa) = 161.69770 96.29844 118.65549
#
# Poissons Ratio (x) = 0.04546 0.19522
# Poissons Ratio (y) = 0.07633 -0.03388
# Poissons Ratio (z) = 0.26604 -0.02750
#
# Static dielectric constant tensor:
#      x y z
#    x 1.966300 0.042380 -0.021360 
#    y 0.042380 2.110670 0.047880 
#    z -0.021360 0.047880 2.030170 
# 
# From -- ./inp_files/16847.got.cif
#   From: 2010.05.17/outbox.cif.g08.bks.cpg/sg2_9_cif.got.tgz:16847.got - 2010.06.03 11:33:40.
