data_PCOD9066085
_publ_section_title
;
Structure prediction by ZEFSAII (Michael W. Deem and Ramdas Pophale) SiO2 
 PCOD9066085
Probable space group: P -1
;
_chemical_formula_sum "Si O2"
_cell_formula_units_Z 14
_cell_length_a 9.537016
_cell_length_b 18.536742
_cell_length_c 8.581257
_cell_angle_alpha 126.048518
_cell_angle_beta 61.015111
_cell_angle_gamma 151.928186
_cell_volume 574.789317
_symmetry_space_group_name_H-M "P -1"
_symmetry_group_IT_number 2
_symmetry_cell_setting 'triclinic'
loop_
_space_group_symop_operation_xyz
x,y,z
-x,-y,-z
loop_
_atom_site_type_symbol
_atom_site_label
_atom_site_fract_x
_atom_site_fract_y
_atom_site_fract_z
Si Si1 0.558688 0.260094 0.080666
Si Si2 0.854819 0.411053 0.637711
Si Si3 0.774905 0.710809 0.756023
Si Si4 0.723322 0.026842 0.959343
Si Si5 0.201075 0.179538 0.660334
Si Si6 0.332875 0.826321 0.346412
Si Si7 0.765074 0.639785 0.331288
O O1 0.517234 0.183135 0.846748
O O2 0.361650 0.256408 0.163970
O O3 0.895135 0.445293 0.185265
O O4 0.445164 0.144778 0.136659
O O5 0.539079 0.314385 0.696568
O O6 0.761023 0.265985 0.557265
O O7 0.000000 0.500000 0.500000
O O8 0.783342 0.656284 0.527860
O O9 0.538607 0.551355 0.794241
O O10 0.104775 0.869225 0.843757
O O11 0.997969 0.138946 0.838349
O O12 0.500000 0.000000 0.000000
O O13 0.225644 0.256196 0.599136
O O14 0.000000 0.000000 0.500000
O O15 0.057857 0.720595 0.242953
O O16 0.500000 0.000000 0.500000
#
# Coordination Sequence:
#
# PCOD9066085 Si02
#       7
#     2   2   2   2   2   2   2
#     4  12  26  50  78 113 151 208 260 316 395 469
#     4  12  27  47  81 117 162 200 260 328 399 464
#     4  11  25  47  74 108 147 202 257 315 378 465
#     4  12  28  48  75 110 157 198 258 318 390 456
#     4  12  27  48  74 113 158 204 253 320 396 461
#     4  12  26  48  79 112 153 205 264 318 386 477
#     4  11  25  44  74 108 152 196 260 310 383 459
#
# _framework density 24.356752
#
# number of rings (size 3 to 8) (size 9 to 14) (size 15 to 20)
#    0.000    0.286    1.429    6.857    6.000    2.857 
#    0.000    0.000    0.000    0.000    0.000    0.000 
#    0.000    0.000    0.000    0.000    0.000    0.000 
#
# Total GULP energy -78310.864022 kJ/mol
# GULP energy per Si atom -5593.633144 kJ/mol
# Density = 2.430131 g / cm^3
# Si number density = 24.356752 Si / 1000 Ang^3
#
#
#
# Elastic Constant Matrix: (Units=GPa)
#
#
# Indices 1 2 3 4 5 6 
#
# 1 133.0735 53.0326 -3.4090 -9.6904 -5.0086 17.7980
# 2 53.0326 133.3105 19.6240 11.5229 3.0723 1.7012
# 3 -3.4090 19.6240 72.7126 -6.8837 -8.4099 14.5635
# 4 -9.6904 11.5229 -6.8837 30.2338 4.8039 -1.4951
# 5 -5.0086 3.0723 -8.4099 4.8039 34.0577 -0.3135
# 6 17.7980 1.7012 14.5635 -1.4951 -0.3135 51.7611
#
#
#
# Elastic Compliance Matrix: (Units=1/GPa)
#
#
# Indices 1 2 3 4 5 6 
#
# 1 0.010814 -0.005325 0.003611 0.005766 0.002109 -0.004380
# 2 -0.005325 0.010854 -0.004524 -0.006438 -0.001948 0.002549
# 3 0.003611 -0.004524 0.017358 0.005858 0.004346 -0.005781
# 4 0.005766 -0.006438 0.005858 0.039018 -0.002650 -0.002308
# 5 0.002109 -0.001948 0.004346 -0.002650 0.031278 -0.001771
# 6 -0.004380 0.002549 -0.005781 -0.002308 -0.001771 0.022291
#
#
# Mechanical properties :
#
#
# Convention : Reuss Voigt Hill
#
# Bulk Modulus (GPa) = 37.66357 53.06572 45.36465
# Shear Modulus (GPa) = 32.69237 41.20045 36.94641
#
# Velocity S-wave (km/s) = 3.66762 4.11730 3.89895
# Velocity P-wave (km/s) = 5.78205 6.66611 6.23976
#
# Compressibility (1/GPa) = 0.02655086
#
# Stress axis : x y z
#
# Youngs Moduli (GPa) = 92.47057 92.12853 57.60925
#
# Poissons Ratio (x) = 0.49056 -0.20804
# Poissons Ratio (y) = 0.49238 0.26065
# Poissons Ratio (z) = -0.33392 0.41683
#
# Static dielectric constant tensor:
#      x y z
#    x 1.935410 0.028670 0.035980 
#    y 0.028670 2.176090 -0.061630 
#    z 0.035980 -0.061630 2.027940 
# 
# From -- ./inp_files/218220.got.cif
#   From: 2010.05.17/outbox.cif.g08.bks.cpg/sg2_110_cif.got.tgz:218220.got - 2010.06.03 11:33:40.
