data_PCOD9066483
_publ_section_title
;
Structure prediction by ZEFSAII (Michael W. Deem and Ramdas Pophale) SiO2 
 PCOD9066483
Probable space group: P -1
;
_chemical_formula_sum "Si O2"
_cell_formula_units_Z 11
_cell_length_a 9.752830
_cell_length_b 7.323953
_cell_length_c 10.232198
_cell_angle_alpha 139.250759
_cell_angle_beta 90.237936
_cell_angle_gamma 99.736333
_cell_volume 460.163972
_symmetry_space_group_name_H-M "P -1"
_symmetry_group_IT_number 2
_symmetry_cell_setting 'triclinic'
loop_
_space_group_symop_operation_xyz
x,y,z
-x,-y,-z
loop_
_atom_site_type_symbol
_atom_site_label
_atom_site_fract_x
_atom_site_fract_y
_atom_site_fract_z
Si Si1 0.939235 0.365822 0.140396
Si Si2 0.000000 0.500000 0.500000
Si Si3 0.670384 0.846640 0.522825
Si Si4 0.993137 0.111594 0.741591
Si Si5 0.564642 0.836332 0.222412
Si Si6 0.352078 0.828343 0.843191
O O1 0.011792 0.358942 0.276040
O O2 0.777465 0.183189 0.065918
O O3 0.928039 0.680512 0.259968
O O4 0.017667 0.271282 0.967706
O O5 0.027942 0.811182 0.598604
O O6 0.639626 0.853459 0.371836
O O7 0.654507 0.507021 0.372450
O O8 0.825073 0.032415 0.666149
O O9 0.556280 0.989645 0.668224
O O10 0.664118 0.003804 0.198120
O O11 0.500000 0.500000 0.000000
O O12 0.500000 0.000000 0.000000
#
# Coordination Sequence:
#
# PCOD9066483 Si02
#       6
#     2   1   2   2   2   2
#     4  11  27  47  71 107 147 186 239 296 359 426
#     4  12  24  48  74 106 138 188 248 286 356 426
#     4  11  25  46  72 102 143 192 235 296 363 424
#     4  11  26  49  72 104 146 191 234 300 360 423
#     4  11  25  46  69 107 142 189 241 293 357 429
#     4  12  24  46  74 103 145 187 238 297 355 423
#
# _framework density 23.904522
#
# number of rings (size 3 to 8) (size 9 to 14) (size 15 to 20)
#    0.000    0.727    3.636    2.727    2.545    0.000 
#    6.545    0.000    0.000    0.000    0.000    0.000 
#    0.000    0.000    0.000    0.000    0.000    0.000 
#
# Total GULP energy -61340.874494 kJ/mol
# GULP energy per Si atom -5576.443136 kJ/mol
# Density = 2.385011 g / cm^3
# Si number density = 23.904522 Si / 1000 Ang^3
#
#
#
# Elastic Constant Matrix: (Units=GPa)
#
#
# Indices 1 2 3 4 5 6 
#
# 1 54.8656 1.5685 4.0774 3.4276 14.9519 19.1053
# 2 1.5685 200.2037 35.8949 -4.2943 4.9378 15.5214
# 3 4.0774 35.8949 92.0156 -21.9763 1.4273 -2.2542
# 4 3.4276 -4.2943 -21.9763 55.0635 -7.7402 -4.2498
# 5 14.9519 4.9378 1.4273 -7.7402 26.9140 0.4458
# 6 19.1053 15.5214 -2.2542 -4.2498 0.4458 24.6342
#
#
#
# Elastic Compliance Matrix: (Units=1/GPa)
#
#
# Indices 1 2 3 4 5 6 
#
# 1 0.037022 0.003688 -0.005964 -0.010216 -0.023320 -0.032922
# 2 0.003688 0.006145 -0.003181 -0.002074 -0.003483 -0.007318
# 3 -0.005964 -0.003181 0.014242 0.007221 0.005068 0.009087
# 4 -0.010216 -0.002074 0.007221 0.024336 0.012442 0.013864
# 5 -0.023320 -0.003483 0.005068 0.012442 0.053696 0.021919
# 6 -0.032922 -0.007318 0.009087 0.013864 0.021919 0.073565
#
#
# Mechanical properties :
#
#
# Convention : Reuss Voigt Hill
#
# Bulk Modulus (GPa) = 21.50834 47.79628 34.65231
# Shear Modulus (GPa) = 21.23883 41.69196 31.46539
#
# Velocity S-wave (km/s) = 2.98398 4.18078 3.63201
# Velocity P-wave (km/s) = 4.57049 6.58356 5.66712
#
# Compressibility (1/GPa) = 0.04649359
#
# Stress axis : x y z
#
# Youngs Moduli (GPa) = 27.01111 162.73036 70.21714
#
# Poissons Ratio (x) = -0.60009 0.41876
# Poissons Ratio (y) = -0.09961 0.22338
# Poissons Ratio (z) = 0.16109 0.51769
#
# Static dielectric constant tensor:
#      x y z
#    x 1.938920 -0.028700 0.014930 
#    y -0.028700 1.850170 0.011530 
#    z 0.014930 0.011530 1.905540 
# 
# From -- ./inp_files/228833.got.cif
#   From: 2010.05.17/outbox.cif.g08.bks.cpg/sg2_115_cif.got.tgz:228833.got - 2010.06.03 11:33:40.
