data_PCOD9066869
_publ_section_title
;
Structure prediction by ZEFSAII (Michael W. Deem and Ramdas Pophale) SiO2 
 PCOD9066869
Probable space group: P -1
;
_chemical_formula_sum "Si O2"
_cell_formula_units_Z 14
_cell_length_a 15.060397
_cell_length_b 11.521322
_cell_length_c 7.780446
_cell_angle_alpha 75.548405
_cell_angle_beta 115.600961
_cell_angle_gamma 49.343730
_cell_volume 582.260972
_symmetry_space_group_name_H-M "P -1"
_symmetry_group_IT_number 2
_symmetry_cell_setting 'triclinic'
loop_
_space_group_symop_operation_xyz
x,y,z
-x,-y,-z
loop_
_atom_site_type_symbol
_atom_site_label
_atom_site_fract_x
_atom_site_fract_y
_atom_site_fract_z
Si Si1 0.952588 0.431012 0.771216
Si Si2 0.759084 0.007393 0.993125
Si Si3 0.661800 0.534391 0.428034
Si Si4 0.242872 0.824215 0.394445
Si Si5 0.131282 0.853166 0.832129
Si Si6 0.552689 0.631549 0.908566
Si Si7 0.662949 0.898793 0.556274
O O1 0.838555 0.424134 0.696796
O O2 0.772941 0.711754 0.560698
O O3 0.142070 0.269673 0.105494
O O4 0.070108 0.274358 0.750117
O O5 0.544166 0.186524 0.794569
O O6 0.749277 0.075429 0.769005
O O7 0.794688 0.089893 0.099890
O O8 0.664079 0.392633 0.534572
O O9 0.660838 0.525771 0.222227
O O10 0.369975 0.730787 0.701423
O O11 0.023409 0.019965 0.196887
O O12 0.297765 0.577562 0.033945
O O13 0.000000 0.000000 0.500000
O O14 0.457428 0.860249 0.703556
O O15 0.500000 0.000000 0.500000
#
# Coordination Sequence:
#
# PCOD9066869 Si02
#       7
#     2   2   2   2   2   2   2
#     4  11  25  47  71 103 135 188 240 287 352 407
#     4  12  24  39  68 105 141 188 228 286 343 419
#     4  12  25  44  70 106 151 177 232 288 354 432
#     4  12  24  40  69 108 145 184 227 284 354 428
#     4  12  24  41  67 105 150 184 225 285 354 420
#     4  12  26  46  71 106 142 192 228 286 360 410
#     4  11  27  49  74  99 138 186 243 299 339 414
#
# _framework density 24.044201000000001
#
# number of rings (size 3 to 8) (size 9 to 14) (size 15 to 20)
#    0.000    0.286    5.714    3.000    2.000    0.571 
#    0.000    1.429    0.000    0.000    0.000    0.000 
#    0.000    0.000    0.000    0.000    0.000    0.000 
#
# Total GULP energy -78197.696832 kJ/mol
# GULP energy per Si atom -5585.549774 kJ/mol
# Density = 2.398948 g / cm^3
# Si number density = 24.044201 Si / 1000 Ang^3
#
#
#
# Elastic Constant Matrix: (Units=GPa)
#
#
# Indices 1 2 3 4 5 6 
#
# 1 48.0180 34.7460 35.0370 -4.0894 19.1573 8.3769
# 2 34.7460 174.0631 48.6037 -52.1446 4.1862 10.3477
# 3 35.0370 48.6037 106.5729 -8.2112 21.0982 7.7827
# 4 -4.0894 -52.1446 -8.2112 59.1387 0.2976 0.1110
# 5 19.1573 4.1862 21.0982 0.2976 39.4155 -7.6248
# 6 8.3769 10.3477 7.7827 0.1110 -7.6248 43.6213
#
#
#
# Elastic Compliance Matrix: (Units=1/GPa)
#
#
# Indices 1 2 3 4 5 6 
#
# 1 0.036506 -0.005798 -0.006070 -0.003340 -0.015248 -0.007209
# 2 -0.005798 0.009976 -0.002607 0.008018 0.003040 -0.000277
# 3 -0.006070 -0.002607 0.013438 -0.000829 -0.004221 -0.001349
# 4 -0.003340 0.008018 -0.000829 0.023631 0.000839 -0.001026
# 5 -0.015248 0.003040 -0.004221 0.000839 0.036519 0.009341
# 6 -0.007209 -0.000277 -0.001349 -0.001026 0.009341 0.026251
#
#
# Mechanical properties :
#
#
# Convention : Reuss Voigt Hill
#
# Bulk Modulus (GPa) = 32.28920 62.82527 47.55724
# Shear Modulus (GPa) = 26.94048 42.45293 34.69671
#
# Velocity S-wave (km/s) = 3.35095 4.20649 3.80286
# Velocity P-wave (km/s) = 5.33199 7.05539 6.25334
#
# Compressibility (1/GPa) = 0.03097011
#
# Stress axis : x y z
#
# Youngs Moduli (GPa) = 27.39253 100.24224 74.41508
#
# Poissons Ratio (x) = 0.58118 0.45170
# Poissons Ratio (y) = 0.15881 0.19402
# Poissons Ratio (z) = 0.16627 0.26136
#
# Static dielectric constant tensor:
#      x y z
#    x 1.899320 -0.015830 -0.018960 
#    y -0.015830 2.025450 -0.015910 
#    z -0.018960 -0.015910 2.001150 
# 
# From -- ./inp_files/305144.got.cif
#   From: 2010.05.17/outbox.cif.g08.bks.cpg/sg2_153_cif.got.tgz:305144.got - 2010.06.03 11:33:40.
