data_PCOD9066493
_publ_section_title
;
Structure prediction by ZEFSAII (Michael W. Deem and Ramdas Pophale) SiO2 
 PCOD9066493
Probable space group: P -1
;
_chemical_formula_sum "Si O2"
_cell_formula_units_Z 16
_cell_length_a 6.489162
_cell_length_b 12.784682
_cell_length_c 11.375034
_cell_angle_alpha 80.999426
_cell_angle_beta 122.555105
_cell_angle_gamma 108.658617
_cell_volume 753.463865
_symmetry_space_group_name_H-M "P -1"
_symmetry_group_IT_number 2
_symmetry_cell_setting 'triclinic'
loop_
_space_group_symop_operation_xyz
x,y,z
-x,-y,-z
loop_
_atom_site_type_symbol
_atom_site_label
_atom_site_fract_x
_atom_site_fract_y
_atom_site_fract_z
Si Si1 0.300690 0.536358 0.560043
Si Si2 0.277892 0.565420 0.273248
Si Si3 0.701579 0.425695 0.075125
Si Si4 0.459553 0.738780 0.725835
Si Si5 0.994001 0.094422 0.077337
Si Si6 0.196089 0.050083 0.726173
Si Si7 0.686948 0.055341 0.441292
Si Si8 0.371227 0.755332 0.119281
O O1 0.290106 0.535984 0.417188
O O2 0.464109 0.463079 0.685366
O O3 0.454181 0.658201 0.629211
O O4 0.000000 0.500000 0.500000
O O5 0.311797 0.692894 0.235719
O O6 0.997911 0.498535 0.152751
O O7 0.655249 0.345609 0.189009
O O8 0.500000 0.500000 0.000000
O O9 0.664136 0.342855 0.968000
O O10 0.310121 0.823145 0.620647
O O11 0.730503 0.818889 0.834138
O O12 0.894737 0.037436 0.181891
O O13 0.809357 0.167208 0.971704
O O14 0.000000 0.000000 0.000000
O O15 0.346425 0.164416 0.810363
O O16 0.958234 0.061423 0.577876
O O17 0.366970 0.014512 0.684374
O O18 0.500000 0.000000 0.500000
#
# Coordination Sequence:
#
# PCOD9066493 Si02
#       8
#     2   2   2   2   2   2   2   2
#     4  11  25  46  70 102 140 181 234 306 348 434
#     4  11  26  45  69 103 141 178 244 290 361 430
#     4  12  25  46  70 104 145 189 243 298 357 444
#     4  12  24  42  76  96 136 188 232 288 374 404
#     4  12  25  46  70 104 145 189 243 298 357 444
#     4  11  26  45  69 103 141 178 244 290 361 430
#     4  11  25  46  70 102 140 181 234 306 348 434
#     4  12  26  42  72 100 142 188 232 294 364 430
#
# _framework density 21.23526
#
# number of rings (size 3 to 8) (size 9 to 14) (size 15 to 20)
#    0.000    0.500    2.500    5.250    3.500    0.000 
#    0.000    0.000    0.000    0.000    0.000    0.000 
#    0.000    0.000    0.000    0.000    0.000    0.000 
#
# Total GULP energy -89345.972856 kJ/mol
# GULP energy per Si atom -5584.123304 kJ/mol
# Density = 2.118693 g / cm^3
# Si number density = 21.235260 Si / 1000 Ang^3
#
#
#
# Elastic Constant Matrix: (Units=GPa)
#
#
# Indices 1 2 3 4 5 6 
#
# 1 81.6309 38.2122 41.9941 -16.8373 17.1880 2.6443
# 2 38.2122 123.6310 60.2393 -22.3700 25.7582 2.7899
# 3 41.9941 60.2393 99.0834 -23.5350 25.1676 -18.6507
# 4 -16.8373 -22.3700 -23.5350 50.9698 8.8526 -7.5995
# 5 17.1880 25.7582 25.1676 8.8526 34.4468 3.1730
# 6 2.6443 2.7899 -18.6507 -7.5995 3.1730 37.1289
#
#
#
# Elastic Compliance Matrix: (Units=1/GPa)
#
#
# Indices 1 2 3 4 5 6 
#
# 1 0.017142 -0.001244 -0.005176 0.003082 -0.004383 -0.002722
# 2 -0.001244 0.013072 -0.005729 0.003255 -0.005562 -0.002630
# 3 -0.005176 -0.005729 0.027756 0.014783 -0.018998 0.019391
# 4 0.003082 0.003255 0.014783 0.035772 -0.025482 0.016461
# 5 -0.004383 -0.005562 -0.018998 -0.025482 0.057550 -0.018947
# 6 -0.002722 -0.002630 0.019391 0.016461 -0.018947 0.042053
#
#
# Mechanical properties :
#
#
# Convention : Reuss Voigt Hill
#
# Bulk Modulus (GPa) = 29.69846 65.02627 47.36237
# Shear Modulus (GPa) = 21.84674 35.43575 28.64124
#
# Velocity S-wave (km/s) = 3.21096 4.08943 3.67653
# Velocity P-wave (km/s) = 5.26905 7.27917 6.35410
#
# Compressibility (1/GPa) = 0.03367178
#
# Stress axis : x y z
#
# Youngs Moduli (GPa) = 58.33617 76.50115 36.02831
#
# Poissons Ratio (x) = 0.09517 0.18648
# Poissons Ratio (y) = 0.07258 0.20641
# Poissons Ratio (z) = 0.30194 0.43828
#
# Static dielectric constant tensor:
#      x y z
#    x 1.786090 0.005870 -0.223300 
#    y 0.005870 1.709650 0.128290 
#    z -0.223300 0.128290 1.444550 
# 
# From -- ./inp_files/364657.got.cif
#   From: 2010.05.17/outbox.cif.g08.bks.cpg/sg2_183_cif.got.tgz:364657.got - 2010.06.03 11:33:40.
