data_PCOD9066806
_publ_section_title
;
Structure prediction by ZEFSAII (Michael W. Deem and Ramdas Pophale) SiO2 
 PCOD9066806
Probable space group: P -1
;
_chemical_formula_sum "Si O2"
_cell_formula_units_Z 14
_cell_length_a 13.197251
_cell_length_b 6.045723
_cell_length_c 24.956634
_cell_angle_alpha 47.464832
_cell_angle_beta 21.673591
_cell_angle_gamma 52.021902
_cell_volume 541.274579
_symmetry_space_group_name_H-M "P -1"
_symmetry_group_IT_number 2
_symmetry_cell_setting 'triclinic'
loop_
_space_group_symop_operation_xyz
x,y,z
-x,-y,-z
loop_
_atom_site_type_symbol
_atom_site_label
_atom_site_fract_x
_atom_site_fract_y
_atom_site_fract_z
Si Si1 0.614925 0.671631 0.995582
Si Si2 0.976301 0.113376 0.157507
Si Si3 0.795353 0.069732 0.139167
Si Si4 0.505280 0.530035 0.631777
Si Si5 0.670437 0.460477 0.680805
Si Si6 0.773742 0.522139 0.397664
Si Si7 0.228929 0.167580 0.224954
O O1 0.750722 0.699588 0.866122
O O2 0.822773 0.666649 0.943490
O O3 0.500000 0.000000 0.000000
O O4 0.402829 0.387703 0.143530
O O5 0.985785 0.161531 0.081635
O O6 0.676648 0.193665 0.311646
O O7 0.986595 0.769569 0.226217
O O8 0.530987 0.289535 0.236023
O O9 0.660659 0.740638 0.272175
O O10 0.000000 0.000000 0.000000
O O11 0.569588 0.401233 0.679350
O O12 0.735922 0.627683 0.460195
O O13 0.000000 0.500000 0.500000
O O14 0.658297 0.160659 0.771878
O O15 0.500000 0.500000 0.500000
O O16 0.909152 0.199782 0.389602
#
# Coordination Sequence:
#
# PCOD9066806 Si02
#       7
#     2   2   2   2   2   2   2
#     4  11  25  47  72 109 152 203 255 313 395 465
#     4  11  25  46  77 111 146 202 261 324 389 464
#     4  11  27  52  76 112 152 207 264 324 392 471
#     4  11  26  46  74 110 150 200 258 324 387 468
#     4  11  28  50  77 113 157 208 262 319 403 472
#     4  12  23  45  78 110 151 197 258 325 387 465
#     4  11  27  47  72 114 156 202 254 325 389 468
#
# _framework density 25.864875000000001
#
# number of rings (size 3 to 8) (size 9 to 14) (size 15 to 20)
#    0.000    0.857    2.857    2.143    4.000    9.143 
#    0.000    2.143    0.000    0.000    0.000    0.000 
#    0.000    0.000    0.000    0.000    0.000    0.000 
#
# Total GULP energy -78258.556256 kJ/mol
# GULP energy per Si atom -5589.896875 kJ/mol
# Density = 2.580601 g / cm^3
# Si number density = 25.864875 Si / 1000 Ang^3
#
#
#
# Elastic Constant Matrix: (Units=GPa)
#
#
# Indices 1 2 3 4 5 6 
#
# 1 143.4791 43.6791 52.9891 21.0375 6.0838 12.7034
# 2 43.6791 163.7938 52.4594 31.8183 8.1626 -7.3032
# 3 52.9891 52.4594 102.6348 24.2962 13.4756 1.5055
# 4 21.0375 31.8183 24.2962 56.2139 8.4403 -0.1206
# 5 6.0838 8.1626 13.4756 8.4403 43.6605 -5.3758
# 6 12.7034 -7.3032 1.5055 -0.1206 -5.3758 35.2420
#
#
#
# Elastic Compliance Matrix: (Units=1/GPa)
#
#
# Indices 1 2 3 4 5 6 
#
# 1 0.009209 -0.001156 -0.003835 -0.001129 -0.000085 -0.003412
# 2 -0.001156 0.007979 -0.002881 -0.002893 0.000394 0.002243
# 3 -0.003835 -0.002881 0.014198 -0.002646 -0.002830 -0.000262
# 4 -0.001129 -0.002893 -0.002646 0.021393 -0.002672 -0.000414
# 5 -0.000085 0.000394 -0.002830 -0.002672 0.024724 0.003996
# 6 -0.003412 0.002243 -0.000262 -0.000414 0.003996 0.030689
#
#
# Mechanical properties :
#
#
# Convention : Reuss Voigt Hill
#
# Bulk Modulus (GPa) = 63.93558 78.68477 71.31018
# Shear Modulus (GPa) = 38.71462 44.40863 41.56162
#
# Velocity S-wave (km/s) = 3.87305 4.14810 4.01293
# Velocity P-wave (km/s) = 6.69130 7.30957 7.00726
#
# Compressibility (1/GPa) = 0.01564074
#
# Stress axis : x y z
#
# Youngs Moduli (GPa) = 108.58616 125.33575 70.43379
#
# Poissons Ratio (x) = 0.14490 0.27013
# Poissons Ratio (y) = 0.12554 0.20293
# Poissons Ratio (z) = 0.41645 0.36111
#
# Static dielectric constant tensor:
#      x y z
#    x 2.060030 -0.018970 -0.023180 
#    y -0.018970 2.021250 0.005630 
#    z -0.023180 0.005630 2.128570 
# 
# From -- ./inp_files/619055.got.cif
#   From: 2010.05.17/outbox.cif.g08.bks.cpg/sg2_310_cif.got.tgz:619055.got - 2010.06.03 11:33:40.
