data_PCOD9066877
_publ_section_title
;
Structure prediction by ZEFSAII (Michael W. Deem and Ramdas Pophale) SiO2 
 PCOD9066877
Probable space group: P -1
;
_chemical_formula_sum "Si O2"
_cell_formula_units_Z 16
_cell_length_a 10.000408
_cell_length_b 11.578505
_cell_length_c 9.193057
_cell_angle_alpha 129.977129
_cell_angle_beta 100.419420
_cell_angle_gamma 86.965536
_cell_volume 799.416724
_symmetry_space_group_name_H-M "P -1"
_symmetry_group_IT_number 2
_symmetry_cell_setting 'triclinic'
loop_
_space_group_symop_operation_xyz
x,y,z
-x,-y,-z
loop_
_atom_site_type_symbol
_atom_site_label
_atom_site_fract_x
_atom_site_fract_y
_atom_site_fract_z
Si Si1 0.156073 0.347533 0.513463
Si Si2 0.162510 0.624639 0.519189
Si Si3 0.141050 0.572691 0.151621
Si Si4 0.610047 0.938343 0.359715
Si Si5 0.356713 0.402812 0.877398
Si Si6 0.356603 0.924591 0.846538
Si Si7 0.887168 0.077188 0.637702
Si Si8 0.143405 0.022762 0.124666
O O1 0.164901 0.501967 0.547817
O O2 0.264716 0.373909 0.688329
O O3 0.189165 0.196091 0.314625
O O4 0.990211 0.315032 0.478127
O O5 0.169408 0.541068 0.299413
O O6 0.289224 0.751022 0.668138
O O7 0.133436 0.752482 0.277119
O O8 0.257170 0.496404 0.027997
O O9 0.000000 0.500000 0.000000
O O10 0.601047 0.759462 0.192668
O O11 0.500000 0.000000 0.500000
O O12 0.629577 0.015149 0.267959
O O13 0.751656 0.975020 0.496052
O O14 0.500000 0.500000 0.000000
O O15 0.500000 0.000000 0.000000
O O16 0.251536 0.972576 0.988512
O O17 0.890340 0.070023 0.807387
O O18 0.000000 0.000000 0.500000
O O19 0.000000 0.000000 0.000000
#
# Coordination Sequence:
#
# PCOD9066877 Si02
#       8
#     2   2   2   2   2   2   2   2
#     4  11  25  47  71 105 147 188 238 300 361 431
#     4  11  25  47  71 105 147 188 238 300 361 431
#     4  12  25  43  71 104 140 186 239 294 355 428
#     4  12  26  50  70  97 146 194 242 299 360 431
#     4  12  28  45  72 106 142 189 242 295 368 428
#     4  12  28  45  72 106 142 189 242 295 368 428
#     4  12  24  44  74 101 139 187 243 300 348 421
#     4  12  25  43  71 104 140 186 239 294 355 428
#
# _framework density 20.014592
#
# number of rings (size 3 to 8) (size 9 to 14) (size 15 to 20)
#    0.000    0.250    5.000    3.750    7.000    0.000 
#    0.000    1.250    0.000    0.000    0.000    0.000 
#    0.000    0.000    0.000    0.000    0.000    0.000 
#
# Total GULP energy -89092.844827 kJ/mol
# GULP energy per Si atom -5568.302802 kJ/mol
# Density = 1.996904 g / cm^3
# Si number density = 20.014592 Si / 1000 Ang^3
#
#
#
# Elastic Constant Matrix: (Units=GPa)
#
#
# Indices 1 2 3 4 5 6 
#
# 1 142.9856 15.3170 34.8850 -3.6844 -12.3814 24.3100
# 2 15.3170 94.6303 10.9226 -1.2755 -9.5764 13.9327
# 3 34.8850 10.9226 92.6241 -5.6700 -7.9178 12.1919
# 4 -3.6844 -1.2755 -5.6700 55.6253 2.1595 4.9996
# 5 -12.3814 -9.5764 -7.9178 2.1595 57.3058 4.1558
# 6 24.3100 13.9327 12.1919 4.9996 4.1558 22.7703
#
#
#
# Elastic Compliance Matrix: (Units=1/GPa)
#
#
# Indices 1 2 3 4 5 6 
#
# 1 0.009367 0.000445 -0.001984 0.001224 0.002498 -0.009935
# 2 0.000445 0.012041 -0.000193 0.000940 0.002658 -0.008431
# 3 -0.001984 -0.000193 0.012460 0.001528 0.001570 -0.005057
# 4 0.001224 0.000940 0.001528 0.018841 0.000424 -0.006915
# 5 0.002498 0.002658 0.001570 0.000424 0.019269 -0.008744
# 6 -0.009935 -0.008431 -0.005057 -0.006915 -0.008744 0.065504
#
#
# Mechanical properties :
#
#
# Convention : Reuss Voigt Hill
#
# Bulk Modulus (GPa) = 32.89140 50.27656 41.58398
# Shear Modulus (GPa) = 33.09498 45.08130 39.08814
#
# Velocity S-wave (km/s) = 4.07079 4.75112 4.42405
# Velocity P-wave (km/s) = 6.21003 7.43451 6.84969
#
# Compressibility (1/GPa) = 0.03040309
#
# Stress axis : x y z
#
# Youngs Moduli (GPa) = 106.75569 83.05248 80.25870
#
# Poissons Ratio (x) = -0.03696 0.15925
# Poissons Ratio (y) = -0.04750 0.01549
# Poissons Ratio (z) = 0.21182 0.01603
#
# Static dielectric constant tensor:
#      x y z
#    x 1.681290 0.000690 -0.036140 
#    y 0.000690 1.594840 0.017140 
#    z -0.036140 0.017140 1.449940 
# 
# From -- ./inp_files/190838.got.cif
#   From: 2010.05.17/outbox.cif.g08.bks.cpg/sg2_96_cif.got.tgz:190838.got - 2010.06.03 11:33:40.
