data_PCOD9066499
_publ_section_title
;
Structure prediction by ZEFSAII (Michael W. Deem and Ramdas Pophale) SiO2 
 PCOD9066499
Probable space group: P -1
;
_chemical_formula_sum "Si O2"
_cell_formula_units_Z 16
_cell_length_a 12.456931
_cell_length_b 18.249249
_cell_length_c 9.587475
_cell_angle_alpha 135.238252
_cell_angle_beta 131.635195
_cell_angle_gamma 29.336856
_cell_volume 745.390197
_symmetry_space_group_name_H-M "P -1"
_symmetry_group_IT_number 2
_symmetry_cell_setting 'triclinic'
loop_
_space_group_symop_operation_xyz
x,y,z
-x,-y,-z
loop_
_atom_site_type_symbol
_atom_site_label
_atom_site_fract_x
_atom_site_fract_y
_atom_site_fract_z
Si Si1 0.631477 0.851770 0.307544
Si Si2 0.608587 0.433755 0.231803
Si Si3 0.811430 0.042942 0.312662
Si Si4 0.140387 0.519328 0.329067
Si Si5 0.829053 0.310665 0.957408
Si Si6 0.920116 0.624624 0.712931
Si Si7 0.509502 0.284548 0.123505
Si Si8 0.469841 0.956203 0.770897
O O1 0.881237 0.686547 0.340932
O O2 0.500000 0.000000 0.500000
O O3 0.655982 0.902612 0.254315
O O4 0.503614 0.814323 0.111980
O O5 0.732357 0.459037 0.450590
O O6 0.363787 0.605446 0.206556
O O7 0.590252 0.340308 0.182933
O O8 0.735458 0.340237 0.070427
O O9 0.666600 0.178823 0.251755
O O10 0.654118 0.080668 0.345663
O O11 0.000000 0.000000 0.500000
O O12 0.949230 0.874739 0.130622
O O13 0.165232 0.393781 0.254409
O O14 0.261889 0.443101 0.182397
O O15 0.889934 0.398727 0.118700
O O16 0.711115 0.800447 0.708863
O O17 0.000000 0.500000 0.500000
O O18 0.500000 0.000000 0.000000
#
# Coordination Sequence:
#
# PCOD9066499 Si02
#       8
#     2   2   2   2   2   2   2   2
#     4  12  28  46  73 107 143 188 240 294 360 421
#     4  11  27  45  70 103 146 185 234 292 361 435
#     4  12  27  44  74 105 142 190 240 291 362 424
#     4  12  25  45  73 106 139 184 236 291 356 418
#     4  11  25  46  70 104 141 187 236 294 360 422
#     4  12  22  42  75 101 138 181 236 292 348 417
#     4  12  26  48  70 106 146 185 238 293 357 426
#     4  12  24  47  72 105 141 185 241 297 346 424
#
# _framework density 21.465267999999998
#
# number of rings (size 3 to 8) (size 9 to 14) (size 15 to 20)
#    0.000    0.250    5.000    3.000    5.250    1.500 
#    0.000    0.000    0.000    0.000    0.000    0.000 
#    0.000    0.000    0.000    0.000    0.000    0.000 
#
# Total GULP energy -89534.634487 kJ/mol
# GULP energy per Si atom -5595.914655 kJ/mol
# Density = 2.141641 g / cm^3
# Si number density = 21.465268 Si / 1000 Ang^3
#
#
#
# Elastic Constant Matrix: (Units=GPa)
#
#
# Indices 1 2 3 4 5 6 
#
# 1 130.9359 9.3532 30.6824 -16.6258 15.4300 19.0379
# 2 9.3532 93.4943 23.7878 -0.1428 3.1763 -4.5532
# 3 30.6824 23.7878 101.1473 -2.0572 11.9354 -5.0272
# 4 -16.6258 -0.1428 -2.0572 30.5549 -12.8463 -1.6117
# 5 15.4300 3.1763 11.9354 -12.8463 31.0299 -1.1071
# 6 19.0379 -4.5532 -5.0272 -1.6117 -1.1071 37.0690
#
#
#
# Elastic Compliance Matrix: (Units=1/GPa)
#
#
# Indices 1 2 3 4 5 6 
#
# 1 0.009890 -0.000453 -0.002804 0.003909 -0.002368 -0.005416
# 2 -0.000453 0.011438 -0.002486 -0.000326 -0.000078 0.001284
# 3 -0.002804 -0.002486 0.011842 -0.002167 -0.003713 0.002535
# 4 0.003909 -0.000326 -0.002167 0.041469 0.016089 -0.000058
# 5 -0.002368 -0.000078 -0.003713 0.016089 0.041596 0.002645
# 6 -0.005416 0.001284 0.002535 -0.000058 0.002645 0.030336
#
#
# Mechanical properties :
#
#
# Convention : Reuss Voigt Hill
#
# Bulk Modulus (GPa) = 46.11784 50.35825 48.23804
# Shear Modulus (GPa) = 30.25091 37.18105 33.71598
#
# Velocity S-wave (km/s) = 3.75813 4.16642 3.96753
# Velocity P-wave (km/s) = 6.35318 6.83057 6.59620
#
# Compressibility (1/GPa) = 0.02168358
#
# Stress axis : x y z
#
# Youngs Moduli (GPa) = 101.11733 87.42448 84.44681
#
# Poissons Ratio (x) = 0.03964 0.23675
# Poissons Ratio (y) = 0.04584 0.20995
# Poissons Ratio (z) = 0.28349 0.21735
#
# Static dielectric constant tensor:
#      x y z
#    x 1.775470 -0.002440 -0.005150 
#    y -0.002440 1.748140 -0.018460 
#    z -0.005150 -0.018460 1.807270 
# 
# From -- ./inp_files/205085.got.cif
#   From: 2010.05.17/outbox.cif.g08.bks.cpg/sg2_103_cif.got.tgz:205085.got - 2010.06.03 11:33:40.
