data_PCOD9066383
_publ_section_title
;
Structure prediction by ZEFSAII (Michael W. Deem and Ramdas Pophale) SiO2 
 PCOD9066383
Probable space group: P -1
;
_chemical_formula_sum "Si O2"
_cell_formula_units_Z 16
_cell_length_a 9.450468
_cell_length_b 8.070358
_cell_length_c 12.817710
_cell_angle_alpha 83.831771
_cell_angle_beta 137.231552
_cell_angle_gamma 96.548183
_cell_volume 659.080875
_symmetry_space_group_name_H-M "P -1"
_symmetry_group_IT_number 2
_symmetry_cell_setting 'triclinic'
loop_
_space_group_symop_operation_xyz
x,y,z
-x,-y,-z
loop_
_atom_site_type_symbol
_atom_site_label
_atom_site_fract_x
_atom_site_fract_y
_atom_site_fract_z
Si Si1 0.401713 0.269253 0.279976
Si Si2 0.676539 0.288802 0.627717
Si Si3 0.442736 0.377234 0.706065
Si Si4 0.847015 0.871316 0.368034
Si Si5 0.900039 0.652531 0.728833
Si Si6 0.426814 0.061248 0.103067
Si Si7 0.384887 0.655495 0.970681
Si Si8 0.992457 0.028801 0.765173
O O1 0.525870 0.226458 0.455490
O O2 0.539498 0.424836 0.300151
O O3 0.179233 0.331379 0.194800
O O4 0.378326 0.140227 0.183438
O O5 0.549717 0.309210 0.664699
O O6 0.770121 0.478871 0.638801
O O7 0.843988 0.147488 0.740278
O O8 0.206516 0.302582 0.592724
O O9 0.562825 0.334062 0.879616
O O10 0.624495 0.953371 0.238032
O O11 0.936299 0.857318 0.302158
O O12 0.000000 0.000000 0.500000
O O13 0.137493 0.624907 0.831838
O O14 0.888105 0.851884 0.680175
O O15 0.519709 0.191420 0.057133
O O16 0.205010 0.989357 0.943349
O O17 0.500000 0.500000 0.000000
#
# Coordination Sequence:
#
# PCOD9066383 Si02
#       8
#     2   2   2   2   2   2   2   2
#     4  11  27  48  73 106 153 194 243 307 371 438
#     4  11  28  49  73 110 151 196 248 302 371 443
#     4  11  25  45  76 103 147 194 246 304 368 433
#     4  12  27  45  72 110 148 192 245 304 373 443
#     4  11  26  45  76 104 148 193 246 305 364 439
#     4  12  25  48  71 111 147 189 248 306 369 437
#     4  12  23  45  74 109 144 192 245 309 363 438
#     4  12  26  48  76 109 148 195 250 304 371 436
#
# _framework density 24.276232
#
# number of rings (size 3 to 8) (size 9 to 14) (size 15 to 20)
#    0.000    0.500    3.750    4.125    7.000    2.000 
#    0.000    1.875    0.000    0.000    0.000    0.000 
#    0.000    0.000    0.000    0.000    0.000    0.000 
#
# Total GULP energy -89439.707367 kJ/mol
# GULP energy per Si atom -5589.981710 kJ/mol
# Density = 2.422098 g / cm^3
# Si number density = 24.276232 Si / 1000 Ang^3
#
#
#
# Elastic Constant Matrix: (Units=GPa)
#
#
# Indices 1 2 3 4 5 6 
#
# 1 105.1835 39.8023 38.7480 13.4285 1.7908 18.7485
# 2 39.8023 83.5542 15.8061 -2.3100 9.9083 14.7715
# 3 38.7480 15.8061 90.8036 11.4392 -3.0358 -0.5243
# 4 13.4285 -2.3100 11.4392 25.0406 -2.1504 3.4472
# 5 1.7908 9.9083 -3.0358 -2.1504 37.6415 13.7568
# 6 18.7485 14.7715 -0.5243 3.4472 13.7568 35.8015
#
#
#
# Elastic Compliance Matrix: (Units=1/GPa)
#
#
# Indices 1 2 3 4 5 6 
#
# 1 0.015124 -0.005667 -0.004740 -0.005447 0.002271 -0.006000
# 2 -0.005667 0.015876 -0.001106 0.005218 -0.002561 -0.003117
# 3 -0.004740 -0.001106 0.013798 -0.004340 0.000094 0.003522
# 4 -0.005447 0.005218 -0.004340 0.046262 0.002994 -0.004969
# 5 0.002271 -0.002561 0.000094 0.002994 0.031952 -0.012697
# 6 -0.006000 -0.003117 0.003522 -0.004969 -0.012697 0.037769
#
#
# Mechanical properties :
#
#
# Convention : Reuss Voigt Hill
#
# Bulk Modulus (GPa) = 45.93053 52.02823 48.97938
# Shear Modulus (GPa) = 26.16926 32.04238 29.10582
#
# Velocity S-wave (km/s) = 3.28682 3.63699 3.46633
# Velocity P-wave (km/s) = 5.77627 6.25422 6.01999
#
# Compressibility (1/GPa) = 0.02177201
#
# Stress axis : x y z
#
# Youngs Moduli (GPa) = 66.12066 62.98706 72.47324
#
# Poissons Ratio (x) = 0.35696 0.34350
# Poissons Ratio (y) = 0.37472 0.08017
# Poissons Ratio (z) = 0.31339 0.06968
#
# Static dielectric constant tensor:
#      x y z
#    x 1.964550 0.103330 -0.029130 
#    y 0.103330 2.158010 -0.086140 
#    z -0.029130 -0.086140 1.974970 
# 
# From -- ./inp_files/382442.got.cif
#   From: 2010.05.17/outbox.cif.g08.bks.cpg/sg2_192_cif.got.tgz:382442.got - 2010.06.03 11:33:40.
