data_PCOD9066391
_publ_section_title
;
Structure prediction by ZEFSAII (Michael W. Deem and Ramdas Pophale) SiO2 
 PCOD9066391
Probable space group: P -1
;
_chemical_formula_sum "Si O2"
_cell_formula_units_Z 16
_cell_length_a 14.601539
_cell_length_b 11.622829
_cell_length_c 9.207784
_cell_angle_alpha 121.002032
_cell_angle_beta 66.983972
_cell_angle_gamma 61.408280
_cell_volume 625.173899
_symmetry_space_group_name_H-M "P -1"
_symmetry_group_IT_number 2
_symmetry_cell_setting 'triclinic'
loop_
_space_group_symop_operation_xyz
x,y,z
-x,-y,-z
loop_
_atom_site_type_symbol
_atom_site_label
_atom_site_fract_x
_atom_site_fract_y
_atom_site_fract_z
Si Si1 0.611423 0.660709 0.148368
Si Si2 0.570654 0.893347 0.080383
Si Si3 0.215279 0.816123 0.732677
Si Si4 0.692559 0.194084 0.644480
Si Si5 0.047570 0.095264 0.418242
Si Si6 0.246151 0.606798 0.815768
Si Si7 0.180466 0.136381 0.116811
Si Si8 0.190131 0.430214 0.541338
O O1 0.813581 0.361001 0.762159
O O2 0.611233 0.803807 0.161204
O O3 0.403260 0.839083 0.348900
O O4 0.634993 0.604986 0.268087
O O5 0.342183 0.159067 0.354455
O O6 0.654009 0.944508 0.028418
O O7 0.687273 0.666233 0.742144
O O8 0.246232 0.802122 0.536765
O O9 0.345389 0.564856 0.587579
O O10 0.237074 0.937021 0.865294
O O11 0.000000 0.000000 0.000000
O O12 0.846679 0.013371 0.562000
O O13 0.500000 0.500000 0.000000
O O14 0.101308 0.162795 0.332103
O O15 0.136088 0.860319 0.128826
O O16 0.138112 0.608576 0.802600
O O17 0.004161 0.402588 0.301347
#
# Coordination Sequence:
#
# PCOD9066391 Si02
#       8
#     2   2   2   2   2   2   2   2
#     4  12  27  49  73 112 158 200 250 316 379 451
#     4  11  28  47  76 103 153 204 258 306 369 451
#     4  11  25  48  78 115 152 192 250 316 385 455
#     4  12  29  44  74 117 156 197 247 310 390 454
#     4  11  26  46  77 113 156 196 248 315 389 451
#     4  11  25  45  76 107 148 196 245 315 380 446
#     4  11  25  47  80 109 146 205 256 300 379 457
#     4  11  25  47  73 105 146 196 257 310 363 439
#
# _framework density 25.592879
#
# number of rings (size 3 to 8) (size 9 to 14) (size 15 to 20)
#    0.000    0.750    3.750    1.500   10.500    1.000 
#    0.000    0.625    0.000    0.000    0.000    0.000 
#    0.000    0.000    0.000    0.000    0.000    0.000 
#
# Total GULP energy -89459.108400 kJ/mol
# GULP energy per Si atom -5591.194275 kJ/mol
# Density = 2.553463 g / cm^3
# Si number density = 25.592879 Si / 1000 Ang^3
#
#
#
# Elastic Constant Matrix: (Units=GPa)
#
#
# Indices 1 2 3 4 5 6 
#
# 1 142.7834 73.8820 34.8559 -18.5042 -4.1050 -12.5509
# 2 73.8820 225.8139 56.2689 -24.1252 -4.1072 -12.6149
# 3 34.8559 56.2689 91.0650 -23.0126 -2.7223 -8.4295
# 4 -18.5042 -24.1252 -23.0126 44.2110 -4.7922 -5.4462
# 5 -4.1050 -4.1072 -2.7223 -4.7922 35.5235 -2.9028
# 6 -12.5509 -12.6149 -8.4295 -5.4462 -2.9028 47.0372
#
#
#
# Elastic Compliance Matrix: (Units=1/GPa)
#
#
# Indices 1 2 3 4 5 6 
#
# 1 0.008966 -0.002254 -0.001270 0.002216 0.001131 0.001887
# 2 -0.002254 0.005947 -0.002435 0.001172 0.000458 0.000721
# 3 -0.001270 -0.002435 0.014872 0.006384 0.001779 0.002522
# 4 0.002216 0.001172 0.006384 0.028779 0.005229 0.005705
# 5 0.001131 0.000458 0.001779 0.005229 0.029434 0.003165
# 6 0.001887 0.000721 0.002522 0.005705 0.003165 0.023264
#
#
# Mechanical properties :
#
#
# Convention : Reuss Voigt Hill
#
# Bulk Modulus (GPa) = 55.97419 87.74176 71.85798
# Shear Modulus (GPa) = 38.71901 44.99804 41.85853
#
# Velocity S-wave (km/s) = 3.89380 4.19767 4.04859
# Velocity P-wave (km/s) = 6.49107 7.60605 7.07057
#
# Compressibility (1/GPa) = 0.01786538
#
# Stress axis : x y z
#
# Youngs Moduli (GPa) = 111.53651 168.16593 67.24111
#
# Poissons Ratio (x) = 0.37906 0.08542
# Poissons Ratio (y) = 0.25141 0.16372
# Poissons Ratio (z) = 0.14169 0.40946
#
# Static dielectric constant tensor:
#      x y z
#    x 2.077150 -0.003390 -0.013610 
#    y -0.003390 2.023590 0.076010 
#    z -0.013610 0.076010 1.847320 
# 
# From -- ./inp_files/308297.got.cif
#   From: 2010.05.17/outbox.cif.g08.bks.cpg/sg2_155_cif.got.tgz:308297.got - 2010.06.03 11:33:40.
