data_PCOD9066459
_publ_section_title
;
Structure prediction by ZEFSAII (Michael W. Deem and Ramdas Pophale) SiO2 
 PCOD9066459
Probable space group: P -1
;
_chemical_formula_sum "Si O2"
_cell_formula_units_Z 12
_cell_length_a 9.074438
_cell_length_b 9.605644
_cell_length_c 9.519879
_cell_angle_alpha 139.655480
_cell_angle_beta 66.991643
_cell_angle_gamma 112.748284
_cell_volume 488.948568
_symmetry_space_group_name_H-M "P -1"
_symmetry_group_IT_number 2
_symmetry_cell_setting 'triclinic'
loop_
_space_group_symop_operation_xyz
x,y,z
-x,-y,-z
loop_
_atom_site_type_symbol
_atom_site_label
_atom_site_fract_x
_atom_site_fract_y
_atom_site_fract_z
Si Si1 0.983398 0.475146 0.154146
Si Si2 0.828416 0.399111 0.559893
Si Si3 0.654499 0.924142 0.309218
Si Si4 0.281857 0.881028 0.041053
Si Si5 0.175713 0.142148 0.527466
Si Si6 0.420205 0.286444 0.115328
O O1 0.862571 0.643868 0.370530
O O2 0.138884 0.543005 0.242962
O O3 0.894776 0.233682 0.025896
O O4 0.000000 0.500000 0.000000
O O5 0.771194 0.140294 0.375265
O O6 0.681179 0.522575 0.661600
O O7 0.000000 0.500000 0.500000
O O8 0.500000 0.000000 0.500000
O O9 0.747067 0.819552 0.319016
O O10 0.595157 0.761002 0.080799
O O11 0.277637 0.006536 0.286335
O O12 0.342868 0.060495 0.042789
O O13 0.397487 0.699441 0.884965
O O14 0.000000 0.000000 0.500000
#
# Coordination Sequence:
#
# PCOD9066459 Si02
#       6
#     2   2   2   2   2   2
#     4  12  24  41  70 100 131 177 224 275 337 401
#     4  12  27  46  70 103 135 180 231 280 343 403
#     4  12  26  46  69 105 138 178 229 281 345 401
#     4  11  25  46  65 101 136 180 225 275 348 398
#     4  12  23  44  69  99 140 175 225 281 335 411
#     4  11  27  45  70  96 141 179 225 286 336 412
#
# _framework density 24.542458
#
# number of rings (size 3 to 8) (size 9 to 14) (size 15 to 20)
#    0.000    0.333    5.000    3.000    2.333    2.000 
#    0.000    4.167    0.000    0.000    0.000    0.000 
#    0.000    0.000    0.000    0.000    0.000    0.000 
#
# Total GULP energy -67191.859749 kJ/mol
# GULP energy per Si atom -5599.321646 kJ/mol
# Density = 2.448660 g / cm^3
# Si number density = 24.542458 Si / 1000 Ang^3
#
#
#
# Elastic Constant Matrix: (Units=GPa)
#
#
# Indices 1 2 3 4 5 6 
#
# 1 70.8456 7.0408 5.3223 -1.2890 -8.5400 -24.7060
# 2 7.0408 55.0312 7.0553 -5.5471 0.1893 -2.0071
# 3 5.3223 7.0553 42.7194 -6.3901 -8.1125 -5.7878
# 4 -1.2890 -5.5471 -6.3901 35.7696 -4.2149 -0.5654
# 5 -8.5400 0.1893 -8.1125 -4.2149 52.1960 7.7713
# 6 -24.7060 -2.0071 -5.7878 -0.5654 7.7713 49.1111
#
#
#
# Elastic Compliance Matrix: (Units=1/GPa)
#
#
# Indices 1 2 3 4 5 6 
#
# 1 0.017465 -0.001828 -0.000336 0.000608 0.001607 0.008424
# 2 -0.001828 0.018976 -0.002711 0.002322 -0.000550 -0.000350
# 3 -0.000336 -0.002711 0.025646 0.004654 0.003994 0.002164
# 4 0.000608 0.002322 0.004654 0.029546 0.003081 0.000802
# 5 0.001607 -0.000550 0.003994 0.003081 0.020586 -0.001965
# 6 0.008424 -0.000350 0.002164 0.000802 -0.001965 0.025161
#
#
# Mechanical properties :
#
#
# Convention : Reuss Voigt Hill
#
# Bulk Modulus (GPa) = 19.10726 23.04810 21.07768
# Shear Modulus (GPa) = 30.38119 37.36053 33.87086
#
# Velocity S-wave (km/s) = 3.52220 3.90588 3.71899
# Velocity P-wave (km/s) = 4.93391 5.45460 5.20078
#
# Compressibility (1/GPa) = 0.05233613
#
# Stress axis : x y z
#
# Youngs Moduli (GPa) = 57.25825 52.69769 38.99242
#
# Poissons Ratio (x) = 0.09635 0.01312
# Poissons Ratio (y) = 0.10469 0.10569
# Poissons Ratio (z) = 0.01927 0.14284
#
# Static dielectric constant tensor:
#      x y z
#    x 1.936740 0.011220 -0.046140 
#    y 0.011220 1.941770 -0.003670 
#    z -0.046140 -0.003670 2.003210 
# 
# From -- ./inp_files/26043.got.cif
#   From: 2010.05.17/outbox.cif.g08.bks.cpg/sg2_14_cif.got.tgz:26043.got - 2010.06.03 11:33:40.
