data_PCOD9066111
_publ_section_title
;
Structure prediction by ZEFSAII (Michael W. Deem and Ramdas Pophale) SiO2 
 PCOD9066111
Probable space group: P -1
;
_chemical_formula_sum "Si O2"
_cell_formula_units_Z 14
_cell_length_a 8.146843
_cell_length_b 21.266894
_cell_length_c 6.323578
_cell_angle_alpha 116.752417
_cell_angle_beta 101.649700
_cell_angle_gamma 38.181104
_cell_volume 581.406040
_symmetry_space_group_name_H-M "P -1"
_symmetry_group_IT_number 2
_symmetry_cell_setting 'triclinic'
loop_
_space_group_symop_operation_xyz
x,y,z
-x,-y,-z
loop_
_atom_site_type_symbol
_atom_site_label
_atom_site_fract_x
_atom_site_fract_y
_atom_site_fract_z
Si Si1 0.711607 0.519607 0.659148
Si Si2 0.647548 0.750759 0.958032
Si Si3 0.741266 0.279031 0.841427
Si Si4 0.975539 0.698745 0.338330
Si Si5 0.471236 0.092997 0.140811
Si Si6 0.965003 0.071835 0.771366
Si Si7 0.731893 0.602502 0.403544
O O1 0.690667 0.545083 0.444026
O O2 0.824650 0.407895 0.605329
O O3 0.959601 0.490709 0.744135
O O4 0.426532 0.632111 0.871281
O O5 0.846651 0.687643 0.116717
O O6 0.337967 0.835070 0.071448
O O7 0.651145 0.827849 0.976407
O O8 0.710511 0.675126 0.671435
O O9 0.967043 0.148311 0.781220
O O10 0.508447 0.314577 0.702691
O O11 0.862253 0.297539 0.748034
O O12 0.724149 0.817780 0.581743
O O13 0.780800 0.018604 0.140484
O O14 0.500000 0.000000 0.000000
O O15 0.000000 0.000000 0.500000
#
# Coordination Sequence:
#
# PCOD9066111 Si02
#       7
#     2   2   2   2   2   2   2
#     4  11  25  48  70 104 139 178 230 284 343 406
#     4  12  25  48  72 102 137 183 231 282 340 403
#     4  12  27  45  71 103 141 181 226 284 345 402
#     4  12  28  46  69 103 144 180 222 285 350 404
#     4  12  28  46  71 102 140 182 229 282 341 410
#     4  12  25  47  72 101 139 181 233 282 336 405
#     4  11  25  44  77 102 133 181 234 282 335 410
#
# _framework density 24.079554999999999
#
# number of rings (size 3 to 8) (size 9 to 14) (size 15 to 20)
#    0.000    0.286    4.286    3.857    8.000    2.857 
#    0.000    0.000    0.000    0.000    0.000    0.000 
#    0.000    0.000    0.000    0.000    0.000    0.000 
#
# Total GULP energy -78434.442739 kJ/mol
# GULP energy per Si atom -5602.460196 kJ/mol
# Density = 2.402475 g / cm^3
# Si number density = 24.079555 Si / 1000 Ang^3
#
#
#
# Elastic Constant Matrix: (Units=GPa)
#
#
# Indices 1 2 3 4 5 6 
#
# 1 97.7877 9.8153 18.5833 8.0061 -16.1835 26.1079
# 2 9.8153 103.4609 9.6133 0.9108 0.4540 22.6050
# 3 18.5833 9.6133 59.7559 14.9534 0.8748 10.6849
# 4 8.0061 0.9108 14.9534 35.7492 1.0758 0.9519
# 5 -16.1835 0.4540 0.8748 1.0758 44.9224 -10.7983
# 6 26.1079 22.6050 10.6849 0.9519 -10.7983 48.9062
#
#
#
# Elastic Compliance Matrix: (Units=1/GPa)
#
#
# Indices 1 2 3 4 5 6 
#
# 1 0.012918 0.000257 -0.002663 -0.001737 0.003386 -0.005652
# 2 0.000257 0.010877 -0.000932 0.000233 -0.001266 -0.005245
# 3 -0.002663 -0.000932 0.020165 -0.007685 -0.001834 -0.002809
# 4 -0.001737 0.000233 -0.007685 0.031550 -0.000825 0.001702
# 5 0.003386 -0.001266 -0.001834 -0.000825 0.024664 0.004640
# 6 -0.005652 -0.005245 -0.002809 0.001702 0.004640 0.027494
#
#
# Mechanical properties :
#
#
# Convention : Reuss Voigt Hill
#
# Bulk Modulus (GPa) = 26.82038 37.44758 32.13398
# Shear Modulus (GPa) = 34.06675 40.78175 37.42425
#
# Velocity S-wave (km/s) = 3.76541 4.11983 3.94660
# Velocity P-wave (km/s) = 5.48332 6.18191 5.84307
#
# Compressibility (1/GPa) = 0.03728507
#
# Stress axis : x y z
#
# Youngs Moduli (GPa) = 77.41122 91.93554 49.59130
#
# Poissons Ratio (x) = -0.02364 0.13206
# Poissons Ratio (y) = -0.01991 0.04620
# Poissons Ratio (z) = 0.20615 0.08565
#
# Static dielectric constant tensor:
#      x y z
#    x 1.950850 0.020330 -0.003210 
#    y 0.020330 1.931070 0.020490 
#    z -0.003210 0.020490 1.888890 
# 
# From -- ./inp_files/38711.got.cif
#   From: 2010.05.17/outbox.cif.g08.bks.cpg/sg2_20_cif.got.tgz:38711.got - 2010.06.03 11:33:40.
