data_PCOD9066745
_publ_section_title
;
Structure prediction by ZEFSAII (Michael W. Deem and Ramdas Pophale) SiO2 
 PCOD9066745
Probable space group: P -1
;
_chemical_formula_sum "Si O2"
_cell_formula_units_Z 16
_cell_length_a 21.229330
_cell_length_b 17.937544
_cell_length_c 8.696461
_cell_angle_alpha 139.897013
_cell_angle_beta 39.439808
_cell_angle_gamma 159.368562
_cell_volume 728.029124
_symmetry_space_group_name_H-M "P -1"
_symmetry_group_IT_number 2
_symmetry_cell_setting 'triclinic'
loop_
_space_group_symop_operation_xyz
x,y,z
-x,-y,-z
loop_
_atom_site_type_symbol
_atom_site_label
_atom_site_fract_x
_atom_site_fract_y
_atom_site_fract_z
Si Si1 0.872916 0.085514 0.883402
Si Si2 0.009084 0.555011 0.390919
Si Si3 0.270908 0.304069 0.999400
Si Si4 0.389459 0.384317 0.371075
Si Si5 0.038899 0.860289 0.847626
Si Si6 0.612046 0.201524 0.014412
Si Si7 0.639622 0.071898 0.239375
Si Si8 0.776546 0.580637 0.432348
O O1 0.014624 0.248600 0.734625
O O2 0.761275 0.861015 0.708817
O O3 0.960846 0.153662 0.991726
O O4 0.726217 0.043543 0.106714
O O5 0.035366 0.720706 0.582711
O O6 0.188240 0.659337 0.167939
O O7 0.000000 0.500000 0.500000
O O8 0.823940 0.334944 0.298709
O O9 0.248296 0.367178 0.287343
O O10 0.134860 0.232646 0.021998
O O11 0.471373 0.499792 0.851755
O O12 0.204395 0.108114 0.863724
O O13 0.500000 0.500000 0.500000
O O14 0.282622 0.395771 0.557918
O O15 0.486673 0.093464 0.927406
O O16 0.643557 0.341844 0.286091
O O17 0.500000 0.000000 0.000000
O O18 0.500000 0.000000 0.500000
#
# Coordination Sequence:
#
# PCOD9066745 Si02
#       8
#     2   2   2   2   2   2   2   2
#     4  12  25  46  75 105 148 197 251 312 378 450
#     4  12  24  49  79 109 149 198 254 317 371 450
#     4  11  28  46  74 109 146 203 246 310 386 455
#     4  12  27  45  74 106 144 195 256 312 374 449
#     4  11  25  46  75 104 151 190 254 307 384 441
#     4  12  29  47  72 113 152 197 249 317 384 449
#     4  12  26  47  78 111 146 202 260 307 382 450
#     4  12  26  49  69 106 155 192 251 310 378 455
#
# _framework density 21.977142000000001
#
# number of rings (size 3 to 8) (size 9 to 14) (size 15 to 20)
#    0.000    0.250    5.000    2.250    8.750    1.500 
#    0.000    0.000    0.000    0.000    0.000    0.000 
#    0.000    0.000    0.000    0.000    0.000    0.000 
#
# Total GULP energy -89348.675365 kJ/mol
# GULP energy per Si atom -5584.292210 kJ/mol
# Density = 2.192712 g / cm^3
# Si number density = 21.977142 Si / 1000 Ang^3
#
#
#
# Elastic Constant Matrix: (Units=GPa)
#
#
# Indices 1 2 3 4 5 6 
#
# 1 219.3228 83.0327 298.3248 104.9475 134.6035 41.7907
# 2 83.0327 140.9536 151.2707 70.6030 63.7342 20.3841
# 3 298.3248 151.2707 564.5013 221.8584 263.3729 64.9106
# 4 104.9475 70.6030 221.8584 133.9789 104.6930 14.5072
# 5 134.6035 63.7342 263.3729 104.6930 189.7152 45.0334
# 6 41.7907 20.3841 64.9106 14.5072 45.0334 48.5637
#
#
#
# Elastic Compliance Matrix: (Units=1/GPa)
#
#
# Indices 1 2 3 4 5 6 
#
# 1 0.017521 -0.000812 -0.011127 0.004146 0.001619 -0.002604
# 2 -0.000812 0.010507 -0.001594 -0.003234 0.001525 -0.002029
# 3 -0.011127 -0.001594 0.015998 -0.010966 -0.007515 -0.000894
# 4 0.004146 -0.003234 -0.010966 0.024900 -0.002002 0.006865
# 5 0.001619 0.001525 -0.007515 -0.002002 0.016803 -0.006972
# 6 -0.002604 -0.002029 -0.000894 0.006865 -0.006972 0.029293
#
#
# Mechanical properties :
#
#
# Convention : Reuss Voigt Hill
#
# Bulk Modulus (GPa) = 58.96314 221.11490 140.03902
# Shear Modulus (GPa) = 33.84305 100.59484 67.21894
#
# Velocity S-wave (km/s) = 3.92844 6.77288 5.53645
# Velocity P-wave (km/s) = 6.88944 12.72762 10.23368
#
# Compressibility (1/GPa) = 0.01695975
#
# Stress axis : x y z
#
# Youngs Moduli (GPa) = 57.07574 95.17593 62.50765
#
# Poissons Ratio (x) = 0.07725 0.69554
# Poissons Ratio (y) = 0.04633 0.09963
# Poissons Ratio (z) = 0.63510 0.15170
#
# Static dielectric constant tensor:
#      x y z
#    x 1.856690 0.006550 0.090390 
#    y 0.006550 1.837040 0.054680 
#    z 0.090390 0.054680 1.856280 
# 
# From -- ./inp_files/348813.got.cif
#   From: 2010.05.17/outbox.cif.g08.bks.cpg/sg2_175_cif.got.tgz:348813.got - 2010.06.03 11:33:40.
