data_PCOD9066882
_publ_section_title
;
Structure prediction by ZEFSAII (Michael W. Deem and Ramdas Pophale) SiO2 
 PCOD9066882
Probable space group: P -1
;
_chemical_formula_sum "Si O2"
_cell_formula_units_Z 16
_cell_length_a 19.593785
_cell_length_b 7.696895
_cell_length_c 17.344928
_cell_angle_alpha 42.828928
_cell_angle_beta 159.303876
_cell_angle_gamma 136.231939
_cell_volume 621.327792
_symmetry_space_group_name_H-M "P -1"
_symmetry_group_IT_number 2
_symmetry_cell_setting 'triclinic'
loop_
_space_group_symop_operation_xyz
x,y,z
-x,-y,-z
loop_
_atom_site_type_symbol
_atom_site_label
_atom_site_fract_x
_atom_site_fract_y
_atom_site_fract_z
Si Si1 0.167827 0.825288 0.048735
Si Si2 0.872668 0.276468 0.389656
Si Si3 0.445849 0.543464 0.528280
Si Si4 0.516584 0.007372 0.201562
Si Si5 0.103174 0.825237 0.795115
Si Si6 0.749660 0.399089 0.534786
Si Si7 0.621194 0.629072 0.933494
Si Si8 0.852336 0.873114 0.819105
O O1 0.332648 0.654229 0.302439
O O2 0.267753 0.121539 0.075365
O O3 0.106750 0.819306 0.895898
O O4 0.983300 0.759836 0.930870
O O5 0.000000 0.500000 0.500000
O O6 0.698998 0.127842 0.305879
O O7 0.768240 0.427096 0.166642
O O8 0.010534 0.066482 0.585849
O O9 0.426702 0.234169 0.611989
O O10 0.334449 0.624179 0.460068
O O11 0.670574 0.679516 0.723462
O O12 0.440324 0.233083 0.097575
O O13 0.330666 0.872306 0.000269
O O14 0.958303 0.574192 0.698262
O O15 0.580620 0.500919 0.274686
O O16 0.766688 0.116315 0.613764
O O17 0.000000 0.000000 0.000000
#
# Coordination Sequence:
#
# PCOD9066882 Si02
#       8
#     2   2   2   2   2   2   2   2
#     4  11  25  47  71 107 138 196 242 286 353 428
#     4  12  24  50  80 103 140 184 245 304 348 418
#     4  12  25  47  70 105 154 183 238 293 348 429
#     4  11  26  48  75 108 139 189 241 297 348 427
#     4  11  27  48  72 108 143 187 242 299 350 424
#     4  12  25  48  67 105 154 186 234 296 358 422
#     4  11  26  46  77 105 141 189 244 293 361 419
#     4  12  24  43  74 102 148 198 227 292 361 420
#
# _framework density 25.751303
#
# number of rings (size 3 to 8) (size 9 to 14) (size 15 to 20)
#    0.000    0.500    6.250    2.250    1.750    3.000 
#    4.500    0.625    0.000    0.000    0.000    0.000 
#    0.000    0.000    0.000    0.000    0.000    0.000 
#
# Total GULP energy -89783.056415 kJ/mol
# GULP energy per Si atom -5611.441026 kJ/mol
# Density = 2.569269 g / cm^3
# Si number density = 25.751303 Si / 1000 Ang^3
#
#
#
# Elastic Constant Matrix: (Units=GPa)
#
#
# Indices 1 2 3 4 5 6 
#
# 1 61.2365 38.0465 37.6567 14.2424 14.5162 -2.8630
# 2 38.0465 159.4051 68.7893 16.7727 3.5030 20.2642
# 3 37.6567 68.7893 180.6403 1.3395 -3.5545 10.3546
# 4 14.2424 16.7727 1.3395 70.0566 1.2996 9.5415
# 5 14.5162 3.5030 -3.5545 1.2996 38.1133 10.5547
# 6 -2.8630 20.2642 10.3546 9.5415 10.5547 38.3647
#
#
#
# Elastic Compliance Matrix: (Units=1/GPa)
#
#
# Indices 1 2 3 4 5 6 
#
# 1 0.027178 -0.005025 -0.004595 -0.005475 -0.013151 0.010902
# 2 -0.005025 0.008996 -0.002036 -0.000441 0.002326 -0.005107
# 3 -0.004595 -0.002036 0.007470 0.001569 0.003295 -0.002580
# 4 -0.005475 -0.000441 0.001569 0.016153 0.003247 -0.005510
# 5 -0.013151 0.002326 0.003295 0.003247 0.034976 -0.013529
# 6 0.010902 -0.005107 -0.002580 -0.005510 -0.013529 0.035366
#
#
# Mechanical properties :
#
#
# Convention : Reuss Voigt Hill
#
# Bulk Modulus (GPa) = 49.18396 76.69632 62.94014
# Shear Modulus (GPa) = 31.20527 46.42621 38.81574
#
# Velocity S-wave (km/s) = 3.48486 4.25063 3.88665
# Velocity P-wave (km/s) = 5.94419 7.34429 6.68102
#
# Compressibility (1/GPa) = 0.02033183
#
# Stress axis : x y z
#
# Youngs Moduli (GPa) = 36.79408 111.16131 133.86085
#
# Poissons Ratio (x) = 0.55854 0.61514
# Poissons Ratio (y) = 0.18488 0.27261
# Poissons Ratio (z) = 0.16908 0.22638
#
# Static dielectric constant tensor:
#      x y z
#    x 2.072980 -0.010010 -0.021780 
#    y -0.010010 1.994730 -0.022500 
#    z -0.021780 -0.022500 2.039240 
# 
# From -- ./inp_files/577568.got.cif
#   From: 2010.05.17/outbox.cif.g08.bks.cpg/sg2_289_cif.got.tgz:577568.got - 2010.06.03 11:33:40.
