data_PCOD9066397
_publ_section_title
;
Structure prediction by ZEFSAII (Michael W. Deem and Ramdas Pophale) SiO2 
 PCOD9066397
Probable space group: P -1
;
_chemical_formula_sum "Si O2"
_cell_formula_units_Z 14
_cell_length_a 9.083766
_cell_length_b 9.406702
_cell_length_c 8.949673
_cell_angle_alpha 81.981622
_cell_angle_beta 122.493869
_cell_angle_gamma 86.934190
_cell_volume 631.113032
_symmetry_space_group_name_H-M "P -1"
_symmetry_group_IT_number 2
_symmetry_cell_setting 'triclinic'
loop_
_space_group_symop_operation_xyz
x,y,z
-x,-y,-z
loop_
_atom_site_type_symbol
_atom_site_label
_atom_site_fract_x
_atom_site_fract_y
_atom_site_fract_z
Si Si1 0.039013 0.384913 0.173645
Si Si2 0.298901 0.874022 0.543140
Si Si3 0.686722 0.946662 0.184832
Si Si4 0.003719 0.052437 0.161273
Si Si5 0.737966 0.368366 0.228981
Si Si6 0.447772 0.339573 0.494211
Si Si7 0.450438 0.326195 0.831620
O O1 0.238094 0.366104 0.346175
O O2 0.005650 0.223909 0.134737
O O3 0.897128 0.424393 0.221921
O O4 0.000000 0.500000 0.000000
O O5 0.203350 0.760672 0.604122
O O6 0.459617 0.772152 0.563687
O O7 0.333824 0.992021 0.667576
O O8 0.177466 0.964985 0.343481
O O9 0.699425 0.773111 0.202405
O O10 0.842357 0.009181 0.176291
O O11 0.500000 0.000000 0.000000
O O12 0.000000 0.000000 0.000000
O O13 0.628486 0.504556 0.233409
O O14 0.605142 0.313131 0.042045
O O15 0.500000 0.500000 0.500000
O O16 0.507393 0.281748 0.700794
#
# Coordination Sequence:
#
# PCOD9066397 Si02
#       7
#     2   2   2   2   2   2   2
#     4  12  29  48  78 111 153 192 254 313 377 449
#     4  12  27  50  77 106 160 196 255 312 372 458
#     4  12  26  47  77 108 150 198 253 306 381 446
#     4  12  31  49  75 114 154 200 252 315 381 449
#     4  11  25  48  77 109 152 198 254 310 368 456
#     4  12  28  47  76 113 150 198 251 314 378 446
#     4  11  25  45  76 110 149 199 253 306 380 444
#
# _framework density 22.183029999999999
#
# number of rings (size 3 to 8) (size 9 to 14) (size 15 to 20)
#    0.000    0.286    4.286    2.143   14.000    1.714 
#    0.000    0.000    0.000    0.000    0.000    0.000 
#    0.000    0.000    0.000    0.000    0.000    0.000 
#
# Total GULP energy -78320.349419 kJ/mol
# GULP energy per Si atom -5594.310673 kJ/mol
# Density = 2.213254 g / cm^3
# Si number density = 22.183030 Si / 1000 Ang^3
#
#
#
# Elastic Constant Matrix: (Units=GPa)
#
#
# Indices 1 2 3 4 5 6 
#
# 1 107.5967 38.4573 37.8323 21.3452 -5.0859 -2.1059
# 2 38.4573 132.7391 45.8898 5.7826 -0.8055 14.3662
# 3 37.8323 45.8898 137.2415 10.1693 -14.8597 -6.9588
# 4 21.3452 5.7826 10.1693 47.9489 2.4904 -6.1470
# 5 -5.0859 -0.8055 -14.8597 2.4904 33.9486 0.7435
# 6 -2.1059 14.3662 -6.9588 -6.1470 0.7435 40.0890
#
#
#
# Elastic Compliance Matrix: (Units=1/GPa)
#
#
# Indices 1 2 3 4 5 6 
#
# 1 0.011875 -0.002634 -0.001897 -0.004563 0.001209 0.000516
# 2 -0.002634 0.009721 -0.002889 0.000161 -0.001351 -0.004074
# 3 -0.001897 -0.002889 0.009352 -0.000679 0.003738 0.002386
# 4 -0.004563 0.000161 -0.000679 0.023572 -0.002777 0.003251
# 5 0.001209 -0.001351 0.003738 -0.002777 0.031441 0.000188
# 6 0.000516 -0.004074 0.002386 0.003251 0.000188 0.027341
#
#
# Mechanical properties :
#
#
# Convention : Reuss Voigt Hill
#
# Bulk Modulus (GPa) = 62.08806 69.10401 65.59603
# Shear Modulus (GPa) = 37.44968 41.42384 39.43676
#
# Velocity S-wave (km/s) = 4.11324 4.32599 4.22096
# Velocity P-wave (km/s) = 7.11394 7.49477 7.30684
#
# Compressibility (1/GPa) = 0.01610616
#
# Stress axis : x y z
#
# Youngs Moduli (GPa) = 84.20944 102.86696 106.93471
#
# Poissons Ratio (x) = 0.27098 0.20291
# Poissons Ratio (y) = 0.22183 0.30895
# Poissons Ratio (z) = 0.15979 0.29720
#
# Static dielectric constant tensor:
#      x y z
#    x 1.827850 0.015150 -0.033170 
#    y 0.015150 1.840520 -0.018160 
#    z -0.033170 -0.018160 1.789390 
# 
# From -- ./inp_files/158252.got.cif
#   From: 2010.05.17/outbox.cif.g08.bks.cpg/sg2_80_cif.got.tgz:158252.got - 2010.06.03 11:33:40.
