data_PCOD9066129
_publ_section_title
;
Structure prediction by ZEFSAII (Michael W. Deem and Ramdas Pophale) SiO2 
 PCOD9066129
Probable space group: P -1
;
_chemical_formula_sum "Si O2"
_cell_formula_units_Z 12
_cell_length_a 10.568865
_cell_length_b 10.469636
_cell_length_c 24.878243
_cell_angle_alpha 22.438100
_cell_angle_beta 147.479489
_cell_angle_gamma 149.336300
_cell_volume 519.213671
_symmetry_space_group_name_H-M "P -1"
_symmetry_group_IT_number 2
_symmetry_cell_setting 'triclinic'
loop_
_space_group_symop_operation_xyz
x,y,z
-x,-y,-z
loop_
_atom_site_type_symbol
_atom_site_label
_atom_site_fract_x
_atom_site_fract_y
_atom_site_fract_z
Si Si1 0.280358 0.811154 0.825942
Si Si2 0.325968 0.718169 0.369288
Si Si3 0.978060 0.007463 0.554938
Si Si4 0.963416 0.800819 0.331578
Si Si5 0.213772 0.018898 0.110840
Si Si6 0.455938 0.790872 0.657488
O O1 0.564166 0.052189 0.813551
O O2 0.161502 0.974939 0.764985
O O3 0.301832 0.439514 0.996555
O O4 0.109126 0.785806 0.721051
O O5 0.500000 0.500000 0.500000
O O6 0.145363 0.440028 0.456495
O O7 0.162960 0.771321 0.241297
O O8 0.485783 0.122284 0.291899
O O9 0.703850 0.946064 0.506637
O O10 0.000000 0.000000 0.500000
O O11 0.740120 0.588200 0.289891
O O12 0.000000 0.500000 0.500000
O O13 0.256464 0.070790 0.316392
O O14 0.000000 0.000000 0.000000
#
# Coordination Sequence:
#
# PCOD9066129 Si02
#       6
#     2   2   2   2   2   2
#     4  11  25  45  65 107 142 192 234 301 362 426
#     4  12  23  43  73 106 140 189 241 302 352 425
#     4  12  22  39  74 104 142 183 242 302 354 416
#     4  12  26  42  72 105 149 192 239 294 358 438
#     4  11  26  44  73 105 145 184 241 301 368 421
#     4  12  25  43  70 110 141 188 247 294 355 425
#
# _framework density 23.11187
#
# number of rings (size 3 to 8) (size 9 to 14) (size 15 to 20)
#    0.000    0.333    6.667    1.500    2.333    1.333 
#    0.000    1.667    0.000    0.000    0.000    0.000 
#    0.000    0.000    0.000    0.000    0.000    0.000 
#
# Total GULP energy -66844.606943 kJ/mol
# GULP energy per Si atom -5570.383912 kJ/mol
# Density = 2.305927 g / cm^3
# Si number density = 23.111870 Si / 1000 Ang^3
#
#
#
# Elastic Constant Matrix: (Units=GPa)
#
#
# Indices 1 2 3 4 5 6 
#
# 1 132.7381 58.7785 37.7777 8.2692 39.9564 4.3979
# 2 58.7785 141.0261 26.2714 23.7344 7.0107 -1.9684
# 3 37.7777 26.2714 123.9843 12.0094 -6.4057 4.0121
# 4 8.2692 23.7344 12.0094 40.1855 3.4326 -0.9300
# 5 39.9564 7.0107 -6.4057 3.4326 37.7799 13.2966
# 6 4.3979 -1.9684 4.0121 -0.9300 13.2966 40.7046
#
#
#
# Elastic Compliance Matrix: (Units=1/GPa)
#
#
# Indices 1 2 3 4 5 6 
#
# 1 0.017449 -0.005689 -0.005659 0.003329 -0.020477 0.005163
# 2 -0.005689 0.010025 0.000400 -0.005308 0.004944 -0.000676
# 3 -0.005659 0.000400 0.010595 -0.003107 0.009220 -0.003496
# 4 0.003329 -0.005308 -0.003107 0.028882 -0.006564 0.002494
# 5 -0.020477 0.004944 0.009220 -0.006564 0.055227 -0.016648
# 6 0.005163 -0.000676 -0.003496 0.002494 -0.016648 0.029816
#
#
# Mechanical properties :
#
#
# Convention : Reuss Voigt Hill
#
# Bulk Modulus (GPa) = 61.82071 71.48931 66.65501
# Shear Modulus (GPa) = 27.88937 42.06207 34.97572
#
# Velocity S-wave (km/s) = 3.47754 4.27070 3.89437
# Velocity P-wave (km/s) = 6.55217 7.43757 7.00887
#
# Compressibility (1/GPa) = 0.01617581
#
# Stress axis : x y z
#
# Youngs Moduli (GPa) = 57.31132 99.74708 94.38174
#
# Poissons Ratio (x) = 0.56741 0.53407
# Poissons Ratio (y) = 0.32602 -0.03780
# Poissons Ratio (z) = 0.32430 -0.03995
#
# Static dielectric constant tensor:
#      x y z
#    x 1.985250 -0.082080 -0.007680 
#    y -0.082080 2.196030 -0.006360 
#    z -0.007680 -0.006360 1.816400 
# 
# From -- ./inp_files/618400.got.cif
#   From: 2010.05.17/outbox.cif.g08.bks.cpg/sg2_310_cif.got.tgz:618400.got - 2010.06.03 11:33:40.
