data_PCOD9066004
_publ_section_title
;
Structure prediction by ZEFSAII (Michael W. Deem and Ramdas Pophale) SiO2 
 PCOD9066004
Probable space group: P -1
;
_chemical_formula_sum "Si O2"
_cell_formula_units_Z 13
_cell_length_a 9.825254
_cell_length_b 9.167728
_cell_length_c 9.451810
_cell_angle_alpha 62.385199
_cell_angle_beta 122.704230
_cell_angle_gamma 136.572124
_cell_volume 488.749218
_symmetry_space_group_name_H-M "P -1"
_symmetry_group_IT_number 2
_symmetry_cell_setting 'triclinic'
loop_
_space_group_symop_operation_xyz
x,y,z
-x,-y,-z
loop_
_atom_site_type_symbol
_atom_site_label
_atom_site_fract_x
_atom_site_fract_y
_atom_site_fract_z
Si Si1 0.486549 0.266893 0.746385
Si Si2 0.079392 0.808372 0.168988
Si Si3 0.674875 0.253186 0.463027
Si Si4 0.669937 0.746895 0.026157
Si Si5 0.759504 0.195511 0.247804
Si Si6 0.000000 0.500000 0.000000
Si Si7 0.226094 0.397555 0.442736
O O1 0.410352 0.237665 0.875877
O O2 0.332441 0.290523 0.561400
O O3 0.721252 0.476218 0.735202
O O4 0.433434 0.053626 0.756421
O O5 0.137848 0.711888 0.362039
O O6 0.890434 0.793201 0.133161
O O7 0.026607 0.673166 0.058164
O O8 0.267448 0.060522 0.127652
O O9 0.718145 0.296383 0.302992
O O10 0.656687 0.415382 0.457716
O O11 0.500000 0.000000 0.500000
O O12 0.500000 0.500000 0.000000
O O13 0.807729 0.301017 0.076736
O O14 0.976863 0.240539 0.388769
#
# Coordination Sequence:
#
# PCOD9066004 Si02
#       7
#     2   2   2   2   2   1   2
#     4  11  25  45  68 106 142 191 247 300 363 446
#     4  11  27  50  73 109 150 189 254 300 371 439
#     4  12  26  48  76 110 144 195 243 307 366 436
#     4  11  27  46  75 104 146 199 242 304 371 442
#     4  12  25  47  72 102 149 188 243 304 367 432
#     4  12  26  46  74 108 144 198 238 306 370 436
#     4  11  25  44  71 104 143 190 245 297 371 434
#
# _framework density 26.598504999999999
#
# number of rings (size 3 to 8) (size 9 to 14) (size 15 to 20)
#    0.000    0.615    4.615    1.846    6.462    0.000 
#    0.000    3.077    0.000    0.000    0.000    0.000 
#    0.000    0.000    0.000    0.000    0.000    0.000 
#
# Total GULP energy -72743.101243 kJ/mol
# GULP energy per Si atom -5595.623173 kJ/mol
# Density = 2.653797 g / cm^3
# Si number density = 26.598505 Si / 1000 Ang^3
#
#
#
# Elastic Constant Matrix: (Units=GPa)
#
#
# Indices 1 2 3 4 5 6 
#
# 1 137.4415 20.6963 21.7894 9.1260 -23.9839 -0.8213
# 2 20.6963 156.2970 2.5346 -1.8669 -0.9990 7.4115
# 3 21.7894 2.5346 87.8036 1.4498 -36.0114 -16.4293
# 4 9.1260 -1.8669 1.4498 37.8364 -12.7220 -3.8400
# 5 -23.9839 -0.9990 -36.0114 -12.7220 48.8155 -2.2543
# 6 -0.8213 7.4115 -16.4293 -3.8400 -2.2543 53.3940
#
#
#
# Elastic Compliance Matrix: (Units=1/GPa)
#
#
# Indices 1 2 3 4 5 6 
#
# 1 0.008171 -0.001070 -0.000574 -0.000856 0.003355 0.000178
# 2 -0.001070 0.006596 -0.000402 0.000267 -0.000667 -0.001065
# 3 -0.000574 -0.000402 0.019128 0.005314 0.015527 0.006970
# 4 -0.000856 0.000267 0.005314 0.030828 0.011738 0.004298
# 5 0.003355 -0.000667 0.015527 0.011738 0.036972 0.007327
# 6 0.000178 -0.001065 0.006970 0.004298 0.007327 0.021642
#
#
# Mechanical properties :
#
#
# Convention : Reuss Voigt Hill
#
# Bulk Modulus (GPa) = 33.55278 52.39807 42.97542
# Shear Modulus (GPa) = 36.39986 50.44396 43.42191
#
# Velocity S-wave (km/s) = 3.70333 4.35960 4.04480
# Velocity P-wave (km/s) = 5.56130 6.71445 6.16490
#
# Compressibility (1/GPa) = 0.02980379
#
# Stress axis : x y z
#
# Youngs Moduli (GPa) = 122.38157 151.61446 52.27970
#
# Poissons Ratio (x) = 0.16221 0.02998
# Poissons Ratio (y) = 0.13094 0.02102
# Poissons Ratio (z) = 0.07019 0.06096
#
# Static dielectric constant tensor:
#      x y z
#    x 1.980520 0.024200 -0.010840 
#    y 0.024200 2.051880 -0.001260 
#    z -0.010840 -0.001260 2.030110 
# 
# From -- ./inp_files/157560.got.cif
#   From: 2010.05.17/outbox.cif.g08.bks.cpg/sg2_79_cif.got.tgz:157560.got - 2010.06.03 11:33:40.
