data_PCOD9066939
_publ_section_title
;
Structure prediction by ZEFSAII (Michael W. Deem and Ramdas Pophale) SiO2 
 PCOD9066939
Probable space group: P -1
;
_chemical_formula_sum "Si O2"
_cell_formula_units_Z 14
_cell_length_a 6.225800
_cell_length_b 12.927013
_cell_length_c 20.399067
_cell_angle_alpha 158.449538
_cell_angle_beta 86.470408
_cell_angle_gamma 92.908856
_cell_volume 601.804921
_symmetry_space_group_name_H-M "P -1"
_symmetry_group_IT_number 2
_symmetry_cell_setting 'triclinic'
loop_
_space_group_symop_operation_xyz
x,y,z
-x,-y,-z
loop_
_atom_site_type_symbol
_atom_site_label
_atom_site_fract_x
_atom_site_fract_y
_atom_site_fract_z
Si Si1 0.165643 0.774616 0.646381
Si Si2 0.569349 0.338091 0.590831
Si Si3 0.196796 0.074983 0.355804
Si Si4 0.798156 0.740196 0.728675
Si Si5 0.480722 0.281402 0.929670
Si Si6 0.914466 0.875232 0.359922
Si Si7 0.643068 0.379988 0.113105
O O1 0.283314 0.473223 0.453369
O O2 0.994670 0.766081 0.584513
O O3 0.040412 0.797950 0.731382
O O4 0.301068 0.048184 0.791701
O O5 0.389506 0.245524 0.486545
O O6 0.731780 0.566757 0.692413
O O7 0.441837 0.481650 0.737519
O O8 0.708555 0.067097 0.453141
O O9 0.295929 0.887621 0.185278
O O10 0.088264 0.901306 0.314252
O O11 0.688984 0.046997 0.920238
O O12 0.500000 0.500000 0.000000
O O13 0.469525 0.421580 0.083017
O O14 0.843863 0.559024 0.189526
O O15 0.000000 0.000000 0.500000
#
# Coordination Sequence:
#
# PCOD9066939 Si02
#       7
#     2   2   2   2   2   2   2
#     4  11  25  47  73 107 147 198 237 300 366 432
#     4  12  26  50  74 107 147 196 241 298 373 431
#     4  12  23  48  78 101 146 194 246 290 371 434
#     4  11  25  48  72 108 150 192 247 294 365 437
#     4  12  27  45  75 110 147 187 253 305 358 431
#     4  12  27  48  76 108 146 192 241 299 374 432
#     4  12  27  46  75 112 145 189 247 309 357 431
#
# _framework density 23.263352999999999
#
# number of rings (size 3 to 8) (size 9 to 14) (size 15 to 20)
#    0.000    0.286    5.714    2.571    4.000    4.571 
#    0.000    3.571    0.000    0.000    0.000    0.000 
#    0.000    0.000    0.000    0.000    0.000    0.000 
#
# Total GULP energy -78207.198846 kJ/mol
# GULP energy per Si atom -5586.228489 kJ/mol
# Density = 2.321040 g / cm^3
# Si number density = 23.263353 Si / 1000 Ang^3
#
#
#
# Elastic Constant Matrix: (Units=GPa)
#
#
# Indices 1 2 3 4 5 6 
#
# 1 65.5000 19.2718 28.3161 5.6747 14.9023 13.8703
# 2 19.2718 108.4079 27.7905 5.1170 15.0172 37.8326
# 3 28.3161 27.7905 85.5970 15.5429 17.4405 2.9865
# 4 5.6747 5.1170 15.5429 55.7455 6.1362 8.7497
# 5 14.9023 15.0172 17.4405 6.1362 36.4423 -1.5117
# 6 13.8703 37.8326 2.9865 8.7497 -1.5117 46.7909
#
#
#
# Elastic Compliance Matrix: (Units=1/GPa)
#
#
# Indices 1 2 3 4 5 6 
#
# 1 0.020269 0.001165 -0.005735 0.001251 -0.006526 -0.007029
# 2 0.001165 0.015344 -0.004161 0.002322 -0.005742 -0.013106
# 3 -0.005735 -0.004161 0.016045 -0.003940 -0.002761 0.004688
# 4 0.001251 0.002322 -0.003940 0.019963 -0.003186 -0.005833
# 5 -0.006526 -0.005742 -0.002761 -0.003186 0.034685 0.008470
# 6 -0.007029 -0.013106 0.004688 -0.005833 0.008470 0.035117
#
#
# Mechanical properties :
#
#
# Convention : Reuss Voigt Hill
#
# Bulk Modulus (GPa) = 29.24493 45.58465 37.41479
# Shear Modulus (GPa) = 29.36275 40.07083 34.71679
#
# Velocity S-wave (km/s) = 3.55658 4.15479 3.86727
# Velocity P-wave (km/s) = 5.42810 6.53100 6.00492
#
# Compressibility (1/GPa) = 0.03419396
#
# Stress axis : x y z
#
# Youngs Moduli (GPa) = 49.33717 65.17402 62.32301
#
# Poissons Ratio (x) = -0.07593 0.35745
# Poissons Ratio (y) = -0.05748 0.25935
# Poissons Ratio (z) = 0.28297 0.27121
#
# Static dielectric constant tensor:
#      x y z
#    x 1.993860 -0.052550 -0.068950 
#    y -0.052550 1.923950 0.081110 
#    z -0.068950 0.081110 1.944930 
# 
# From -- ./inp_files/604659.got.cif
#   From: 2010.05.17/outbox.cif.g08.bks.cpg/sg2_303_cif.got.tgz:604659.got - 2010.06.03 11:33:40.
