data_PCOD9066513
_publ_section_title
;
Structure prediction by ZEFSAII (Michael W. Deem and Ramdas Pophale) SiO2 
 PCOD9066513
Probable space group: P -1
;
_chemical_formula_sum "Si O2"
_cell_formula_units_Z 9
_cell_length_a 11.033839
_cell_length_b 7.070018
_cell_length_c 9.439041
_cell_angle_alpha 101.503231
_cell_angle_beta 39.792097
_cell_angle_gamma 119.992839
_cell_volume 384.829873
_symmetry_space_group_name_H-M "P -1"
_symmetry_group_IT_number 2
_symmetry_cell_setting 'triclinic'
loop_
_space_group_symop_operation_xyz
x,y,z
-x,-y,-z
loop_
_atom_site_type_symbol
_atom_site_label
_atom_site_fract_x
_atom_site_fract_y
_atom_site_fract_z
Si Si1 0.116180 0.478875 0.161457
Si Si2 0.682402 0.490847 0.535197
Si Si3 0.794870 0.749315 0.190928
Si Si4 0.500000 0.000000 0.000000
Si Si5 0.214815 0.204729 0.251819
O O1 0.129226 0.296401 0.220003
O O2 0.863928 0.424885 0.384581
O O3 0.179049 0.439901 0.942645
O O4 0.291504 0.736548 0.098240
O O5 0.783049 0.696748 0.359369
O O6 0.442346 0.294487 0.655857
O O7 0.651965 0.588614 0.722753
O O8 0.000000 0.000000 0.000000
O O9 0.632424 0.890567 0.939100
O O10 0.000000 0.000000 0.500000
#
# Coordination Sequence:
#
# PCOD9066513 Si02
#       5
#     2   2   2   1   2
#     4  12  26  46  74 108 144 186 239 297 360 421
#     4  11  25  46  70 107 144 185 242 291 354 427
#     4  11  26  47  71 103 147 191 239 290 357 427
#     4  12  26  42  78 102 148 184 232 300 362 420
#     4  12  25  45  72 110 141 184 241 295 358 425
#
# _framework density 23.386959999999998
#
# number of rings (size 3 to 8) (size 9 to 14) (size 15 to 20)
#    0.000    0.444    4.444    3.333    0.000    0.889 
#    0.000    0.000    0.000    0.000    0.000    0.000 
#    0.000    0.000    0.000    0.000    0.000    0.000 
#
# Total GULP energy -50185.998870 kJ/mol
# GULP energy per Si atom -5576.222097 kJ/mol
# Density = 2.333373 g / cm^3
# Si number density = 23.386960 Si / 1000 Ang^3
#
#
#
# Elastic Constant Matrix: (Units=GPa)
#
#
# Indices 1 2 3 4 5 6 
#
# 1 145.6742 65.8850 37.1408 5.5723 -23.3908 -36.6117
# 2 65.8850 118.9016 41.5202 -13.8668 -22.4201 -23.6738
# 3 37.1408 41.5202 63.2857 -13.5951 -16.5883 -10.4187
# 4 5.5723 -13.8668 -13.5951 43.1776 0.3394 -11.6462
# 5 -23.3908 -22.4201 -16.5883 0.3394 54.0799 9.9127
# 6 -36.6117 -23.6738 -10.4187 -11.6462 9.9127 36.6877
#
#
#
# Elastic Compliance Matrix: (Units=1/GPa)
#
#
# Indices 1 2 3 4 5 6 
#
# 1 0.011440 -0.003810 -0.003110 -0.001739 0.001101 0.007225
# 2 -0.003810 0.014046 -0.004633 0.004880 0.001806 0.005007
# 3 -0.003110 -0.004633 0.023305 0.006680 0.003531 0.001692
# 4 -0.001739 0.004880 0.006680 0.030496 0.000786 0.012779
# 5 0.001101 0.001806 0.003531 0.000786 0.021199 -0.002212
# 6 0.007225 0.005007 0.001692 0.012779 -0.002212 0.042833
#
#
# Mechanical properties :
#
#
# Convention : Reuss Voigt Hill
#
# Bulk Modulus (GPa) = 38.93279 68.55038 53.74158
# Shear Modulus (GPa) = 28.57378 39.01007 33.79193
#
# Velocity S-wave (km/s) = 3.49919 4.08858 3.80531
# Velocity P-wave (km/s) = 5.74536 7.18774 6.50664
#
# Compressibility (1/GPa) = 0.02568529
#
# Stress axis : x y z
#
# Youngs Moduli (GPa) = 87.41538 71.19575 42.90899
#
# Poissons Ratio (x) = 0.27122 0.13343
# Poissons Ratio (y) = 0.33301 0.19882
# Poissons Ratio (z) = 0.27183 0.32988
#
# Static dielectric constant tensor:
#      x y z
#    x 1.862720 0.034030 -0.001680 
#    y 0.034030 1.839070 0.005500 
#    z -0.001680 0.005500 1.929500 
# 
# From -- ./inp_files/16774.got.cif
#   From: 2010.05.17/outbox.cif.g08.bks.cpg/sg2_9_cif.got.tgz:16774.got - 2010.06.03 11:33:40.
