data_PCOD9066526
_publ_section_title
;
Structure prediction by ZEFSAII (Michael W. Deem and Ramdas Pophale) SiO2 
 PCOD9066526
Probable space group: P -1
;
_chemical_formula_sum "Si O2"
_cell_formula_units_Z 16
_cell_length_a 12.422441
_cell_length_b 13.554241
_cell_length_c 13.162318
_cell_angle_alpha 115.264065
_cell_angle_beta 85.304085
_cell_angle_gamma 35.594315
_cell_volume 676.209914
_symmetry_space_group_name_H-M "P -1"
_symmetry_group_IT_number 2
_symmetry_cell_setting 'triclinic'
loop_
_space_group_symop_operation_xyz
x,y,z
-x,-y,-z
loop_
_atom_site_type_symbol
_atom_site_label
_atom_site_fract_x
_atom_site_fract_y
_atom_site_fract_z
Si Si1 0.116359 0.763184 0.887640
Si Si2 0.716142 0.839078 0.218963
Si Si3 0.277150 0.934976 0.771313
Si Si4 0.875178 0.758382 0.568435
Si Si5 0.826221 0.830654 0.832972
Si Si6 0.825174 0.073204 0.441259
Si Si7 0.107019 0.459926 0.209235
Si Si8 0.083167 0.767154 0.485356
O O1 0.485158 0.408906 0.671958
O O2 0.579392 0.593908 0.655085
O O3 0.932703 0.849979 0.867255
O O4 0.000000 0.000000 0.000000
O O5 0.823853 0.768490 0.293759
O O6 0.670179 0.988086 0.218770
O O7 0.419202 0.041562 0.332385
O O8 0.000000 0.500000 0.000000
O O9 0.236541 0.921925 0.658718
O O10 0.556339 0.823192 0.989090
O O11 0.969652 0.201558 0.979762
O O12 0.971300 0.665216 0.638298
O O13 0.096831 0.513269 0.348737
O O14 0.819917 0.938105 0.628590
O O15 0.925474 0.640542 0.820171
O O16 0.960225 0.065820 0.410927
O O17 0.055586 0.789664 0.375461
#
# Coordination Sequence:
#
# PCOD9066526 Si02
#       8
#     2   2   2   2   2   2   2   2
#     4  12  27  46  80 111 149 201 253 314 383 449
#     4  12  27  48  72 114 155 197 250 313 385 457
#     4  12  27  50  79 106 155 202 251 317 384 449
#     4  12  26  43  75 104 147 200 243 303 384 445
#     4  11  26  44  75 106 150 190 255 314 367 454
#     4  11  27  52  75 113 150 202 257 317 375 454
#     4  11  25  46  70 109 150 197 248 309 373 456
#     4  11  26  48  77 111 150 193 262 314 369 455
#
# _framework density 23.661294000000002
#
# number of rings (size 3 to 8) (size 9 to 14) (size 15 to 20)
#    0.000    0.500    2.500    4.125   12.250    0.000 
#    0.000    3.750    0.000    0.000    0.000    0.000 
#    0.000    0.000    0.000    0.000    0.000    0.000 
#
# Total GULP energy -89602.584829 kJ/mol
# GULP energy per Si atom -5600.161552 kJ/mol
# Density = 2.360744 g / cm^3
# Si number density = 23.661294 Si / 1000 Ang^3
#
#
#
# Elastic Constant Matrix: (Units=GPa)
#
#
# Indices 1 2 3 4 5 6 
#
# 1 185.6237 65.3376 33.2189 -5.5431 -24.4567 1.8980
# 2 65.3376 145.2187 36.0976 -24.0914 14.1445 7.3536
# 3 33.2189 36.0976 110.2325 -27.3528 -4.3336 -5.7418
# 4 -5.5431 -24.0914 -27.3528 23.0589 -3.0263 1.8149
# 5 -24.4567 14.1445 -4.3336 -3.0263 27.5187 -12.0508
# 6 1.8980 7.3536 -5.7418 1.8149 -12.0508 33.8568
#
#
#
# Elastic Compliance Matrix: (Units=1/GPa)
#
#
# Indices 1 2 3 4 5 6 
#
# 1 0.009332 -0.006224 -0.000974 -0.004106 0.013357 0.005638
# 2 -0.006224 0.013587 -0.001166 0.009982 -0.015473 -0.008842
# 3 -0.000974 -0.001166 0.014013 0.015570 0.005287 0.003731
# 4 -0.004106 0.009982 0.015570 0.071546 0.000200 -0.003061
# 5 0.013357 -0.015473 0.005287 0.000200 0.069360 0.028185
# 6 0.005638 -0.008842 0.003731 -0.003061 0.028185 0.041970
#
#
# Mechanical properties :
#
#
# Convention : Reuss Voigt Hill
#
# Bulk Modulus (GPa) = 49.49521 78.93145 64.21333
# Shear Modulus (GPa) = 20.55333 37.31492 28.93412
#
# Velocity S-wave (km/s) = 2.95048 3.97551 3.50072
# Velocity P-wave (km/s) = 5.70708 7.38270 6.59829
#
# Compressibility (1/GPa) = 0.02020397
#
# Stress axis : x y z
#
# Youngs Moduli (GPa) = 107.15913 73.59883 71.36373
#
# Poissons Ratio (x) = 0.45809 0.06951
# Poissons Ratio (y) = 0.66697 0.08319
# Poissons Ratio (z) = 0.10438 0.08580
#
# Static dielectric constant tensor:
#      x y z
#    x 1.897480 -0.000190 0.027180 
#    y -0.000190 1.917240 0.002000 
#    z 0.027180 0.002000 1.887170 
# 
# From -- ./inp_files/434247.got.cif
#   From: 2010.05.17/outbox.cif.g08.bks.cpg/sg2_218_cif.got.tgz:434247.got - 2010.06.03 11:33:40.
