data_PCOD9066672
_publ_section_title
;
Structure prediction by ZEFSAII (Michael W. Deem and Ramdas Pophale) SiO2 
 PCOD9066672
Probable space group: P -1
;
_chemical_formula_sum "Si O2"
_cell_formula_units_Z 14
_cell_length_a 14.881477
_cell_length_b 14.389572
_cell_length_c 5.883076
_cell_angle_alpha 124.670344
_cell_angle_beta 130.649311
_cell_angle_gamma 40.309542
_cell_volume 611.626091
_symmetry_space_group_name_H-M "P -1"
_symmetry_group_IT_number 2
_symmetry_cell_setting 'triclinic'
loop_
_space_group_symop_operation_xyz
x,y,z
-x,-y,-z
loop_
_atom_site_type_symbol
_atom_site_label
_atom_site_fract_x
_atom_site_fract_y
_atom_site_fract_z
Si Si1 0.883308 0.748409 0.650445
Si Si2 0.387479 0.988058 0.646702
Si Si3 0.896300 0.002009 0.640130
Si Si4 0.086718 0.494413 0.345496
Si Si5 0.566324 0.677642 0.314985
Si Si6 0.589649 0.557837 0.676381
Si Si7 0.895061 0.230780 0.700618
O O1 0.711008 0.869062 0.469363
O O2 0.900629 0.621732 0.634671
O O3 0.991312 0.658883 0.492944
O O4 0.958416 0.808777 0.980037
O O5 0.250314 0.990724 0.534719
O O6 0.484613 0.845481 0.453246
O O7 0.500000 0.000000 0.000000
O O8 0.839832 0.144510 0.596822
O O9 0.026449 0.851676 0.518568
O O10 0.000000 0.000000 0.000000
O O11 0.256470 0.425739 0.488929
O O12 0.000000 0.500000 0.000000
O O13 0.524099 0.637574 0.430922
O O14 0.560978 0.645541 0.990229
O O15 0.500000 0.500000 0.500000
O O16 0.766246 0.406352 0.737343
#
# Coordination Sequence:
#
# PCOD9066672 Si02
#       7
#     2   2   2   2   2   2   2
#     4  11  25  46  75 110 148 202 260 322 396 470
#     4  12  29  49  77 114 161 212 257 336 407 471
#     4  11  26  47  74 112 151 196 270 322 391 484
#     4  11  25  46  73 109 149 198 265 320 390 486
#     4  12  29  49  76 116 161 202 271 323 403 481
#     4  12  28  50  81 113 160 211 263 334 405 474
#     4  11  25  46  79 110 146 206 265 329 394 471
#
# _framework density 22.889800999999999
#
# number of rings (size 3 to 8) (size 9 to 14) (size 15 to 20)
#    0.000    0.571    2.857    3.000   14.000    1.714 
#    0.000    0.000    0.000    0.000    0.000    0.000 
#    0.000    0.000    0.000    0.000    0.000    0.000 
#
# Total GULP energy -77967.669834 kJ/mol
# GULP energy per Si atom -5569.119274 kJ/mol
# Density = 2.283770 g / cm^3
# Si number density = 22.889801 Si / 1000 Ang^3
#
#
#
# Elastic Constant Matrix: (Units=GPa)
#
#
# Indices 1 2 3 4 5 6 
#
# 1 177.7826 71.4386 9.7904 6.8238 49.8922 -13.9445
# 2 71.4386 185.7391 35.7844 7.3423 2.7236 -16.4948
# 3 9.7904 35.7844 177.6188 33.4880 -24.6801 -20.0364
# 4 6.8238 7.3423 33.4880 38.4859 -23.4792 0.1685
# 5 49.8922 2.7236 -24.6801 -23.4792 59.3738 -3.2988
# 6 -13.9445 -16.4948 -20.0364 0.1685 -3.2988 50.4075
#
#
#
# Elastic Compliance Matrix: (Units=1/GPa)
#
#
# Indices 1 2 3 4 5 6 
#
# 1 0.011045 -0.003644 0.000233 -0.009137 -0.012565 0.001164
# 2 -0.003644 0.006946 -0.001045 0.002201 0.003238 0.001054
# 3 0.000233 -0.001045 0.007325 -0.005758 0.000770 0.002704
# 4 -0.009137 0.002201 -0.005758 0.046493 0.023418 -0.002719
# 5 -0.012565 0.003238 0.000770 0.023418 0.036845 0.000223
# 6 0.001164 0.001054 0.002704 -0.002719 0.000223 0.021604
#
#
# Mechanical properties :
#
#
# Convention : Reuss Voigt Hill
#
# Bulk Modulus (GPa) = 60.95651 86.12967 73.54309
# Shear Modulus (GPa) = 34.56951 57.92857 46.24904
#
# Velocity S-wave (km/s) = 3.89042 5.03612 4.49988
# Velocity P-wave (km/s) = 6.84607 8.45733 7.69399
#
# Compressibility (1/GPa) = 0.01640514
#
# Stress axis : x y z
#
# Youngs Moduli (GPa) = 90.54273 143.97063 136.51349
#
# Poissons Ratio (x) = 0.52464 -0.03187
# Poissons Ratio (y) = 0.32995 0.14260
# Poissons Ratio (z) = -0.02114 0.15039
#
# Static dielectric constant tensor:
#      x y z
#    x 2.466610 -0.190700 -0.459390 
#    y -0.190700 1.990890 0.192730 
#    z -0.459390 0.192730 2.220500 
# 
# From -- ./inp_files/64467.got.cif
#   From: 2010.05.17/outbox.cif.g08.bks.cpg/sg2_33_cif.got.tgz:64467.got - 2010.06.03 11:33:40.
