data_PCOD9066644
_publ_section_title
;
Structure prediction by ZEFSAII (Michael W. Deem and Ramdas Pophale) SiO2 
 PCOD9066644
Probable space group: P -1
;
_chemical_formula_sum "Si O2"
_cell_formula_units_Z 12
_cell_length_a 12.230638
_cell_length_b 12.127051
_cell_length_c 5.000628
_cell_angle_alpha 73.788955
_cell_angle_beta 102.536743
_cell_angle_gamma 140.032507
_cell_volume 457.484931
_symmetry_space_group_name_H-M "P -1"
_symmetry_group_IT_number 2
_symmetry_cell_setting 'triclinic'
loop_
_space_group_symop_operation_xyz
x,y,z
-x,-y,-z
loop_
_atom_site_type_symbol
_atom_site_label
_atom_site_fract_x
_atom_site_fract_y
_atom_site_fract_z
Si Si1 0.911350 0.837433 0.755475
Si Si2 0.555303 0.353394 0.027067
Si Si3 0.201255 0.593847 0.226531
Si Si4 0.546275 0.908603 0.501038
Si Si5 0.110576 0.769702 0.832233
Si Si6 0.312192 0.342849 0.736061
O O1 0.767558 0.686307 0.569138
O O2 0.028151 0.817730 0.888960
O O3 0.823874 0.805273 0.009456
O O4 0.000000 0.000000 0.500000
O O5 0.427538 0.157598 0.198186
O O6 0.604574 0.484263 0.189357
O O7 0.723584 0.414069 0.987981
O O8 0.445565 0.343030 0.767589
O O9 0.372537 0.728290 0.398210
O O10 0.030940 0.391482 0.342909
O O11 0.151371 0.687589 0.082624
O O12 0.500000 0.000000 0.500000
O O13 0.715127 0.051854 0.323116
#
# Coordination Sequence:
#
# PCOD9066644 Si02
#       6
#     2   2   2   2   2   2
#     4  12  26  47  71 111 149 197 251 309 374 442
#     4  11  25  46  73 103 145 195 250 305 372 445
#     4  11  25  48  72 105 147 192 242 311 374 443
#     4  12  26  44  72 111 143 192 245 307 376 446
#     4  11  25  47  73 106 144 191 247 308 372 445
#     4  11  27  46  75 104 149 205 248 304 373 448
#
# _framework density 26.230373
#
# number of rings (size 3 to 8) (size 9 to 14) (size 15 to 20)
#    0.000    0.667    3.333    3.000    4.667    3.333 
#    0.000    0.000    0.000    0.000    0.000    0.000 
#    0.000    0.000    0.000    0.000    0.000    0.000 
#
# Total GULP energy -67207.160656 kJ/mol
# GULP energy per Si atom -5600.596721 kJ/mol
# Density = 2.617067 g / cm^3
# Si number density = 26.230373 Si / 1000 Ang^3
#
#
#
# Elastic Constant Matrix: (Units=GPa)
#
#
# Indices 1 2 3 4 5 6 
#
# 1 161.7997 27.3283 47.4872 -9.6507 27.0113 3.3907
# 2 27.3283 115.0657 31.8422 -16.5387 4.7660 15.9421
# 3 47.4872 31.8422 78.2271 -7.7070 0.0677 9.9784
# 4 -9.6507 -16.5387 -7.7070 44.4865 -6.5009 9.6582
# 5 27.0113 4.7660 0.0677 -6.5009 45.9341 -10.9942
# 6 3.3907 15.9421 9.9784 9.6582 -10.9942 43.2953
#
#
#
# Elastic Compliance Matrix: (Units=1/GPa)
#
#
# Indices 1 2 3 4 5 6 
#
# 1 0.008579 -0.000299 -0.004949 0.000313 -0.005154 -0.000800
# 2 -0.000299 0.010971 -0.003284 0.004225 -0.001454 -0.004571
# 3 -0.004949 -0.003284 0.017544 0.001624 0.002963 -0.002057
# 4 0.000313 0.004225 0.001624 0.026210 0.001296 -0.007472
# 5 -0.005154 -0.001454 0.002963 0.001296 0.026749 0.006760
# 6 -0.000800 -0.004571 -0.002057 -0.007472 0.006760 0.028700
#
#
# Mechanical properties :
#
#
# Convention : Reuss Voigt Hill
#
# Bulk Modulus (GPa) = 49.92184 63.15643 56.53914
# Shear Modulus (GPa) = 35.08901 43.30552 39.19726
#
# Velocity S-wave (km/s) = 3.66146 4.06762 3.86987
# Velocity P-wave (km/s) = 6.07852 6.79636 6.44744
#
# Compressibility (1/GPa) = 0.02003131
#
# Stress axis : x y z
#
# Youngs Moduli (GPa) = 116.55963 91.14760 56.99931
#
# Poissons Ratio (x) = 0.02723 0.28209
# Poissons Ratio (y) = 0.03482 0.18718
# Poissons Ratio (z) = 0.57686 0.29932
#
# Static dielectric constant tensor:
#      x y z
#    x 1.991700 0.033800 -0.031870 
#    y 0.033800 2.185930 0.053590 
#    z -0.031870 0.053590 2.060980 
# 
# From -- ./inp_files/43807.got.cif
#   From: 2010.05.17/outbox.cif.g08.bks.cpg/sg2_22_cif.got.tgz:43807.got - 2010.06.03 11:33:40.
