data_PCOD9066674
_publ_section_title
;
Structure prediction by ZEFSAII (Michael W. Deem and Ramdas Pophale) SiO2 
 PCOD9066674
Probable space group: P -1
;
_chemical_formula_sum "Si O2"
_cell_formula_units_Z 11
_cell_length_a 10.372583
_cell_length_b 6.900281
_cell_length_c 7.533911
_cell_angle_alpha 124.355546
_cell_angle_beta 64.739695
_cell_angle_gamma 100.603702
_cell_volume 401.428404
_symmetry_space_group_name_H-M "P -1"
_symmetry_group_IT_number 2
_symmetry_cell_setting 'triclinic'
loop_
_space_group_symop_operation_xyz
x,y,z
-x,-y,-z
loop_
_atom_site_type_symbol
_atom_site_label
_atom_site_fract_x
_atom_site_fract_y
_atom_site_fract_z
Si Si1 0.238787 0.827099 0.350774
Si Si2 0.275123 0.351480 0.473501
Si Si3 0.091518 0.415107 0.075066
Si Si4 0.347557 0.019487 0.707326
Si Si5 0.000000 0.500000 0.500000
Si Si6 0.397602 0.715810 0.848485
O O1 0.108385 0.662949 0.308017
O O2 0.277548 0.821478 0.529733
O O3 0.231551 0.103736 0.455403
O O4 0.351707 0.732557 0.087543
O O5 0.300218 0.533295 0.713294
O O6 0.434366 0.342205 0.294225
O O7 0.157122 0.387830 0.413576
O O8 0.999173 0.305223 0.224194
O O9 0.000000 0.500000 0.000000
O O10 0.238263 0.251922 0.887548
O O11 0.371830 0.945000 0.857474
O O12 0.500000 0.000000 0.500000
#
# Coordination Sequence:
#
# PCOD9066674 Si02
#       6
#     2   2   2   2   1   2
#     4  12  25  47  79 108 149 200 248 317 380 440
#     4  11  25  46  73 110 148 201 249 311 374 452
#     4  12  30  50  76 114 154 198 254 314 381 460
#     4  12  27  46  75 114 147 196 257 307 370 450
#     4  12  26  50  76 104 156 202 246 304 394 444
#     4  11  25  47  75 108 155 193 255 316 369 448
#
# _framework density 27.402149000000001
#
# number of rings (size 3 to 8) (size 9 to 14) (size 15 to 20)
#    0.000    0.364    1.818    6.000    5.091    5.091 
#    0.000    6.364    0.000    0.000    0.000    0.000 
#    0.000    0.000    0.000    0.000    0.000    0.000 
#
# Total GULP energy -61301.836526 kJ/mol
# GULP energy per Si atom -5572.894230 kJ/mol
# Density = 2.733978 g / cm^3
# Si number density = 27.402149 Si / 1000 Ang^3
#
#
#
# Elastic Constant Matrix: (Units=GPa)
#
#
# Indices 1 2 3 4 5 6 
#
# 1 222.7324 53.8618 64.2213 2.1590 -16.7712 -14.2136
# 2 53.8618 81.4149 28.5872 3.5974 -18.0917 3.6605
# 3 64.2213 28.5872 131.0671 -2.9256 -1.6852 -12.5328
# 4 2.1590 3.5974 -2.9256 47.2552 8.6656 9.5947
# 5 -16.7712 -18.0917 -1.6852 8.6656 59.6007 8.2489
# 6 -14.2136 3.6605 -12.5328 9.5947 8.2489 55.1445
#
#
#
# Elastic Compliance Matrix: (Units=1/GPa)
#
#
# Indices 1 2 3 4 5 6 
#
# 1 0.005990 -0.003116 -0.002138 -0.000533 0.000581 0.001271
# 2 -0.003116 0.016376 -0.002291 -0.001521 0.004643 -0.002841
# 3 -0.002138 -0.002291 0.009348 0.000739 -0.001390 0.001805
# 4 -0.000533 -0.001521 0.000739 0.022645 -0.003427 -0.003296
# 5 0.000581 0.004643 -0.001390 -0.003427 0.019191 -0.002749
# 6 0.001271 -0.002841 0.001805 -0.003296 -0.002749 0.020045
#
#
# Mechanical properties :
#
#
# Convention : Reuss Voigt Hill
#
# Bulk Modulus (GPa) = 60.15683 80.95057 70.55370
# Shear Modulus (GPa) = 43.77294 51.63637 47.70465
#
# Velocity S-wave (km/s) = 4.00112 4.34567 4.17695
# Velocity P-wave (km/s) = 6.58379 7.40173 7.00471
#
# Compressibility (1/GPa) = 0.01662322
#
# Stress axis : x y z
#
# Youngs Moduli (GPa) = 166.95042 61.06669 106.97315
#
# Poissons Ratio (x) = 0.19031 0.22872
# Poissons Ratio (y) = 0.52029 0.24503
# Poissons Ratio (z) = 0.35696 0.13988
#
# Static dielectric constant tensor:
#      x y z
#    x 2.299540 -0.007860 -0.072910 
#    y -0.007860 1.753640 0.259250 
#    z -0.072910 0.259250 2.143080 
# 
# From -- ./inp_files/152453.got.cif
#   From: 2010.05.17/outbox.cif.g08.bks.cpg/sg2_77_cif.got.tgz:152453.got - 2010.06.03 11:33:40.
