data_PCOD9066253
_publ_section_title
;
Structure prediction by ZEFSAII (Michael W. Deem and Ramdas Pophale) SiO2 
 PCOD9066253
Probable space group: P -1
;
_chemical_formula_sum "Si O2"
_cell_formula_units_Z 12
_cell_length_a 8.978910
_cell_length_b 11.552872
_cell_length_c 9.843393
_cell_angle_alpha 140.623986
_cell_angle_beta 49.278145
_cell_angle_gamma 125.534571
_cell_volume 484.621965
_symmetry_space_group_name_H-M "P -1"
_symmetry_group_IT_number 2
_symmetry_cell_setting 'triclinic'
loop_
_space_group_symop_operation_xyz
x,y,z
-x,-y,-z
loop_
_atom_site_type_symbol
_atom_site_label
_atom_site_fract_x
_atom_site_fract_y
_atom_site_fract_z
Si Si1 0.092517 0.759497 0.192889
Si Si2 0.026666 0.690243 0.487592
Si Si3 0.672319 0.990637 0.279519
Si Si4 0.314529 0.426062 0.753572
Si Si5 0.707548 0.587404 0.800047
Si Si6 0.428894 0.089798 0.257823
O O1 0.039083 0.716144 0.343095
O O2 0.883499 0.705183 0.191568
O O3 0.215115 0.962470 0.295518
O O4 0.236690 0.614693 0.929685
O O5 0.161274 0.537814 0.310842
O O6 0.813036 0.629284 0.628047
O O7 0.130434 0.878528 0.669076
O O8 0.500000 0.000000 0.500000
O O9 0.585065 0.061751 0.257116
O O10 0.702254 0.782334 0.049259
O O11 0.486417 0.481072 0.810639
O O12 0.400199 0.302193 0.476389
O O13 0.500000 0.000000 0.000000
#
# Coordination Sequence:
#
# PCOD9066253 Si02
#       6
#     2   2   2   2   2   2
#     4  11  26  46  73 105 138 192 233 294 356 417
#     4  11  25  45  73 107 140 185 241 289 356 415
#     4  12  24  47  75 103 142 191 237 291 354 421
#     4  11  25  47  70 101 144 184 234 290 351 423
#     4  11  25  45  72 108 140 188 236 294 348 423
#     4  12  27  46  72 106 142 190 238 288 359 422
#
# _framework density 24.761571
#
# number of rings (size 3 to 8) (size 9 to 14) (size 15 to 20)
#    0.000    0.667    5.000    1.000    4.667    5.333 
#    0.000    0.000    0.000    0.000    0.000    0.000 
#    0.000    0.000    0.000    0.000    0.000    0.000 
#
# Total GULP energy -67315.426361 kJ/mol
# GULP energy per Si atom -5609.618863 kJ/mol
# Density = 2.470521 g / cm^3
# Si number density = 24.761571 Si / 1000 Ang^3
#
#
#
# Elastic Constant Matrix: (Units=GPa)
#
#
# Indices 1 2 3 4 5 6 
#
# 1 105.1615 32.2488 45.6724 8.1135 10.6900 7.8361
# 2 32.2488 89.0979 44.3237 7.8477 7.1918 2.2689
# 3 45.6724 44.3237 193.0313 31.2586 -6.7744 -26.8422
# 4 8.1135 7.8477 31.2586 59.6314 -5.9505 9.7544
# 5 10.6900 7.1918 -6.7744 -5.9505 37.9761 3.5282
# 6 7.8361 2.2689 -26.8422 9.7544 3.5282 27.5993
#
#
#
# Elastic Compliance Matrix: (Units=1/GPa)
#
#
# Indices 1 2 3 4 5 6 
#
# 1 0.012596 -0.002399 -0.003769 0.001469 -0.002865 -0.007197
# 2 -0.002399 0.013951 -0.003314 0.000610 -0.002125 -0.003633
# 3 -0.003769 -0.003314 0.009617 -0.006036 0.001282 0.012665
# 4 0.001469 0.000610 -0.006036 0.022378 0.003263 -0.014664
# 5 -0.002865 -0.002125 0.001282 0.003263 0.028519 -0.002565
# 6 -0.007197 -0.003633 0.012665 -0.014664 -0.002565 0.056403
#
#
# Mechanical properties :
#
#
# Convention : Reuss Voigt Hill
#
# Bulk Modulus (GPa) = 58.14120 70.19783 64.16951
# Shear Modulus (GPa) = 29.73344 42.71109 36.22226
#
# Velocity S-wave (km/s) = 3.46900 4.15769 3.82886
# Velocity P-wave (km/s) = 6.29100 7.17353 6.74671
#
# Compressibility (1/GPa) = 0.01719951
#
# Stress axis : x y z
#
# Youngs Moduli (GPa) = 79.39163 71.67912 103.98531
#
# Poissons Ratio (x) = 0.17197 0.39187
# Poissons Ratio (y) = 0.19047 0.34465
# Poissons Ratio (z) = 0.29919 0.23757
#
# Static dielectric constant tensor:
#      x y z
#    x 1.940950 -0.013840 -0.023830 
#    y -0.013840 1.937890 -0.041970 
#    z -0.023830 -0.041970 1.939330 
# 
# From -- ./inp_files/191035.got.cif
#   From: 2010.05.17/outbox.cif.g08.bks.cpg/sg2_96_cif.got.tgz:191035.got - 2010.06.03 11:33:40.
