data_PCOD9066792
_publ_section_title
;
Structure prediction by ZEFSAII (Michael W. Deem and Ramdas Pophale) SiO2 
 PCOD9066792
Probable space group: P -1
;
_chemical_formula_sum "Si O2"
_cell_formula_units_Z 12
_cell_length_a 9.454625
_cell_length_b 8.817513
_cell_length_c 9.465772
_cell_angle_alpha 95.776319
_cell_angle_beta 74.583283
_cell_angle_gamma 134.989907
_cell_volume 533.584781
_symmetry_space_group_name_H-M "P -1"
_symmetry_group_IT_number 2
_symmetry_cell_setting 'triclinic'
loop_
_space_group_symop_operation_xyz
x,y,z
-x,-y,-z
loop_
_atom_site_type_symbol
_atom_site_label
_atom_site_fract_x
_atom_site_fract_y
_atom_site_fract_z
Si Si1 0.401081 0.846416 0.870120
Si Si2 0.306119 0.773313 0.385555
Si Si3 0.546899 0.641241 0.369737
Si Si4 0.052312 0.665891 0.723739
Si Si5 0.441061 0.348842 0.130507
Si Si6 0.997815 0.975391 0.830791
O O1 0.181446 0.723638 0.838884
O O2 0.395509 0.663863 0.889577
O O3 0.559978 0.006986 0.716763
O O4 0.500000 0.000000 0.000000
O O5 0.452775 0.741576 0.397081
O O6 0.197089 0.760539 0.553025
O O7 0.138564 0.581940 0.299112
O O8 0.500000 0.500000 0.500000
O O9 0.430169 0.460968 0.266120
O O10 0.790259 0.818294 0.280607
O O11 0.979009 0.783742 0.779926
O O12 0.216978 0.102918 0.161064
O O13 0.500000 0.500000 0.000000
O O14 0.000000 0.000000 0.000000
#
# Coordination Sequence:
#
# PCOD9066792 Si02
#       6
#     2   2   2   2   2   2
#     4  12  26  44  74 105 143 194 244 301 367 436
#     4  11  25  49  72 106 148 193 246 300 370 437
#     4  12  26  45  76 110 147 191 243 305 367 432
#     4  11  25  46  77 102 145 192 247 303 361 445
#     4  12  26  47  70 105 149 189 245 301 364 439
#     4  12  25  45  76 105 148 193 241 302 370 433
#
# _framework density 22.489398000000001
#
# number of rings (size 3 to 8) (size 9 to 14) (size 15 to 20)
#    0.000    0.333    5.000    3.500    2.333    5.333 
#    0.000    0.000    0.000    0.000    0.000    0.000 
#    0.000    0.000    0.000    0.000    0.000    0.000 
#
# Total GULP energy -67002.861427 kJ/mol
# GULP energy per Si atom -5583.571786 kJ/mol
# Density = 2.243821 g / cm^3
# Si number density = 22.489398 Si / 1000 Ang^3
#
#
#
# Elastic Constant Matrix: (Units=GPa)
#
#
# Indices 1 2 3 4 5 6 
#
# 1 112.7993 29.7002 37.7869 -9.0559 22.7835 2.8416
# 2 29.7002 94.8473 31.8746 -3.8122 13.7966 14.8719
# 3 37.7869 31.8746 130.5107 -0.1718 10.6187 -5.8635
# 4 -9.0559 -3.8122 -0.1718 51.8495 -3.0827 1.5986
# 5 22.7835 13.7966 10.6187 -3.0827 33.3160 1.9445
# 6 2.8416 14.8719 -5.8635 1.5986 1.9445 53.2410
#
#
#
# Elastic Compliance Matrix: (Units=1/GPa)
#
#
# Indices 1 2 3 4 5 6 
#
# 1 0.011526 -0.001809 -0.002396 0.001508 -0.006219 -0.000192
# 2 -0.001809 0.013029 -0.002576 0.000566 -0.003068 -0.003732
# 3 -0.002396 -0.002576 0.009098 -0.000658 -0.000365 0.001882
# 4 0.001508 0.000566 -0.000658 0.019667 0.000818 -0.000931
# 5 -0.006219 -0.003068 -0.000365 0.000818 0.035741 -0.000181
# 6 -0.000192 -0.003732 0.001882 -0.000931 -0.000181 0.020077
#
#
# Mechanical properties :
#
#
# Convention : Reuss Voigt Hill
#
# Bulk Modulus (GPa) = 49.76904 59.65340 54.71122
# Shear Modulus (GPa) = 38.64039 43.60101 41.12070
#
# Velocity S-wave (km/s) = 4.14957 4.40788 4.28067
# Velocity P-wave (km/s) = 6.71838 7.24490 6.98660
#
# Compressibility (1/GPa) = 0.02009281
#
# Stress axis : x y z
#
# Youngs Moduli (GPa) = 86.75844 76.74983 109.90843
#
# Poissons Ratio (x) = 0.13882 0.26335
# Poissons Ratio (y) = 0.15692 0.28310
# Poissons Ratio (z) = 0.20788 0.19769
#
# Static dielectric constant tensor:
#      x y z
#    x 1.921340 0.085110 -0.077600 
#    y 0.085110 1.841070 0.010270 
#    z -0.077600 0.010270 1.815290 
# 
# From -- ./inp_files/156401.got.cif
#   From: 2010.05.17/outbox.cif.g08.bks.cpg/sg2_79_cif.got.tgz:156401.got - 2010.06.03 11:33:40.
