data_PCOD9066689
_publ_section_title
;
Structure prediction by ZEFSAII (Michael W. Deem and Ramdas Pophale) SiO2 
 PCOD9066689
Probable space group: P -1
;
_chemical_formula_sum "Si O2"
_cell_formula_units_Z 16
_cell_length_a 7.528179
_cell_length_b 10.964254
_cell_length_c 13.313505
_cell_angle_alpha 130.403978
_cell_angle_beta 51.279988
_cell_angle_gamma 101.869501
_cell_volume 614.880581
_symmetry_space_group_name_H-M "P -1"
_symmetry_group_IT_number 2
_symmetry_cell_setting 'triclinic'
loop_
_space_group_symop_operation_xyz
x,y,z
-x,-y,-z
loop_
_atom_site_type_symbol
_atom_site_label
_atom_site_fract_x
_atom_site_fract_y
_atom_site_fract_z
Si Si1 0.876406 0.662162 0.703424
Si Si2 0.191440 0.150655 0.634388
Si Si3 0.043986 0.891150 0.647392
Si Si4 0.497265 0.396772 0.681122
Si Si5 0.901623 0.722894 0.946608
Si Si6 0.566047 0.296564 0.247355
Si Si7 0.267411 0.543430 0.036134
Si Si8 0.418248 0.042235 0.289232
O O1 0.917177 0.617321 0.780997
O O2 0.599623 0.735987 0.801941
O O3 0.000000 0.500000 0.500000
O O4 0.985051 0.814620 0.730132
O O5 0.349480 0.269496 0.658570
O O6 0.309898 0.041839 0.437650
O O7 0.924382 0.276677 0.773372
O O8 0.168570 0.033817 0.672812
O O9 0.237467 0.720638 0.440800
O O10 0.797078 0.956436 0.708354
O O11 0.500295 0.499064 0.632305
O O12 0.363991 0.533647 0.884214
O O13 0.858243 0.600007 0.981396
O O14 0.144551 0.768174 0.899108
O O15 0.662818 0.885599 0.107099
O O16 0.481854 0.211306 0.326637
O O17 0.500000 0.500000 0.000000
#
# Coordination Sequence:
#
# PCOD9066689 Si02
#       8
#     2   2   2   2   2   2   2   2
#     4  11  26  47  78 109 142 193 244 303 367 437
#     4  12  26  45  72 108 148 191 242 307 361 440
#     4  11  25  46  74 102 151 188 247 296 370 435
#     4  12  25  47  71 113 140 196 242 303 371 430
#     4  12  27  50  73 109 149 193 243 304 369 435
#     4  11  26  46  79 105 150 187 252 296 370 430
#     4  12  26  45  77 103 150 191 248 299 366 440
#     4  11  27  48  72 109 146 196 243 300 368 436
#
# _framework density 26.021312999999999
#
# number of rings (size 3 to 8) (size 9 to 14) (size 15 to 20)
#    0.000    0.500    2.500    4.500    5.250    4.000 
#    2.250    0.000    0.000    0.000    0.000    0.000 
#    0.000    0.000    0.000    0.000    0.000    0.000 
#
# Total GULP energy -89632.988154 kJ/mol
# GULP energy per Si atom -5602.061760 kJ/mol
# Density = 2.596209 g / cm^3
# Si number density = 26.021313 Si / 1000 Ang^3
#
#
#
# Elastic Constant Matrix: (Units=GPa)
#
#
# Indices 1 2 3 4 5 6 
#
# 1 78.2761 4.0387 43.7157 8.6586 -41.5971 -6.0462
# 2 4.0387 186.3315 13.7819 -4.8183 -13.5911 17.9004
# 3 43.7157 13.7819 98.4306 12.1637 -34.3341 -10.1463
# 4 8.6586 -4.8183 12.1637 29.3954 -4.7054 -9.2891
# 5 -41.5971 -13.5911 -34.3341 -4.7054 50.3341 0.5457
# 6 -6.0462 17.9004 -10.1463 -9.2891 0.5457 35.7598
#
#
#
# Elastic Compliance Matrix: (Units=1/GPa)
#
#
# Indices 1 2 3 4 5 6 
#
# 1 0.024994 0.000870 -0.004713 -0.001940 0.017476 0.001683
# 2 0.000870 0.005840 -0.000968 0.000439 0.001709 -0.002963
# 3 -0.004713 -0.000968 0.015128 -0.003123 0.005837 0.003079
# 4 -0.001940 0.000439 -0.003123 0.038660 -0.000094 0.008610
# 5 0.017476 0.001709 0.005837 -0.000094 0.038710 0.003140
# 6 0.001683 -0.002963 0.003079 0.008610 0.003140 0.032795
#
#
# Mechanical properties :
#
#
# Convention : Reuss Voigt Hill
#
# Bulk Modulus (GPa) = 27.51803 54.01230 40.76516
# Shear Modulus (GPa) = 28.11161 43.19799 35.65480
#
# Velocity S-wave (km/s) = 3.29040 4.07885 3.70566
# Velocity P-wave (km/s) = 5.00338 6.55627 5.83175
#
# Compressibility (1/GPa) = 0.03633981
#
# Stress axis : x y z
#
# Youngs Moduli (GPa) = 40.00916 171.22903 66.10409
#
# Poissons Ratio (x) = -0.14893 0.31157
# Poissons Ratio (y) = -0.03480 0.06396
# Poissons Ratio (z) = 0.18858 0.16567
#
# Static dielectric constant tensor:
#      x y z
#    x 1.999900 0.050670 -0.016090 
#    y 0.050670 2.043620 0.005210 
#    z -0.016090 0.005210 2.017020 
# 
# From -- ./inp_files/500774.got.cif
#   From: 2010.05.17/outbox.cif.g08.bks.cpg/sg2_251_cif.got.tgz:500774.got - 2010.06.03 11:33:40.
