data_PCOD9066847
_publ_section_title
;
Structure prediction by ZEFSAII (Michael W. Deem and Ramdas Pophale) SiO2 
 PCOD9066847
Probable space group: P -1
;
_chemical_formula_sum "Si O2"
_cell_formula_units_Z 16
_cell_length_a 19.140752
_cell_length_b 11.651090
_cell_length_c 9.617274
_cell_angle_alpha 71.218364
_cell_angle_beta 45.209249
_cell_angle_gamma 36.030450
_cell_volume 720.536055
_symmetry_space_group_name_H-M "P -1"
_symmetry_group_IT_number 2
_symmetry_cell_setting 'triclinic'
loop_
_space_group_symop_operation_xyz
x,y,z
-x,-y,-z
loop_
_atom_site_type_symbol
_atom_site_label
_atom_site_fract_x
_atom_site_fract_y
_atom_site_fract_z
Si Si1 0.283813 0.794238 0.355962
Si Si2 0.073025 0.391717 0.785683
Si Si3 0.923180 0.078383 0.918414
Si Si4 0.459611 0.356948 0.719287
Si Si5 0.710469 0.723094 0.962717
Si Si6 0.526220 0.299559 0.123605
Si Si7 0.298181 0.924804 0.762030
Si Si8 0.671770 0.706047 0.715910
O O1 0.371382 0.791000 0.350273
O O2 0.427924 0.525186 0.236350
O O3 0.298680 0.848111 0.167742
O O4 0.079757 0.962338 0.635027
O O5 0.205052 0.357624 0.549980
O O6 0.892364 0.559301 0.870009
O O7 0.201686 0.133529 0.726374
O O8 0.000000 0.500000 0.000000
O O9 0.729893 0.366496 0.076362
O O10 0.861454 0.006451 0.003507
O O11 0.000000 0.000000 0.000000
O O12 0.536844 0.310256 0.476941
O O13 0.399238 0.281286 0.830737
O O14 0.769471 0.630090 0.757330
O O15 0.547719 0.002423 0.081534
O O16 0.604280 0.138127 0.206518
O O17 0.365262 0.394817 0.226745
#
# Coordination Sequence:
#
# PCOD9066847 Si02
#       8
#     2   2   2   2   2   2   2   2
#     4  11  25  47  69 104 144 179 239 286 346 419
#     4  12  28  46  68 110 141 179 236 288 347 420
#     4  12  24  41  71 103 135 185 229 288 348 411
#     4  12  23  47  71 103 138 184 237 287 346 412
#     4  11  25  47  76 101 135 188 234 287 345 412
#     4  11  25  47  72 101 146 189 224 292 355 413
#     4  12  25  44  70 102 144 184 233 288 350 415
#     4  11  25  49  74  99 140 187 232 285 351 409
#
# _framework density 22.205689
#
# number of rings (size 3 to 8) (size 9 to 14) (size 15 to 20)
#    0.000    0.500    5.000    3.000    3.500    1.500 
#    4.500    0.000    0.000    0.000    0.000    0.000 
#    0.000    0.000    0.000    0.000    0.000    0.000 
#
# Total GULP energy -89579.365119 kJ/mol
# GULP energy per Si atom -5598.710320 kJ/mol
# Density = 2.215515 g / cm^3
# Si number density = 22.205689 Si / 1000 Ang^3
#
#
#
# Elastic Constant Matrix: (Units=GPa)
#
#
# Indices 1 2 3 4 5 6 
#
# 1 96.6097 10.1138 35.6193 -11.0436 13.6126 -8.5882
# 2 10.1138 45.8373 17.0426 -11.4188 2.2721 -12.8150
# 3 35.6193 17.0426 177.3925 -24.0959 7.1158 -11.6863
# 4 -11.0436 -11.4188 -24.0959 22.7228 -1.5790 4.1796
# 5 13.6126 2.2721 7.1158 -1.5790 32.4627 -14.4592
# 6 -8.5882 -12.8150 -11.6863 4.1796 -14.4592 34.3692
#
#
#
# Elastic Compliance Matrix: (Units=1/GPa)
#
#
# Indices 1 2 3 4 5 6 
#
# 1 0.012089 -0.001073 -0.001718 0.003249 -0.004588 -0.000289
# 2 -0.001073 0.027661 -0.000379 0.011379 0.003632 0.010061
# 3 -0.001718 -0.000379 0.006918 0.006120 -0.000012 0.001032
# 4 0.003249 0.011379 0.006120 0.057782 -0.000789 -0.000223
# 5 -0.004588 0.003632 -0.000012 -0.000789 0.040083 0.017162
# 6 -0.000289 0.010061 0.001032 -0.000223 0.017162 0.040373
#
#
# Mechanical properties :
#
#
# Convention : Reuss Voigt Hill
#
# Bulk Modulus (GPa) = 24.79618 49.48789 37.14203
# Shear Modulus (GPa) = 24.42723 35.04853 29.73788
#
# Velocity S-wave (km/s) = 3.32029 3.97717 3.66348
# Velocity P-wave (km/s) = 5.08821 6.58976 5.88706
#
# Compressibility (1/GPa) = 0.04032879
#
# Stress axis : x y z
#
# Youngs Moduli (GPa) = 82.72107 36.15149 144.54117
#
# Poissons Ratio (x) = 0.03877 0.24832
# Poissons Ratio (y) = 0.08872 0.05484
# Poissons Ratio (z) = 0.14211 0.01372
#
# Static dielectric constant tensor:
#      x y z
#    x 1.828890 0.009450 0.021850 
#    y 0.009450 1.855100 0.003450 
#    z 0.021850 0.003450 1.794340 
# 
# From -- ./inp_files/272631.got.cif
#   From: 2010.05.17/outbox.cif.g08.bks.cpg/sg2_137_cif.got.tgz:272631.got - 2010.06.03 11:33:40.
