data_PCOD9066645
_publ_section_title
;
Structure prediction by ZEFSAII (Michael W. Deem and Ramdas Pophale) SiO2 
 PCOD9066645
Probable space group: P -1
;
_chemical_formula_sum "Si O2"
_cell_formula_units_Z 16
_cell_length_a 11.237415
_cell_length_b 20.561706
_cell_length_c 8.689374
_cell_angle_alpha 139.141297
_cell_angle_beta 50.057157
_cell_angle_gamma 145.305532
_cell_volume 746.532251
_symmetry_space_group_name_H-M "P -1"
_symmetry_group_IT_number 2
_symmetry_cell_setting 'triclinic'
loop_
_space_group_symop_operation_xyz
x,y,z
-x,-y,-z
loop_
_atom_site_type_symbol
_atom_site_label
_atom_site_fract_x
_atom_site_fract_y
_atom_site_fract_z
Si Si1 0.350214 0.702581 0.942227
Si Si2 0.336006 0.488351 0.721245
Si Si3 0.066062 0.105363 0.761767
Si Si4 0.770479 0.355103 0.418730
Si Si5 0.896759 0.205962 0.672431
Si Si6 0.472565 0.381079 0.880934
Si Si7 0.251716 0.878261 0.996850
Si Si8 0.208168 0.050090 0.835638
O O1 0.219264 0.741122 0.177419
O O2 0.587868 0.828264 0.021931
O O3 0.272704 0.563435 0.822796
O O4 0.317285 0.684490 0.753480
O O5 0.500000 0.500000 0.500000
O O6 0.140803 0.335951 0.665961
O O7 0.463988 0.579800 0.925947
O O8 0.233286 0.252998 0.821420
O O9 0.192703 0.100834 0.777541
O O10 0.000000 0.000000 0.500000
O O11 0.864967 0.084916 0.934515
O O12 0.615053 0.356416 0.647005
O O13 0.788424 0.248369 0.263206
O O14 0.000000 0.500000 0.500000
O O15 0.815265 0.076984 0.410793
O O16 0.836249 0.158838 0.819052
O O17 0.500000 0.500000 0.000000
O O18 0.500000 0.000000 0.000000
O O19 0.000000 0.000000 0.000000
#
# Coordination Sequence:
#
# PCOD9066645 Si02
#       8
#     2   2   2   2   2   2   2   2
#     4  11  25  48  71 106 145 189 240 299 363 430
#     4  12  25  47  73 108 144 189 240 295 362 430
#     4  12  25  45  73 102 141 189 243 295 353 432
#     4  11  25  47  74 105 144 187 241 300 360 430
#     4  11  25  46  73 103 146 189 238 296 357 429
#     4  12  25  44  72 105 142 185 239 299 359 422
#     4  11  25  46  73 106 141 188 242 295 360 423
#     4  12  27  46  70 107 145 192 240 294 364 421
#
# _framework density 21.432428999999999
#
# number of rings (size 3 to 8) (size 9 to 14) (size 15 to 20)
#    0.000    0.500    2.500    6.000    5.250    0.000 
#    2.250    0.000    0.000    0.000    0.000    0.000 
#    0.000    0.000    0.000    0.000    0.000    0.000 
#
# Total GULP energy -89476.876328 kJ/mol
# GULP energy per Si atom -5592.304771 kJ/mol
# Density = 2.138365 g / cm^3
# Si number density = 21.432429 Si / 1000 Ang^3
#
#
#
# Elastic Constant Matrix: (Units=GPa)
#
#
# Indices 1 2 3 4 5 6 
#
# 1 103.7921 24.0051 50.5258 4.1949 -2.9811 13.6544
# 2 24.0051 134.1208 47.6922 16.9027 6.6761 26.9358
# 3 50.5258 47.6922 157.4749 6.6970 -6.3268 6.5002
# 4 4.1949 16.9027 6.6970 45.4926 4.4242 -2.9356
# 5 -2.9811 6.6761 -6.3268 4.4242 43.5530 9.7287
# 6 13.6544 26.9358 6.5002 -2.9356 9.7287 44.1229
#
#
#
# Elastic Compliance Matrix: (Units=1/GPa)
#
#
# Indices 1 2 3 4 5 6 
#
# 1 0.011912 -0.000135 -0.003558 -0.000857 0.001164 -0.003393
# 2 -0.000135 0.010078 -0.002616 -0.003706 -0.000235 -0.005920
# 3 -0.003558 -0.002616 0.008273 0.000058 0.001075 0.001246
# 4 -0.000857 -0.003706 0.000058 0.024028 -0.002990 0.004777
# 5 0.001164 -0.000235 0.001075 -0.002990 0.024890 -0.006062
# 6 -0.003393 -0.005920 0.001246 0.004777 -0.006062 0.028799
#
#
# Mechanical properties :
#
#
# Convention : Reuss Voigt Hill
#
# Bulk Modulus (GPa) = 56.67375 71.09267 63.88321
# Shear Modulus (GPa) = 39.53141 44.84467 42.18804
#
# Velocity S-wave (km/s) = 4.29938 4.57921 4.44150
# Velocity P-wave (km/s) = 7.15169 7.82314 7.49494
#
# Compressibility (1/GPa) = 0.01764485
#
# Stress axis : x y z
#
# Youngs Moduli (GPa) = 83.94638 99.22419 120.86981
#
# Poissons Ratio (x) = 0.01344 0.43003
# Poissons Ratio (y) = 0.01137 0.31623
# Poissons Ratio (z) = 0.29866 0.25960
#
# Static dielectric constant tensor:
#      x y z
#    x 1.866520 0.010130 0.072320 
#    y 0.010130 1.709750 -0.056050 
#    z 0.072320 -0.056050 1.743370 
# 
# From -- ./inp_files/205983.got.cif
#   From: 2010.05.17/outbox.cif.g08.bks.cpg/sg2_103_cif.got.tgz:205983.got - 2010.06.03 11:33:40.
