data_PCOD9066793
_publ_section_title
;
Structure prediction by ZEFSAII (Michael W. Deem and Ramdas Pophale) SiO2 
 PCOD9066793
Probable space group: P -1
;
_chemical_formula_sum "Si O2"
_cell_formula_units_Z 15
_cell_length_a 6.957913
_cell_length_b 15.436767
_cell_length_c 24.300116
_cell_angle_alpha 20.106899
_cell_angle_beta 99.424913
_cell_angle_gamma 111.708696
_cell_volume 682.137945
_symmetry_space_group_name_H-M "P -1"
_symmetry_group_IT_number 2
_symmetry_cell_setting 'triclinic'
loop_
_space_group_symop_operation_xyz
x,y,z
-x,-y,-z
loop_
_atom_site_type_symbol
_atom_site_label
_atom_site_fract_x
_atom_site_fract_y
_atom_site_fract_z
Si Si1 0.456576 0.779761 0.394922
Si Si2 0.163303 0.047511 0.782623
Si Si3 0.246314 0.036653 0.981955
Si Si4 0.324451 0.770494 0.044829
Si Si5 0.592654 0.684037 0.952660
Si Si6 0.389951 0.218039 0.478621
Si Si7 0.187750 0.186285 0.321676
Si Si8 0.500000 0.000000 0.500000
O O1 0.254049 0.396091 0.599791
O O2 0.707378 0.903413 0.299188
O O3 0.512287 0.830219 0.432192
O O4 0.377347 0.990277 0.245617
O O5 0.271322 0.929021 0.900528
O O6 0.861736 0.787969 0.920107
O O7 0.453673 0.395781 0.752161
O O8 0.203501 0.783642 0.086644
O O9 0.379669 0.034460 0.043791
O O10 0.000000 0.000000 0.000000
O O11 0.206425 0.409691 0.237469
O O12 0.500000 0.500000 0.000000
O O13 0.381691 0.446034 0.129663
O O14 0.437010 0.088376 0.504466
O O15 0.096663 0.044949 0.574662
O O16 0.296805 0.017227 0.449653
#
# Coordination Sequence:
#
# PCOD9066793 Si02
#       8
#     2   2   2   2   2   2   2   1
#     4  11  25  48  70 106 143 193 240 304 358 429
#     4  11  25  46  77 102 146 191 241 302 366 426
#     4  11  27  47  74 105 145 187 241 304 363 437
#     4  11  25  47  73 107 139 187 245 295 369 425
#     4  12  27  46  72 110 145 195 244 292 360 438
#     4  12  27  47  71 106 145 190 243 300 370 431
#     4  12  28  44  74 103 146 191 240 305 357 435
#     4  12  28  46  70 104 146 194 240 294 370 432
#
# _framework density 21.989684
#
# number of rings (size 3 to 8) (size 9 to 14) (size 15 to 20)
#    0.000    0.533    4.000    2.400    7.467    2.133 
#    4.800    0.000    0.000    0.000    0.000    0.000 
#    0.000    0.000    0.000    0.000    0.000    0.000 
#
# Total GULP energy -83757.875381 kJ/mol
# GULP energy per Si atom -5583.858359 kJ/mol
# Density = 2.193963 g / cm^3
# Si number density = 21.989684 Si / 1000 Ang^3
#
#
#
# Elastic Constant Matrix: (Units=GPa)
#
#
# Indices 1 2 3 4 5 6 
#
# 1 146.8532 51.7204 56.8870 -7.1294 5.2548 19.7872
# 2 51.7204 104.1949 21.0217 15.5480 -2.4561 17.5755
# 3 56.8870 21.0217 68.7347 -0.2706 -12.5659 18.6485
# 4 -7.1294 15.5480 -0.2706 25.8661 2.4216 7.3587
# 5 5.2548 -2.4561 -12.5659 2.4216 23.8024 -1.1816
# 6 19.7872 17.5755 18.6485 7.3587 -1.1816 25.2876
#
#
#
# Elastic Compliance Matrix: (Units=1/GPa)
#
#
# Indices 1 2 3 4 5 6 
#
# 1 0.014611 -0.006238 -0.011732 0.009154 -0.011075 -0.001627
# 2 -0.006238 0.014389 0.002776 -0.009645 0.005104 -0.004121
# 3 -0.011732 0.002776 0.030498 -0.002431 0.018546 -0.013666
# 4 0.009154 -0.009645 -0.002431 0.051981 -0.010297 -0.014274
# 5 -0.011075 0.005104 0.018546 -0.010297 0.055676 -0.002960
# 6 -0.001627 -0.004121 -0.013666 -0.014274 -0.002960 0.057775
#
#
# Mechanical properties :
#
#
# Convention : Reuss Voigt Hill
#
# Bulk Modulus (GPa) = 34.35429 64.33789 49.34609
# Shear Modulus (GPa) = 18.86633 27.66815 23.26724
#
# Velocity S-wave (km/s) = 2.93228 3.55101 3.25637
# Velocity P-wave (km/s) = 5.20780 6.79224 6.05210
#
# Compressibility (1/GPa) = 0.02910845
#
# Stress axis : x y z
#
# Youngs Moduli (GPa) = 68.44063 69.49931 32.78860
#
# Poissons Ratio (x) = 0.43356 0.38468
# Poissons Ratio (y) = 0.42696 -0.09101
# Poissons Ratio (z) = 0.80295 -0.19290
#
# Static dielectric constant tensor:
#      x y z
#    x 1.777400 0.006110 0.003390 
#    y 0.006110 1.807240 0.016400 
#    z 0.003390 0.016400 1.814560 
# 
# From -- ./inp_files/60773.got.cif
#   From: 2010.05.17/outbox.cif.g08.bks.cpg/sg2_31_cif.got.tgz:60773.got - 2010.06.03 11:33:40.
