data_PCOD9066765
_publ_section_title
;
Structure prediction by ZEFSAII (Michael W. Deem and Ramdas Pophale) SiO2 
 PCOD9066765
Probable space group: P -1
;
_chemical_formula_sum "Si O2"
_cell_formula_units_Z 10
_cell_length_a 9.902341
_cell_length_b 8.509503
_cell_length_c 11.688235
_cell_angle_alpha 56.076729
_cell_angle_beta 143.298843
_cell_angle_gamma 137.463765
_cell_volume 396.632001
_symmetry_space_group_name_H-M "P -1"
_symmetry_group_IT_number 2
_symmetry_cell_setting 'triclinic'
loop_
_space_group_symop_operation_xyz
x,y,z
-x,-y,-z
loop_
_atom_site_type_symbol
_atom_site_label
_atom_site_fract_x
_atom_site_fract_y
_atom_site_fract_z
Si Si1 0.774388 0.629824 0.997971
Si Si2 0.214507 0.284697 0.446022
Si Si3 0.382884 0.015268 0.289937
Si Si4 0.131783 0.609626 0.665865
Si Si5 0.658772 0.885996 0.181832
O O1 0.774248 0.550270 0.160126
O O2 0.698265 0.801605 0.834273
O O3 0.549436 0.377513 0.896039
O O4 0.109716 0.779569 0.149246
O O5 0.500000 0.500000 0.500000
O O6 0.293915 0.160247 0.638826
O O7 0.061950 0.374673 0.381699
O O8 0.980228 0.085408 0.281222
O O9 0.614008 0.133373 0.301172
O O10 0.500000 0.000000 0.500000
O O11 0.000000 0.500000 0.500000
O O12 0.500000 0.000000 0.000000
#
# Coordination Sequence:
#
# PCOD9066765 Si02
#       5
#     2   2   2   2   2
#     4  11  25  47  78 116 154 205 261 320 397 462
#     4  11  28  51  77 113 158 210 257 322 391 464
#     4  11  25  46  75 116 157 202 253 324 395 465
#     4  12  24  49  78 113 157 200 261 328 385 460
#     4  11  25  52  77 110 153 208 262 319 383 472
#
# _framework density 25.212285999999999
#
# number of rings (size 3 to 8) (size 9 to 14) (size 15 to 20)
#    0.000    0.800    4.000    1.800    0.000    5.600 
#    0.000    0.000    0.000    0.000    0.000    0.000 
#    0.000    0.000    0.000    0.000    0.000    0.000 
#
# Total GULP energy -55823.320089 kJ/mol
# GULP energy per Si atom -5582.332009 kJ/mol
# Density = 2.515490 g / cm^3
# Si number density = 25.212286 Si / 1000 Ang^3
#
#
#
# Elastic Constant Matrix: (Units=GPa)
#
#
# Indices 1 2 3 4 5 6 
#
# 1 96.7548 56.1190 46.2847 9.5673 34.8894 35.1843
# 2 56.1190 206.2232 86.6112 35.5109 22.4251 25.5610
# 3 46.2847 86.6112 204.9470 0.4675 0.9024 19.3924
# 4 9.5673 35.5109 0.4675 87.2411 8.8588 1.5575
# 5 34.8894 22.4251 0.9024 8.8588 35.0619 3.3781
# 6 35.1843 25.5610 19.3924 1.5575 3.3781 50.1245
#
#
#
# Elastic Compliance Matrix: (Units=1/GPa)
#
#
# Indices 1 2 3 4 5 6 
#
# 1 0.027837 -0.001160 -0.004207 0.000302 -0.025421 -0.015616
# 2 -0.001160 0.007159 -0.002597 -0.002483 -0.002578 -0.001581
# 3 -0.004207 -0.002597 0.006782 0.000919 0.005319 0.001267
# 4 0.000302 -0.002483 0.000919 0.012627 -0.001969 0.000439
# 5 -0.025421 -0.002578 0.005319 -0.001969 0.054527 0.013487
# 6 -0.015616 -0.001581 0.001267 0.000439 0.013487 0.030306
#
#
# Mechanical properties :
#
#
# Convention : Reuss Voigt Hill
#
# Bulk Modulus (GPa) = 38.68672 98.43942 68.56307
# Shear Modulus (GPa) = 30.52824 55.74617 43.13721
#
# Velocity S-wave (km/s) = 3.48350 4.70730 4.14086
# Velocity P-wave (km/s) = 5.61760 8.28697 7.07924
#
# Compressibility (1/GPa) = 0.02584866
#
# Stress axis : x y z
#
# Youngs Moduli (GPa) = 35.92380 139.67682 147.45818
#
# Poissons Ratio (x) = 0.16205 0.62041
# Poissons Ratio (y) = 0.04168 0.38294
# Poissons Ratio (z) = 0.15115 0.36274
#
# Static dielectric constant tensor:
#      x y z
#    x 2.080710 -0.016370 0.043560 
#    y -0.016370 2.177700 0.135420 
#    z 0.043560 0.135420 2.061140 
# 
# From -- ./inp_files/515152.got.cif
#   From: 2010.05.17/outbox.cif.g08.bks.cpg/sg2_258_cif.got.tgz:515152.got - 2010.06.03 11:33:40.
