data_PCOD9066356
_publ_section_title
;
Structure prediction by ZEFSAII (Michael W. Deem and Ramdas Pophale) SiO2 
 PCOD9066356
Probable space group: P -1
;
_chemical_formula_sum "Si O2"
_cell_formula_units_Z 16
_cell_length_a 8.791429
_cell_length_b 9.183484
_cell_length_c 12.106374
_cell_angle_alpha 79.616117
_cell_angle_beta 113.209637
_cell_angle_gamma 123.099012
_cell_volume 751.768093
_symmetry_space_group_name_H-M "P -1"
_symmetry_group_IT_number 2
_symmetry_cell_setting 'triclinic'
loop_
_space_group_symop_operation_xyz
x,y,z
-x,-y,-z
loop_
_atom_site_type_symbol
_atom_site_label
_atom_site_fract_x
_atom_site_fract_y
_atom_site_fract_z
Si Si1 0.553370 0.684953 0.537768
Si Si2 0.236341 0.946811 0.838483
Si Si3 0.290120 0.397398 0.010652
Si Si4 0.331937 0.738091 0.056313
Si Si5 0.167494 0.671609 0.466589
Si Si6 0.178914 0.133522 0.206571
Si Si7 0.812266 0.017450 0.434698
Si Si8 0.113955 0.767515 0.201623
O O1 0.500000 0.500000 0.500000
O O2 0.367784 0.678106 0.537954
O O3 0.716775 0.754299 0.669885
O O4 0.633250 0.829426 0.444542
O O5 0.206305 0.930551 0.701156
O O6 0.049065 0.934832 0.841146
O O7 0.435643 0.129662 0.891851
O O8 0.259886 0.797718 0.921619
O O9 0.110151 0.314648 0.886084
O O10 0.500000 0.500000 0.000000
O O11 0.275118 0.541410 0.056577
O O12 0.265896 0.249067 0.106643
O O13 0.232054 0.760306 0.132467
O O14 0.175237 0.838396 0.498954
O O15 0.129533 0.671068 0.325535
O O16 0.000000 0.500000 0.500000
O O17 0.201295 0.968217 0.230547
O O18 0.000000 0.000000 0.500000
#
# Coordination Sequence:
#
# PCOD9066356 Si02
#       8
#     2   2   2   2   2   2   2   2
#     4  12  28  47  71 106 144 194 244 299 363 428
#     4  11  25  45  75 101 146 181 243 285 365 419
#     4  12  29  45  73 106 144 185 241 297 357 419
#     4  11  27  45  75 107 137 191 236 298 357 421
#     4  12  29  46  74 108 146 190 242 300 365 434
#     4  12  27  48  74 102 146 189 236 297 362 429
#     4  12  24  47  75 107 144 189 239 299 365 433
#     4  12  26  50  72 104 147 186 241 291 362 431
#
# _framework density 21.283159000000001
#
# number of rings (size 3 to 8) (size 9 to 14) (size 15 to 20)
#    0.000    0.250    3.750    3.375   12.250    0.000 
#    0.000    0.000    0.000    0.000    0.000    0.000 
#    0.000    0.000    0.000    0.000    0.000    0.000 
#
# Total GULP energy -89654.191276 kJ/mol
# GULP energy per Si atom -5603.386955 kJ/mol
# Density = 2.123472 g / cm^3
# Si number density = 21.283159 Si / 1000 Ang^3
#
#
#
# Elastic Constant Matrix: (Units=GPa)
#
#
# Indices 1 2 3 4 5 6 
#
# 1 123.9204 51.3608 29.2827 0.2160 1.7549 14.1092
# 2 51.3608 123.2917 24.4642 -2.2743 -4.4269 1.2790
# 3 29.2827 24.4642 124.9726 -10.5422 -5.8346 14.3864
# 4 0.2160 -2.2743 -10.5422 33.4417 6.2187 -13.3449
# 5 1.7549 -4.4269 -5.8346 6.2187 31.3652 -5.5458
# 6 14.1092 1.2790 14.3864 -13.3449 -5.5458 42.7300
#
#
#
# Elastic Compliance Matrix: (Units=1/GPa)
#
#
# Indices 1 2 3 4 5 6 
#
# 1 0.010606 -0.004183 -0.001486 -0.001985 -0.001724 -0.003720
# 2 -0.004183 0.010121 -0.001074 0.000836 0.001635 0.001913
# 3 -0.001486 -0.001074 0.008967 0.001879 0.000910 -0.001791
# 4 -0.001985 0.000836 0.001879 0.035624 -0.004624 0.010523
# 5 -0.001724 0.001635 0.000910 -0.004624 0.033855 0.003164
# 6 -0.003720 0.001913 -0.001791 0.010523 0.003164 0.028874
#
#
# Mechanical properties :
#
#
# Convention : Reuss Voigt Hill
#
# Bulk Modulus (GPa) = 61.70114 64.71113 63.20613
# Shear Modulus (GPa) = 34.02791 39.31252 36.67022
#
# Velocity S-wave (km/s) = 4.00286 4.30247 4.15537
# Velocity P-wave (km/s) = 7.10052 7.42648 7.26533
#
# Compressibility (1/GPa) = 0.01620716
#
# Stress axis : x y z
#
# Youngs Moduli (GPa) = 94.28445 98.80388 111.51385
#
# Poissons Ratio (x) = 0.41334 0.16570
# Poissons Ratio (y) = 0.39443 0.11981
# Poissons Ratio (z) = 0.14010 0.10616
#
# Static dielectric constant tensor:
#      x y z
#    x 1.654660 0.005580 -0.009310 
#    y 0.005580 1.743270 0.010680 
#    z -0.009310 0.010680 1.743040 
# 
# From -- ./inp_files/381803.got.cif
#   From: 2010.05.17/outbox.cif.g08.bks.cpg/sg2_191_cif.got.tgz:381803.got - 2010.06.03 11:33:40.
