data_PCOD9066543
_publ_section_title
;
Structure prediction by ZEFSAII (Michael W. Deem and Ramdas Pophale) SiO2 
 PCOD9066543
Probable space group: P -1
;
_chemical_formula_sum "Si O2"
_cell_formula_units_Z 10
_cell_length_a 8.713600
_cell_length_b 9.113214
_cell_length_c 7.569242
_cell_angle_alpha 96.915501
_cell_angle_beta 67.021226
_cell_angle_gamma 50.941030
_cell_volume 368.962650
_symmetry_space_group_name_H-M "P -1"
_symmetry_group_IT_number 2
_symmetry_cell_setting 'triclinic'
loop_
_space_group_symop_operation_xyz
x,y,z
-x,-y,-z
loop_
_atom_site_type_symbol
_atom_site_label
_atom_site_fract_x
_atom_site_fract_y
_atom_site_fract_z
Si Si1 0.879140 0.348993 0.372182
Si Si2 0.067106 0.511457 0.166107
Si Si3 0.640524 0.298784 0.187404
Si Si4 0.644112 0.147360 0.820425
Si Si5 0.300673 0.995942 0.600964
O O1 0.791689 0.324262 0.228246
O O2 0.650246 0.476387 0.624863
O O3 0.917357 0.497356 0.353847
O O4 0.143800 0.110780 0.270847
O O5 0.954555 0.747350 0.269112
O O6 0.360982 0.297381 0.020456
O O7 0.000000 0.500000 0.000000
O O8 0.685547 0.113987 0.246034
O O9 0.704740 0.236593 0.945162
O O10 0.654278 0.145260 0.603431
O O11 0.500000 0.000000 0.500000
#
# Coordination Sequence:
#
# PCOD9066543 Si02
#       5
#     2   2   2   2   2
#     4  11  25  46  71 104 141 183 230 288 347 412
#     4  12  24  44  73 103 139 182 235 285 341 411
#     4  11  26  49  71 101 145 181 230 289 347 411
#     4  12  26  44  76 102 138 188 232 282 350 410
#     4  12  25  45  71 104 138 180 237 283 337 417
#
# _framework density 27.103013000000001
#
# number of rings (size 3 to 8) (size 9 to 14) (size 15 to 20)
#    0.000    0.400    4.000    3.600    2.800    2.400 
#    0.000   12.000    0.000    0.000    0.000    0.000 
#    0.000    0.000    0.000    0.000    0.000    0.000 
#
# Total GULP energy -56110.550187 kJ/mol
# GULP energy per Si atom -5611.055019 kJ/mol
# Density = 2.704133 g / cm^3
# Si number density = 27.103013 Si / 1000 Ang^3
#
#
#
# Elastic Constant Matrix: (Units=GPa)
#
#
# Indices 1 2 3 4 5 6 
#
# 1 141.8796 93.2876 68.9278 -3.8333 -1.2036 -1.7254
# 2 93.2876 146.2968 56.0816 33.5761 -27.8085 8.8934
# 3 68.9278 56.0816 155.5559 13.2602 26.6503 5.1932
# 4 -3.8333 33.5761 13.2602 47.1883 -22.2787 -4.6941
# 5 -1.2036 -27.8085 26.6503 -22.2787 66.1970 -0.9238
# 6 -1.7254 8.8934 5.1932 -4.6941 -0.9238 47.5162
#
#
#
# Elastic Compliance Matrix: (Units=1/GPa)
#
#
# Indices 1 2 3 4 5 6 
#
# 1 0.018384 -0.012834 -0.005076 0.013263 0.001519 0.004964
# 2 -0.012834 0.019311 -0.000542 -0.013517 0.003474 -0.005289
# 3 -0.005076 -0.000542 0.010654 -0.006433 -0.006802 -0.002015
# 4 0.013263 -0.013517 -0.006433 0.039447 0.010538 0.007816
# 5 0.001519 0.003474 -0.006802 0.010538 0.022901 0.001635
# 6 0.004964 -0.005289 -0.002015 0.007816 0.001635 0.023240
#
#
# Mechanical properties :
#
#
# Convention : Reuss Voigt Hill
#
# Bulk Modulus (GPa) = 87.36528 97.81403 92.58966
# Shear Modulus (GPa) = 28.62787 47.20932 37.91859
#
# Velocity S-wave (km/s) = 3.25354 4.17807 3.74445
# Velocity P-wave (km/s) = 6.81312 7.70994 7.27536
#
# Compressibility (1/GPa) = 0.01144619
#
# Stress axis : x y z
#
# Youngs Moduli (GPa) = 54.39427 51.78443 93.86269
#
# Poissons Ratio (x) = 0.66460 0.47643
# Poissons Ratio (y) = 0.69810 0.05083
# Poissons Ratio (z) = 0.27609 0.02804
#
# Static dielectric constant tensor:
#      x y z
#    x 2.091580 -0.017070 -0.001210 
#    y -0.017070 2.133840 -0.024590 
#    z -0.001210 -0.024590 2.089050 
# 
# From -- ./inp_files/146088.got.cif
#   From: 2010.05.17/outbox.cif.g08.bks.cpg/sg2_74_cif.got.tgz:146088.got - 2010.06.03 11:33:40.
