data_PCOD9066783
_publ_section_title
;
Structure prediction by ZEFSAII (Michael W. Deem and Ramdas Pophale) SiO2 
 PCOD9066783
Probable space group: P -1
;
_chemical_formula_sum "Si O2"
_cell_formula_units_Z 14
_cell_length_a 11.393553
_cell_length_b 11.832849
_cell_length_c 5.380250
_cell_angle_alpha 107.163097
_cell_angle_beta 90.587115
_cell_angle_gamma 127.025757
_cell_volume 536.253221
_symmetry_space_group_name_H-M "P -1"
_symmetry_group_IT_number 2
_symmetry_cell_setting 'triclinic'
loop_
_space_group_symop_operation_xyz
x,y,z
-x,-y,-z
loop_
_atom_site_type_symbol
_atom_site_label
_atom_site_fract_x
_atom_site_fract_y
_atom_site_fract_z
Si Si1 0.829377 0.857981 0.477614
Si Si2 0.322469 0.155799 0.040688
Si Si3 0.187856 0.828880 0.667704
Si Si4 0.399926 0.815509 0.382431
Si Si5 0.427505 0.585888 0.043739
Si Si6 0.127829 0.620939 0.883875
Si Si7 0.882992 0.636094 0.328588
O O1 0.748815 0.819742 0.182658
O O2 0.825089 0.721677 0.496795
O O3 0.760447 0.885668 0.724787
O O4 0.000000 0.000000 0.500000
O O5 0.494847 0.311597 0.139457
O O6 0.295653 0.004542 0.854086
O O7 0.287451 0.778107 0.577371
O O8 0.089111 0.721365 0.826202
O O9 0.065278 0.775620 0.414977
O O10 0.462888 0.721085 0.317349
O O11 0.500000 0.000000 0.500000
O O12 0.288651 0.744707 0.098111
O O13 0.500000 0.500000 0.000000
O O14 0.244741 0.457876 0.952264
O O15 0.130758 0.502671 0.645513
O O16 0.000000 0.500000 0.000000
#
# Coordination Sequence:
#
# PCOD9066783 Si02
#       7
#     2   2   2   2   2   2   2
#     4  12  27  49  78 120 156 215 266 332 399 489
#     4  12  28  49  80 114 163 208 273 327 403 485
#     4  12  26  47  77 113 154 212 262 339 393 492
#     4  11  25  48  75 113 158 203 268 318 414 471
#     4  11  25  51  77 119 158 212 263 342 398 486
#     4  11  26  45  72 113 148 197 261 332 396 472
#     4  11  25  46  76 110 157 200 269 323 413 458
#
# _framework density 26.10707
#
# number of rings (size 3 to 8) (size 9 to 14) (size 15 to 20)
#    0.000    0.571    5.714    0.857    4.000    2.286 
#    5.143    0.000    0.000    0.000    0.000    0.000 
#    0.000    0.000    0.000    0.000    0.000    0.000 
#
# Total GULP energy -77948.312196 kJ/mol
# GULP energy per Si atom -5567.736585 kJ/mol
# Density = 2.604765 g / cm^3
# Si number density = 26.107070 Si / 1000 Ang^3
#
#
#
# Elastic Constant Matrix: (Units=GPa)
#
#
# Indices 1 2 3 4 5 6 
#
# 1 109.3215 48.7335 35.6780 8.6784 -13.6014 -6.4102
# 2 48.7335 142.0714 46.7377 24.5234 -9.3850 -19.7723
# 3 35.6780 46.7377 106.2091 6.5087 -8.9900 0.5121
# 4 8.6784 24.5234 6.5087 54.3754 -6.0574 -10.1712
# 5 -13.6014 -9.3850 -8.9900 -6.0574 41.5867 15.0919
# 6 -6.4102 -19.7723 0.5121 -10.1712 15.0919 48.2082
#
#
#
# Elastic Compliance Matrix: (Units=1/GPa)
#
#
# Indices 1 2 3 4 5 6 
#
# 1 0.011600 -0.003132 -0.002280 0.000037 0.002814 -0.000591
# 2 -0.003132 0.010167 -0.003345 -0.003164 -0.001181 0.003491
# 3 -0.002280 -0.003345 0.011815 0.000233 0.001944 -0.002360
# 4 0.000037 -0.003164 0.000233 0.020421 0.001387 0.002579
# 5 0.002814 -0.001181 0.001944 0.001387 0.028502 -0.008761
# 6 -0.000591 0.003491 -0.002360 0.002579 -0.008761 0.025408
#
#
# Mechanical properties :
#
#
# Convention : Reuss Voigt Hill
#
# Bulk Modulus (GPa) = 62.23145 68.87782 65.55464
# Shear Modulus (GPa) = 38.23140 43.93093 41.08117
#
# Velocity S-wave (km/s) = 3.83091 4.10655 3.97112
# Velocity P-wave (km/s) = 6.59216 6.99465 6.79638
#
# Compressibility (1/GPa) = 0.01606904
#
# Stress axis : x y z
#
# Youngs Moduli (GPa) = 86.20707 98.35339 84.63931
#
# Poissons Ratio (x) = 0.30802 0.19296
# Poissons Ratio (y) = 0.26998 0.28312
# Poissons Ratio (z) = 0.19653 0.32900
#
# Static dielectric constant tensor:
#      x y z
#    x 2.207240 0.027780 0.014240 
#    y 0.027780 2.132160 -0.043490 
#    z 0.014240 -0.043490 2.165740 
# 
# From -- ./inp_files/71802.got.cif
#   From: 2010.05.17/outbox.cif.g08.bks.cpg/sg2_36_cif.got.tgz:71802.got - 2010.06.03 11:33:40.
