data_PCOD9066803
_publ_section_title
;
Structure prediction by ZEFSAII (Michael W. Deem and Ramdas Pophale) SiO2 
 PCOD9066803
Probable space group: P -1
;
_chemical_formula_sum "Si O2"
_cell_formula_units_Z 13
_cell_length_a 8.990187
_cell_length_b 11.729135
_cell_length_c 8.407011
_cell_angle_alpha 141.123141
_cell_angle_beta 82.779386
_cell_angle_gamma 106.977552
_cell_volume 524.477077
_symmetry_space_group_name_H-M "P -1"
_symmetry_group_IT_number 2
_symmetry_cell_setting 'triclinic'
loop_
_space_group_symop_operation_xyz
x,y,z
-x,-y,-z
loop_
_atom_site_type_symbol
_atom_site_label
_atom_site_fract_x
_atom_site_fract_y
_atom_site_fract_z
Si Si1 0.183359 0.118544 0.584731
Si Si2 0.708166 0.159575 0.275995
Si Si3 0.235422 0.181868 0.988995
Si Si4 0.500000 0.500000 0.500000
Si Si5 0.947452 0.532178 0.718720
Si Si6 0.630992 0.102129 0.863058
Si Si7 0.743858 0.495749 0.184460
O O1 0.218986 0.339827 0.772841
O O2 0.254154 0.014377 0.328934
O O3 0.268510 0.116163 0.738039
O O4 0.000000 0.000000 0.500000
O O5 0.791080 0.352478 0.567071
O O6 0.539890 0.046461 0.248749
O O7 0.675970 0.198194 0.137794
O O8 0.806470 0.010330 0.109779
O O9 0.380701 0.341069 0.223363
O O10 0.098663 0.275780 0.075303
O O11 0.642073 0.552776 0.400027
O O12 0.000000 0.500000 0.500000
O O13 0.086212 0.518485 0.798065
O O14 0.649857 0.273513 0.922752
#
# Coordination Sequence:
#
# PCOD9066803 Si02
#       7
#     2   2   2   1   2   2   2
#     4  12  30  48  75 115 163 206 245 312 398 469
#     4  11  25  46  78 111 149 195 267 318 366 454
#     4  12  27  48  74 112 152 198 253 315 384 453
#     4  12  24  50  78 112 144 198 266 320 370 434
#     4  12  25  43  76 111 145 202 261 316 376 438
#     4  11  25  46  77 110 147 205 251 318 382 445
#     4  12  26  50  78 110 157 197 259 323 373 461
#
# _framework density 24.786591000000001
#
# number of rings (size 3 to 8) (size 9 to 14) (size 15 to 20)
#    0.000    0.308    4.615    2.769    6.462    5.538 
#    0.000    0.000    0.000    0.000    0.000    0.000 
#    0.000    0.000    0.000    0.000    0.000    0.000 
#
# Total GULP energy -72540.979417 kJ/mol
# GULP energy per Si atom -5580.075340 kJ/mol
# Density = 2.473018 g / cm^3
# Si number density = 24.786591 Si / 1000 Ang^3
#
#
#
# Elastic Constant Matrix: (Units=GPa)
#
#
# Indices 1 2 3 4 5 6 
#
# 1 64.4548 26.3850 17.4966 1.9430 0.0323 8.9291
# 2 26.3850 128.2665 23.0986 25.1130 0.5128 3.8027
# 3 17.4966 23.0986 55.5160 13.5796 17.1535 17.7475
# 4 1.9430 25.1130 13.5796 35.5519 -1.2384 6.9150
# 5 0.0323 0.5128 17.1535 -1.2384 35.5937 -1.0896
# 6 8.9291 3.8027 17.7475 6.9150 -1.0896 28.0875
#
#
#
# Elastic Compliance Matrix: (Units=1/GPa)
#
#
# Indices 1 2 3 4 5 6 
#
# 1 0.018736 -0.003663 -0.005241 0.004258 0.002615 -0.003096
# 2 -0.003663 0.010249 -0.002906 -0.006525 0.001129 0.003263
# 3 -0.005241 -0.002906 0.033792 -0.007647 -0.017058 -0.018071
# 4 0.004258 -0.006525 -0.007647 0.036457 0.004909 -0.004423
# 5 0.002615 0.001129 -0.017058 0.004909 0.036774 0.010012
# 6 -0.003096 0.003263 -0.018071 -0.004423 0.010012 0.049042
#
#
# Mechanical properties :
#
#
# Convention : Reuss Voigt Hill
#
# Bulk Modulus (GPa) = 25.53754 42.46641 34.00197
# Shear Modulus (GPa) = 22.55083 31.93042 27.24063
#
# Velocity S-wave (km/s) = 3.01956 3.59306 3.31872
# Velocity P-wave (km/s) = 4.74155 5.86374 5.33225
#
# Compressibility (1/GPa) = 0.03915804
#
# Stress axis : x y z
#
# Youngs Moduli (GPa) = 53.37337 97.56776 29.59281
#
# Poissons Ratio (x) = 0.35736 0.15509
# Poissons Ratio (y) = 0.19549 0.08600
# Poissons Ratio (z) = 0.27972 0.28354
#
# Static dielectric constant tensor:
#      x y z
#    x 2.008690 0.003920 -0.029940 
#    y 0.003920 1.964750 0.026790 
#    z -0.029940 0.026790 1.984650 
# 
# From -- ./inp_files/183564.got.cif
#   From: 2010.05.17/outbox.cif.g08.bks.cpg/sg2_92_cif.got.tgz:183564.got - 2010.06.03 11:33:40.
