data_PCOD9066172
_publ_section_title
;
Structure prediction by ZEFSAII (Michael W. Deem and Ramdas Pophale) SiO2 
 PCOD9066172
Probable space group: P -1
;
_chemical_formula_sum "Si O2"
_cell_formula_units_Z 12
_cell_length_a 15.353501
_cell_length_b 6.991260
_cell_length_c 8.809347
_cell_angle_alpha 91.332290
_cell_angle_beta 77.353188
_cell_angle_gamma 38.823237
_cell_volume 548.627043
_symmetry_space_group_name_H-M "P -1"
_symmetry_group_IT_number 2
_symmetry_cell_setting 'triclinic'
loop_
_space_group_symop_operation_xyz
x,y,z
-x,-y,-z
loop_
_atom_site_type_symbol
_atom_site_label
_atom_site_fract_x
_atom_site_fract_y
_atom_site_fract_z
Si Si1 0.943960 0.829278 0.661938
Si Si2 0.118468 0.274019 0.815196
Si Si3 0.378215 0.229473 0.417219
Si Si4 0.573867 0.176824 0.151377
Si Si5 0.642084 0.103269 0.782987
Si Si6 0.079766 0.965247 0.650601
O O1 0.061594 0.494622 0.698226
O O2 0.955467 0.019701 0.737979
O O3 0.786514 0.992195 0.732872
O O4 0.973818 0.826054 0.474262
O O5 0.278662 0.070721 0.806201
O O6 0.118706 0.052114 0.763474
O O7 0.000000 0.500000 0.000000
O O8 0.455181 0.231556 0.261975
O O9 0.229164 0.591084 0.540997
O O10 0.500000 0.000000 0.500000
O O11 0.344419 0.084209 0.350475
O O12 0.498268 0.516796 0.190327
O O13 0.619123 0.057143 0.958657
#
# Coordination Sequence:
#
# PCOD9066172 Si02
#       6
#     2   2   2   2   2   2
#     4  11  25  45  70 101 138 184 228 280 340 407
#     4  12  26  46  70 102 140 181 228 285 344 406
#     4  12  26  44  72 107 138 180 229 288 343 408
#     4  11  25  46  69 103 138 184 228 281 341 410
#     4  11  25  46  72  99 141 185 228 278 346 406
#     4  11  27  43  71 102 139 181 232 282 341 411
#
# _framework density 21.872779999999999
#
# number of rings (size 3 to 8) (size 9 to 14) (size 15 to 20)
#    0.000    0.667    3.333    3.000    9.333    2.000 
#    6.000    0.000    0.000    0.000    0.000    0.000 
#    0.000    0.000    0.000    0.000    0.000    0.000 
#
# Total GULP energy -67205.622509 kJ/mol
# GULP energy per Si atom -5600.468542 kJ/mol
# Density = 2.182300 g / cm^3
# Si number density = 21.872780 Si / 1000 Ang^3
#
#
#
# Elastic Constant Matrix: (Units=GPa)
#
#
# Indices 1 2 3 4 5 6 
#
# 1 115.6643 48.6476 61.7608 8.6088 -12.4968 -1.6830
# 2 48.6476 120.3260 52.3607 -5.4984 21.3807 -20.5290
# 3 61.7608 52.3607 89.2366 13.6569 6.1697 12.0289
# 4 8.6088 -5.4984 13.6569 31.9640 3.2423 2.1726
# 5 -12.4968 21.3807 6.1697 3.2423 22.6163 -6.4034
# 6 -1.6830 -20.5290 12.0289 2.1726 -6.4034 40.5786
#
#
#
# Elastic Compliance Matrix: (Units=1/GPa)
#
#
# Indices 1 2 3 4 5 6 
#
# 1 0.020737 -0.006505 -0.012159 -0.004177 0.022944 0.005018
# 2 -0.006505 0.020189 -0.008805 0.010327 -0.019220 0.008968
# 3 -0.012159 -0.008805 0.028675 -0.008591 -0.009071 -0.014430
# 4 -0.004177 0.010327 -0.008591 0.039100 -0.014419 0.003229
# 5 0.022944 -0.019220 -0.009071 -0.014419 0.081754 0.007590
# 6 0.005018 0.008968 -0.014430 0.003229 0.007590 0.034691
#
#
# Mechanical properties :
#
#
# Convention : Reuss Voigt Hill
#
# Bulk Modulus (GPa) = 68.19341 72.30725 70.25033
# Shear Modulus (GPa) = 17.54569 29.86229 23.70399
#
# Velocity S-wave (km/s) = 2.83533 3.69897 3.29556
# Velocity P-wave (km/s) = 6.47795 7.16750 6.83143
#
# Compressibility (1/GPa) = 0.01466417
#
# Stress axis : x y z
#
# Youngs Moduli (GPa) = 48.22393 49.53138 34.87403
#
# Poissons Ratio (x) = 0.32218 0.42402
# Poissons Ratio (y) = 0.31367 0.30707
# Poissons Ratio (z) = 0.58633 0.43612
#
# Static dielectric constant tensor:
#      x y z
#    x 1.788650 0.008160 -0.010530 
#    y 0.008160 1.793030 0.001460 
#    z -0.010530 0.001460 1.789380 
# 
# From -- ./inp_files/22734.got.cif
#   From: 2010.05.17/outbox.cif.g08.bks.cpg/sg2_12_cif.got.tgz:22734.got - 2010.06.03 11:33:40.
