data_PCOD9066010
_publ_section_title
;
Structure prediction by ZEFSAII (Michael W. Deem and Ramdas Pophale) SiO2 
 PCOD9066010
Probable space group: P -1
;
_chemical_formula_sum "Si O2"
_cell_formula_units_Z 14
_cell_length_a 13.430935
_cell_length_b 8.661870
_cell_length_c 5.275077
_cell_angle_alpha 109.396472
_cell_angle_beta 72.016681
_cell_angle_gamma 120.418108
_cell_volume 491.665228
_symmetry_space_group_name_H-M "P -1"
_symmetry_group_IT_number 2
_symmetry_cell_setting 'triclinic'
loop_
_space_group_symop_operation_xyz
x,y,z
-x,-y,-z
loop_
_atom_site_type_symbol
_atom_site_label
_atom_site_fract_x
_atom_site_fract_y
_atom_site_fract_z
Si Si1 0.615980 0.026902 0.578335
Si Si2 0.002025 0.359706 0.220389
Si Si3 0.126270 0.164877 0.435664
Si Si4 0.820290 0.970711 0.195347
Si Si5 0.560250 0.665012 0.757532
Si Si6 0.364225 0.612640 0.294884
Si Si7 0.180021 0.538001 0.790625
O O1 0.588736 0.859859 0.705138
O O2 0.500000 0.000000 0.500000
O O3 0.711495 0.015854 0.313092
O O4 0.671220 0.239996 0.743174
O O5 0.941584 0.152415 0.241234
O O6 0.898827 0.353787 0.104521
O O7 0.000000 0.500000 0.500000
O O8 0.130650 0.433049 0.037650
O O9 0.127683 0.361467 0.546370
O O10 0.199641 0.163531 0.626823
O O11 0.000000 0.000000 0.500000
O O12 0.165076 0.100765 0.121236
O O13 0.500000 0.500000 0.500000
O O14 0.652900 0.596188 0.759097
O O15 0.482617 0.665002 0.061699
O O16 0.311880 0.635336 0.628710
#
# Coordination Sequence:
#
# PCOD9066010 Si02
#       7
#     2   2   2   2   2   2   2
#     4  12  26  50  78 111 154 206 262 332 400 464
#     4  11  25  45  72 109 153 196 254 314 382 489
#     4  12  26  48  77 111 160 205 259 323 401 466
#     4  12  28  48  77 116 153 207 265 325 391 486
#     4  11  25  45  71 106 142 195 259 318 379 471
#     4  11  25  47  73 107 150 197 256 322 400 459
#     4  11  25  44  71 106 146 202 246 315 394 471
#
# _framework density 28.474657000000001
#
# number of rings (size 3 to 8) (size 9 to 14) (size 15 to 20)
#    0.000    0.571    4.286    2.571    6.000    3.429 
#    0.000    0.000    0.000    0.000    0.000    0.000 
#    0.000    0.000    0.000    0.000    0.000    0.000 
#
# Total GULP energy -78004.324821 kJ/mol
# GULP energy per Si atom -5571.737487 kJ/mol
# Density = 2.840985 g / cm^3
# Si number density = 28.474657 Si / 1000 Ang^3
#
#
#
# Elastic Constant Matrix: (Units=GPa)
#
#
# Indices 1 2 3 4 5 6 
#
# 1 88.9358 65.3930 53.6115 4.6991 -38.6175 -17.2636
# 2 65.3930 235.6409 75.8035 -16.8317 -10.3394 -37.2274
# 3 53.6115 75.8035 245.2397 -23.8905 -42.1245 -12.3277
# 4 4.6991 -16.8317 -23.8905 56.0677 0.6007 -5.7693
# 5 -38.6175 -10.3394 -42.1245 0.6007 47.1152 10.2895
# 6 -17.2636 -37.2274 -12.3277 -5.7693 10.2895 71.3269
#
#
#
# Elastic Compliance Matrix: (Units=1/GPa)
#
#
# Indices 1 2 3 4 5 6 
#
# 1 0.024024 -0.006007 -0.000781 -0.004380 0.017813 -0.000379
# 2 -0.006007 0.006698 -0.001295 0.002303 -0.005244 0.002761
# 3 -0.000781 -0.001295 0.005519 0.001950 0.004059 -0.000339
# 4 -0.004380 0.002303 0.001950 0.019995 -0.002120 0.002402
# 5 0.017813 -0.005244 0.004059 -0.002120 0.039103 -0.003536
# 6 -0.000379 0.002761 -0.000339 0.002402 -0.003536 0.016015
#
#
# Mechanical properties :
#
#
# Convention : Reuss Voigt Hill
#
# Bulk Modulus (GPa) = 49.81214 106.60360 78.20787
# Shear Modulus (GPa) = 37.25491 59.90250 48.57870
#
# Velocity S-wave (km/s) = 3.62104 4.59160 4.13490
# Velocity P-wave (km/s) = 5.91727 8.10122 7.09379
#
# Compressibility (1/GPa) = 0.02007543
#
# Stress axis : x y z
#
# Youngs Moduli (GPa) = 41.62440 149.30295 181.20155
#
# Poissons Ratio (x) = 0.89685 0.14154
# Poissons Ratio (y) = 0.25003 0.23460
# Poissons Ratio (z) = 0.03251 0.19330
#
# Static dielectric constant tensor:
#      x y z
#    x 2.455180 0.071760 0.138630 
#    y 0.071760 2.373380 -0.039280 
#    z 0.138630 -0.039280 2.159300 
# 
# From -- ./inp_files/90869.got.cif
#   From: 2010.05.17/outbox.cif.g08.bks.cpg/sg2_46_cif.got.tgz:90869.got - 2010.06.03 11:33:40.
