data_PCOD9066472
_publ_section_title
;
Structure prediction by ZEFSAII (Michael W. Deem and Ramdas Pophale) SiO2 
 PCOD9066472
Probable space group: P -1
;
_chemical_formula_sum "Si O2"
_cell_formula_units_Z 14
_cell_length_a 9.490158
_cell_length_b 14.556632
_cell_length_c 12.196407
_cell_angle_alpha 30.462261
_cell_angle_beta 50.183391
_cell_angle_gamma 62.017692
_cell_volume 641.110514
_symmetry_space_group_name_H-M "P -1"
_symmetry_group_IT_number 2
_symmetry_cell_setting 'triclinic'
loop_
_space_group_symop_operation_xyz
x,y,z
-x,-y,-z
loop_
_atom_site_type_symbol
_atom_site_label
_atom_site_fract_x
_atom_site_fract_y
_atom_site_fract_z
Si Si1 0.861217 0.058038 0.921775
Si Si2 0.183489 0.741780 0.658579
Si Si3 0.503593 0.471646 0.264603
Si Si4 0.100734 0.447429 0.392309
Si Si5 0.349169 0.269639 0.772545
Si Si6 0.536297 0.872478 0.921363
Si Si7 0.049453 0.437020 0.861012
O O1 0.970963 0.252972 0.621727
O O2 0.665841 0.081669 0.049558
O O3 0.805050 0.902442 0.018557
O O4 0.000000 0.000000 0.000000
O O5 0.327176 0.620587 0.762233
O O6 0.091059 0.625397 0.718485
O O7 0.301344 0.945805 0.363889
O O8 0.026391 0.725816 0.846581
O O9 0.312033 0.434560 0.328573
O O10 0.447591 0.369381 0.514037
O O11 0.561503 0.692365 0.026776
O O12 0.000000 0.500000 0.500000
O O13 0.086504 0.573920 0.164604
O O14 0.243247 0.408904 0.742482
O O15 0.471316 0.190279 0.882800
#
# Coordination Sequence:
#
# PCOD9066472 Si02
#       7
#     2   2   2   2   2   2   2
#     4  12  22  38  65 104 134 166 220 282 329 391
#     4  11  26  48  65  97 138 177 222 274 329 405
#     4  12  24  42  70  99 135 171 222 281 329 392
#     4  12  22  41  69  97 133 174 220 278 335 382
#     4  12  23  40  69 102 131 172 227 278 329 389
#     4  12  24  40  69  98 134 176 222 271 337 389
#     4  11  25  46  68  95 136 177 223 274 331 400
#
# _framework density 21.837109000000002
#
# number of rings (size 3 to 8) (size 9 to 14) (size 15 to 20)
#    0.000    0.286    7.143    1.714    2.000    1.143 
#    2.571    0.714    0.000    0.000    0.000    0.000 
#    0.000    0.000    0.000    0.000    0.000    0.000 
#
# Total GULP energy -78314.096997 kJ/mol
# GULP energy per Si atom -5593.864071 kJ/mol
# Density = 2.178741 g / cm^3
# Si number density = 21.837109 Si / 1000 Ang^3
#
#
#
# Elastic Constant Matrix: (Units=GPa)
#
#
# Indices 1 2 3 4 5 6 
#
# 1 108.6972 -2.3448 11.2443 -2.5580 -3.4199 1.8500
# 2 -2.3448 26.1670 4.2172 -10.4712 3.0368 15.8062
# 3 11.2443 4.2172 97.8898 -22.2742 -11.7318 14.2730
# 4 -2.5580 -10.4712 -22.2742 32.5152 9.1677 -8.0347
# 5 -3.4199 3.0368 -11.7318 9.1677 34.2491 -7.2449
# 6 1.8500 15.8062 14.2730 -8.0347 -7.2449 26.3838
#
#
#
# Elastic Compliance Matrix: (Units=1/GPa)
#
#
# Indices 1 2 3 4 5 6 
#
# 1 0.009362 0.001778 -0.000888 0.000394 0.000138 -0.001083
# 2 0.001778 0.079652 0.006523 0.024008 -0.021655 -0.050007
# 3 -0.000888 0.006523 0.013300 0.009175 -0.000331 -0.008338
# 4 0.000394 0.024008 0.009175 0.046335 -0.013231 -0.008897
# 5 0.000138 -0.021655 -0.000331 -0.013231 0.038738 0.019751
# 6 -0.001083 -0.050007 -0.008338 -0.008897 0.019751 0.075161
#
#
# Mechanical properties :
#
#
# Convention : Reuss Voigt Hill
#
# Bulk Modulus (GPa) = 8.53670 28.77639 18.65655
# Shear Modulus (GPa) = 17.43570 33.27211 25.35390
#
# Velocity S-wave (km/s) = 2.82874 3.90763 3.41111
# Velocity P-wave (km/s) = 3.81926 5.79360 4.90676
#
# Compressibility (1/GPa) = 0.11714123
#
# Stress axis : x y z
#
# Youngs Moduli (GPa) = 106.81323 12.55469 75.18636
#
# Poissons Ratio (x) = -0.02232 0.06675
# Poissons Ratio (y) = -0.18993 -0.49046
# Poissons Ratio (z) = 0.09482 -0.08190
#
# Static dielectric constant tensor:
#      x y z
#    x 1.802340 -0.016980 0.009460 
#    y -0.016980 1.819870 -0.042590 
#    z 0.009460 -0.042590 1.802330 
# 
# From -- ./inp_files/305874.got.cif
#   From: 2010.05.17/outbox.cif.g08.bks.cpg/sg2_153_cif.got.tgz:305874.got - 2010.06.03 11:33:40.
