data_PCOD9066873
_publ_section_title
;
Structure prediction by ZEFSAII (Michael W. Deem and Ramdas Pophale) SiO2 
 PCOD9066873
Probable space group: P -1
;
_chemical_formula_sum "Si O2"
_cell_formula_units_Z 16
_cell_length_a 13.873050
_cell_length_b 8.073319
_cell_length_c 9.314403
_cell_angle_alpha 108.699477
_cell_angle_beta 126.418221
_cell_angle_gamma 104.890187
_cell_volume 643.859347
_symmetry_space_group_name_H-M "P -1"
_symmetry_group_IT_number 2
_symmetry_cell_setting 'triclinic'
loop_
_space_group_symop_operation_xyz
x,y,z
-x,-y,-z
loop_
_atom_site_type_symbol
_atom_site_label
_atom_site_fract_x
_atom_site_fract_y
_atom_site_fract_z
Si Si1 0.424791 0.666321 0.329625
Si Si2 0.427624 0.706988 0.000203
Si Si3 0.690510 0.741570 0.705770
Si Si4 0.906157 0.151816 0.129368
Si Si5 0.128927 0.555234 0.021182
Si Si6 0.777569 0.694908 0.476533
Si Si7 0.282655 0.932408 0.804772
Si Si8 0.045571 0.877703 0.400123
O O1 0.580985 0.808970 0.589811
O O2 0.370229 0.427723 0.266178
O O3 0.440423 0.706063 0.183420
O O4 0.292305 0.679369 0.266377
O O5 0.330794 0.464400 0.786857
O O6 0.341093 0.802612 0.887574
O O7 0.586265 0.860560 0.106616
O O8 0.692430 0.625034 0.531643
O O9 0.857180 0.952215 0.928282
O O10 0.873782 0.304590 0.066252
O O11 0.786130 0.021228 0.111411
O O12 0.072837 0.289484 0.370043
O O13 0.089492 0.333297 0.855158
O O14 0.000000 0.500000 0.000000
O O15 0.843251 0.940041 0.564164
O O16 0.139386 0.805744 0.540383
O O17 0.000000 0.000000 0.500000
#
# Coordination Sequence:
#
# PCOD9066873 Si02
#       8
#     2   2   2   2   2   2   2   2
#     4  11  25  47  71 104 148 192 239 298 362 437
#     4  11  26  47  75 106 140 190 246 298 364 432
#     4  11  27  45  70 107 146 190 239 296 368 438
#     4  12  25  46  73 103 148 190 240 298 363 434
#     4  12  26  46  73 108 145 194 247 301 364 437
#     4  12  25  45  78 107 143 188 241 305 362 433
#     4  11  26  46  70 107 145 187 239 301 363 435
#     4  12  25  43  75 108 146 188 241 303 366 429
#
# _framework density 24.850148000000001
#
# number of rings (size 3 to 8) (size 9 to 14) (size 15 to 20)
#    0.000    0.500    2.500    4.875    5.250    2.500 
#    2.250    0.000    0.000    0.000    0.000    0.000 
#    0.000    0.000    0.000    0.000    0.000    0.000 
#
# Total GULP energy -89541.071301 kJ/mol
# GULP energy per Si atom -5596.316956 kJ/mol
# Density = 2.479359 g / cm^3
# Si number density = 24.850148 Si / 1000 Ang^3
#
#
#
# Elastic Constant Matrix: (Units=GPa)
#
#
# Indices 1 2 3 4 5 6 
#
# 1 126.8112 24.6973 24.8505 -14.5655 23.0219 29.4589
# 2 24.6973 128.4380 35.3389 -23.3271 0.7231 15.2272
# 3 24.8505 35.3389 86.9598 -17.4695 23.3831 5.9914
# 4 -14.5655 -23.3271 -17.4695 44.9750 -10.1165 1.7197
# 5 23.0219 0.7231 23.3831 -10.1165 40.5025 -4.6936
# 6 29.4589 15.2272 5.9914 1.7197 -4.6936 39.1368
#
#
#
# Elastic Compliance Matrix: (Units=1/GPa)
#
#
# Indices 1 2 3 4 5 6 
#
# 1 0.011824 -0.000683 -0.000053 0.002192 -0.007242 -0.009591
# 2 -0.000683 0.010006 -0.003648 0.004349 0.003096 -0.002640
# 3 -0.000053 -0.003648 0.015991 0.002408 -0.008784 -0.002148
# 4 0.002192 0.004349 0.002408 0.027102 0.003537 -0.004478
# 5 -0.007242 0.003096 -0.008784 0.003537 0.035834 0.009733
# 6 -0.009591 -0.002640 -0.002148 -0.004478 0.009733 0.035491
#
#
# Mechanical properties :
#
#
# Convention : Reuss Voigt Hill
#
# Bulk Modulus (GPa) = 34.41960 56.88692 45.65326
# Shear Modulus (GPa) = 32.32055 42.07767 37.19911
#
# Velocity S-wave (km/s) = 3.61032 4.11938 3.87322
# Velocity P-wave (km/s) = 5.59108 6.75037 6.19789
#
# Compressibility (1/GPa) = 0.02905321
#
# Stress axis : x y z
#
# Youngs Moduli (GPa) = 84.57655 99.93521 62.53489
#
# Poissons Ratio (x) = 0.06826 0.00330
# Poissons Ratio (y) = 0.05777 0.22814
# Poissons Ratio (z) = 0.00446 0.36458
#
# Static dielectric constant tensor:
#      x y z
#    x 2.020200 0.004070 -0.048440 
#    y 0.004070 1.931690 -0.036300 
#    z -0.048440 -0.036300 2.088790 
# 
# From -- ./inp_files/298963.got.cif
#   From: 2010.05.17/outbox.cif.g08.bks.cpg/sg2_150_cif.got.tgz:298963.got - 2010.06.03 11:33:40.
