data_PCOD9066845
_publ_section_title
;
Structure prediction by ZEFSAII (Michael W. Deem and Ramdas Pophale) SiO2 
 PCOD9066845
Probable space group: P -1
;
_chemical_formula_sum "Si O2"
_cell_formula_units_Z 16
_cell_length_a 17.117360
_cell_length_b 9.113470
_cell_length_c 5.516455
_cell_angle_alpha 62.010232
_cell_angle_beta 64.708789
_cell_angle_gamma 81.976071
_cell_volume 685.060094
_symmetry_space_group_name_H-M "P -1"
_symmetry_group_IT_number 2
_symmetry_cell_setting 'triclinic'
loop_
_space_group_symop_operation_xyz
x,y,z
-x,-y,-z
loop_
_atom_site_type_symbol
_atom_site_label
_atom_site_fract_x
_atom_site_fract_y
_atom_site_fract_z
Si Si1 0.110467 0.897344 0.893940
Si Si2 0.565795 0.365519 0.095999
Si Si3 0.743135 0.504997 0.600642
Si Si4 0.561685 0.163853 0.746340
Si Si5 0.926936 0.408406 0.502458
Si Si6 0.027516 0.181621 0.212694
Si Si7 0.256997 0.848760 0.373826
Si Si8 0.212313 0.149636 0.886727
O O1 0.167077 0.856571 0.621773
O O2 0.011431 0.852896 0.977315
O O3 0.158657 0.067582 0.794081
O O4 0.119850 0.760602 0.193290
O O5 0.538818 0.273158 0.456626
O O6 0.500000 0.500000 0.000000
O O7 0.664450 0.451813 0.929416
O O8 0.566186 0.251524 0.939458
O O9 0.846163 0.523131 0.509415
O O10 0.740516 0.343218 0.558064
O O11 0.726936 0.685649 0.375197
O O12 0.659102 0.114750 0.599477
O O13 0.500000 0.000000 0.000000
O O14 0.000000 0.500000 0.500000
O O15 0.979473 0.334292 0.267101
O O16 0.129898 0.205337 0.106630
O O17 0.000000 0.000000 0.500000
O O18 0.259075 0.997891 0.059895
#
# Coordination Sequence:
#
# PCOD9066845 Si02
#       8
#     2   2   2   2   2   2   2   2
#     4  12  22  43  67  90 143 184 241 308 361 434
#     4  11  26  51  80 118 155 193 249 318 380 458
#     4  11  25  48  69 104 146 189 247 303 378 443
#     4  11  26  48  83 113 153 199 244 307 391 454
#     4  12  26  41  66  97 137 192 245 301 369 438
#     4  12  23  42  59  98 138 182 249 307 359 429
#     4  11  25  47  69 102 148 186 248 304 363 450
#     4  12  26  42  70 102 138 199 245 301 373 439
#
# _framework density 23.355615
#
# number of rings (size 3 to 8) (size 9 to 14) (size 15 to 20)
#    0.000    0.500    5.000    2.625    7.000    2.000 
#    4.500    0.000    0.000    0.000    0.000    0.000 
#    0.000    0.000    0.000    0.000    0.000    0.000 
#
# Total GULP energy -89197.339073 kJ/mol
# GULP energy per Si atom -5574.833692 kJ/mol
# Density = 2.330246 g / cm^3
# Si number density = 23.355615 Si / 1000 Ang^3
#
#
#
# Elastic Constant Matrix: (Units=GPa)
#
#
# Indices 1 2 3 4 5 6 
#
# 1 101.9910 30.1082 11.5986 -11.8380 -2.3192 3.3599
# 2 30.1082 105.5943 46.3446 -22.8189 3.2026 11.2618
# 3 11.5986 46.3446 108.5126 -43.8338 7.3020 14.0620
# 4 -11.8380 -22.8189 -43.8338 42.4424 0.3158 1.3521
# 5 -2.3192 3.2026 7.3020 0.3158 39.0066 -3.4060
# 6 3.3599 11.2618 14.0620 1.3521 -3.4060 18.6833
#
#
#
# Elastic Compliance Matrix: (Units=1/GPa)
#
#
# Indices 1 2 3 4 5 6 
#
# 1 0.010921 -0.002973 0.001466 0.003003 0.000472 -0.001407
# 2 -0.002973 0.012987 -0.003296 0.002924 -0.001106 -0.005226
# 3 0.001466 -0.003296 0.021908 0.021855 -0.005434 -0.017338
# 4 0.003003 0.002924 0.021855 0.049341 -0.006607 -0.023527
# 5 0.000472 -0.001106 -0.005434 -0.006607 0.027717 0.010203
# 6 -0.001407 -0.005226 -0.017338 -0.023527 0.010203 0.073539
#
#
# Mechanical properties :
#
#
# Convention : Reuss Voigt Hill
#
# Bulk Modulus (GPa) = 27.61654 54.68898 41.15276
# Shear Modulus (GPa) = 22.92639 35.22956 29.07797
#
# Velocity S-wave (km/s) = 3.13648 3.88802 3.53230
# Velocity P-wave (km/s) = 4.99667 6.60471 5.85615
#
# Compressibility (1/GPa) = 0.03621018
#
# Stress axis : x y z
#
# Youngs Moduli (GPa) = 91.56435 76.99854 45.64646
#
# Poissons Ratio (x) = 0.22889 -0.06692
# Poissons Ratio (y) = 0.27219 0.15046
# Poissons Ratio (z) = -0.13423 0.25381
#
# Static dielectric constant tensor:
#      x y z
#    x 0.859780 0.043420 1.161880 
#    y 0.043420 1.975150 -0.104760 
#    z 1.161880 -0.104760 1.001110 
# 
# From -- ./inp_files/106208.got.cif
#   From: 2010.05.17/outbox.cif.g08.bks.cpg/sg2_54_cif.got.tgz:106208.got - 2010.06.03 11:33:40.
