data_PCOD9066798
_publ_section_title
;
Structure prediction by ZEFSAII (Michael W. Deem and Ramdas Pophale) SiO2 
 PCOD9066798
Probable space group: P -1
;
_chemical_formula_sum "Si O2"
_cell_formula_units_Z 15
_cell_length_a 12.372635
_cell_length_b 22.934116
_cell_length_c 6.473093
_cell_angle_alpha 53.731758
_cell_angle_beta 62.378757
_cell_angle_gamma 27.253779
_cell_volume 668.442884
_symmetry_space_group_name_H-M "P -1"
_symmetry_group_IT_number 2
_symmetry_cell_setting 'triclinic'
loop_
_space_group_symop_operation_xyz
x,y,z
-x,-y,-z
loop_
_atom_site_type_symbol
_atom_site_label
_atom_site_fract_x
_atom_site_fract_y
_atom_site_fract_z
Si Si1 0.000000 0.000000 0.000000
Si Si2 0.244047 0.953919 0.500592
Si Si3 0.553584 0.888275 0.672616
Si Si4 0.171969 0.507968 0.435667
Si Si5 0.050158 0.679756 0.522184
Si Si6 0.357702 0.263480 0.723642
Si Si7 0.575100 0.523238 0.046657
Si Si8 0.927560 0.178136 0.950855
O O1 0.125014 0.959777 0.753159
O O2 0.026992 0.900280 0.112213
O O3 0.385892 0.940191 0.538536
O O4 0.445477 0.819034 0.450546
O O5 0.048615 0.088066 0.241977
O O6 0.830316 0.744177 0.661453
O O7 0.500000 0.000000 0.500000
O O8 0.537714 0.849925 0.976923
O O9 0.188177 0.560073 0.486589
O O10 0.294960 0.369523 0.676580
O O11 0.892549 0.635879 0.362903
O O12 0.303673 0.472711 0.192976
O O13 0.224471 0.610356 0.699382
O O14 0.965421 0.797474 0.248761
O O15 0.500000 0.500000 0.000000
O O16 0.350048 0.665357 0.079955
#
# Coordination Sequence:
#
# PCOD9066798 Si02
#       8
#     1   2   2   2   2   2   2   2
#     4  12  28  50  74 108 152 194 248 308 374 466
#     4  12  27  49  75 111 147 199 245 313 383 449
#     4  12  27  45  77 109 153 195 255 313 372 456
#     4  11  25  46  77 107 154 194 252 315 369 454
#     4  12  26  48  74 111 146 202 254 310 375 443
#     4  11  25  48  74 114 150 197 248 312 385 436
#     4  12  27  47  76 109 151 199 254 315 371 451
#     4  12  29  47  77 109 152 201 251 310 381 448
#
# _framework density 22.440213
#
# number of rings (size 3 to 8) (size 9 to 14) (size 15 to 20)
#    0.000    0.267    4.000    4.000    5.600    5.867 
#    0.000    0.000    0.000    0.000    0.000    0.000 
#    0.000    0.000    0.000    0.000    0.000    0.000 
#
# Total GULP energy -83766.894017 kJ/mol
# GULP energy per Si atom -5584.459601 kJ/mol
# Density = 2.238914 g / cm^3
# Si number density = 22.440213 Si / 1000 Ang^3
#
#
#
# Elastic Constant Matrix: (Units=GPa)
#
#
# Indices 1 2 3 4 5 6 
#
# 1 88.4055 26.3404 37.9848 -8.1596 -2.9903 21.4399
# 2 26.3404 85.6187 51.6003 17.8663 -12.3886 3.1148
# 3 37.9848 51.6003 100.6149 8.8625 -18.5633 3.4922
# 4 -8.1596 17.8663 8.8625 40.9238 -4.0638 -9.9120
# 5 -2.9903 -12.3886 -18.5633 -4.0638 33.4972 0.5786
# 6 21.4399 3.1148 3.4922 -9.9120 0.5786 51.8449
#
#
#
# Elastic Compliance Matrix: (Units=1/GPa)
#
#
# Indices 1 2 3 4 5 6 
#
# 1 0.015912 -0.002718 -0.005123 0.004005 -0.001847 -0.005285
# 2 -0.002718 0.018938 -0.007722 -0.007191 0.001625 -0.000886
# 3 -0.005123 -0.007722 0.016931 -0.000407 0.005997 0.001297
# 4 0.004005 -0.007191 -0.000407 0.029640 0.000991 0.004459
# 5 -0.001847 0.001625 0.005997 0.000991 0.033732 0.000075
# 6 -0.005285 -0.000886 0.001297 0.004459 0.000075 0.022291
#
#
# Mechanical properties :
#
#
# Convention : Reuss Voigt Hill
#
# Bulk Modulus (GPa) = 48.41897 56.27666 52.34781
# Shear Modulus (GPa) = 28.49741 35.83409 32.16575
#
# Velocity S-wave (km/s) = 3.56747 4.00042 3.79013
# Velocity P-wave (km/s) = 6.21231 6.81695 6.52164
#
# Compressibility (1/GPa) = 0.02065306
#
# Stress axis : x y z
#
# Youngs Moduli (GPa) = 62.84711 52.80459 59.06488
#
# Poissons Ratio (x) = 0.14354 0.30259
# Poissons Ratio (y) = 0.17084 0.45610
# Poissons Ratio (z) = 0.32197 0.40776
#
# Static dielectric constant tensor:
#      x y z
#    x 1.821280 -0.044210 -0.005950 
#    y -0.044210 1.866580 -0.007860 
#    z -0.005950 -0.007860 1.802700 
# 
# From -- ./inp_files/64433.got.cif
#   From: 2010.05.17/outbox.cif.g08.bks.cpg/sg2_33_cif.got.tgz:64433.got - 2010.06.03 11:33:40.
