data_PCOD9066534
_publ_section_title
;
Structure prediction by ZEFSAII (Michael W. Deem and Ramdas Pophale) SiO2 
 PCOD9066534
Probable space group: P -1
;
_chemical_formula_sum "Si O2"
_cell_formula_units_Z 16
_cell_length_a 9.388176
_cell_length_b 8.601544
_cell_length_c 17.905425
_cell_angle_alpha 148.163976
_cell_angle_beta 81.033726
_cell_angle_gamma 96.850819
_cell_volume 753.145899
_symmetry_space_group_name_H-M "P -1"
_symmetry_group_IT_number 2
_symmetry_cell_setting 'triclinic'
loop_
_space_group_symop_operation_xyz
x,y,z
-x,-y,-z
loop_
_atom_site_type_symbol
_atom_site_label
_atom_site_fract_x
_atom_site_fract_y
_atom_site_fract_z
Si Si1 0.490527 0.717892 0.792106
Si Si2 0.522768 0.358693 0.793167
Si Si3 0.837683 0.152642 0.165697
Si Si4 0.573840 0.307153 0.481126
Si Si5 0.810410 0.147909 0.742746
Si Si6 0.143518 0.526791 0.547097
Si Si7 0.306414 0.752955 0.041225
Si Si8 0.042078 0.594870 0.892054
O O1 0.484316 0.561343 0.808397
O O2 0.334163 0.854804 0.837824
O O3 0.533531 0.470702 0.627264
O O4 0.613006 0.960988 0.879292
O O5 0.693322 0.343873 0.786846
O O6 0.476711 0.024741 0.649457
O O7 0.428628 0.494988 0.924041
O O8 0.867490 0.296111 0.302308
O O9 0.905470 0.344423 0.171561
O O10 0.918337 0.836804 0.023437
O O11 0.500000 0.500000 0.500000
O O12 0.741220 0.319310 0.452364
O O13 0.756185 0.167086 0.840226
O O14 0.967839 0.281973 0.778188
O O15 0.806102 0.811018 0.579063
O O16 0.000000 0.500000 0.500000
O O17 0.176494 0.648034 0.956957
#
# Coordination Sequence:
#
# PCOD9066534 Si02
#       8
#     2   2   2   2   2   2   2   2
#     4  12  24  46  73 103 142 183 235 288 343 414
#     4  12  26  41  72 105 136 185 234 285 351 410
#     4  11  25  46  71 101 142 186 225 292 348 409
#     4  12  24  47  70 102 140 182 235 287 345 411
#     4  12  26  46  67 104 141 181 235 287 343 415
#     4  12  27  45  73 101 139 185 229 285 354 413
#     4  12  25  45  71 106 139 186 233 288 345 409
#     4  11  27  44  69 103 144 184 231 284 348 415
#
# _framework density 21.244223999999999
#
# number of rings (size 3 to 8) (size 9 to 14) (size 15 to 20)
#    0.000    0.250    5.000    3.000    7.000    0.500 
#    0.000    0.000    0.000    0.000    0.000    0.000 
#    0.000    0.000    0.000    0.000    0.000    0.000 
#
# Total GULP energy -89595.565230 kJ/mol
# GULP energy per Si atom -5599.722827 kJ/mol
# Density = 2.119587 g / cm^3
# Si number density = 21.244224 Si / 1000 Ang^3
#
#
#
# Elastic Constant Matrix: (Units=GPa)
#
#
# Indices 1 2 3 4 5 6 
#
# 1 116.3867 18.4836 9.1539 0.6805 20.9896 1.8494
# 2 18.4836 38.8531 17.7916 -11.9700 11.7048 1.7907
# 3 9.1539 17.7916 68.1929 5.1556 3.0548 23.7607
# 4 0.6805 -11.9700 5.1556 37.4146 11.4285 3.0745
# 5 20.9896 11.7048 3.0548 11.4285 36.8208 2.9697
# 6 1.8494 1.7907 23.7607 3.0745 2.9697 38.8707
#
#
#
# Elastic Compliance Matrix: (Units=1/GPa)
#
#
# Indices 1 2 3 4 5 6 
#
# 1 0.009966 -0.002948 -0.000485 0.000400 -0.004852 0.000297
# 2 -0.002948 0.046284 -0.014871 0.022230 -0.019248 0.006811
# 3 -0.000485 -0.014871 0.023722 -0.009017 0.006932 -0.013609
# 4 0.000400 0.022230 -0.009017 0.040784 -0.019425 0.002727
# 5 -0.004852 -0.019248 0.006932 -0.019425 0.041883 -0.004783
# 6 0.000297 0.006811 -0.013609 0.002727 -0.004783 0.033867
#
#
# Mechanical properties :
#
#
# Convention : Reuss Voigt Hill
#
# Bulk Modulus (GPa) = 23.06072 34.92122 28.99097
# Shear Modulus (GPa) = 20.19632 34.48812 27.34222
#
# Velocity S-wave (km/s) = 3.08664 4.03353 3.59143
# Velocity P-wave (km/s) = 4.85611 6.17788 5.55643
#
# Compressibility (1/GPa) = 0.04336377
#
# Stress axis : x y z
#
# Youngs Moduli (GPa) = 100.33771 21.60596 42.15419
#
# Poissons Ratio (x) = 0.06369 0.02046
# Poissons Ratio (y) = 0.29577 0.62689
# Poissons Ratio (z) = 0.04869 0.32131
#
# Static dielectric constant tensor:
#      x y z
#    x 1.829570 0.013740 -0.052150 
#    y 0.013740 1.779620 -0.024660 
#    z -0.052150 -0.024660 1.766930 
# 
# From -- ./inp_files/187527.got.cif
#   From: 2010.05.17/outbox.cif.g08.bks.cpg/sg2_94_cif.got.tgz:187527.got - 2010.06.03 11:33:40.
