data_PCOD9066556
_publ_section_title
;
Structure prediction by ZEFSAII (Michael W. Deem and Ramdas Pophale) SiO2 
 PCOD9066556
Probable space group: P -1
;
_chemical_formula_sum "Si O2"
_cell_formula_units_Z 12
_cell_length_a 14.917252
_cell_length_b 9.163594
_cell_length_c 6.319412
_cell_angle_alpha 77.791196
_cell_angle_beta 61.963863
_cell_angle_gamma 119.492012
_cell_volume 542.308334
_symmetry_space_group_name_H-M "P -1"
_symmetry_group_IT_number 2
_symmetry_cell_setting 'triclinic'
loop_
_space_group_symop_operation_xyz
x,y,z
-x,-y,-z
loop_
_atom_site_type_symbol
_atom_site_label
_atom_site_fract_x
_atom_site_fract_y
_atom_site_fract_z
Si Si1 0.941557 0.106639 0.529349
Si Si2 0.880787 0.435151 0.807501
Si Si3 0.312012 0.157966 0.786788
Si Si4 0.350884 0.777536 0.190645
Si Si5 0.558838 0.460349 0.750044
Si Si6 0.212812 0.856581 0.649099
O O1 0.850062 0.072676 0.442402
O O2 0.075944 0.349643 0.285563
O O3 0.000000 0.000000 0.500000
O O4 0.836912 0.012598 0.877237
O O5 0.728064 0.268349 0.926049
O O6 0.000000 0.500000 0.500000
O O7 0.890439 0.335586 0.024221
O O8 0.428983 0.277239 0.802871
O O9 0.339057 0.337895 0.572253
O O10 0.324788 0.044854 0.625369
O O11 0.364766 0.613758 0.242748
O O12 0.262221 0.775855 0.464701
O O13 0.500000 0.000000 0.000000
O O14 0.500000 0.500000 0.000000
#
# Coordination Sequence:
#
# PCOD9066556 Si02
#       6
#     2   2   2   2   2   2
#     4  12  28  45  72 106 147 193 241 298 363 433
#     4  12  26  47  73 108 146 189 247 295 366 432
#     4  11  25  46  71 106 146 190 242 302 364 426
#     4  12  27  46  75 107 143 193 246 301 364 433
#     4  11  26  46  73 106 148 191 242 302 362 432
#     4  12  25  48  74 102 149 188 244 306 357 432
#
# _framework density 22.127631000000001
#
# number of rings (size 3 to 8) (size 9 to 14) (size 15 to 20)
#    0.000    0.333    3.333    4.500    7.000    4.667 
#    0.000    0.000    0.000    0.000    0.000    0.000 
#    0.000    0.000    0.000    0.000    0.000    0.000 
#
# Total GULP energy -67016.855434 kJ/mol
# GULP energy per Si atom -5584.737953 kJ/mol
# Density = 2.207727 g / cm^3
# Si number density = 22.127631 Si / 1000 Ang^3
#
#
#
# Elastic Constant Matrix: (Units=GPa)
#
#
# Indices 1 2 3 4 5 6 
#
# 1 140.7296 55.9109 42.3829 10.9822 20.4880 -21.3062
# 2 55.9109 133.2704 11.2729 4.9567 10.2962 1.5574
# 3 42.3829 11.2729 89.4231 -11.6666 25.1681 -3.1572
# 4 10.9822 4.9567 -11.6666 41.1648 -2.5915 -2.1277
# 5 20.4880 10.2962 25.1681 -2.5915 26.5556 -8.6964
# 6 -21.3062 1.5574 -3.1572 -2.1277 -8.6964 54.3604
#
#
#
# Elastic Compliance Matrix: (Units=1/GPa)
#
#
# Indices 1 2 3 4 5 6 
#
# 1 0.011279 -0.004103 -0.004681 -0.003756 -0.001786 0.003834
# 2 -0.004103 0.009320 0.001406 0.000101 -0.002487 -0.002187
# 3 -0.004681 0.001406 0.017797 0.005074 -0.014264 -0.002924
# 4 -0.003756 0.000101 0.005074 0.026760 0.000651 -0.000029
# 5 -0.001786 -0.002487 -0.014264 0.000651 0.056049 0.007535
# 6 0.003834 -0.002187 -0.002924 -0.000029 0.007535 0.020995
#
#
# Mechanical properties :
#
#
# Convention : Reuss Voigt Hill
#
# Bulk Modulus (GPa) = 42.30059 64.72850 53.51454
# Shear Modulus (GPa) = 30.33305 41.33992 35.83649
#
# Velocity S-wave (km/s) = 3.70648 4.32701 4.02871
# Velocity P-wave (km/s) = 6.12172 7.36749 6.77331
#
# Compressibility (1/GPa) = 0.02364033
#
# Stress axis : x y z
#
# Youngs Moduli (GPa) = 88.65903 107.29679 56.18837
#
# Poissons Ratio (x) = 0.44025 0.26299
# Poissons Ratio (y) = 0.36378 -0.07898
# Poissons Ratio (z) = 0.41497 -0.15082
#
# Static dielectric constant tensor:
#      x y z
#    x 1.677940 0.259040 -0.058530 
#    y 0.259040 1.396510 0.109180 
#    z -0.058530 0.109180 1.743930 
# 
# From -- ./inp_files/28992.got.cif
#   From: 2010.05.17/outbox.cif.g08.bks.cpg/sg2_15_cif.got.tgz:28992.got - 2010.06.03 11:33:40.
