data_PCOD9066170
_publ_section_title
;
Structure prediction by ZEFSAII (Michael W. Deem and Ramdas Pophale) SiO2 
 PCOD9066170
Probable space group: P -1
;
_chemical_formula_sum "Si O2"
_cell_formula_units_Z 10
_cell_length_a 13.855451
_cell_length_b 5.932012
_cell_length_c 10.877462
_cell_angle_alpha 123.048534
_cell_angle_beta 32.984229
_cell_angle_gamma 129.956460
_cell_volume 373.035661
_symmetry_space_group_name_H-M "P -1"
_symmetry_group_IT_number 2
_symmetry_cell_setting 'triclinic'
loop_
_space_group_symop_operation_xyz
x,y,z
-x,-y,-z
loop_
_atom_site_type_symbol
_atom_site_label
_atom_site_fract_x
_atom_site_fract_y
_atom_site_fract_z
Si Si1 0.240011 0.261952 0.190222
Si Si2 0.500001 0.930877 0.749999
Si Si3 0.186953 0.242379 0.519135
Si Si4 0.240007 0.838522 0.690224
Si Si5 0.186956 0.356750 0.019133
O O1 0.232891 0.361699 0.366113
O O2 0.234241 0.458660 0.139510
O O3 0.036501 0.976676 0.305397
O O4 0.414997 0.160138 0.957083
O O5 0.675348 0.917532 0.639224
O O6 0.585008 0.000986 0.542914
O O7 0.324654 0.613042 0.860775
O O8 0.234234 0.523079 0.639516
O O9 0.036499 0.743620 0.805397
O O10 0.232891 0.069198 0.866112
#
# Coordination Sequence:
#
# PCOD9066170 Si02
#       5
#     2   2   2   2   2
#     4  11  25  45  70 101 136 177 224 277 333 397
#     4  12  24  44  72 102 130 180 222 278 330 404
#     4  11  25  45  70 101 136 177 224 277 333 397
#     4  11  25  45  70 101 136 177 224 277 333 397
#     4  11  25  45  70 101 136 177 224 277 333 397
#
# _framework density 26.807088
#
# number of rings (size 3 to 8) (size 9 to 14) (size 15 to 20)
#    0.000    0.800    4.000    2.400    0.000   11.200 
#    0.000    0.000    0.000    0.000    0.000    0.000 
#    0.000    0.000    0.000    0.000    0.000    0.000 
#
# Total GULP energy -56161.193337 kJ/mol
# GULP energy per Si atom -5616.119334 kJ/mol
# Density = 2.674607 g / cm^3
# Si number density = 26.807088 Si / 1000 Ang^3
#
#
#
# Elastic Constant Matrix: (Units=GPa)
#
#
# Indices 1 2 3 4 5 6 
#
# 1 99.5330 -3.4027 29.2973 1.4203 -2.3588 0.3645
# 2 -3.4027 93.3704 28.6327 0.3151 -1.0469 12.1555
# 3 29.2973 28.6327 157.5732 -13.6745 -18.1576 -2.0480
# 4 1.4203 0.3151 -13.6745 54.8347 -0.4498 -1.4176
# 5 -2.3588 -1.0469 -18.1576 -0.4498 56.2798 1.0569
# 6 0.3645 12.1555 -2.0480 -1.4176 1.0569 26.2252
#
#
#
# Elastic Compliance Matrix: (Units=1/GPa)
#
#
# Indices 1 2 3 4 5 6 
#
# 1 0.010792 0.001238 -0.002353 -0.000900 -0.000273 -0.000945
# 2 0.001238 0.012357 -0.002690 -0.000933 -0.000481 -0.005986
# 3 -0.002353 -0.002690 0.007746 0.002076 0.002331 0.001903
# 4 -0.000900 -0.000933 0.002076 0.018830 0.000735 0.001595
# 5 -0.000273 -0.000481 0.002331 0.000735 0.018512 -0.000297
# 6 -0.000945 -0.005986 0.001903 0.001595 -0.000297 0.041166
#
#
# Mechanical properties :
#
#
# Convention : Reuss Voigt Hill
#
# Bulk Modulus (GPa) = 42.94667 51.05902 47.00284
# Shear Modulus (GPa) = 40.07237 47.19790 43.63514
#
# Velocity S-wave (km/s) = 3.87051 4.20056 4.03891
# Velocity P-wave (km/s) = 6.00249 6.52798 6.27074
#
# Compressibility (1/GPa) = 0.02328469
#
# Stress axis : x y z
#
# Youngs Moduli (GPa) = 92.66322 80.92582 129.09669
#
# Poissons Ratio (x) = -0.10018 0.30381
# Poissons Ratio (y) = -0.11472 0.34724
# Poissons Ratio (z) = 0.21807 0.21767
#
# Static dielectric constant tensor:
#      x y z
#    x 2.046870 -0.019520 -0.020830 
#    y -0.019520 2.053700 -0.020130 
#    z -0.020830 -0.020130 1.997340 
# 
# From -- ./inp_files/18085.got.cif
#   From: 2010.05.17/outbox.cif.g08.bks.cpg/sg2_10_cif.got.tgz:18085.got - 2010.06.03 11:33:40.
