data_PCOD9066487
_publ_section_title
;
Structure prediction by ZEFSAII (Michael W. Deem and Ramdas Pophale) SiO2 
 PCOD9066487
Probable space group: P -1
;
_chemical_formula_sum "Si O2"
_cell_formula_units_Z 16
_cell_length_a 9.301318
_cell_length_b 9.374375
_cell_length_c 15.070010
_cell_angle_alpha 81.440363
_cell_angle_beta 50.288962
_cell_angle_gamma 113.916768
_cell_volume 752.750179
_symmetry_space_group_name_H-M "P -1"
_symmetry_group_IT_number 2
_symmetry_cell_setting 'triclinic'
loop_
_space_group_symop_operation_xyz
x,y,z
-x,-y,-z
loop_
_atom_site_type_symbol
_atom_site_label
_atom_site_fract_x
_atom_site_fract_y
_atom_site_fract_z
Si Si1 0.751404 0.959046 0.627392
Si Si2 0.241725 0.714585 0.409471
Si Si3 0.460459 0.818514 0.573207
Si Si4 0.080511 0.493897 0.663849
Si Si5 0.388189 0.568830 0.150932
Si Si6 0.276746 0.209226 0.171360
Si Si7 0.726333 0.808418 0.156097
Si Si8 0.815371 0.787553 0.326708
O O1 0.569753 0.873833 0.623743
O O2 0.636595 0.836070 0.773224
O O3 0.830912 0.161736 0.594967
O O4 0.000000 0.000000 0.500000
O O5 0.246464 0.672814 0.514210
O O6 0.515932 0.823499 0.254347
O O7 0.000000 0.500000 0.500000
O O8 0.176942 0.616958 0.704790
O O9 0.609136 0.764459 0.468926
O O10 0.500000 0.000000 0.500000
O O11 0.132844 0.350925 0.652252
O O12 0.797826 0.392372 0.765291
O O13 0.225888 0.342162 0.220204
O O14 0.584962 0.650479 0.146674
O O15 0.529745 0.671238 0.994566
O O16 0.050975 0.008632 0.234536
O O17 0.756606 0.754625 0.247267
O O18 0.000000 0.000000 0.000000
#
# Coordination Sequence:
#
# PCOD9066487 Si02
#       8
#     2   2   2   2   2   2   2   2
#     4  12  25  42  73 103 139 183 236 294 354 414
#     4  12  25  42  71 104 139 182 236 287 345 427
#     4  12  24  44  66 103 141 179 223 292 351 411
#     4  12  25  42  68 105 137 180 232 295 351 410
#     4  11  26  47  72  94 142 189 233 286 354 424
#     4  11  25  46  69  99 135 184 238 277 349 424
#     4  12  26  45  71 105 141 187 229 293 358 412
#     4  12  25  42  72 103 140 176 234 291 346 421
#
# _framework density 21.255392000000001
#
# number of rings (size 3 to 8) (size 9 to 14) (size 15 to 20)
#    0.000    0.250    6.250    2.625    1.750    1.500 
#    0.000    0.625    0.000    0.000    0.000    0.000 
#    0.000    0.000    0.000    0.000    0.000    0.000 
#
# Total GULP energy -89245.076377 kJ/mol
# GULP energy per Si atom -5577.817274 kJ/mol
# Density = 2.120701 g / cm^3
# Si number density = 21.255392 Si / 1000 Ang^3
#
#
#
# Elastic Constant Matrix: (Units=GPa)
#
#
# Indices 1 2 3 4 5 6 
#
# 1 137.9756 67.4754 31.6587 0.0936 12.0329 7.8653
# 2 67.4754 137.4551 29.4878 -10.1924 0.0379 -10.6644
# 3 31.6587 29.4878 76.3540 6.4562 1.4707 -2.4473
# 4 0.0936 -10.1924 6.4562 28.2183 7.2578 -3.1223
# 5 12.0329 0.0379 1.4707 7.2578 45.0017 3.1955
# 6 7.8653 -10.6644 -2.4473 -3.1223 3.1955 51.5094
#
#
#
# Elastic Compliance Matrix: (Units=1/GPa)
#
#
# Indices 1 2 3 4 5 6 
#
# 1 0.010592 -0.004952 -0.002438 -0.000942 -0.002407 -0.002666
# 2 -0.004952 0.010822 -0.002433 0.004724 0.000410 0.003142
# 3 -0.002438 -0.002433 0.015428 -0.004595 0.000872 0.000269
# 4 -0.000942 0.004724 -0.004595 0.040248 -0.006358 0.003738
# 5 -0.002407 0.000410 0.000872 -0.006358 0.023959 -0.001378
# 6 -0.002666 0.003142 0.000269 0.003738 -0.001378 0.020796
#
#
# Mechanical properties :
#
#
# Convention : Reuss Voigt Hill
#
# Bulk Modulus (GPa) = 58.15822 67.66984 62.91403
# Shear Modulus (GPa) = 33.96203 39.82342 36.89273
#
# Velocity S-wave (km/s) = 4.00160 4.33317 4.17068
# Velocity P-wave (km/s) = 6.98365 7.54591 7.27022
#
# Compressibility (1/GPa) = 0.01719447
#
# Stress axis : x y z
#
# Youngs Moduli (GPa) = 94.41502 92.40476 64.81798
#
# Poissons Ratio (x) = 0.45761 0.15806
# Poissons Ratio (y) = 0.46756 0.15768
# Poissons Ratio (z) = 0.23023 0.22479
#
# Static dielectric constant tensor:
#      x y z
#    x 1.947700 0.124570 0.079890 
#    y 0.124570 1.911510 -0.002280 
#    z 0.079890 -0.002280 1.911540 
# 
# From -- ./inp_files/494815.got.cif
#   From: 2010.05.17/outbox.cif.g08.bks.cpg/sg2_248_cif.got.tgz:494815.got - 2010.06.03 11:33:40.
