data_PCOD9066272
_publ_section_title
;
Structure prediction by ZEFSAII (Michael W. Deem and Ramdas Pophale) SiO2 
 PCOD9066272
Probable space group: P -1
;
_chemical_formula_sum "Si O2"
_cell_formula_units_Z 13
_cell_length_a 8.329010
_cell_length_b 10.279770
_cell_length_c 16.016151
_cell_angle_alpha 128.333612
_cell_angle_beta 28.984279
_cell_angle_gamma 119.472672
_cell_volume 516.608016
_symmetry_space_group_name_H-M "P -1"
_symmetry_group_IT_number 2
_symmetry_cell_setting 'triclinic'
loop_
_space_group_symop_operation_xyz
x,y,z
-x,-y,-z
loop_
_atom_site_type_symbol
_atom_site_label
_atom_site_fract_x
_atom_site_fract_y
_atom_site_fract_z
Si Si1 0.461887 0.169305 0.137224
Si Si2 0.309802 0.987970 0.454684
Si Si3 0.750937 0.345212 0.721453
Si Si4 0.874152 0.774658 0.224824
Si Si5 0.310524 0.854713 0.793815
Si Si6 0.007656 0.521261 0.834354
Si Si7 0.000000 0.500000 0.500000
O O1 0.485100 0.128567 0.208124
O O2 0.144681 0.306440 0.322869
O O3 0.792511 0.252004 0.992849
O O4 0.500000 0.000000 0.000000
O O5 0.188510 0.854604 0.393574
O O6 0.574949 0.866849 0.342830
O O7 0.078075 0.098750 0.669992
O O8 0.508548 0.111127 0.360109
O O9 0.925916 0.413365 0.749062
O O10 0.889259 0.422463 0.607218
O O11 0.353648 0.402137 0.934723
O O12 0.804371 0.601681 0.230401
O O13 0.200975 0.671017 0.776618
O O14 0.000000 0.000000 0.000000
#
# Coordination Sequence:
#
# PCOD9066272 Si02
#       7
#     2   2   2   2   2   2   1
#     4  12  28  48  76 109 154 201 253 316 375 451
#     4  11  26  47  77 107 150 198 246 307 380 461
#     4  11  25  45  73 104 146 189 249 303 368 446
#     4  11  25  47  73 108 150 195 248 307 381 443
#     4  12  26  48  77 110 151 196 250 313 386 444
#     4  11  26  46  75 107 148 193 240 313 372 446
#     4  12  28  46  74 114 148 200 256 314 370 450
#
# _framework density 25.164147
#
# number of rings (size 3 to 8) (size 9 to 14) (size 15 to 20)
#    0.000    0.615    4.615    0.923    8.615    4.923 
#    0.000    0.000    0.000    0.000    0.000    0.000 
#    0.000    0.000    0.000    0.000    0.000    0.000 
#
# Total GULP energy -72686.224159 kJ/mol
# GULP energy per Si atom -5591.248012 kJ/mol
# Density = 2.510687 g / cm^3
# Si number density = 25.164147 Si / 1000 Ang^3
#
#
#
# Elastic Constant Matrix: (Units=GPa)
#
#
# Indices 1 2 3 4 5 6 
#
# 1 69.4228 61.9538 32.5995 13.0486 14.5470 0.3424
# 2 61.9538 201.8566 55.3433 17.5627 4.6600 -33.7956
# 3 32.5995 55.3433 141.2941 7.1995 23.2550 -12.1441
# 4 13.0486 17.5627 7.1995 57.8011 -2.4083 19.0533
# 5 14.5470 4.6600 23.2550 -2.4083 35.3210 8.0974
# 6 0.3424 -33.7956 -12.1441 19.0533 8.0974 40.0566
#
#
#
# Elastic Compliance Matrix: (Units=1/GPa)
#
#
# Indices 1 2 3 4 5 6 
#
# 1 0.023340 -0.007170 -0.001841 -0.001564 -0.006472 -0.004754
# 2 -0.007170 0.009460 -0.000932 -0.004418 -0.000256 0.009913
# 3 -0.001841 -0.000932 0.009434 -0.002217 -0.006503 0.004459
# 4 -0.001564 -0.004418 -0.002217 0.025681 0.008644 -0.018349
# 5 -0.006472 -0.000256 -0.006503 0.008644 0.039127 -0.014153
# 6 -0.004754 0.009913 0.004459 -0.018349 -0.014153 0.046310
#
#
# Mechanical properties :
#
#
# Convention : Reuss Voigt Hill
#
# Bulk Modulus (GPa) = 44.74307 79.15185 61.94746
# Shear Modulus (GPa) = 27.67226 44.14754 35.90990
#
# Velocity S-wave (km/s) = 3.31973 4.19308 3.78170
# Velocity P-wave (km/s) = 5.70203 7.41384 6.61356
#
# Compressibility (1/GPa) = 0.02234983
#
# Stress axis : x y z
#
# Youngs Moduli (GPa) = 42.84400 105.70773 106.00282
#
# Poissons Ratio (x) = 0.75787 0.19512
# Poissons Ratio (y) = 0.30717 0.09879
# Poissons Ratio (z) = 0.07886 0.09852
#
# Static dielectric constant tensor:
#      x y z
#    x 2.037160 0.045750 -0.045600 
#    y 0.045750 1.976450 0.001350 
#    z -0.045600 0.001350 1.947300 
# 
# From -- ./inp_files/155070.got.cif
#   From: 2010.05.17/outbox.cif.g08.bks.cpg/sg2_78_cif.got.tgz:155070.got - 2010.06.03 11:33:40.
