data_PCOD9066731
_publ_section_title
;
Structure prediction by ZEFSAII (Michael W. Deem and Ramdas Pophale) SiO2 
 PCOD9066731
Probable space group: P -1
;
_chemical_formula_sum "Si O2"
_cell_formula_units_Z 16
_cell_length_a 9.303720
_cell_length_b 24.216928
_cell_length_c 18.409346
_cell_angle_alpha 23.664410
_cell_angle_beta 45.446578
_cell_angle_gamma 30.753144
_cell_volume 773.829603
_symmetry_space_group_name_H-M "P -1"
_symmetry_group_IT_number 2
_symmetry_cell_setting 'triclinic'
loop_
_space_group_symop_operation_xyz
x,y,z
-x,-y,-z
loop_
_atom_site_type_symbol
_atom_site_label
_atom_site_fract_x
_atom_site_fract_y
_atom_site_fract_z
Si Si1 0.171507 0.408736 0.885435
Si Si2 0.155790 0.711803 0.839714
Si Si3 0.279933 0.414726 0.557697
Si Si4 0.736283 0.164261 0.490157
Si Si5 0.099454 0.343570 0.459688
Si Si6 0.466823 0.536284 0.241403
Si Si7 0.223260 0.043239 0.027572
Si Si8 0.221070 0.012435 0.897475
O O1 0.317471 0.441689 0.851023
O O2 0.964616 0.596649 0.673661
O O3 0.007810 0.351973 0.036415
O O4 0.454524 0.208583 0.978554
O O5 0.163253 0.790059 0.667077
O O6 0.500000 0.500000 0.000000
O O7 0.981670 0.910939 0.715609
O O8 0.362533 0.525271 0.368860
O O9 0.000000 0.500000 0.500000
O O10 0.144762 0.470291 0.619673
O O11 0.622482 0.171927 0.733992
O O12 0.423211 0.246615 0.481015
O O13 0.640339 0.321901 0.397030
O O14 0.110665 0.179231 0.676719
O O15 0.127724 0.748894 0.072077
O O16 0.234688 0.057896 0.919246
O O17 0.500000 0.000000 0.000000
O O18 0.000000 0.000000 0.000000
#
# Coordination Sequence:
#
# PCOD9066731 Si02
#       8
#     2   2   2   2   2   2   2   2
#     4  12  26  43  72 102 142 182 234 287 351 404
#     4  11  25  49  77 101 122 182 241 292 355 418
#     4  12  22  38  63 101 144 184 232 272 330 415
#     4  11  25  46  74  98 134 172 240 295 345 419
#     4  12  22  41  70  97 137 190 229 279 337 416
#     4  12  27  43  64 108 142 182 225 292 347 405
#     4  12  23  38  63  94 143 187 227 270 329 405
#     4  12  24  41  63 101 146 188 224 271 339 420
#
# _framework density 20.676386999999998
#
# number of rings (size 3 to 8) (size 9 to 14) (size 15 to 20)
#    0.000    0.250    8.750    0.000    1.750    2.500 
#    0.000    0.625    0.000    0.000    0.000    0.000 
#    0.000    0.000    0.000    0.000    0.000    0.000 
#
# Total GULP energy -89162.436473 kJ/mol
# GULP energy per Si atom -5572.652280 kJ/mol
# Density = 2.062933 g / cm^3
# Si number density = 20.676387 Si / 1000 Ang^3
#
#
#
# Elastic Constant Matrix: (Units=GPa)
#
#
# Indices 1 2 3 4 5 6 
#
# 1 63.4579 41.9987 37.7561 -13.7736 -16.3279 -15.0142
# 2 41.9987 98.8909 47.5072 -3.3867 -14.3132 -23.9985
# 3 37.7561 47.5072 146.1740 -3.8176 -5.4920 -21.6642
# 4 -13.7736 -3.3867 -3.8176 53.8833 -3.8313 -10.0421
# 5 -16.3279 -14.3132 -5.4920 -3.8313 26.4297 10.7628
# 6 -15.0142 -23.9985 -21.6642 -10.0421 10.7628 30.2092
#
#
#
# Elastic Compliance Matrix: (Units=1/GPa)
#
#
# Indices 1 2 3 4 5 6 
#
# 1 0.028889 -0.007355 -0.003777 0.008311 0.012627 0.004071
# 2 -0.007355 0.016265 -0.002229 0.000445 0.000800 0.007530
# 3 -0.003777 -0.002229 0.009012 0.000045 -0.003291 0.004002
# 4 0.008311 0.000445 0.000045 0.023002 0.004406 0.010593
# 5 0.012627 0.000800 -0.003291 0.004406 0.050970 -0.012144
# 6 0.004071 0.007530 0.004002 0.010593 -0.012144 0.051826
#
#
# Mechanical properties :
#
#
# Convention : Reuss Voigt Hill
#
# Bulk Modulus (GPa) = 36.43596 62.56075 49.49836
# Shear Modulus (GPa) = 23.16612 34.18852 28.67732
#
# Velocity S-wave (km/s) = 3.35089 4.07074 3.72823
# Velocity P-wave (km/s) = 5.71240 7.23999 6.52108
#
# Compressibility (1/GPa) = 0.02744541
#
# Stress axis : x y z
#
# Youngs Moduli (GPa) = 34.61486 61.48303 110.96606
#
# Poissons Ratio (x) = 0.45218 0.41910
# Poissons Ratio (y) = 0.25458 0.24731
# Poissons Ratio (z) = 0.13073 0.13703
#
# Static dielectric constant tensor:
#      x y z
#    x 1.625890 0.048980 0.192250 
#    y 0.048980 1.734550 -0.110050 
#    z 0.192250 -0.110050 1.609520 
# 
# From -- ./inp_files/592115.got.cif
#   From: 2010.05.17/outbox.cif.g08.bks.cpg/sg2_297_cif.got.tgz:592115.got - 2010.06.03 11:33:40.
