data_PCOD9066321
_publ_section_title
;
Structure prediction by ZEFSAII (Michael W. Deem and Ramdas Pophale) SiO2 
 PCOD9066321
Probable space group: P -1
;
_chemical_formula_sum "Si O2"
_cell_formula_units_Z 10
_cell_length_a 12.009979
_cell_length_b 12.572552
_cell_length_c 12.123946
_cell_angle_alpha 145.359293
_cell_angle_beta 157.113055
_cell_angle_gamma 35.716494
_cell_volume 392.467748
_symmetry_space_group_name_H-M "P -1"
_symmetry_group_IT_number 2
_symmetry_cell_setting 'triclinic'
loop_
_space_group_symop_operation_xyz
x,y,z
-x,-y,-z
loop_
_atom_site_type_symbol
_atom_site_label
_atom_site_fract_x
_atom_site_fract_y
_atom_site_fract_z
Si Si1 0.310745 0.037516 0.020593
Si Si2 0.343435 0.151228 0.395668
Si Si3 0.766851 0.272354 0.604750
Si Si4 0.269527 0.585847 0.958102
Si Si5 0.780326 0.643888 0.077238
O O1 0.303030 0.056429 0.161504
O O2 0.470086 0.201441 0.262645
O O3 0.988129 0.100220 0.727523
O O4 0.509901 0.830733 0.994474
O O5 0.019505 0.273712 0.237806
O O6 0.500000 0.000000 0.500000
O O7 0.557029 0.295263 0.704829
O O8 0.276798 0.530438 0.198315
O O9 0.939628 0.301118 0.676382
O O10 0.500000 0.500000 0.000000
O O11 0.168315 0.435929 0.818815
#
# Coordination Sequence:
#
# PCOD9066321 Si02
#       5
#     2   2   2   2   2
#     4  12  24  46  70 105 143 183 233 286 354 416
#     4  12  25  46  69 103 143 183 236 297 348 422
#     4  11  26  45  69 107 145 180 237 281 349 427
#     4  12  26  47  70 104 140 185 239 290 354 420
#     4  11  25  45  74 103 142 189 227 293 348 415
#
# _framework density 25.479797999999999
#
# number of rings (size 3 to 8) (size 9 to 14) (size 15 to 20)
#    0.000    0.400    4.000    3.600    0.000    9.600 
#    0.000    0.000    0.000    0.000    0.000    0.000 
#    0.000    0.000    0.000    0.000    0.000    0.000 
#
# Total GULP energy -56171.617287 kJ/mol
# GULP energy per Si atom -5617.161729 kJ/mol
# Density = 2.542181 g / cm^3
# Si number density = 25.479798 Si / 1000 Ang^3
#
#
#
# Elastic Constant Matrix: (Units=GPa)
#
#
# Indices 1 2 3 4 5 6 
#
# 1 188.8252 77.8128 9.8484 -18.8097 -1.0291 14.3305
# 2 77.8128 158.8885 18.0053 -23.7128 -1.2027 -22.5952
# 3 9.8484 18.0053 79.8064 -21.7377 -0.4259 -4.6858
# 4 -18.8097 -23.7128 -21.7377 42.7522 -7.3335 -0.7951
# 5 -1.0291 -1.2027 -0.4259 -7.3335 27.1619 -8.4909
# 6 14.3305 -22.5952 -4.6858 -0.7951 -8.4909 39.0725
#
#
#
# Elastic Compliance Matrix: (Units=1/GPa)
#
#
# Indices 1 2 3 4 5 6 
#
# 1 0.007619 -0.004482 -0.000166 0.000400 -0.001600 -0.005745
# 2 -0.004482 0.010469 0.000019 0.004746 0.004305 0.008732
# 3 -0.000166 0.000019 0.014946 0.008152 0.003288 0.002745
# 4 0.000400 0.004746 0.008152 0.032386 0.011180 0.006664
# 5 -0.001600 0.004305 0.003288 0.011180 0.044173 0.013298
# 6 -0.005745 0.008732 0.002745 0.006664 0.013298 0.036105
#
#
# Mechanical properties :
#
#
# Convention : Reuss Voigt Hill
#
# Bulk Modulus (GPa) = 42.05754 70.98365 56.52060
# Shear Modulus (GPa) = 30.69766 43.25422 36.97594
#
# Velocity S-wave (km/s) = 3.47477 4.12465 3.81358
# Velocity P-wave (km/s) = 5.71321 7.11357 6.45150
#
# Compressibility (1/GPa) = 0.02377695
#
# Stress axis : x y z
#
# Youngs Moduli (GPa) = 131.25741 95.52040 66.90954
#
# Poissons Ratio (x) = 0.42809 0.01110
# Poissons Ratio (y) = 0.58825 -0.00130
# Poissons Ratio (z) = 0.02177 -0.00186
#
# Static dielectric constant tensor:
#      x y z
#    x 2.026600 0.026240 -0.028260 
#    y 0.026240 1.996750 0.030320 
#    z -0.028260 0.030320 1.964680 
# 
# From -- ./inp_files/162764.got.cif
#   From: 2010.05.17/outbox.cif.g08.bks.cpg/sg2_82_cif.got.tgz:162764.got - 2010.06.03 11:33:40.
