data_PCOD9066240
_publ_section_title
;
Structure prediction by ZEFSAII (Michael W. Deem and Ramdas Pophale) SiO2 
 PCOD9066240
Probable space group: P -1
;
_chemical_formula_sum "Si O2"
_cell_formula_units_Z 14
_cell_length_a 12.840761
_cell_length_b 11.343599
_cell_length_c 6.879615
_cell_angle_alpha 107.173224
_cell_angle_beta 58.351403
_cell_angle_gamma 131.140943
_cell_volume 640.480501
_symmetry_space_group_name_H-M "P -1"
_symmetry_group_IT_number 2
_symmetry_cell_setting 'triclinic'
loop_
_space_group_symop_operation_xyz
x,y,z
-x,-y,-z
loop_
_atom_site_type_symbol
_atom_site_label
_atom_site_fract_x
_atom_site_fract_y
_atom_site_fract_z
Si Si1 0.447261 0.233569 0.968516
Si Si2 0.246847 0.899850 0.204815
Si Si3 0.387659 0.536639 0.720048
Si Si4 0.046718 0.952909 0.621109
Si Si5 0.637227 0.144981 0.560391
Si Si6 0.182633 0.641067 0.850590
Si Si7 0.225182 0.216188 0.880073
O O1 0.586375 0.242972 0.745991
O O2 0.374187 0.267844 0.883732
O O3 0.510478 0.345592 0.146083
O O4 0.318341 0.054341 0.081428
O O5 0.089472 0.848455 0.436264
O O6 0.350066 0.936330 0.308133
O O7 0.231139 0.767579 0.031918
O O8 0.500000 0.500000 0.500000
O O9 0.301779 0.597425 0.723276
O O10 0.245689 0.365883 0.854650
O O11 0.188073 0.102706 0.679434
O O12 0.000000 0.000000 0.500000
O O13 0.911268 0.869347 0.870078
O O14 0.784113 0.264064 0.336670
O O15 0.500000 0.000000 0.500000
O O16 0.000000 0.500000 0.000000
#
# Coordination Sequence:
#
# PCOD9066240 Si02
#       7
#     2   2   2   2   2   2   2
#     4  12  23  47  75 106 139 190 249 306 359 438
#     4  12  25  45  74 106 142 186 250 297 363 438
#     4  12  27  48  74 105 150 194 249 304 367 442
#     4  11  25  45  72 105 144 193 240 301 363 440
#     4  12  24  45  76 103 142 189 241 302 364 430
#     4  12  30  47  72 110 152 195 242 309 373 435
#     4  11  26  44  73 105 144 190 243 296 374 434
#
# _framework density 21.85859
#
# number of rings (size 3 to 8) (size 9 to 14) (size 15 to 20)
#    0.000    0.286    4.286    4.286    4.000    1.714 
#    0.000    0.000    0.000    0.000    0.000    0.000 
#    0.000    0.000    0.000    0.000    0.000    0.000 
#
# Total GULP energy -78208.949068 kJ/mol
# GULP energy per Si atom -5586.353505 kJ/mol
# Density = 2.180884 g / cm^3
# Si number density = 21.858590 Si / 1000 Ang^3
#
#
#
# Elastic Constant Matrix: (Units=GPa)
#
#
# Indices 1 2 3 4 5 6 
#
# 1 62.5569 1.3398 20.0294 20.7726 -1.4469 -8.9482
# 2 1.3398 78.6375 34.8611 3.8400 -0.0853 -7.7605
# 3 20.0294 34.8611 127.6033 10.6705 -7.5598 -3.1257
# 4 20.7726 3.8400 10.6705 37.9338 -6.4812 -2.2782
# 5 -1.4469 -0.0853 -7.5598 -6.4812 39.7962 -0.8331
# 6 -8.9482 -7.7605 -3.1257 -2.2782 -0.8331 29.8364
#
#
#
# Elastic Compliance Matrix: (Units=1/GPa)
#
#
# Indices 1 2 3 4 5 6 
#
# 1 0.021302 0.002034 -0.002929 -0.010949 -0.001441 0.005735
# 2 0.002034 0.015027 -0.004266 -0.001342 -0.000840 0.003946
# 3 -0.002929 -0.004266 0.009570 -0.000440 0.001610 -0.000974
# 4 -0.010949 -0.001342 -0.000440 0.033400 0.004934 -0.000991
# 5 -0.001441 -0.000840 0.001610 0.004934 0.026196 0.000626
# 6 0.005735 0.003946 -0.000974 -0.000991 0.000626 0.036102
#
#
# Mechanical properties :
#
#
# Convention : Reuss Voigt Hill
#
# Bulk Modulus (GPa) = 28.10602 42.36205 35.23404
# Shear Modulus (GPa) = 30.52907 35.68445 33.10676
#
# Velocity S-wave (km/s) = 3.74125 4.04482 3.89599
# Velocity P-wave (km/s) = 5.61682 6.42154 6.03261
#
# Compressibility (1/GPa) = 0.03557956
#
# Stress axis : x y z
#
# Youngs Moduli (GPa) = 46.94320 66.54712 104.49108
#
# Poissons Ratio (x) = -0.13539 0.30604
# Poissons Ratio (y) = -0.09551 0.44572
# Poissons Ratio (z) = 0.13749 0.28386
#
# Static dielectric constant tensor:
#      x y z
#    x 1.925630 0.005080 -0.040670 
#    y 0.005080 1.787260 -0.034020 
#    z -0.040670 -0.034020 1.786710 
# 
# From -- ./inp_files/70072.got.cif
#   From: 2010.05.17/outbox.cif.g08.bks.cpg/sg2_36_cif.got.tgz:70072.got - 2010.06.03 11:33:40.
