data_PCOD9066775
_publ_section_title
;
Structure prediction by ZEFSAII (Michael W. Deem and Ramdas Pophale) SiO2 
 PCOD9066775
Probable space group: P -1
;
_chemical_formula_sum "Si O2"
_cell_formula_units_Z 13
_cell_length_a 9.999978
_cell_length_b 15.302724
_cell_length_c 12.071014
_cell_angle_alpha 27.805741
_cell_angle_beta 129.365675
_cell_angle_gamma 143.538123
_cell_volume 491.864502
_symmetry_space_group_name_H-M "P -1"
_symmetry_group_IT_number 2
_symmetry_cell_setting 'triclinic'
loop_
_space_group_symop_operation_xyz
x,y,z
-x,-y,-z
loop_
_atom_site_type_symbol
_atom_site_label
_atom_site_fract_x
_atom_site_fract_y
_atom_site_fract_z
Si Si1 0.500000 0.000000 0.000000
Si Si2 0.730292 0.629223 0.238886
Si Si3 0.248836 0.214553 0.332164
Si Si4 0.707618 0.145917 0.358912
Si Si5 0.996105 0.191836 0.036610
Si Si6 0.516087 0.812155 0.999372
Si Si7 0.159688 0.351674 0.478973
O O1 0.231798 0.865070 0.979781
O O2 0.432333 0.982824 0.118793
O O3 0.459844 0.408840 0.307549
O O4 0.733122 0.858324 0.006693
O O5 0.790462 0.578924 0.443487
O O6 0.883626 0.671131 0.170231
O O7 0.196912 0.331590 0.079563
O O8 0.308074 0.066685 0.468229
O O9 0.000000 0.000000 0.500000
O O10 0.951685 0.325604 0.350215
O O11 0.500000 0.000000 0.500000
O O12 0.660597 0.259115 0.110214
O O13 0.908691 0.912413 0.285278
O O14 0.392998 0.580013 0.280948
#
# Coordination Sequence:
#
# PCOD9066775 Si02
#       7
#     1   2   2   2   2   2   2
#     4  12  28  42  74 110 152 188 252 314 370 436
#     4  12  25  47  81 105 147 201 253 305 373 451
#     4  11  25  47  77 106 151 197 248 303 384 448
#     4  11  26  47  74 108 153 192 246 310 370 442
#     4  11  25  48  73 110 150 198 248 309 375 445
#     4  12  26  44  75 105 151 191 254 298 381 438
#     4  11  25  46  76 106 146 200 244 303 376 447
#
# _framework density 26.430043999999999
#
# number of rings (size 3 to 8) (size 9 to 14) (size 15 to 20)
#    0.000    0.615    1.538    6.462    6.462    2.462 
#    0.000    1.538    0.000    0.000    0.000    0.000 
#    0.000    0.000    0.000    0.000    0.000    0.000 
#
# Total GULP energy -72713.142378 kJ/mol
# GULP energy per Si atom -5593.318644 kJ/mol
# Density = 2.636989 g / cm^3
# Si number density = 26.430044 Si / 1000 Ang^3
#
#
#
# Elastic Constant Matrix: (Units=GPa)
#
#
# Indices 1 2 3 4 5 6 
#
# 1 181.7849 21.4227 27.9136 18.9157 -10.6942 6.3588
# 2 21.4227 165.5301 45.8240 41.6275 -4.4884 -19.2592
# 3 27.9136 45.8240 78.5581 27.4842 -11.7262 -4.0447
# 4 18.9157 41.6275 27.4842 52.6035 -1.6889 -6.8853
# 5 -10.6942 -4.4884 -11.7262 -1.6889 42.9435 8.6939
# 6 6.3588 -19.2592 -4.0447 -6.8853 8.6939 47.4341
#
#
#
# Elastic Compliance Matrix: (Units=1/GPa)
#
#
# Indices 1 2 3 4 5 6 
#
# 1 0.006016 -0.000154 -0.001417 -0.001447 0.001331 -0.001444
# 2 -0.000154 0.008388 -0.003211 -0.004585 -0.000750 0.002625
# 3 -0.001417 -0.003211 0.017880 -0.006324 0.004204 -0.001277
# 4 -0.001447 -0.004585 -0.006324 0.026665 -0.001926 0.002017
# 5 0.001331 -0.000750 0.004204 -0.001926 0.025645 -0.005104
# 6 -0.001444 0.002625 -0.001277 0.002017 -0.005104 0.023460
#
#
# Mechanical properties :
#
#
# Convention : Reuss Voigt Hill
#
# Bulk Modulus (GPa) = 44.01404 68.46598 56.24001
# Shear Modulus (GPa) = 39.93854 50.64375 45.29114
#
# Velocity S-wave (km/s) = 3.89151 4.38213 4.14408
# Velocity P-wave (km/s) = 6.07297 7.18087 6.65003
#
# Compressibility (1/GPa) = 0.02272002
#
# Stress axis : x y z
#
# Youngs Moduli (GPa) = 166.21909 119.21564 55.92863
#
# Poissons Ratio (x) = 0.01839 0.07926
# Poissons Ratio (y) = 0.02565 0.17957
# Poissons Ratio (z) = 0.23556 0.38276
#
# Static dielectric constant tensor:
#      x y z
#    x 2.077260 -0.045250 0.085280 
#    y -0.045250 2.153800 -0.052040 
#    z 0.085280 -0.052040 2.169250 
# 
# From -- ./inp_files/184446.got.cif
#   From: 2010.05.17/outbox.cif.g08.bks.cpg/sg2_93_cif.got.tgz:184446.got - 2010.06.03 11:33:40.
