data_PCOD9066604
_publ_section_title
;
Structure prediction by ZEFSAII (Michael W. Deem and Ramdas Pophale) SiO2 
 PCOD9066604
Probable space group: P -1
;
_chemical_formula_sum "Si O2"
_cell_formula_units_Z 14
_cell_length_a 8.183456
_cell_length_b 5.218671
_cell_length_c 15.058740
_cell_angle_alpha 90.841857
_cell_angle_beta 74.760672
_cell_angle_gamma 85.308378
_cell_volume 617.978708
_symmetry_space_group_name_H-M "P -1"
_symmetry_group_IT_number 2
_symmetry_cell_setting 'triclinic'
loop_
_space_group_symop_operation_xyz
x,y,z
-x,-y,-z
loop_
_atom_site_type_symbol
_atom_site_label
_atom_site_fract_x
_atom_site_fract_y
_atom_site_fract_z
Si Si1 0.778308 0.405563 0.284964
Si Si2 0.890711 0.892602 0.375875
Si Si3 0.158407 0.540790 0.414009
Si Si4 0.632469 0.106547 0.547235
Si Si5 0.599247 0.023879 0.077324
Si Si6 0.174251 0.511300 0.922351
Si Si7 0.427404 0.191218 0.281522
O O1 0.804196 0.659888 0.339128
O O2 0.860527 0.439668 0.176959
O O3 0.583672 0.353674 0.290458
O O4 0.858725 0.152577 0.324567
O O5 0.083323 0.783606 0.366724
O O6 0.804298 0.955640 0.484027
O O7 0.313536 0.606223 0.456195
O O8 0.245716 0.340402 0.330796
O O9 0.000000 0.500000 0.500000
O O10 0.500000 0.000000 0.500000
O O11 0.568263 0.046091 0.653036
O O12 0.707848 0.756101 0.084405
O O13 0.724190 0.252169 0.057094
O O14 0.467209 0.102100 0.176072
O O15 0.500000 0.000000 0.000000
O O16 0.000000 0.500000 0.000000
#
# Coordination Sequence:
#
# PCOD9066604 Si02
#       7
#     2   2   2   2   2   2   2
#     4  11  25  46  72 106 142 199 242 299 365 454
#     4  12  25  43  69 104 149 190 247 297 366 421
#     4  12  27  44  66 107 150 193 249 310 356 422
#     4  12  25  43  72  97 146 198 246 289 360 439
#     4  11  26  50  79 109 149 190 243 308 376 441
#     4  11  25  50  78 111 146 184 247 313 371 444
#     4  11  26  44  73 102 146 195 249 289 364 445
#
# _framework density 22.654502999999998
#
# number of rings (size 3 to 8) (size 9 to 14) (size 15 to 20)
#    0.000    0.571    2.857    4.714    6.000    2.286 
#    2.571    0.000    0.000    0.000    0.000    0.000 
#    0.000    0.000    0.000    0.000    0.000    0.000 
#
# Total GULP energy -78288.505364 kJ/mol
# GULP energy per Si atom -5592.036097 kJ/mol
# Density = 2.260294 g / cm^3
# Si number density = 22.654503 Si / 1000 Ang^3
#
#
#
# Elastic Constant Matrix: (Units=GPa)
#
#
# Indices 1 2 3 4 5 6 
#
# 1 83.1129 47.8611 78.3381 3.2682 -1.5965 -4.4083
# 2 47.8611 161.6641 74.4626 3.0230 0.1171 -5.4501
# 3 78.3381 74.4626 207.7971 -4.9972 -9.7125 10.1801
# 4 3.2682 3.0230 -4.9972 35.2708 9.0846 0.6514
# 5 -1.5965 0.1171 -9.7125 9.0846 40.2776 8.5952
# 6 -4.4083 -5.4501 10.1801 0.6514 8.5952 54.5914
#
#
#
# Elastic Compliance Matrix: (Units=1/GPa)
#
#
# Indices 1 2 3 4 5 6 
#
# 1 0.020364 -0.002681 -0.006958 -0.002460 -0.000916 0.002848
# 2 -0.002681 0.007910 -0.001920 -0.000542 -0.000693 0.001047
# 3 -0.006958 -0.001920 0.008382 0.001539 0.001968 -0.002645
# 4 -0.002460 -0.000542 0.001539 0.030554 -0.006647 0.000142
# 5 -0.000916 -0.000693 0.001968 -0.006647 0.027793 -0.004807
# 6 0.002848 0.001047 -0.002645 0.000142 -0.004807 0.019901
#
#
# Mechanical properties :
#
#
# Convention : Reuss Voigt Hill
#
# Bulk Modulus (GPa) = 73.87054 94.87752 84.37403
# Shear Modulus (GPa) = 35.07908 42.82212 38.95060
#
# Velocity S-wave (km/s) = 3.93929 4.35239 4.15098
# Velocity P-wave (km/s) = 7.30540 8.19932 7.76523
#
# Compressibility (1/GPa) = 0.01353720
#
# Stress axis : x y z
#
# Youngs Moduli (GPa) = 49.10591 126.42295 119.30150
#
# Poissons Ratio (x) = 0.33900 0.83007
# Poissons Ratio (y) = 0.13168 0.22910
# Poissons Ratio (z) = 0.34167 0.24277
#
# Static dielectric constant tensor:
#      x y z
#    x 1.906860 0.003070 0.021610 
#    y 0.003070 1.984210 0.000940 
#    z 0.021610 0.000940 1.804460 
# 
# From -- ./inp_files/488525.got.cif
#   From: 2010.05.17/outbox.cif.g08.bks.cpg/sg2_245_cif.got.tgz:488525.got - 2010.06.03 11:33:40.
