data_PCOD9066384
_publ_section_title
;
Structure prediction by ZEFSAII (Michael W. Deem and Ramdas Pophale) SiO2 
 PCOD9066384
Probable space group: P -1
;
_chemical_formula_sum "Si O2"
_cell_formula_units_Z 14
_cell_length_a 12.098466
_cell_length_b 13.907944
_cell_length_c 14.139886
_cell_angle_alpha 159.253392
_cell_angle_beta 42.176092
_cell_angle_gamma 135.600662
_cell_volume 563.568354
_symmetry_space_group_name_H-M "P -1"
_symmetry_group_IT_number 2
_symmetry_cell_setting 'triclinic'
loop_
_space_group_symop_operation_xyz
x,y,z
-x,-y,-z
loop_
_atom_site_type_symbol
_atom_site_label
_atom_site_fract_x
_atom_site_fract_y
_atom_site_fract_z
Si Si1 0.984741 0.891888 0.748002
Si Si2 0.626837 0.251564 0.124260
Si Si3 0.685539 0.479725 0.490128
Si Si4 0.204601 0.857329 0.734000
Si Si5 0.797170 0.938174 0.409376
Si Si6 0.513706 0.796815 0.217412
Si Si7 0.846077 0.354396 0.909032
O O1 0.828687 0.721093 0.642241
O O2 0.106373 0.728595 0.587363
O O3 0.101630 0.040377 0.732555
O O4 0.915562 0.082684 0.047789
O O5 0.731101 0.337493 0.231261
O O6 0.501107 0.464823 0.365368
O O7 0.733838 0.199473 0.917702
O O8 0.500000 0.000000 0.000000
O O9 0.675459 0.325791 0.455039
O O10 0.314771 0.124318 0.873157
O O11 0.636095 0.109815 0.664775
O O12 0.765508 0.619840 0.161384
O O13 0.900271 0.130762 0.596167
O O14 0.500000 0.000000 0.500000
O O15 0.500000 0.500000 0.000000
O O16 0.000000 0.500000 0.000000
#
# Coordination Sequence:
#
# PCOD9066384 Si02
#       7
#     2   2   2   2   2   2   2
#     4  11  26  45  75 111 150 196 250 312 380 463
#     4  11  27  47  74 110 146 200 260 317 380 454
#     4  11  25  45  76 103 151 193 259 308 382 448
#     4  11  26  46  74 110 150 199 253 308 386 455
#     4  12  28  49  78 112 155 199 256 313 393 451
#     4  12  27  49  75 110 154 201 251 312 380 465
#     4  12  29  50  79 110 155 202 258 320 390 451
#
# _framework density 24.841705999999999
#
# number of rings (size 3 to 8) (size 9 to 14) (size 15 to 20)
#    0.000    0.571    1.429    4.286   16.000    1.143 
#    0.000    0.000    0.000    0.000    0.000    0.000 
#    0.000    0.000    0.000    0.000    0.000    0.000 
#
# Total GULP energy -78274.595486 kJ/mol
# GULP energy per Si atom -5591.042535 kJ/mol
# Density = 2.478516 g / cm^3
# Si number density = 24.841706 Si / 1000 Ang^3
#
#
#
# Elastic Constant Matrix: (Units=GPa)
#
#
# Indices 1 2 3 4 5 6 
#
# 1 115.5860 5.5836 12.3497 -0.5128 14.0014 -9.2472
# 2 5.5836 159.2677 33.6194 -16.4654 1.9539 -0.9900
# 3 12.3497 33.6194 93.5261 1.4274 14.8939 -7.3955
# 4 -0.5128 -16.4654 1.4274 43.4917 -4.4438 0.0613
# 5 14.0014 1.9539 14.8939 -4.4438 43.5595 -2.4355
# 6 -9.2472 -0.9900 -7.3955 0.0613 -2.4355 33.5363
#
#
#
# Elastic Compliance Matrix: (Units=1/GPa)
#
#
# Indices 1 2 3 4 5 6 
#
# 1 0.009219 -0.000184 -0.000548 -0.000218 -0.002666 0.002223
# 2 -0.000184 0.007156 -0.002776 0.002897 0.000961 -0.000387
# 3 -0.000548 -0.002776 0.012620 -0.001892 -0.004081 0.002257
# 4 -0.000218 0.002897 -0.001892 0.024463 0.003071 -0.000214
# 5 -0.002666 0.000961 -0.004081 0.003071 0.025493 0.000239
# 6 0.002223 -0.000387 0.002257 -0.000214 0.000239 0.030935
#
#
# Mechanical properties :
#
#
# Convention : Reuss Voigt Hill
#
# Bulk Modulus (GPa) = 45.49598 52.38723 48.94160
# Shear Modulus (GPa) = 40.24857 45.23931 42.74394
#
# Velocity S-wave (km/s) = 4.02954 4.27207 4.15257
# Velocity P-wave (km/s) = 6.32485 6.74302 6.53728
#
# Compressibility (1/GPa) = 0.02197996
#
# Stress axis : x y z
#
# Youngs Moduli (GPa) = 108.47519 139.73327 79.24113
#
# Poissons Ratio (x) = 0.02566 0.04340
# Poissons Ratio (y) = 0.01992 0.21998
# Poissons Ratio (z) = 0.05941 0.38792
#
# Static dielectric constant tensor:
#      x y z
#    x 2.239510 0.020000 -0.072560 
#    y 0.020000 1.945930 0.026650 
#    z -0.072560 0.026650 1.998940 
# 
# From -- ./inp_files/429187.got.cif
#   From: 2010.05.17/outbox.cif.g08.bks.cpg/sg2_215_cif.got.tgz:429187.got - 2010.06.03 11:33:40.
