data_PCOD9066639
_publ_section_title
;
Structure prediction by ZEFSAII (Michael W. Deem and Ramdas Pophale) SiO2 
 PCOD9066639
Probable space group: P -1
;
_chemical_formula_sum "Si O2"
_cell_formula_units_Z 12
_cell_length_a 9.503566
_cell_length_b 9.205416
_cell_length_c 15.301391
_cell_angle_alpha 31.960963
_cell_angle_beta 125.690876
_cell_angle_gamma 113.306321
_cell_volume 559.932809
_symmetry_space_group_name_H-M "P -1"
_symmetry_group_IT_number 2
_symmetry_cell_setting 'triclinic'
loop_
_space_group_symop_operation_xyz
x,y,z
-x,-y,-z
loop_
_atom_site_type_symbol
_atom_site_label
_atom_site_fract_x
_atom_site_fract_y
_atom_site_fract_z
Si Si1 0.345289 0.415142 0.891782
Si Si2 0.982664 0.828989 0.352040
Si Si3 0.299285 0.939309 0.716810
Si Si4 0.377357 0.779123 0.563198
Si Si5 0.130871 0.981617 0.974920
Si Si6 0.587590 0.568993 0.585442
O O1 0.247746 0.670518 0.788887
O O2 0.435370 0.561287 0.773970
O O3 0.218347 0.247418 0.884449
O O4 0.498026 0.194000 0.110692
O O5 0.164236 0.873733 0.439029
O O6 0.000000 0.500000 0.500000
O O7 0.824530 0.934429 0.310967
O O8 0.949468 0.995698 0.162839
O O9 0.313417 0.181580 0.528768
O O10 0.425204 0.646956 0.553525
O O11 0.500000 0.000000 0.500000
O O12 0.276476 0.693855 0.188959
O O13 0.000000 0.000000 0.000000
O O14 0.500000 0.500000 0.500000
#
# Coordination Sequence:
#
# PCOD9066639 Si02
#       6
#     2   2   2   2   2   2
#     4  11  25  46  73 101 148 189 236 290 365 419
#     4  12  26  45  73 106 143 184 244 296 352 418
#     4  11  25  46  73 106 141 189 235 297 353 425
#     4  12  26  47  71 104 142 189 235 294 360 425
#     4  12  26  44  71 108 143 188 242 293 353 424
#     4  12  24  43  73 105 145 186 240 289 355 425
#
# _framework density 21.431142000000001
#
# number of rings (size 3 to 8) (size 9 to 14) (size 15 to 20)
#    0.000    0.333    5.000    4.000    0.000    3.333 
#    0.000    2.500    0.000    0.000    0.000    0.000 
#    0.000    0.000    0.000    0.000    0.000    0.000 
#
# Total GULP energy -67108.821080 kJ/mol
# GULP energy per Si atom -5592.401757 kJ/mol
# Density = 2.138236 g / cm^3
# Si number density = 21.431142 Si / 1000 Ang^3
#
#
#
# Elastic Constant Matrix: (Units=GPa)
#
#
# Indices 1 2 3 4 5 6 
#
# 1 96.9249 8.6342 21.8880 -18.2223 -4.6423 -22.6984
# 2 8.6342 71.0512 30.8247 -4.3646 4.8127 -2.6753
# 3 21.8880 30.8247 114.5553 -1.2160 -14.2722 -1.4810
# 4 -18.2223 -4.3646 -1.2160 36.3549 -2.6956 -4.6668
# 5 -4.6423 4.8127 -14.2722 -2.6956 36.0530 -1.2078
# 6 -22.6984 -2.6753 -1.4810 -4.6668 -1.2078 52.1803
#
#
#
# Elastic Compliance Matrix: (Units=1/GPa)
#
#
# Indices 1 2 3 4 5 6 
#
# 1 0.013994 -0.000097 -0.002260 0.007925 0.001740 0.006767
# 2 -0.000097 0.016623 -0.004932 0.001575 -0.004042 0.000718
# 3 -0.002260 -0.004932 0.011040 -0.001130 0.004623 -0.000917
# 4 0.007925 0.001575 -0.001130 0.032687 0.003024 0.006489
# 5 0.001740 -0.004042 0.004623 0.003024 0.030612 0.001660
# 6 0.006767 0.000718 -0.000917 0.006489 0.001660 0.022738
#
#
# Mechanical properties :
#
#
# Convention : Reuss Voigt Hill
#
# Bulk Modulus (GPa) = 36.92564 45.02502 40.97533
# Shear Modulus (GPa) = 33.04713 39.66328 36.35521
#
# Velocity S-wave (km/s) = 3.93111 4.30668 4.12317
# Velocity P-wave (km/s) = 6.15403 6.76644 6.46749
#
# Compressibility (1/GPa) = 0.02708145
#
# Stress axis : x y z
#
# Youngs Moduli (GPa) = 71.45822 60.15609 90.57642
#
# Poissons Ratio (x) = 0.00581 0.20466
# Poissons Ratio (y) = 0.00690 0.44674
# Poissons Ratio (z) = 0.16146 0.29670
#
# Static dielectric constant tensor:
#      x y z
#    x 2.513500 0.207420 0.616870 
#    y 0.207420 1.885830 0.143240 
#    z 0.616870 0.143240 2.189790 
# 
# From -- ./inp_files/145100.got.cif
#   From: 2010.05.17/outbox.cif.g08.bks.cpg/sg2_73_cif.got.tgz:145100.got - 2010.06.03 11:33:40.
