data_PCOD9066035
_publ_section_title
;
Structure prediction by ZEFSAII (Michael W. Deem and Ramdas Pophale) SiO2 
 PCOD9066035
Probable space group: P -1
;
_chemical_formula_sum "Si O2"
_cell_formula_units_Z 15
_cell_length_a 9.759265
_cell_length_b 9.201287
_cell_length_c 12.452495
_cell_angle_alpha 111.210617
_cell_angle_beta 127.519086
_cell_angle_gamma 50.789578
_cell_volume 686.710772
_symmetry_space_group_name_H-M "P -1"
_symmetry_group_IT_number 2
_symmetry_cell_setting 'triclinic'
loop_
_space_group_symop_operation_xyz
x,y,z
-x,-y,-z
loop_
_atom_site_type_symbol
_atom_site_label
_atom_site_fract_x
_atom_site_fract_y
_atom_site_fract_z
Si Si1 0.188953 0.764912 0.433965
Si Si2 0.827816 0.764250 0.372640
Si Si3 0.000000 0.000000 0.000000
Si Si4 0.779273 0.452094 0.198172
Si Si5 0.612716 0.614456 0.706494
Si Si6 0.354477 0.048373 0.225821
Si Si7 0.659836 0.427568 0.899875
Si Si8 0.153906 0.084600 0.356346
O O1 0.366143 0.730467 0.593091
O O2 0.280213 0.568049 0.365692
O O3 0.980200 0.813372 0.405007
O O4 0.158894 0.917270 0.373902
O O5 0.884645 0.559744 0.313187
O O6 0.834386 0.795429 0.510949
O O7 0.588860 0.903933 0.261442
O O8 0.812544 0.967821 0.921800
O O9 0.827213 0.205592 0.914917
O O10 0.572936 0.526144 0.189118
O O11 0.939398 0.226748 0.227392
O O12 0.708425 0.490690 0.051561
O O13 0.691625 0.745894 0.751384
O O14 0.660569 0.541753 0.830762
O O15 0.328044 0.016826 0.330661
#
# Coordination Sequence:
#
# PCOD9066035 Si02
#       8
#     2   2   1   2   2   2   2   2
#     4  11  26  45  75 112 145 187 239 300 365 430
#     4  12  25  45  71 112 143 187 240 304 363 425
#     4  12  24  50  72  98 142 190 250 284 354 424
#     4  11  25  44  72 107 143 187 248 287 367 424
#     4  11  26  48  74 104 151 187 241 295 369 426
#     4  12  26  46  75 106 141 195 245 295 360 432
#     4  11  25  47  72 103 143 195 238 304 342 439
#     4  12  24  46  75 103 147 187 239 300 361 432
#
# _framework density 21.843257999999999
#
# number of rings (size 3 to 8) (size 9 to 14) (size 15 to 20)
#    0.000    0.533    4.000    3.600    1.867    1.600 
#    2.400    0.667    0.000    0.000    0.000    0.000 
#    0.000    0.000    0.000    0.000    0.000    0.000 
#
# Total GULP energy -83714.249376 kJ/mol
# GULP energy per Si atom -5580.949958 kJ/mol
# Density = 2.179354 g / cm^3
# Si number density = 21.843258 Si / 1000 Ang^3
#
#
#
# Elastic Constant Matrix: (Units=GPa)
#
#
# Indices 1 2 3 4 5 6 
#
# 1 135.7054 53.5429 44.7391 -16.5207 15.1757 4.7416
# 2 53.5429 109.3409 17.0732 -18.9199 7.7933 20.7456
# 3 44.7391 17.0732 61.1897 -9.1456 14.4797 11.9709
# 4 -16.5207 -18.9199 -9.1456 35.6162 -0.0969 11.2020
# 5 15.1757 7.7933 14.4797 -0.0969 35.7978 0.8664
# 6 4.7416 20.7456 11.9709 11.2020 0.8664 36.6950
#
#
#
# Elastic Compliance Matrix: (Units=1/GPa)
#
#
# Indices 1 2 3 4 5 6 
#
# 1 0.012070 -0.005611 -0.008112 -0.000898 -0.000727 0.004550
# 2 -0.005611 0.015715 0.004470 0.010944 -0.002509 -0.012900
# 3 -0.008112 0.004470 0.026914 0.009589 -0.008080 -0.012996
# 4 -0.000898 0.010944 0.009589 0.042895 -0.005228 -0.022171
# 5 -0.000727 -0.002509 -0.008080 -0.005228 0.031922 0.004991
# 6 0.004550 -0.012900 -0.012996 -0.022171 0.004991 0.044846
#
#
# Mechanical properties :
#
#
# Convention : Reuss Voigt Hill
#
# Bulk Modulus (GPa) = 27.62813 59.66072 43.64442
# Shear Modulus (GPa) = 24.39837 34.34719 29.37278
#
# Velocity S-wave (km/s) = 3.34574 3.96970 3.67100
# Velocity P-wave (km/s) = 5.25368 6.95584 6.16380
#
# Compressibility (1/GPa) = 0.03619500
#
# Stress axis : x y z
#
# Youngs Moduli (GPa) = 82.85102 63.63290 37.15566
#
# Poissons Ratio (x) = 0.35702 0.30140
# Poissons Ratio (y) = 0.46485 -0.16610
# Poissons Ratio (z) = 0.67207 -0.28447
#
# Static dielectric constant tensor:
#      x y z
#    x 1.767270 -0.050480 -0.000030 
#    y -0.050480 1.850770 0.052470 
#    z -0.000030 0.052470 1.831970 
# 
# From -- ./inp_files/377895.got.cif
#   From: 2010.05.17/outbox.cif.g08.bks.cpg/sg2_189_cif.got.tgz:377895.got - 2010.06.03 11:33:40.
