data_PCOD9066478
_publ_section_title
;
Structure prediction by ZEFSAII (Michael W. Deem and Ramdas Pophale) SiO2 
 PCOD9066478
Probable space group: P -1
;
_chemical_formula_sum "Si O2"
_cell_formula_units_Z 16
_cell_length_a 9.916215
_cell_length_b 9.041200
_cell_length_c 11.608603
_cell_angle_alpha 65.832325
_cell_angle_beta 127.429201
_cell_angle_gamma 131.632698
_cell_volume 617.695641
_symmetry_space_group_name_H-M "P -1"
_symmetry_group_IT_number 2
_symmetry_cell_setting 'triclinic'
loop_
_space_group_symop_operation_xyz
x,y,z
-x,-y,-z
loop_
_atom_site_type_symbol
_atom_site_label
_atom_site_fract_x
_atom_site_fract_y
_atom_site_fract_z
Si Si1 0.440898 0.150943 0.816985
Si Si2 0.614956 0.275350 0.301165
Si Si3 0.961496 0.950431 0.862252
Si Si4 0.404616 0.280100 0.986511
Si Si5 0.803089 0.124320 0.594095
Si Si6 0.025282 0.499704 0.280477
Si Si7 0.212891 0.343565 0.577269
Si Si8 0.158530 0.749304 0.942577
O O1 0.327435 0.231948 0.662094
O O2 0.279465 0.926737 0.850109
O O3 0.518828 0.276185 0.936568
O O4 0.661904 0.192871 0.888495
O O5 0.430508 0.188703 0.142945
O O6 0.627669 0.118752 0.431150
O O7 0.816522 0.383683 0.286995
O O8 0.650478 0.454562 0.340538
O O9 0.778700 0.937923 0.702216
O O10 0.991863 0.781611 0.899454
O O11 0.170566 0.156851 0.862011
O O12 0.000000 0.000000 0.000000
O O13 0.500000 0.500000 0.000000
O O14 0.862400 0.281675 0.677693
O O15 0.991572 0.209974 0.571473
O O16 0.959920 0.450943 0.129326
O O17 0.158676 0.412881 0.411065
#
# Coordination Sequence:
#
# PCOD9066478 Si02
#       8
#     2   2   2   2   2   2   2   2
#     4  10  18  28  46  79 115 130 165 226 272 298
#     4   9  16  27  51  84 105 133 176 220 261 310
#     4  11  24  40  53  74 110 148 178 218 268 320
#     4  11  17  31  60  84 103 139 179 217 260 313
#     4   9  17  33  51  72 108 144 178 212 257 321
#     4   9  17  28  52  79 109 135 171 218 270 315
#     4   9  15  28  48  83 110 134 166 219 272 311
#     4  10  20  32  47  76 109 138 173 220 270 315
#
# _framework density 25.902723999999999
#
# number of rings (size 3 to 8) (size 9 to 14) (size 15 to 20)
#    0.000    2.250    5.000    2.250    0.000    0.500 
#    0.000    1.250    0.000    0.000    0.000    3.500 
#    0.000    0.000    0.000    0.000    0.000    0.000 
#
# Total GULP energy -89364.730407 kJ/mol
# GULP energy per Si atom -5585.295650 kJ/mol
# Density = 2.584377 g / cm^3
# Si number density = 25.902724 Si / 1000 Ang^3
#
#
#
# Elastic Constant Matrix: (Units=GPa)
#
#
# Indices 1 2 3 4 5 6 
#
# 1 39.6901 21.9455 25.2304 -12.3284 16.5744 -5.1136
# 2 21.9455 81.1140 11.0283 -8.1327 8.2833 -12.7499
# 3 25.2304 11.0283 128.7231 -22.8123 42.4745 -11.7221
# 4 -12.3284 -8.1327 -22.8123 44.4399 -16.7194 4.5262
# 5 16.5744 8.2833 42.4745 -16.7194 44.7007 -2.4274
# 6 -5.1136 -12.7499 -11.7221 4.5262 -2.4274 29.2810
#
#
#
# Elastic Compliance Matrix: (Units=1/GPa)
#
#
# Indices 1 2 3 4 5 6 
#
# 1 0.036082 -0.008134 -0.003234 0.004111 -0.007248 0.000228
# 2 -0.008134 0.015340 0.000945 0.000362 -0.000288 0.005557
# 3 -0.003234 0.000945 0.012136 0.001459 -0.009762 0.003670
# 4 0.004111 0.000362 0.001459 0.027366 0.007140 -0.002179
# 5 -0.007248 -0.000288 -0.009762 0.007140 0.036877 -0.003346
# 6 0.000228 0.005557 0.003670 -0.002179 -0.003346 0.038140
#
#
# Mechanical properties :
#
#
# Convention : Reuss Voigt Hill
#
# Bulk Modulus (GPa) = 23.41346 40.65953 32.03650
# Shear Modulus (GPa) = 24.87277 36.43919 30.65598
#
# Velocity S-wave (km/s) = 3.10213 3.75476 3.44394
# Velocity P-wave (km/s) = 4.67863 5.87612 5.31123
#
# Compressibility (1/GPa) = 0.04271047
#
# Stress axis : x y z
#
# Youngs Moduli (GPa) = 27.71485 65.19049 82.40275
#
# Poissons Ratio (x) = 0.53026 0.26652
# Poissons Ratio (y) = 0.22543 -0.07788
# Poissons Ratio (z) = 0.08964 -0.06162
#
# Static dielectric constant tensor:
#      x y z
#    x 2.538980 0.060850 0.106410 
#    y 0.060850 2.060640 -0.107720 
#    z 0.106410 -0.107720 2.088180 
# 
# From -- ./inp_files/268849.got.cif
#   From: 2010.05.17/outbox.cif.g08.bks.cpg/sg2_135_cif.got.tgz:268849.got - 2010.06.03 11:33:40.
