data_PCOD9066113
_publ_section_title
;
Structure prediction by ZEFSAII (Michael W. Deem and Ramdas Pophale) SiO2 
 PCOD9066113
Probable space group: P -1
;
_chemical_formula_sum "Si O2"
_cell_formula_units_Z 12
_cell_length_a 24.356851
_cell_length_b 24.717496
_cell_length_c 10.470866
_cell_angle_alpha 24.078878
_cell_angle_beta 157.978157
_cell_angle_gamma 168.396442
_cell_volume 474.432263
_symmetry_space_group_name_H-M "P -1"
_symmetry_group_IT_number 2
_symmetry_cell_setting 'triclinic'
loop_
_space_group_symop_operation_xyz
x,y,z
-x,-y,-z
loop_
_atom_site_type_symbol
_atom_site_label
_atom_site_fract_x
_atom_site_fract_y
_atom_site_fract_z
Si Si1 0.250743 0.419526 0.137746
Si Si2 0.895964 0.570245 0.729399
Si Si3 0.573999 0.327576 0.289893
Si Si4 0.087093 0.138066 0.757982
Si Si5 0.523023 0.044546 0.167468
Si Si6 0.329441 0.076827 0.885395
O O1 0.500000 0.500000 0.500000
O O2 0.928590 0.125842 0.127838
O O3 0.379035 0.628968 0.061255
O O4 0.244877 0.475859 0.863370
O O5 0.774078 0.470541 0.539154
O O6 0.785306 0.617125 0.457527
O O7 0.251380 0.859976 0.880951
O O8 0.782769 0.351437 0.031142
O O9 0.430732 0.074108 0.490061
O O10 0.320576 0.232591 0.983859
O O11 0.809128 0.945728 0.480364
O O12 0.000000 0.000000 0.000000
O O13 0.401346 0.992918 0.155212
#
# Coordination Sequence:
#
# PCOD9066113 Si02
#       6
#     2   2   2   2   2   2
#     4  12  27  45  72 102 142 186 233 294 332 421
#     4  11  25  48  70 106 146 182 228 296 358 408
#     4  12  26  43  75 107 139 188 243 277 354 421
#     4  11  25  44  77 105 139 185 238 295 348 414
#     4  11  26  47  74 103 145 185 226 300 349 418
#     4  11  25  48  67 100 148 180 231 287 357 398
#
# _framework density 25.293388
#
# number of rings (size 3 to 8) (size 9 to 14) (size 15 to 20)
#    0.000    0.667    1.667    6.000    2.333    5.333 
#    0.000    0.000    0.000    0.000    0.000    0.000 
#    0.000    0.000    0.000    0.000    0.000    0.000 
#
# Total GULP energy -67402.747365 kJ/mol
# GULP energy per Si atom -5616.895614 kJ/mol
# Density = 2.523582 g / cm^3
# Si number density = 25.293388 Si / 1000 Ang^3
#
#
#
# Elastic Constant Matrix: (Units=GPa)
#
#
# Indices 1 2 3 4 5 6 
#
# 1 127.7790 16.2014 63.0043 -1.6003 -0.6939 3.3408
# 2 16.2014 74.3361 18.4573 -8.1008 2.1703 5.2403
# 3 63.0043 18.4573 109.7852 -21.7921 26.5322 2.8753
# 4 -1.6003 -8.1008 -21.7921 24.1416 0.2912 -7.6095
# 5 -0.6939 2.1703 26.5322 0.2912 67.6170 -11.6430
# 6 3.3408 5.2403 2.8753 -7.6095 -11.6430 37.8071
#
#
#
# Elastic Compliance Matrix: (Units=1/GPa)
#
#
# Indices 1 2 3 4 5 6 
#
# 1 0.012720 -0.001366 -0.009711 -0.008661 0.003895 -0.000740
# 2 -0.001366 0.014442 -0.000790 0.003668 -0.000391 -0.001203
# 3 -0.009711 -0.000790 0.020230 0.017610 -0.008001 0.000510
# 4 -0.008661 0.003668 0.017610 0.061015 -0.005756 0.009426
# 5 0.003895 -0.000391 -0.008001 -0.005756 0.018861 0.004968
# 6 -0.000740 -0.001203 0.000510 0.009426 0.004968 0.030071
#
#
# Mechanical properties :
#
#
# Convention : Reuss Voigt Hill
#
# Bulk Modulus (GPa) = 42.27024 56.35848 49.31436
# Shear Modulus (GPa) = 26.46066 40.19561 33.32813
#
# Velocity S-wave (km/s) = 3.23793 3.99077 3.63390
# Velocity P-wave (km/s) = 5.54321 6.60040 6.09477
#
# Compressibility (1/GPa) = 0.02365730
#
# Stress axis : x y z
#
# Youngs Moduli (GPa) = 78.61927 69.24108 49.43106
#
# Poissons Ratio (x) = 0.09461 0.48003
# Poissons Ratio (y) = 0.10743 0.03905
# Poissons Ratio (z) = 0.76347 0.05469
#
# Static dielectric constant tensor:
#      x y z
#    x 1.982040 0.014640 0.023060 
#    y 0.014640 1.933970 0.018550 
#    z 0.023060 0.018550 2.005660 
# 
# From -- ./inp_files/68161.got.cif
#   From: 2010.05.17/outbox.cif.g08.bks.cpg/sg2_35_cif.got.tgz:68161.got - 2010.06.03 11:33:40.
