data_PCOD9066950
_publ_section_title
;
Structure prediction by ZEFSAII (Michael W. Deem and Ramdas Pophale) SiO2 
 PCOD9066950
Probable space group: P -1
;
_chemical_formula_sum "Si O2"
_cell_formula_units_Z 12
_cell_length_a 7.351854
_cell_length_b 15.650023
_cell_length_c 7.213924
_cell_angle_alpha 49.664175
_cell_angle_beta 96.077047
_cell_angle_gamma 65.766788
_cell_volume 487.603161
_symmetry_space_group_name_H-M "P -1"
_symmetry_group_IT_number 2
_symmetry_cell_setting 'triclinic'
loop_
_space_group_symop_operation_xyz
x,y,z
-x,-y,-z
loop_
_atom_site_type_symbol
_atom_site_label
_atom_site_fract_x
_atom_site_fract_y
_atom_site_fract_z
Si Si1 0.975768 0.440395 0.891613
Si Si2 0.242957 0.064756 0.958872
Si Si3 0.555107 0.668922 0.295933
Si Si4 0.380150 0.151399 0.168000
Si Si5 0.398167 0.604197 0.022521
Si Si6 0.231403 0.809609 0.415420
O O1 0.819951 0.573328 0.542727
O O2 0.820877 0.388016 0.960241
O O3 0.000000 0.500000 0.000000
O O4 0.231615 0.295332 0.071944
O O5 0.021816 0.153299 0.674196
O O6 0.201180 0.161402 0.991978
O O7 0.500000 0.000000 0.000000
O O8 0.233884 0.941377 0.203629
O O9 0.389586 0.706421 0.402718
O O10 0.472236 0.820379 0.987515
O O11 0.540320 0.583437 0.250405
O O12 0.500000 0.000000 0.500000
O O13 0.325557 0.747277 0.715326
O O14 0.500000 0.500000 0.000000
#
# Coordination Sequence:
#
# PCOD9066950 Si02
#       6
#     2   2   2   2   2   2
#     4  12  29  49  79 116 159 210 267 330 400 474
#     4  11  25  47  73 110 158 205 255 326 392 471
#     4  12  26  51  77 112 160 205 266 332 396 469
#     4  12  28  45  78 113 157 205 268 321 398 470
#     4  12  26  45  78 107 155 201 266 322 394 469
#     4  11  26  47  78 113 152 208 265 322 399 468
#
# _framework density 24.610178000000001
#
# number of rings (size 3 to 8) (size 9 to 14) (size 15 to 20)
#    0.000    0.333    3.333    4.000    9.333    0.000 
#    0.000    4.167    0.000    0.000    0.000    0.000 
#    0.000    0.000    0.000    0.000    0.000    0.000 
#
# Total GULP energy -67066.482554 kJ/mol
# GULP energy per Si atom -5588.873546 kJ/mol
# Density = 2.455416 g / cm^3
# Si number density = 24.610178 Si / 1000 Ang^3
#
#
#
# Elastic Constant Matrix: (Units=GPa)
#
#
# Indices 1 2 3 4 5 6 
#
# 1 125.7831 28.8172 43.7980 7.4955 13.6650 5.6316
# 2 28.8172 136.8673 34.8230 16.7550 19.2210 23.6373
# 3 43.7980 34.8230 164.3339 12.0503 0.5546 14.0618
# 4 7.4955 16.7550 12.0503 33.3641 9.4651 12.6302
# 5 13.6650 19.2210 0.5546 9.4651 45.7283 6.8822
# 6 5.6316 23.6373 14.0618 12.6302 6.8822 48.7424
#
#
#
# Elastic Compliance Matrix: (Units=1/GPa)
#
#
# Indices 1 2 3 4 5 6 
#
# 1 0.009225 -0.001108 -0.002241 -0.000249 -0.002289 0.000505
# 2 -0.001108 0.008962 -0.001195 -0.001955 -0.002565 -0.003005
# 3 -0.002241 -0.001195 0.007131 -0.001518 0.001557 -0.001045
# 4 -0.000249 -0.001955 -0.001518 0.035782 -0.005424 -0.007091
# 5 -0.002289 -0.002565 0.001557 -0.005424 0.024892 -0.001050
# 6 0.000505 -0.003005 -0.001045 -0.007091 -0.001050 0.024202
#
#
# Mechanical properties :
#
#
# Convention : Reuss Voigt Hill
#
# Bulk Modulus (GPa) = 61.60963 71.31783 66.46373
# Shear Modulus (GPa) = 40.09892 46.87003 43.48448
#
# Velocity S-wave (km/s) = 4.04092 4.36879 4.20805
# Velocity P-wave (km/s) = 6.84548 7.38176 7.11867
#
# Compressibility (1/GPa) = 0.01623123
#
# Stress axis : x y z
#
# Youngs Moduli (GPa) = 108.39900 111.58296 140.22879
#
# Poissons Ratio (x) = 0.12358 0.31429
# Poissons Ratio (y) = 0.12005 0.16754
# Poissons Ratio (z) = 0.24295 0.13331
#
# Static dielectric constant tensor:
#      x y z
#    x 1.966420 -0.070220 -0.029290 
#    y -0.070220 2.034700 -0.068010 
#    z -0.029290 -0.068010 2.044430 
# 
# From -- ./inp_files/31319.got.cif
#   From: 2010.05.17/outbox.cif.g08.bks.cpg/sg2_16_cif.got.tgz:31319.got - 2010.06.03 11:33:40.
