data_PCOD9066615
_publ_section_title
;
Structure prediction by ZEFSAII (Michael W. Deem and Ramdas Pophale) SiO2 
 PCOD9066615
Probable space group: P -1
;
_chemical_formula_sum "Si O2"
_cell_formula_units_Z 12
_cell_length_a 8.841410
_cell_length_b 13.641321
_cell_length_c 7.590888
_cell_angle_alpha 139.739243
_cell_angle_beta 107.161483
_cell_angle_gamma 58.869625
_cell_volume 498.217389
_symmetry_space_group_name_H-M "P -1"
_symmetry_group_IT_number 2
_symmetry_cell_setting 'triclinic'
loop_
_space_group_symop_operation_xyz
x,y,z
-x,-y,-z
loop_
_atom_site_type_symbol
_atom_site_label
_atom_site_fract_x
_atom_site_fract_y
_atom_site_fract_z
Si Si1 0.596650 0.293909 0.150458
Si Si2 0.784278 0.417113 0.629574
Si Si3 0.514813 0.823138 0.687547
Si Si4 0.096728 0.477165 0.687122
Si Si5 0.338077 0.972203 0.473466
Si Si6 0.961496 0.192437 0.695646
O O1 0.730181 0.366916 0.355071
O O2 0.409898 0.424551 0.169008
O O3 0.535882 0.252058 0.260995
O O4 0.695061 0.133414 0.836947
O O5 0.950790 0.456816 0.731812
O O6 0.851103 0.258690 0.569322
O O7 0.711317 0.690752 0.500255
O O8 0.389326 0.873158 0.540716
O O9 0.500000 0.000000 0.000000
O O10 0.000000 0.500000 0.500000
O O11 0.120845 0.641143 0.978477
O O12 0.500000 0.000000 0.500000
O O13 0.166076 0.154256 0.687744
O O14 0.000000 0.000000 0.500000
#
# Coordination Sequence:
#
# PCOD9066615 Si02
#       6
#     2   2   2   2   2   2
#     4  11  25  46  72 108 146 197 246 303 376 436
#     4  11  25  48  72 106 150 192 247 306 371 440
#     4  12  24  46  76 109 148 195 252 308 368 443
#     4  12  25  47  76 107 151 191 247 304 371 438
#     4  12  24  44  71 104 150 190 244 302 369 437
#     4  12  28  48  75 112 146 197 250 303 369 443
#
# _framework density 24.085868999999999
#
# number of rings (size 3 to 8) (size 9 to 14) (size 15 to 20)
#    0.000    0.333    3.333    5.500    2.333    0.667 
#    0.000    4.167    0.000    0.000    0.000    0.000 
#    0.000    0.000    0.000    0.000    0.000    0.000 
#
# Total GULP energy -67102.261249 kJ/mol
# GULP energy per Si atom -5591.855104 kJ/mol
# Density = 2.403105 g / cm^3
# Si number density = 24.085869 Si / 1000 Ang^3
#
#
#
# Elastic Constant Matrix: (Units=GPa)
#
#
# Indices 1 2 3 4 5 6 
#
# 1 104.9882 40.4150 32.7292 14.6198 -0.8692 3.4824
# 2 40.4150 174.3753 28.7148 16.4805 -15.7588 -5.0488
# 3 32.7292 28.7148 165.0975 12.3939 -1.9307 -4.6726
# 4 14.6198 16.4805 12.3939 39.6308 -3.9520 -2.3050
# 5 -0.8692 -15.7588 -1.9307 -3.9520 39.2148 13.0079
# 6 3.4824 -5.0488 -4.6726 -2.3050 13.0079 38.4634
#
#
#
# Elastic Compliance Matrix: (Units=1/GPa)
#
#
# Indices 1 2 3 4 5 6 
#
# 1 0.011337 -0.002162 -0.001703 -0.002888 -0.000486 -0.001526
# 2 -0.002162 0.006702 -0.000589 -0.001558 0.002430 0.000089
# 3 -0.001703 -0.000589 0.006608 -0.001176 -0.000379 0.000937
# 4 -0.002888 -0.001558 -0.001176 0.027541 0.001699 0.000990
# 5 -0.000486 0.002430 -0.000379 0.001699 0.029826 -0.009668
# 6 -0.001526 0.000089 0.000937 0.000990 -0.009668 0.029591
#
#
# Mechanical properties :
#
#
# Convention : Reuss Voigt Hill
#
# Bulk Modulus (GPa) = 63.54456 72.01992 67.78224
# Shear Modulus (GPa) = 39.75815 46.30193 43.03004
#
# Velocity S-wave (km/s) = 4.06727 4.38924 4.23132
# Velocity P-wave (km/s) = 6.96396 7.46012 7.21631
#
# Compressibility (1/GPa) = 0.01573699
#
# Stress axis : x y z
#
# Youngs Moduli (GPa) = 88.20702 149.20165 151.34087
#
# Poissons Ratio (x) = 0.32262 0.25781
# Poissons Ratio (y) = 0.19073 0.08917
# Poissons Ratio (z) = 0.15026 0.08791
#
# Static dielectric constant tensor:
#      x y z
#    x 1.817740 0.102550 0.012380 
#    y 0.102550 1.874430 0.035750 
#    z 0.012380 0.035750 1.905210 
# 
# From -- ./inp_files/204797.got.cif
#   From: 2010.05.17/outbox.cif.g08.bks.cpg/sg2_103_cif.got.tgz:204797.got - 2010.06.03 11:33:40.
