data_PCOD9066610
_publ_section_title
;
Structure prediction by ZEFSAII (Michael W. Deem and Ramdas Pophale) SiO2 
 PCOD9066610
Probable space group: P -1
;
_chemical_formula_sum "Si O2"
_cell_formula_units_Z 16
_cell_length_a 21.325878
_cell_length_b 9.175469
_cell_length_c 10.746003
_cell_angle_alpha 128.051158
_cell_angle_beta 44.387033
_cell_angle_gamma 151.999985
_cell_volume 689.842208
_symmetry_space_group_name_H-M "P -1"
_symmetry_group_IT_number 2
_symmetry_cell_setting 'triclinic'
loop_
_space_group_symop_operation_xyz
x,y,z
-x,-y,-z
loop_
_atom_site_type_symbol
_atom_site_label
_atom_site_fract_x
_atom_site_fract_y
_atom_site_fract_z
Si Si1 0.811383 0.397142 0.769356
Si Si2 0.727879 0.414024 0.125879
Si Si3 0.837914 0.681245 0.504678
Si Si4 0.867678 0.100888 0.537398
Si Si5 0.567594 0.619692 0.110863
Si Si6 0.596782 0.258962 0.842184
Si Si7 0.611341 0.602820 0.498376
Si Si8 0.152554 0.638249 0.863365
O O1 0.824485 0.221060 0.729568
O O2 0.661391 0.196480 0.799168
O O3 0.956900 0.631896 0.598521
O O4 0.818770 0.573728 0.952255
O O5 0.659960 0.481855 0.320599
O O6 0.833502 0.481484 0.106120
O O7 0.575622 0.050951 0.114601
O O8 0.705061 0.452515 0.672000
O O9 0.837785 0.483772 0.332388
O O10 0.814397 0.821610 0.525398
O O11 0.000000 0.000000 0.500000
O O12 0.772069 0.971511 0.478348
O O13 0.463061 0.505439 0.315879
O O14 0.709179 0.991399 0.117016
O O15 0.500000 0.500000 0.000000
O O16 0.612592 0.482703 0.003673
O O17 0.500000 0.500000 0.500000
O O18 0.000000 0.500000 0.000000
#
# Coordination Sequence:
#
# PCOD9066610 Si02
#       8
#     2   2   2   2   2   2   2   2
#     4  11  26  45  72 105 147 193 249 299 381 453
#     4  12  26  45  72 106 151 193 244 312 369 454
#     4  12  25  48  79 108 148 192 255 313 383 444
#     4  11  25  46  72 107 143 199 244 311 375 454
#     4  12  26  47  78 110 151 199 250 317 379 444
#     4  12  24  45  78 108 144 193 248 304 379 449
#     4  12  26  46  72 107 151 194 251 310 380 451
#     4  12  29  46  72 112 146 197 249 308 372 450
#
# _framework density 23.193709999999999
#
# number of rings (size 3 to 8) (size 9 to 14) (size 15 to 20)
#    0.000    0.250    3.750    4.875    3.500    2.500 
#    0.000    0.000    0.000    0.000    0.000    0.000 
#    0.000    0.000    0.000    0.000    0.000    0.000 
#
# Total GULP energy -89402.045998 kJ/mol
# GULP energy per Si atom -5587.627875 kJ/mol
# Density = 2.314092 g / cm^3
# Si number density = 23.193710 Si / 1000 Ang^3
#
#
#
# Elastic Constant Matrix: (Units=GPa)
#
#
# Indices 1 2 3 4 5 6 
#
# 1 126.8293 30.6929 72.0938 -2.5429 -32.6940 19.8810
# 2 30.6929 81.9093 42.0323 12.0118 2.8441 11.1467
# 3 72.0938 42.0323 197.8356 18.9256 -16.6550 -4.4888
# 4 -2.5429 12.0118 18.9256 39.8784 1.4968 -7.1803
# 5 -32.6940 2.8441 -16.6550 1.4968 40.4934 3.6334
# 6 19.8810 11.1467 -4.4888 -7.1803 3.6334 39.0427
#
#
#
# Elastic Compliance Matrix: (Units=1/GPa)
#
#
# Indices 1 2 3 4 5 6 
#
# 1 0.015414 -0.003135 -0.004367 0.002101 0.011522 -0.008142
# 2 -0.003135 0.015798 -0.002217 -0.004402 -0.004067 -0.003600
# 3 -0.004367 -0.002217 0.007386 -0.002503 -0.000535 0.003295
# 4 0.002101 -0.004402 -0.002503 0.028686 -0.000553 0.005226
# 5 0.011522 -0.004067 -0.000535 -0.000553 0.034812 -0.008109
# 6 -0.008142 -0.003600 0.003295 0.005226 -0.008109 0.032881
#
#
# Mechanical properties :
#
#
# Convention : Reuss Voigt Hill
#
# Bulk Modulus (GPa) = 52.19165 77.35690 64.77427
# Shear Modulus (GPa) = 31.09434 41.33325 36.21380
#
# Velocity S-wave (km/s) = 3.66544 4.22606 3.95570
# Velocity P-wave (km/s) = 6.36124 7.56556 6.98939
#
# Compressibility (1/GPa) = 0.01916015
#
# Stress axis : x y z
#
# Youngs Moduli (GPa) = 64.87551 63.30054 135.38981
#
# Poissons Ratio (x) = 0.19847 0.59120
# Poissons Ratio (y) = 0.20341 0.30013
# Poissons Ratio (z) = 0.28329 0.14032
#
# Static dielectric constant tensor:
#      x y z
#    x 1.901910 -0.031840 0.018640 
#    y -0.031840 1.906000 0.034570 
#    z 0.018640 0.034570 1.928440 
# 
# From -- ./inp_files/470130.got.cif
#   From: 2010.05.17/outbox.cif.g08.bks.cpg/sg2_236_cif.got.tgz:470130.got - 2010.06.03 11:33:40.
