data_PCOD9066546
_publ_section_title
;
Structure prediction by ZEFSAII (Michael W. Deem and Ramdas Pophale) SiO2 
 PCOD9066546
Probable space group: P -1
;
_chemical_formula_sum "Si O2"
_cell_formula_units_Z 14
_cell_length_a 5.062460
_cell_length_b 12.934413
_cell_length_c 13.016213
_cell_angle_alpha 48.380988
_cell_angle_beta 80.702791
_cell_angle_gamma 76.785934
_cell_volume 620.235526
_symmetry_space_group_name_H-M "P -1"
_symmetry_group_IT_number 2
_symmetry_cell_setting 'triclinic'
loop_
_space_group_symop_operation_xyz
x,y,z
-x,-y,-z
loop_
_atom_site_type_symbol
_atom_site_label
_atom_site_fract_x
_atom_site_fract_y
_atom_site_fract_z
Si Si1 0.936763 0.860177 0.818216
Si Si2 0.144368 0.929672 0.136546
Si Si3 0.904814 0.500100 0.697172
Si Si4 0.207231 0.546063 0.037156
Si Si5 0.458508 0.978421 0.636739
Si Si6 0.747897 0.755787 0.400939
Si Si7 0.479573 0.335668 0.723151
O O1 0.166553 0.934756 0.701909
O O2 0.692877 0.864860 0.748991
O O3 0.097830 0.712101 0.943918
O O4 0.815693 0.952691 0.861570
O O5 0.415423 0.827564 0.153164
O O6 0.951394 0.832277 0.269675
O O7 0.000000 0.000000 0.000000
O O8 0.798794 0.520570 0.805978
O O9 0.909403 0.645673 0.542564
O O10 0.708555 0.417977 0.697277
O O11 0.199321 0.405765 0.744550
O O12 0.500000 0.500000 0.000000
O O13 0.000000 0.500000 0.000000
O O14 0.500000 0.000000 0.500000
O O15 0.446855 0.124727 0.602767
O O16 0.581136 0.670521 0.390654
#
# Coordination Sequence:
#
# PCOD9066546 Si02
#       7
#     2   2   2   2   2   2   2
#     4  11  25  46  71 105 139 180 240 287 352 421
#     4  11  25  46  73 107 146 187 232 291 354 424
#     4  12  28  44  75 106 145 189 235 293 354 422
#     4  12  28  52  73 105 140 189 239 296 354 425
#     4  11  25  46  74 102 140 186 237 295 348 413
#     4  11  26  44  73 107 146 189 235 290 356 420
#     4  12  24  47  70 109 145 185 237 287 356 422
#
# _framework density 22.57207
#
# number of rings (size 3 to 8) (size 9 to 14) (size 15 to 20)
#    0.000    0.571    2.857    3.857    6.000    2.857 
#    0.000    0.000    0.000    0.000    0.000    0.000 
#    0.000    0.000    0.000    0.000    0.000    0.000 
#
# Total GULP energy -78403.365248 kJ/mol
# GULP energy per Si atom -5600.240375 kJ/mol
# Density = 2.252069 g / cm^3
# Si number density = 22.572070 Si / 1000 Ang^3
#
#
#
# Elastic Constant Matrix: (Units=GPa)
#
#
# Indices 1 2 3 4 5 6 
#
# 1 99.0618 21.1144 33.3629 -8.9210 15.8588 -24.6799
# 2 21.1144 80.3822 59.1619 -1.8327 1.5416 -11.6993
# 3 33.3629 59.1619 157.0907 17.6060 16.1863 -21.0901
# 4 -8.9210 -1.8327 17.6060 31.4309 -1.3210 8.9678
# 5 15.8588 1.5416 16.1863 -1.3210 32.9820 -7.4548
# 6 -24.6799 -11.6993 -21.0901 8.9678 -7.4548 43.2019
#
#
#
# Elastic Compliance Matrix: (Units=1/GPa)
#
#
# Indices 1 2 3 4 5 6 
#
# 1 0.013088 -0.001529 -0.001394 0.002781 -0.004281 0.005066
# 2 -0.001529 0.018471 -0.007584 0.005041 0.003804 0.000037
# 3 -0.001394 -0.007584 0.011390 -0.008463 -0.004052 0.003768
# 4 0.002781 0.005041 -0.008463 0.040350 0.002120 -0.009188
# 5 -0.004281 0.003804 -0.004052 0.002120 0.034763 0.002165
# 6 0.005066 0.000037 0.003768 -0.009188 0.002165 0.030171
#
#
# Mechanical properties :
#
#
# Convention : Reuss Voigt Hill
#
# Bulk Modulus (GPa) = 45.58839 62.64588 54.11713
# Shear Modulus (GPa) = 28.31915 36.38266 32.35091
#
# Velocity S-wave (km/s) = 3.54589 4.01913 3.78991
# Velocity P-wave (km/s) = 6.08318 7.02509 6.57103
#
# Compressibility (1/GPa) = 0.02193541
#
# Stress axis : x y z
#
# Youngs Moduli (GPa) = 76.40520 54.13873 87.79771
#
# Poissons Ratio (x) = 0.08277 0.12242
# Poissons Ratio (y) = 0.11681 0.66583
# Poissons Ratio (z) = 0.10654 0.41057
#
# Static dielectric constant tensor:
#      x y z
#    x 1.826380 0.005660 -0.008510 
#    y 0.005660 1.874570 -0.071490 
#    z -0.008510 -0.071490 1.851600 
# 
# From -- ./inp_files/363643.got.cif
#   From: 2010.05.17/outbox.cif.g08.bks.cpg/sg2_182_cif.got.tgz:363643.got - 2010.06.03 11:33:40.
