data_PCOD9066911
_publ_section_title
;
Structure prediction by ZEFSAII (Michael W. Deem and Ramdas Pophale) SiO2 
 PCOD9066911
Probable space group: P -1
;
_chemical_formula_sum "Si O2"
_cell_formula_units_Z 16
_cell_length_a 14.855577
_cell_length_b 9.099354
_cell_length_c 8.123709
_cell_angle_alpha 94.406420
_cell_angle_beta 74.756693
_cell_angle_gamma 41.786258
_cell_volume 639.254225
_symmetry_space_group_name_H-M "P -1"
_symmetry_group_IT_number 2
_symmetry_cell_setting 'triclinic'
loop_
_space_group_symop_operation_xyz
x,y,z
-x,-y,-z
loop_
_atom_site_type_symbol
_atom_site_label
_atom_site_fract_x
_atom_site_fract_y
_atom_site_fract_z
Si Si1 0.186755 0.551698 0.264880
Si Si2 0.849496 0.211240 0.983533
Si Si3 0.116824 0.180794 0.433423
Si Si4 0.683611 0.348486 0.589595
Si Si5 0.753556 0.826796 0.950240
Si Si6 0.722005 0.846238 0.356213
Si Si7 0.366284 0.380185 0.637329
Si Si8 0.597376 0.303884 0.079064
O O1 0.293609 0.536118 0.298021
O O2 0.264587 0.315809 0.117040
O O3 0.059120 0.646880 0.455466
O O4 0.094289 0.769212 0.199195
O O5 0.703521 0.493279 0.140549
O O6 0.766735 0.159401 0.990472
O O7 0.000000 0.000000 0.000000
O O8 0.144500 0.224545 0.248296
O O9 0.167582 0.221575 0.565604
O O10 0.218478 0.906950 0.403064
O O11 0.712635 0.386003 0.404384
O O12 0.503803 0.532438 0.699252
O O13 0.783441 0.791186 0.132303
O O14 0.608152 0.116696 0.033841
O O15 0.697679 0.702102 0.381647
O O16 0.550279 0.134292 0.494280
O O17 0.500000 0.500000 0.000000
#
# Coordination Sequence:
#
# PCOD9066911 Si02
#       8
#     2   2   2   2   2   2   2   2
#     4  12  27  48  71 110 150 202 254 306 389 457
#     4  12  27  46  74 110 155 200 247 314 383 456
#     4  12  27  47  75 108 152 199 250 316 381 455
#     4  12  25  47  76 105 147 198 255 314 372 457
#     4  12  26  48  77 109 153 198 254 321 375 457
#     4  11  26  47  74 112 145 198 255 311 384 448
#     4  11  25  47  72 107 150 191 254 312 374 460
#     4  12  25  48  74 111 145 200 256 308 381 456
#
# _framework density 25.029167000000001
#
# number of rings (size 3 to 8) (size 9 to 14) (size 15 to 20)
#    0.000    0.250    5.000    3.000    3.500    4.000 
#    0.000    0.000    0.000    0.000    0.000    0.000 
#    0.000    0.000    0.000    0.000    0.000    0.000 
#
# Total GULP energy -89369.874411 kJ/mol
# GULP energy per Si atom -5585.617151 kJ/mol
# Density = 2.497220 g / cm^3
# Si number density = 25.029167 Si / 1000 Ang^3
#
#
#
# Elastic Constant Matrix: (Units=GPa)
#
#
# Indices 1 2 3 4 5 6 
#
# 1 134.0173 60.7609 45.4274 3.2518 8.1601 8.6589
# 2 60.7609 120.8822 45.1999 -7.5471 -15.0044 13.3727
# 3 45.4274 45.1999 122.0734 -25.4808 -1.4369 7.2759
# 4 3.2518 -7.5471 -25.4808 40.7898 14.9735 2.0647
# 5 8.1601 -15.0044 -1.4369 14.9735 31.8245 2.1680
# 6 8.6589 13.3727 7.2759 2.0647 2.1680 36.8822
#
#
#
# Elastic Compliance Matrix: (Units=1/GPa)
#
#
# Indices 1 2 3 4 5 6 
#
# 1 0.011052 -0.005293 -0.002595 -0.001798 -0.004615 0.000208
# 2 -0.005293 0.013442 -0.003139 -0.002100 0.008773 -0.003410
# 3 -0.002595 -0.003139 0.012177 0.008888 -0.004386 -0.000894
# 4 -0.001798 -0.002100 0.008888 0.036155 -0.017030 -0.001593
# 5 -0.004615 0.008773 -0.004386 -0.017030 0.044755 -0.002910
# 6 0.000208 -0.003410 -0.000894 -0.001593 -0.002910 0.028738
#
#
# Mechanical properties :
#
#
# Convention : Reuss Voigt Hill
#
# Bulk Modulus (GPa) = 68.41739 75.52769 71.97254
# Shear Modulus (GPa) = 28.86073 36.93829 32.89951
#
# Velocity S-wave (km/s) = 3.39939 3.84579 3.62946
# Velocity P-wave (km/s) = 6.54234 7.06835 6.81043
#
# Compressibility (1/GPa) = 0.01461617
#
# Stress axis : x y z
#
# Youngs Moduli (GPa) = 90.47842 74.39352 82.12387
#
# Poissons Ratio (x) = 0.39378 0.21312
# Poissons Ratio (y) = 0.47892 0.25780
# Poissons Ratio (z) = 0.23480 0.23354
#
# Static dielectric constant tensor:
#      x y z
#    x 1.949740 0.015560 0.035170 
#    y 0.015560 2.069480 -0.046840 
#    z 0.035170 -0.046840 2.107210 
# 
# From -- ./inp_files/298772.got.cif
#   From: 2010.05.17/outbox.cif.g08.bks.cpg/sg2_150_cif.got.tgz:298772.got - 2010.06.03 11:33:40.
