data_PCOD9066130
_publ_section_title
;
Structure prediction by ZEFSAII (Michael W. Deem and Ramdas Pophale) SiO2 
 PCOD9066130
Probable space group: P -1
;
_chemical_formula_sum "Si O2"
_cell_formula_units_Z 16
_cell_length_a 18.728425
_cell_length_b 21.019927
_cell_length_c 7.958368
_cell_angle_alpha 131.227378
_cell_angle_beta 56.122097
_cell_angle_gamma 161.740205
_cell_volume 706.472351
_symmetry_space_group_name_H-M "P -1"
_symmetry_group_IT_number 2
_symmetry_cell_setting 'triclinic'
loop_
_space_group_symop_operation_xyz
x,y,z
-x,-y,-z
loop_
_atom_site_type_symbol
_atom_site_label
_atom_site_fract_x
_atom_site_fract_y
_atom_site_fract_z
Si Si1 0.114567 0.166830 0.006994
Si Si2 0.695085 0.476035 0.920684
Si Si3 0.196357 0.532080 0.907731
Si Si4 0.778218 0.260551 0.139819
Si Si5 0.936692 0.601720 0.510851
Si Si6 0.438222 0.318531 0.696896
Si Si7 0.064380 0.962039 0.305359
Si Si8 0.616920 0.036703 0.295719
O O1 0.285623 0.261304 0.841739
O O2 0.300973 0.411172 0.236476
O O3 0.907747 0.012654 0.888545
O O4 0.000000 0.000000 0.000000
O O5 0.710927 0.438348 0.005795
O O6 0.824903 0.542061 0.717529
O O7 0.465872 0.294371 0.795384
O O8 0.840460 0.694800 0.155707
O O9 0.956160 0.362601 0.980818
O O10 0.408942 0.793554 0.058809
O O11 0.144865 0.440745 0.638397
O O12 0.869479 0.440206 0.317574
O O13 0.777694 0.227146 0.273744
O O14 0.500000 0.000000 0.000000
O O15 0.218074 0.867295 0.632334
O O16 0.285395 0.135251 0.430425
O O17 0.000000 0.000000 0.500000
O O18 0.500000 0.000000 0.500000
#
# Coordination Sequence:
#
# PCOD9066130 Si02
#       8
#     2   2   2   2   2   2   2   2
#     4   9  18  38  67 102 123 162 226 269 323 416
#     4  11  25  45  66 100 144 177 225 290 344 409
#     4  12  26  46  67 102 137 184 236 283 353 410
#     4  12  23  44  72  97 138 181 233 292 339 402
#     4  12  25  45  69 100 138 184 237 284 347 414
#     4   9  20  41  65  90 137 171 206 276 343 390
#     4   9  20  43  71  93 131 178 218 272 341 401
#     4  12  23  42  71  99 134 180 237 287 340 414
#
# _framework density 22.647736999999999
#
# number of rings (size 3 to 8) (size 9 to 14) (size 15 to 20)
#    0.000    1.250    3.750    3.000    0.000    3.500 
#   15.750    0.000    0.000    0.000    0.000    0.000 
#    0.000    0.000    0.000    0.000    0.000    0.000 
#
# Total GULP energy -89269.343253 kJ/mol
# GULP energy per Si atom -5579.333953 kJ/mol
# Density = 2.259619 g / cm^3
# Si number density = 22.647737 Si / 1000 Ang^3
#
#
#
# Elastic Constant Matrix: (Units=GPa)
#
#
# Indices 1 2 3 4 5 6 
#
# 1 125.7710 27.3289 45.9108 3.6815 34.9731 -2.5201
# 2 27.3289 53.2090 38.8146 9.4951 15.9305 -9.5119
# 3 45.9108 38.8146 100.9840 6.1106 34.8851 12.6363
# 4 3.6815 9.4951 6.1106 28.9946 13.1952 11.5105
# 5 34.9731 15.9305 34.8851 13.1952 56.1170 4.0452
# 6 -2.5201 -9.5119 12.6363 11.5105 4.0452 37.5248
#
#
#
# Elastic Compliance Matrix: (Units=1/GPa)
#
#
# Indices 1 2 3 4 5 6 
#
# 1 0.010714 -0.002379 -0.002467 0.001833 -0.004965 0.000920
# 2 -0.002379 0.037271 -0.015864 -0.018041 0.003580 0.019778
# 3 -0.002467 -0.015864 0.021149 0.010326 -0.008557 -0.013554
# 4 0.001833 -0.018041 0.010326 0.053072 -0.013278 -0.022776
# 5 -0.004965 0.003580 -0.008557 -0.013278 0.028015 0.004509
# 6 0.000920 0.019778 -0.013554 -0.022776 0.004509 0.042789
#
#
# Mechanical properties :
#
#
# Convention : Reuss Voigt Hill
#
# Bulk Modulus (GPa) = 36.08355 56.00804 46.04580
# Shear Modulus (GPa) = 20.51959 35.72126 28.12043
#
# Velocity S-wave (km/s) = 3.01330 3.97578 3.52752
# Velocity P-wave (km/s) = 5.29847 6.77196 6.08002
#
# Compressibility (1/GPa) = 0.02771346
#
# Stress axis : x y z
#
# Youngs Moduli (GPa) = 93.33511 26.83028 47.28295
#
# Poissons Ratio (x) = 0.06383 0.11667
# Poissons Ratio (y) = 0.22204 0.75011
# Poissons Ratio (z) = 0.23030 0.42564
#
# Static dielectric constant tensor:
#      x y z
#    x 1.909250 -0.000430 0.054360 
#    y -0.000430 1.822080 0.024570 
#    z 0.054360 0.024570 1.852240 
# 
# From -- ./inp_files/337813.got.cif
#   From: 2010.05.17/outbox.cif.g08.bks.cpg/sg2_169_cif.got.tgz:337813.got - 2010.06.03 11:33:40.
