data_PCOD9066013
_publ_section_title
;
Structure prediction by ZEFSAII (Michael W. Deem and Ramdas Pophale) SiO2 
 PCOD9066013
Probable space group: P -1
;
_chemical_formula_sum "Si O2"
_cell_formula_units_Z 13
_cell_length_a 9.292971
_cell_length_b 8.820242
_cell_length_c 9.862268
_cell_angle_alpha 69.123499
_cell_angle_beta 46.374106
_cell_angle_gamma 77.168331
_cell_volume 546.396468
_symmetry_space_group_name_H-M "P -1"
_symmetry_group_IT_number 2
_symmetry_cell_setting 'triclinic'
loop_
_space_group_symop_operation_xyz
x,y,z
-x,-y,-z
loop_
_atom_site_type_symbol
_atom_site_label
_atom_site_fract_x
_atom_site_fract_y
_atom_site_fract_z
Si Si1 0.494707 0.172843 0.879381
Si Si2 0.788179 0.099451 0.252047
Si Si3 0.500000 0.500000 0.500000
Si Si4 0.544764 0.357154 0.219425
Si Si5 0.258843 0.395998 0.162490
Si Si6 0.111698 0.838585 0.526934
Si Si7 0.809740 0.779218 0.179427
O O1 0.714182 0.213006 0.669266
O O2 0.347748 0.165878 0.849430
O O3 0.409261 0.293114 0.006116
O O4 0.500000 0.000000 0.000000
O O5 0.595911 0.174329 0.283773
O O6 0.788987 0.124572 0.403993
O O7 0.815329 0.914750 0.250021
O O8 0.977338 0.205520 0.036858
O O9 0.560307 0.455197 0.318051
O O10 0.712009 0.609562 0.344979
O O11 0.338240 0.379491 0.268639
O O12 0.707707 0.428035 0.981844
O O13 0.047258 0.308630 0.310785
O O14 0.000000 0.000000 0.500000
#
# Coordination Sequence:
#
# PCOD9066013 Si02
#       7
#     2   2   1   2   2   2   2
#     4  12  22  43  70 100 146 185 238 300 360 424
#     4  11  25  46  74 105 143 196 244 296 363 433
#     4  12  24  44  70 104 144 184 236 300 356 426
#     4  11  26  47  75 100 152 189 240 304 359 430
#     4  11  25  50  67 110 145 192 239 300 365 431
#     4  12  25  42  74 106 144 190 244 298 365 433
#     4  11  25  44  71 109 141 187 247 297 358 437
#
# _framework density 23.792247
#
# number of rings (size 3 to 8) (size 9 to 14) (size 15 to 20)
#    0.000    0.615    4.615    1.846    2.154    6.154 
#    0.000    1.538    0.000    0.000    0.000    0.000 
#    0.000    0.000    0.000    0.000    0.000    0.000 
#
# Total GULP energy -72554.761416 kJ/mol
# GULP energy per Si atom -5581.135494 kJ/mol
# Density = 2.373809 g / cm^3
# Si number density = 23.792247 Si / 1000 Ang^3
#
#
#
# Elastic Constant Matrix: (Units=GPa)
#
#
# Indices 1 2 3 4 5 6 
#
# 1 84.8130 21.0366 20.6004 8.5298 7.7183 4.3564
# 2 21.0366 40.8392 21.1244 0.5768 0.3058 7.2432
# 3 20.6004 21.1244 115.1763 14.1817 -13.8530 12.3934
# 4 8.5298 0.5768 14.1817 21.1659 4.0042 -2.1670
# 5 7.7183 0.3058 -13.8530 4.0042 40.3844 -6.2337
# 6 4.3564 7.2432 12.3934 -2.1670 -6.2337 44.9990
#
#
#
# Elastic Compliance Matrix: (Units=1/GPa)
#
#
# Indices 1 2 3 4 5 6 
#
# 1 0.014439 -0.006693 -0.001066 -0.004470 -0.002727 -0.000620
# 2 -0.006693 0.030985 -0.005011 0.005221 -0.001645 -0.002936
# 3 -0.001066 -0.005011 0.011603 -0.008311 0.004732 -0.002031
# 4 -0.004470 0.005221 -0.008311 0.056177 -0.007049 0.003610
# 5 -0.002727 -0.001645 0.004732 -0.007049 0.028046 0.002771
# 6 -0.000620 -0.002936 -0.002031 0.003610 0.002771 0.023872
#
#
# Mechanical properties :
#
#
# Convention : Reuss Voigt Hill
#
# Bulk Modulus (GPa) = 31.75777 40.70570 36.23174
# Shear Modulus (GPa) = 24.85620 33.18101 29.01860
#
# Velocity S-wave (km/s) = 3.23572 3.73850 3.49616
# Velocity P-wave (km/s) = 5.22846 5.98174 5.61774
#
# Compressibility (1/GPa) = 0.03148836
#
# Stress axis : x y z
#
# Youngs Moduli (GPa) = 69.25590 32.27380 86.18395
#
# Poissons Ratio (x) = 0.21600 0.09187
# Poissons Ratio (y) = 0.46352 0.43183
# Poissons Ratio (z) = 0.07383 0.16171
#
# Static dielectric constant tensor:
#      x y z
#    x 1.877500 0.002610 -0.018610 
#    y 0.002610 1.970970 -0.046340 
#    z -0.018610 -0.046340 1.907510 
# 
# From -- ./inp_files/157062.got.cif
#   From: 2010.05.17/outbox.cif.g08.bks.cpg/sg2_79_cif.got.tgz:157062.got - 2010.06.03 11:33:40.
