data_PCOD9066070
_publ_section_title
;
Structure prediction by ZEFSAII (Michael W. Deem and Ramdas Pophale) SiO2 
 PCOD9066070
Probable space group: P -1
;
_chemical_formula_sum "Si O2"
_cell_formula_units_Z 13
_cell_length_a 24.623927
_cell_length_b 15.195066
_cell_length_c 5.362024
_cell_angle_alpha 65.895438
_cell_angle_beta 125.132224
_cell_angle_gamma 158.600021
_cell_volume 541.388521
_symmetry_space_group_name_H-M "P -1"
_symmetry_group_IT_number 2
_symmetry_cell_setting 'triclinic'
loop_
_space_group_symop_operation_xyz
x,y,z
-x,-y,-z
loop_
_atom_site_type_symbol
_atom_site_label
_atom_site_fract_x
_atom_site_fract_y
_atom_site_fract_z
Si Si1 0.120087 0.724198 0.751893
Si Si2 0.493859 0.830693 0.216457
Si Si3 0.651016 0.844816 0.497811
Si Si4 0.740441 0.473806 0.555602
Si Si5 0.790352 0.331199 0.674613
Si Si6 0.000000 0.000000 0.500000
Si Si7 0.341512 0.324524 0.974993
O O1 0.000000 0.500000 0.500000
O O2 0.987016 0.581498 0.780261
O O3 0.218520 0.946206 0.623861
O O4 0.250969 0.816989 0.090606
O O5 0.608143 0.886119 0.473902
O O6 0.348906 0.635026 0.283931
O O7 0.636447 0.111282 0.309410
O O8 0.394098 0.693026 0.845485
O O9 0.458707 0.545033 0.229595
O O10 0.729213 0.867199 0.851763
O O11 0.790779 0.429909 0.709997
O O12 0.902422 0.769547 0.605988
O O13 0.175043 0.169407 0.639113
O O14 0.500000 0.500000 0.000000
#
# Coordination Sequence:
#
# PCOD9066070 Si02
#       7
#     2   2   2   2   2   1   2
#     4  11  25  44  73 111 148 201 261 330 394 477
#     4  12  25  50  76 111 157 208 262 328 405 480
#     4  11  25  47  77 108 155 206 262 320 407 470
#     4  12  29  47  77 112 158 208 262 337 399 477
#     4  11  27  44  74 110 155 206 262 327 402 474
#     4  12  28  50  76 120 156 204 280 328 400 474
#     4  11  27  50  78 110 153 214 257 333 393 481
#
# _framework density 24.012329000000001
#
# number of rings (size 3 to 8) (size 9 to 14) (size 15 to 20)
#    0.000    0.615    3.077    2.769    8.615    0.615 
#    2.769    0.000    0.000    0.000    0.000    0.000 
#    0.000    0.000    0.000    0.000    0.000    0.000 
#
# Total GULP energy -72491.717806 kJ/mol
# GULP energy per Si atom -5576.285985 kJ/mol
# Density = 2.395768 g / cm^3
# Si number density = 24.012329 Si / 1000 Ang^3
#
#
#
# Elastic Constant Matrix: (Units=GPa)
#
#
# Indices 1 2 3 4 5 6 
#
# 1 101.4521 31.0648 29.2047 -5.5934 16.0663 29.5232
# 2 31.0648 147.0309 13.5953 -22.9870 14.3705 18.2422
# 3 29.2047 13.5953 72.4677 -19.2861 20.3994 7.3326
# 4 -5.5934 -22.9870 -19.2861 29.9668 -1.1976 2.6649
# 5 16.0663 14.3705 20.3994 -1.1976 37.8857 3.5307
# 6 29.5232 18.2422 7.3326 2.6649 3.5307 34.3128
#
#
#
# Elastic Compliance Matrix: (Units=1/GPa)
#
#
# Indices 1 2 3 4 5 6 
#
# 1 0.015045 -0.001080 -0.003800 0.000425 -0.002858 -0.011298
# 2 -0.001080 0.009100 0.002551 0.008697 -0.003649 -0.004754
# 3 -0.003800 0.002551 0.022216 0.015385 -0.010558 -0.002943
# 4 0.000425 0.008697 0.015385 0.050661 -0.009111 -0.011274
# 5 -0.002858 -0.003649 -0.010558 -0.009111 0.034029 0.003862
# 6 -0.011298 -0.004754 -0.002943 -0.011274 0.003862 0.042499
#
#
# Mechanical properties :
#
#
# Convention : Reuss Voigt Hill
#
# Bulk Modulus (GPa) = 23.97856 52.07558 38.02707
# Shear Modulus (GPa) = 26.02688 36.90544 31.46616
#
# Velocity S-wave (km/s) = 3.29583 3.92463 3.62390
# Velocity P-wave (km/s) = 4.94883 6.50162 5.77763
#
# Compressibility (1/GPa) = 0.04170392
#
# Stress axis : x y z
#
# Youngs Moduli (GPa) = 66.46651 109.89214 45.01181
#
# Poissons Ratio (x) = 0.11867 0.17104
# Poissons Ratio (y) = 0.07178 -0.11482
# Poissons Ratio (z) = 0.25256 -0.28033
#
# Static dielectric constant tensor:
#      x y z
#    x 1.901780 0.014960 -0.014340 
#    y 0.014960 1.901220 0.015130 
#    z -0.014340 0.015130 2.076950 
# 
# From -- ./inp_files/24849.got.cif
#   From: 2010.05.17/outbox.cif.g08.bks.cpg/sg2_13_cif.got.tgz:24849.got - 2010.06.03 11:33:40.
