data_PCOD9066218
_publ_section_title
;
Structure prediction by ZEFSAII (Michael W. Deem and Ramdas Pophale) SiO2 
 PCOD9066218
Probable space group: P -1
;
_chemical_formula_sum "Si O2"
_cell_formula_units_Z 15
_cell_length_a 7.646385
_cell_length_b 13.301642
_cell_length_c 7.791300
_cell_angle_alpha 73.520408
_cell_angle_beta 56.314001
_cell_angle_gamma 59.140327
_cell_volume 566.036097
_symmetry_space_group_name_H-M "P -1"
_symmetry_group_IT_number 2
_symmetry_cell_setting 'triclinic'
loop_
_space_group_symop_operation_xyz
x,y,z
-x,-y,-z
loop_
_atom_site_type_symbol
_atom_site_label
_atom_site_fract_x
_atom_site_fract_y
_atom_site_fract_z
Si Si1 0.249455 0.964217 0.974893
Si Si2 0.162939 0.365718 0.919972
Si Si3 0.531288 0.346598 0.221800
Si Si4 0.500000 0.000000 0.500000
Si Si5 0.290209 0.218631 0.592667
Si Si6 0.030516 0.186524 0.195286
Si Si7 0.941269 0.165947 0.628776
Si Si8 0.581092 0.397916 0.773255
O O1 0.443630 0.934752 0.740452
O O2 0.216232 0.078102 0.042153
O O3 0.238499 0.870171 0.160326
O O4 0.000000 0.000000 0.000000
O O5 0.138619 0.303559 0.787059
O O6 0.415599 0.362230 0.765933
O O7 0.000000 0.500000 0.000000
O O8 0.128085 0.282545 0.118837
O O9 0.343942 0.301849 0.398054
O O10 0.787143 0.252822 0.190538
O O11 0.473960 0.469167 0.285914
O O12 0.529470 0.376013 0.008181
O O13 0.529638 0.104306 0.561183
O O14 0.189687 0.126679 0.613453
O O15 0.982548 0.140065 0.421838
O O16 0.843320 0.305847 0.634997
#
# Coordination Sequence:
#
# PCOD9066218 Si02
#       8
#     2   2   2   1   2   2   2   2
#     4  12  24  49  78 108 152 199 253 320 379 453
#     4  12  25  46  75 109 150 200 254 318 383 456
#     4  11  25  45  76 106 149 200 252 319 380 453
#     4  12  24  46  82 108 146 204 256 312 382 454
#     4  12  26  46  74 111 146 203 256 312 385 453
#     4  12  25  48  74 112 156 199 253 316 387 454
#     4  12  27  46  75 111 154 203 251 314 386 460
#     4  11  25  45  71 110 147 197 258 312 383 458
#
# _framework density 26.500074999999999
#
# number of rings (size 3 to 8) (size 9 to 14) (size 15 to 20)
#    0.000    0.267    4.000    5.200    3.733    1.600 
#    2.400    1.333    0.000    0.000    0.000    0.000 
#    0.000    0.000    0.000    0.000    0.000    0.000 
#
# Total GULP energy -83792.643507 kJ/mol
# GULP energy per Si atom -5586.176234 kJ/mol
# Density = 2.643976 g / cm^3
# Si number density = 26.500075 Si / 1000 Ang^3
#
#
#
# Elastic Constant Matrix: (Units=GPa)
#
#
# Indices 1 2 3 4 5 6 
#
# 1 57.7696 17.0079 24.4680 -10.8456 -0.5016 5.5459
# 2 17.0079 177.5031 68.4505 0.9768 -5.1625 8.6062
# 3 24.4680 68.4505 203.8918 -10.5188 -1.7757 11.9289
# 4 -10.8456 0.9768 -10.5188 48.7756 10.4646 -5.8512
# 5 -0.5016 -5.1625 -1.7757 10.4646 32.0012 -1.5323
# 6 5.5459 8.6062 11.9289 -5.8512 -1.5323 30.4269
#
#
#
# Elastic Compliance Matrix: (Units=1/GPa)
#
#
# Indices 1 2 3 4 5 6 
#
# 1 0.019266 -0.001201 -0.001605 0.004040 -0.001390 -0.001836
# 2 -0.001201 0.006645 -0.002080 -0.001249 0.001297 -0.001020
# 3 -0.001605 -0.002080 0.005913 0.000888 -0.000385 -0.001286
# 4 0.004040 -0.001249 0.000888 0.023674 -0.007666 0.003435
# 5 -0.001390 0.001297 -0.000385 -0.007666 0.033935 0.000272
# 6 -0.001836 -0.001020 -0.001286 0.003435 0.000272 0.034667
#
#
# Mechanical properties :
#
#
# Convention : Reuss Voigt Hill
#
# Bulk Modulus (GPa) = 45.34710 73.22414 59.28562
# Shear Modulus (GPa) = 35.40500 44.18996 39.79748
#
# Velocity S-wave (km/s) = 3.65915 4.08798 3.87949
# Velocity P-wave (km/s) = 5.91622 7.06922 6.51826
#
# Compressibility (1/GPa) = 0.02205213
#
# Stress axis : x y z
#
# Youngs Moduli (GPa) = 51.90471 150.48854 169.11062
#
# Poissons Ratio (x) = 0.18068 0.27146
# Poissons Ratio (y) = 0.06232 0.35179
# Poissons Ratio (z) = 0.08332 0.31306
#
# Static dielectric constant tensor:
#      x y z
#    x 2.291080 -0.073560 0.017520 
#    y -0.073560 2.154290 0.025180 
#    z 0.017520 0.025180 2.057760 
# 
# From -- ./inp_files/175749.got.cif
#   From: 2010.05.17/outbox.cif.g08.bks.cpg/sg2_88_cif.got.tgz:175749.got - 2010.06.03 11:33:40.
