data_PCOD9066298
_publ_section_title
;
Structure prediction by ZEFSAII (Michael W. Deem and Ramdas Pophale) SiO2 
 PCOD9066298
Probable space group: P -1
;
_chemical_formula_sum "Si O2"
_cell_formula_units_Z 15
_cell_length_a 15.282545
_cell_length_b 24.234044
_cell_length_c 15.149427
_cell_angle_alpha 160.538103
_cell_angle_beta 152.920465
_cell_angle_gamma 19.831965
_cell_volume 633.917215
_symmetry_space_group_name_H-M "P -1"
_symmetry_group_IT_number 2
_symmetry_cell_setting 'triclinic'
loop_
_space_group_symop_operation_xyz
x,y,z
-x,-y,-z
loop_
_atom_site_type_symbol
_atom_site_label
_atom_site_fract_x
_atom_site_fract_y
_atom_site_fract_z
Si Si1 0.857111 0.623760 0.759465
Si Si2 0.411024 0.216338 0.695255
Si Si3 0.542969 0.338372 0.449506
Si Si4 0.277940 0.805892 0.913950
Si Si5 0.222009 0.039397 0.044909
Si Si6 0.000000 0.500000 0.500000
Si Si7 0.344738 0.755781 0.214974
Si Si8 0.083712 0.087582 0.636100
O O1 0.606483 0.652328 0.586647
O O2 0.104958 0.390925 0.673147
O O3 0.923166 0.617999 0.708698
O O4 0.831043 0.803800 0.066538
O O5 0.534843 0.206450 0.699324
O O6 0.500000 0.000000 0.500000
O O7 0.515753 0.294346 0.974271
O O8 0.343577 0.586590 0.604648
O O9 0.821430 0.256995 0.598370
O O10 0.598413 0.152370 0.154462
O O11 0.308733 0.920306 0.037159
O O12 0.000000 0.000000 0.000000
O O13 0.929677 0.148535 0.924702
O O14 0.187061 0.254049 0.340247
O O15 0.500000 0.500000 0.000000
O O16 0.291573 0.894474 0.463683
O O17 0.000000 0.000000 0.500000
#
# Coordination Sequence:
#
# PCOD9066298 Si02
#       8
#     2   2   2   2   2   1   2   2
#     4  12  27  46  74 107 149 197 244 313 376 452
#     4  12  25  45  71 111 150 196 256 307 374 458
#     4  11  26  48  72 110 153 196 252 310 382 451
#     4  12  23  45  75 106 151 196 247 307 375 449
#     4  11  25  45  73 108 148 201 250 314 380 455
#     4  12  26  46  70 110 148 188 258 308 378 442
#     4  11  25  45  76 106 151 200 253 314 379 453
#     4  11  25  48  74 110 152 196 252 314 384 453
#
# _framework density 23.662393999999999
#
# number of rings (size 3 to 8) (size 9 to 14) (size 15 to 20)
#    0.000    0.533    2.667    6.000    0.000    6.400 
#    0.000    2.000    0.000    0.000    0.000    0.000 
#    0.000    0.000    0.000    0.000    0.000    0.000 
#
# Total GULP energy -83671.406184 kJ/mol
# GULP energy per Si atom -5578.093746 kJ/mol
# Density = 2.360854 g / cm^3
# Si number density = 23.662394 Si / 1000 Ang^3
#
#
#
# Elastic Constant Matrix: (Units=GPa)
#
#
# Indices 1 2 3 4 5 6 
#
# 1 155.4898 38.4906 72.3788 18.2663 -6.5255 12.2907
# 2 38.4906 79.6839 52.6482 4.9859 -1.9873 -4.0047
# 3 72.3788 52.6482 142.3336 45.0193 -21.0436 3.5145
# 4 18.2663 4.9859 45.0193 52.0657 9.3608 1.4969
# 5 -6.5255 -1.9873 -21.0436 9.3608 44.1870 -2.3481
# 6 12.2907 -4.0047 3.5145 1.4969 -2.3481 40.5255
#
#
#
# Elastic Compliance Matrix: (Units=1/GPa)
#
#
# Indices 1 2 3 4 5 6 
#
# 1 0.008903 -0.001622 -0.004406 0.001138 -0.001235 -0.002592
# 2 -0.001622 0.019258 -0.009745 0.008080 -0.005587 0.002618
# 3 -0.004406 -0.009745 0.020034 -0.017010 0.012054 -0.000037
# 4 0.001138 0.008080 -0.017010 0.035462 -0.015095 -0.000256
# 5 -0.001235 -0.005587 0.012054 -0.015095 0.031196 0.001142
# 6 -0.002592 0.002618 -0.000037 -0.000256 0.001142 0.025800
#
#
# Mechanical properties :
#
#
# Convention : Reuss Voigt Hill
#
# Bulk Modulus (GPa) = 60.06287 78.28252 69.17269
# Shear Modulus (GPa) = 28.12931 41.62161 34.87546
#
# Velocity S-wave (km/s) = 3.45161 4.19857 3.84328
# Velocity P-wave (km/s) = 6.42831 7.52721 6.99936
#
# Compressibility (1/GPa) = 0.01664922
#
# Stress axis : x y z
#
# Youngs Moduli (GPa) = 112.32086 51.92519 49.91434
#
# Poissons Ratio (x) = 0.08420 0.21994
# Poissons Ratio (y) = 0.18214 0.48644
# Poissons Ratio (z) = 0.49491 0.50604
#
# Static dielectric constant tensor:
#      x y z
#    x 1.885670 -0.029110 0.015210 
#    y -0.029110 1.882750 -0.012020 
#    z 0.015210 -0.012020 1.978520 
# 
# From -- ./inp_files/535458.got.cif
#   From: 2010.05.17/outbox.cif.g08.bks.cpg/sg2_268_cif.got.tgz:535458.got - 2010.06.03 11:33:40.
