data_PCOD9066502
_publ_section_title
;
Structure prediction by ZEFSAII (Michael W. Deem and Ramdas Pophale) SiO2 
 PCOD9066502
Probable space group: P -1
;
_chemical_formula_sum "Si O2"
_cell_formula_units_Z 16
_cell_length_a 23.144917
_cell_length_b 6.661738
_cell_length_c 14.329419
_cell_angle_alpha 66.754301
_cell_angle_beta 160.039755
_cell_angle_gamma 112.137664
_cell_volume 692.866377
_symmetry_space_group_name_H-M "P -1"
_symmetry_group_IT_number 2
_symmetry_cell_setting 'triclinic'
loop_
_space_group_symop_operation_xyz
x,y,z
-x,-y,-z
loop_
_atom_site_type_symbol
_atom_site_label
_atom_site_fract_x
_atom_site_fract_y
_atom_site_fract_z
Si Si1 0.630275 0.600535 0.814198
Si Si2 0.709888 0.469017 0.415550
Si Si3 0.692740 0.656119 0.679461
Si Si4 0.853917 0.099883 0.823572
Si Si5 0.046180 0.713384 0.862046
Si Si6 0.400523 0.769600 0.893821
Si Si7 0.803247 0.952586 0.120117
Si Si8 0.829442 0.227386 0.278098
O O1 0.656250 0.645314 0.736372
O O2 0.453789 0.469927 0.576097
O O3 0.652572 0.823391 0.864152
O O4 0.772366 0.442536 0.098603
O O5 0.787613 0.326242 0.641792
O O6 0.673813 0.305521 0.304731
O O7 0.848696 0.653611 0.562081
O O8 0.537768 0.586086 0.160531
O O9 0.712031 0.909212 0.638954
O O10 0.861114 0.517867 0.944672
O O11 0.920589 0.142749 0.021547
O O12 0.000000 0.000000 0.000000
O O13 0.132464 0.843493 0.883296
O O14 0.253444 0.775657 0.745967
O O15 0.500000 0.000000 0.000000
O O16 0.970487 0.806709 0.408845
O O17 0.757885 0.032404 0.139364
#
# Coordination Sequence:
#
# PCOD9066502 Si02
#       8
#     2   2   2   2   2   2   2   2
#     4  11  25  46  70 105 147 189 239 297 369 432
#     4  11  28  47  75 110 144 194 251 291 370 436
#     4  11  26  45  71 107 147 192 236 302 363 434
#     4  12  27  45  76 107 146 197 241 301 365 432
#     4  12  25  46  74 106 147 186 247 298 363 446
#     4  11  28  50  74 106 150 193 239 311 359 430
#     4  11  25  46  73 108 143 193 240 305 363 436
#     4  11  26  44  75 104 144 190 247 292 371 432
#
# _framework density 23.092478
#
# number of rings (size 3 to 8) (size 9 to 14) (size 15 to 20)
#    0.000    0.750    3.750    1.500    8.750    5.500 
#    0.000    0.000    0.000    0.000    0.000    0.000 
#    0.000    0.000    0.000    0.000    0.000    0.000 
#
# Total GULP energy -89636.938801 kJ/mol
# GULP energy per Si atom -5602.308675 kJ/mol
# Density = 2.303992 g / cm^3
# Si number density = 23.092478 Si / 1000 Ang^3
#
#
#
# Elastic Constant Matrix: (Units=GPa)
#
#
# Indices 1 2 3 4 5 6 
#
# 1 61.2002 -6.5811 11.5483 -3.8027 -0.5728 -12.0765
# 2 -6.5811 13.3482 41.7201 9.1651 13.4597 16.4961
# 3 11.5483 41.7201 43.6411 17.4039 -9.3443 -9.5627
# 4 -3.8027 9.1651 17.4039 46.3783 3.4103 1.2769
# 5 -0.5728 13.4597 -9.3443 3.4103 21.5221 -9.3591
# 6 -12.0765 16.4961 -9.5627 1.2769 -9.3591 40.7176
#
#
#
# Elastic Compliance Matrix: (Units=1/GPa)
#
#
# Indices 1 2 3 4 5 6 
#
# 1 0.017775 -0.002190 -0.000919 0.001742 0.004142 0.006840
# 2 -0.002190 -0.008043 0.017343 -0.006758 0.018410 0.011126
# 3 -0.000919 0.017343 0.003049 -0.003420 -0.013134 -0.009495
# 4 0.001742 -0.006758 -0.003420 0.024306 -0.000365 0.001606
# 5 0.004142 0.018410 -0.013134 -0.000365 0.028188 -0.002824
# 6 0.006840 0.011126 -0.009495 0.001606 -0.002824 0.019151
#
#
# Mechanical properties :
#
#
# Convention : Reuss Voigt Hill
#
# Bulk Modulus (GPa) = 24.24292 23.50712 23.87502
# Shear Modulus (GPa) = 71.72847 26.49042 49.10945
#
# Velocity S-wave (km/s) = 5.57932 3.39063 4.61656
# Velocity P-wave (km/s) = 7.21291 5.05273 6.22721
#
# Compressibility (1/GPa) = 0.04124916
#
# Stress axis : x y z
#
# Youngs Moduli (GPa) = 56.25986 -124.33772 328.00017
#
# Poissons Ratio (x) = -0.27226 0.30153
# Poissons Ratio (y) = 0.12319 -5.68855
# Poissons Ratio (z) = 0.05172 2.15640
#
# Static dielectric constant tensor:
#      x y z
#    x 1.829890 0.012150 0.023080 
#    y 0.012150 1.867950 0.005460 
#    z 0.023080 0.005460 1.869960 
# 
# From -- ./inp_files/542154.got.cif
#   From: 2010.05.17/outbox.cif.g08.bks.cpg/sg2_272_cif.got.tgz:542154.got - 2010.06.03 11:33:40.
