data_PCOD9066471
_publ_section_title
;
Structure prediction by ZEFSAII (Michael W. Deem and Ramdas Pophale) SiO2 
 PCOD9066471
Probable space group: P -1
;
_chemical_formula_sum "Si O2"
_cell_formula_units_Z 13
_cell_length_a 6.504831
_cell_length_b 8.905926
_cell_length_c 12.232094
_cell_angle_alpha 67.078201
_cell_angle_beta 74.551959
_cell_angle_gamma 110.480137
_cell_volume 540.762695
_symmetry_space_group_name_H-M "P -1"
_symmetry_group_IT_number 2
_symmetry_cell_setting 'triclinic'
loop_
_space_group_symop_operation_xyz
x,y,z
-x,-y,-z
loop_
_atom_site_type_symbol
_atom_site_label
_atom_site_fract_x
_atom_site_fract_y
_atom_site_fract_z
Si Si1 0.000000 0.000000 0.000000
Si Si2 0.902435 0.645805 0.486809
Si Si3 0.548321 0.397989 0.786217
Si Si4 0.582394 0.031763 0.603582
Si Si5 0.138514 0.678245 0.085638
Si Si6 0.803050 0.873256 0.254010
Si Si7 0.374359 0.631591 0.847056
O O1 0.860673 0.128229 0.972703
O O2 0.956768 0.946905 0.879437
O O3 0.656927 0.533084 0.627039
O O4 0.849001 0.735660 0.362506
O O5 0.000000 0.500000 0.500000
O O6 0.128597 0.817014 0.469684
O O7 0.737617 0.336938 0.816816
O O8 0.292755 0.213529 0.833210
O O9 0.513463 0.514728 0.852737
O O10 0.406822 0.094874 0.673209
O O11 0.500000 0.000000 0.500000
O O12 0.535437 0.837173 0.714879
O O13 0.862738 0.496922 0.161546
O O14 0.282733 0.659756 0.967507
#
# Coordination Sequence:
#
# PCOD9066471 Si02
#       7
#     1   2   2   2   2   2   2
#     4  12  24  48  74 106 142 186 244 298 352 434
#     4  12  27  46  74 105 141 191 245 295 356 432
#     4  12  25  45  76 104 146 192 238 301 362 429
#     4  12  27  46  73 106 148 190 238 301 361 428
#     4  11  25  46  73 108 144 191 242 296 362 433
#     4  12  27  46  72 109 142 188 243 298 360 431
#     4  11  25  46  68 109 148 188 239 298 365 429
#
# _framework density 24.040120000000002
#
# number of rings (size 3 to 8) (size 9 to 14) (size 15 to 20)
#    0.000    0.308    4.615    3.692    2.154    5.538 
#    0.000    0.000    0.000    0.000    0.000    0.000 
#    0.000    0.000    0.000    0.000    0.000    0.000 
#
# Total GULP energy -72623.480182 kJ/mol
# GULP energy per Si atom -5586.421552 kJ/mol
# Density = 2.398540 g / cm^3
# Si number density = 24.040120 Si / 1000 Ang^3
#
#
#
# Elastic Constant Matrix: (Units=GPa)
#
#
# Indices 1 2 3 4 5 6 
#
# 1 96.1400 42.4077 51.5061 -3.5664 18.9904 -18.5679
# 2 42.4077 85.8123 33.7165 -12.3909 1.2132 -11.1178
# 3 51.5061 33.7165 123.4127 -8.2524 14.8902 5.3010
# 4 -3.5664 -12.3909 -8.2524 44.1666 -6.5227 -8.6580
# 5 18.9904 1.2132 14.8902 -6.5227 54.4008 0.2371
# 6 -18.5679 -11.1178 5.3010 -8.6580 0.2371 53.2726
#
#
#
# Elastic Compliance Matrix: (Units=1/GPa)
#
#
# Indices 1 2 3 4 5 6 
#
# 1 0.018034 -0.006079 -0.005587 -0.000930 -0.004766 0.005443
# 2 -0.006079 0.016383 -0.002074 0.004580 0.002864 0.002238
# 3 -0.005587 -0.002074 0.011293 0.000244 -0.001050 -0.003460
# 4 -0.000930 0.004580 0.000244 0.025286 0.003167 0.004703
# 5 -0.004766 0.002864 -0.001050 0.003167 0.020651 -0.000536
# 6 0.005443 0.002238 -0.003460 0.004703 -0.000536 0.022247
#
#
# Mechanical properties :
#
#
# Convention : Reuss Voigt Hill
#
# Bulk Modulus (GPa) = 54.85378 62.29170 58.57274
# Shear Modulus (GPa) = 33.90950 42.21699 38.06324
#
# Velocity S-wave (km/s) = 3.75979 4.19514 3.98341
# Velocity P-wave (km/s) = 6.45873 7.03089 6.75087
#
# Compressibility (1/GPa) = 0.01823028
#
# Stress axis : x y z
#
# Youngs Moduli (GPa) = 55.45057 61.03778 88.55195
#
# Poissons Ratio (x) = 0.37104 0.49471
# Poissons Ratio (y) = 0.33708 0.18369
# Poissons Ratio (z) = 0.30978 0.12661
#
# Static dielectric constant tensor:
#      x y z
#    x 1.915430 0.055540 -0.083930 
#    y 0.055540 1.981670 -0.042210 
#    z -0.083930 -0.042210 2.066880 
# 
# From -- ./inp_files/25380.got.cif
#   From: 2010.05.17/outbox.cif.g08.bks.cpg/sg2_13_cif.got.tgz:25380.got - 2010.06.03 11:33:40.
