data_PCOD9066145
_publ_section_title
;
Structure prediction by ZEFSAII (Michael W. Deem and Ramdas Pophale) SiO2 
 PCOD9066145
Probable space group: P -1
;
_chemical_formula_sum "Si O2"
_cell_formula_units_Z 15
_cell_length_a 5.813493
_cell_length_b 23.820147
_cell_length_c 15.245098
_cell_angle_alpha 160.261345
_cell_angle_beta 118.730102
_cell_angle_gamma 58.561831
_cell_volume 607.938637
_symmetry_space_group_name_H-M "P -1"
_symmetry_group_IT_number 2
_symmetry_cell_setting 'triclinic'
loop_
_space_group_symop_operation_xyz
x,y,z
-x,-y,-z
loop_
_atom_site_type_symbol
_atom_site_label
_atom_site_fract_x
_atom_site_fract_y
_atom_site_fract_z
Si Si1 0.944630 0.380596 0.642418
Si Si2 0.808561 0.770446 0.361671
Si Si3 0.978425 0.001222 0.603961
Si Si4 0.525374 0.105874 0.905290
Si Si5 0.468519 0.692076 0.038787
Si Si6 0.882465 0.572032 0.435065
Si Si7 0.563865 0.147471 0.170512
Si Si8 0.500000 0.500000 0.500000
O O1 0.777823 0.236407 0.385340
O O2 0.054984 0.361227 0.732260
O O3 0.154604 0.354030 0.562007
O O4 0.736336 0.565173 0.862295
O O5 0.559794 0.713075 0.186180
O O6 0.984685 0.820755 0.387571
O O7 0.709171 0.949161 0.656880
O O8 0.677983 0.119479 0.741909
O O9 0.222102 0.076863 0.797462
O O10 0.000000 0.000000 0.500000
O O11 0.631446 0.084426 0.992994
O O12 0.532579 0.300318 0.171554
O O13 0.234311 0.593659 0.836416
O O14 0.700679 0.696468 0.654801
O O15 0.187242 0.547452 0.482113
O O16 0.500000 0.000000 0.000000
#
# Coordination Sequence:
#
# PCOD9066145 Si02
#       8
#     2   2   2   2   2   2   2   1
#     4  11  26  46  72 107 147 197 236 297 362 427
#     4  12  28  47  76 106 145 192 244 298 364 432
#     4  12  27  48  73 106 142 188 245 304 359 426
#     4  12  27  43  75 106 141 189 240 298 364 424
#     4  11  26  47  73 105 143 190 242 301 358 428
#     4  11  26  45  75 102 149 189 242 297 356 426
#     4  11  25  45  68 105 145 188 241 292 355 431
#     4  12  26  44  68 106 142 190 236 290 360 424
#
# _framework density 24.673542999999999
#
# number of rings (size 3 to 8) (size 9 to 14) (size 15 to 20)
#    0.000    0.533    4.000    2.400    7.467    3.200 
#    0.000    0.000    0.000    0.000    0.000    0.000 
#    0.000    0.000    0.000    0.000    0.000    0.000 
#
# Total GULP energy -83690.668520 kJ/mol
# GULP energy per Si atom -5579.377901 kJ/mol
# Density = 2.461738 g / cm^3
# Si number density = 24.673543 Si / 1000 Ang^3
#
#
#
# Elastic Constant Matrix: (Units=GPa)
#
#
# Indices 1 2 3 4 5 6 
#
# 1 40.2425 15.5422 13.9331 -5.9348 -3.0733 -1.6311
# 2 15.5422 90.2039 -2.7448 -17.4648 0.1515 -16.6628
# 3 13.9331 -2.7448 108.5385 -21.1373 6.5432 -5.7241
# 4 -5.9348 -17.4648 -21.1373 42.0919 -2.9668 5.5493
# 5 -3.0733 0.1515 6.5432 -2.9668 32.6248 -8.7758
# 6 -1.6311 -16.6628 -5.7241 5.5493 -8.7758 32.4616
#
#
#
# Elastic Compliance Matrix: (Units=1/GPa)
#
#
# Indices 1 2 3 4 5 6 
#
# 1 0.028474 -0.005193 -0.003995 0.000227 0.003231 -0.001105
# 2 -0.005193 0.014433 0.002418 0.005646 0.001348 0.006973
# 3 -0.003995 0.002418 0.011077 0.005677 -0.001670 0.001571
# 4 0.000227 0.005646 0.005677 0.029171 0.001315 -0.000720
# 5 0.003231 0.001348 -0.001670 0.001315 0.033964 0.009517
# 6 -0.001105 0.006973 0.001571 -0.000720 0.009517 0.037303
#
#
# Mechanical properties :
#
#
# Convention : Reuss Voigt Hill
#
# Bulk Modulus (GPa) = 24.72667 32.49399 28.61033
# Shear Modulus (GPa) = 27.55671 35.58596 31.57134
#
# Velocity S-wave (km/s) = 3.34556 3.80185 3.58098
# Velocity P-wave (km/s) = 4.99670 5.69826 5.35897
#
# Compressibility (1/GPa) = 0.04044216
#
# Stress axis : x y z
#
# Youngs Moduli (GPa) = 35.11999 69.28348 90.28106
#
# Poissons Ratio (x) = 0.35980 0.36071
# Poissons Ratio (y) = 0.18238 -0.21828
# Poissons Ratio (z) = 0.14032 -0.16751
#
# Static dielectric constant tensor:
#      x y z
#    x 1.951070 0.085060 -0.014380 
#    y 0.085060 1.863040 -0.057370 
#    z -0.014380 -0.057370 1.863440 
# 
# From -- ./inp_files/78467.got.cif
#   From: 2010.05.17/outbox.cif.g08.bks.cpg/sg2_40_cif.got.tgz:78467.got - 2010.06.03 11:33:40.
