data_PCOD9066350
_publ_section_title
;
Structure prediction by ZEFSAII (Michael W. Deem and Ramdas Pophale) SiO2 
 PCOD9066350
Probable space group: P -1
;
_chemical_formula_sum "Si O2"
_cell_formula_units_Z 13
_cell_length_a 9.843748
_cell_length_b 9.394546
_cell_length_c 9.553877
_cell_angle_alpha 106.397611
_cell_angle_beta 120.247964
_cell_angle_gamma 44.380377
_cell_volume 529.381900
_symmetry_space_group_name_H-M "P -1"
_symmetry_group_IT_number 2
_symmetry_cell_setting 'triclinic'
loop_
_space_group_symop_operation_xyz
x,y,z
-x,-y,-z
loop_
_atom_site_type_symbol
_atom_site_label
_atom_site_fract_x
_atom_site_fract_y
_atom_site_fract_z
Si Si1 0.622788 0.997259 0.938297
Si Si2 0.267395 0.791255 0.423191
Si Si3 0.667368 0.525483 0.118700
Si Si4 0.000000 0.500000 0.500000
Si Si5 0.934832 0.258516 0.450251
Si Si6 0.076073 0.801761 0.066898
Si Si7 0.376332 0.195213 0.390134
O O1 0.478982 0.234499 0.893420
O O2 0.655207 0.867288 0.789136
O O3 0.500000 0.000000 0.000000
O O4 0.867053 0.889446 0.071801
O O5 0.211855 0.712365 0.495707
O O6 0.266331 0.717376 0.250410
O O7 0.478288 0.753127 0.544475
O O8 0.062851 0.038990 0.387373
O O9 0.796818 0.439132 0.310123
O O10 0.500000 0.500000 0.000000
O O11 0.842773 0.376798 0.047579
O O12 0.896371 0.720988 0.426577
O O13 0.159585 0.374711 0.410908
O O14 0.000000 0.000000 0.000000
O O15 0.500000 0.000000 0.500000
#
# Coordination Sequence:
#
# PCOD9066350 Si02
#       7
#     2   2   2   1   2   2   2
#     4  12  30  50  78 113 157 201 256 322 385 457
#     4  11  26  46  78 110 153 198 250 327 377 450
#     4  12  26  46  81 106 148 207 254 308 387 457
#     4  12  26  44  76 108 152 196 252 314 384 452
#     4  11  25  45  74 113 148 196 257 309 386 459
#     4  12  24  49  76 112 151 199 261 313 378 462
#     4  12  26  48  75 112 155 199 252 316 389 451
#
# _framework density 24.556940999999998
#
# number of rings (size 3 to 8) (size 9 to 14) (size 15 to 20)
#    0.000    0.308    4.615    2.769    8.615    2.462 
#    0.000    0.000    0.000    0.000    0.000    0.000 
#    0.000    0.000    0.000    0.000    0.000    0.000 
#
# Total GULP energy -72658.200032 kJ/mol
# GULP energy per Si atom -5589.092310 kJ/mol
# Density = 2.450105 g / cm^3
# Si number density = 24.556941 Si / 1000 Ang^3
#
#
#
# Elastic Constant Matrix: (Units=GPa)
#
#
# Indices 1 2 3 4 5 6 
#
# 1 184.2546 39.8030 21.8665 14.8646 -13.4303 0.7555
# 2 39.8030 126.6266 48.5888 26.7773 -11.1852 -15.4102
# 3 21.8665 48.5888 74.3096 34.9860 -1.9923 -2.3243
# 4 14.8646 26.7773 34.9860 42.5392 -6.2067 -5.9111
# 5 -13.4303 -11.1852 -1.9923 -6.2067 39.5706 3.2853
# 6 0.7555 -15.4102 -2.3243 -5.9111 3.2853 39.7748
#
#
#
# Elastic Compliance Matrix: (Units=1/GPa)
#
#
# Indices 1 2 3 4 5 6 
#
# 1 0.005985 -0.001563 -0.000407 -0.000683 0.001543 -0.000972
# 2 -0.001563 0.011773 -0.006900 -0.000337 0.002068 0.003967
# 3 -0.000407 -0.006900 0.026498 -0.018288 -0.003327 -0.003560
# 4 -0.000683 -0.000337 -0.018288 0.040299 0.004707 0.004414
# 5 0.001543 0.002068 -0.003327 0.004707 0.027029 -0.000956
# 6 -0.000972 0.003967 -0.003560 0.004414 -0.000956 0.027224
#
#
# Mechanical properties :
#
#
# Convention : Reuss Voigt Hill
#
# Bulk Modulus (GPa) = 37.71164 67.30084 52.50624
# Shear Modulus (GPa) = 30.23240 42.70574 36.46907
#
# Velocity S-wave (km/s) = 3.51253 4.17472 3.85786
# Velocity P-wave (km/s) = 5.64275 7.12062 6.42432
#
# Compressibility (1/GPa) = 0.02651701
#
# Stress axis : x y z
#
# Youngs Moduli (GPa) = 167.09457 84.94247 37.73846
#
# Poissons Ratio (x) = 0.13274 0.01535
# Poissons Ratio (y) = 0.26111 0.26039
# Poissons Ratio (z) = 0.06796 0.58609
#
# Static dielectric constant tensor:
#      x y z
#    x 1.721830 -0.010090 -0.145210 
#    y -0.010090 1.906310 -0.027570 
#    z -0.145210 -0.027570 1.787280 
# 
# From -- ./inp_files/159313.got.cif
#   From: 2010.05.17/outbox.cif.g08.bks.cpg/sg2_80_cif.got.tgz:159313.got - 2010.06.03 11:33:40.
