data_PCOD9066965
_publ_section_title
;
Structure prediction by ZEFSAII (Michael W. Deem and Ramdas Pophale) SiO2 
 PCOD9066965
Probable space group: P -1
;
_chemical_formula_sum "Si O2"
_cell_formula_units_Z 16
_cell_length_a 6.542390
_cell_length_b 11.579806
_cell_length_c 11.739721
_cell_angle_alpha 109.189055
_cell_angle_beta 62.367132
_cell_angle_gamma 114.703579
_cell_volume 705.719450
_symmetry_space_group_name_H-M "P -1"
_symmetry_group_IT_number 2
_symmetry_cell_setting 'triclinic'
loop_
_space_group_symop_operation_xyz
x,y,z
-x,-y,-z
loop_
_atom_site_type_symbol
_atom_site_label
_atom_site_fract_x
_atom_site_fract_y
_atom_site_fract_z
Si Si1 0.288835 0.278965 0.016148
Si Si2 0.300424 0.571658 0.563174
Si Si3 0.158904 0.651508 0.378155
Si Si4 0.316382 0.306386 0.768602
Si Si5 0.772466 0.237985 0.199481
Si Si6 0.504867 0.957817 0.116413
Si Si7 0.029008 0.879410 0.380035
Si Si8 0.272584 0.563897 0.906661
O O1 0.184385 0.280958 0.916378
O O2 0.369768 0.152503 0.956072
O O3 0.525238 0.392932 0.033296
O O4 0.062930 0.278034 0.154281
O O5 0.500000 0.500000 0.500000
O O6 0.233207 0.608811 0.467381
O O7 0.367323 0.706467 0.653040
O O8 0.053501 0.473470 0.648445
O O9 0.415395 0.689846 0.262053
O O10 0.069123 0.774969 0.425750
O O11 0.197269 0.202918 0.668579
O O12 0.328897 0.451892 0.782323
O O13 0.676703 0.085825 0.172531
O O14 0.714230 0.308925 0.125933
O O15 0.254087 0.918179 0.242556
O O16 0.500000 0.000000 0.000000
O O17 0.000000 0.000000 0.500000
O O18 0.000000 0.500000 0.000000
#
# Coordination Sequence:
#
# PCOD9066965 Si02
#       8
#     2   2   2   2   2   2   2   2
#     4  12  25  46  73 109 145 196 245 304 378 448
#     4  11  26  47  75 109 148 192 248 313 373 449
#     4  11  25  47  74 103 148 190 247 302 380 434
#     4  12  25  45  75 106 146 187 247 312 370 447
#     4  12  26  43  74 105 146 193 244 301 374 443
#     4  12  26  50  72 104 153 196 248 310 369 441
#     4  12  29  49  77 107 151 205 257 309 375 453
#     4  12  24  41  73 109 148 185 240 301 383 445
#
# _framework density 22.671897000000001
#
# number of rings (size 3 to 8) (size 9 to 14) (size 15 to 20)
#    0.000    0.250    3.750    5.250    5.250    3.500 
#    0.000    0.000    0.000    0.000    0.000    0.000 
#    0.000    0.000    0.000    0.000    0.000    0.000 
#
# Total GULP energy -89348.877733 kJ/mol
# GULP energy per Si atom -5584.304858 kJ/mol
# Density = 2.262029 g / cm^3
# Si number density = 22.671897 Si / 1000 Ang^3
#
#
#
# Elastic Constant Matrix: (Units=GPa)
#
#
# Indices 1 2 3 4 5 6 
#
# 1 108.1986 44.2458 39.0193 13.7170 2.9963 -0.8451
# 2 44.2458 116.7970 33.4966 24.8545 -0.0986 -9.4462
# 3 39.0193 33.4966 90.9180 24.3007 2.8502 -6.7761
# 4 13.7170 24.8545 24.3007 44.3058 -4.8366 2.8538
# 5 2.9963 -0.0986 2.8502 -4.8366 38.1134 -0.1386
# 6 -0.8451 -9.4462 -6.7761 2.8538 -0.1386 46.7115
#
#
#
# Elastic Compliance Matrix: (Units=1/GPa)
#
#
# Indices 1 2 3 4 5 6 
#
# 1 0.012140 -0.003634 -0.004078 0.000525 -0.000596 -0.001141
# 2 -0.003634 0.011507 -0.001200 -0.004847 -0.000201 0.002383
# 3 -0.004078 -0.001200 0.015216 -0.006740 -0.001667 0.002298
# 4 0.000525 -0.004847 -0.006740 0.029521 0.004183 -0.003740
# 5 -0.000596 -0.000201 -0.001667 0.004183 0.026938 -0.000469
# 6 -0.001141 0.002383 0.002298 -0.003740 -0.000469 0.022430
#
#
# Mechanical properties :
#
#
# Convention : Reuss Voigt Hill
#
# Bulk Modulus (GPa) = 47.53206 61.04854 54.29030
# Shear Modulus (GPa) = 35.06592 39.10290 37.08441
#
# Velocity S-wave (km/s) = 3.93704 4.15749 4.04877
# Velocity P-wave (km/s) = 6.45583 7.07331 6.77161
#
# Compressibility (1/GPa) = 0.02103843
#
# Stress axis : x y z
#
# Youngs Moduli (GPa) = 82.37278 86.90563 65.71911
#
# Poissons Ratio (x) = 0.31581 0.26800
# Poissons Ratio (y) = 0.29933 0.07889
# Poissons Ratio (z) = 0.33591 0.10432
#
# Static dielectric constant tensor:
#      x y z
#    x 1.871010 0.004400 0.016700 
#    y 0.004400 1.864080 -0.076010 
#    z 0.016700 -0.076010 1.970140 
# 
# From -- ./inp_files/364984.got.cif
#   From: 2010.05.17/outbox.cif.g08.bks.cpg/sg2_183_cif.got.tgz:364984.got - 2010.06.03 11:33:40.
