data_PCOD9066248
_publ_section_title
;
Structure prediction by ZEFSAII (Michael W. Deem and Ramdas Pophale) SiO2 
 PCOD9066248
Probable space group: P -1
;
_chemical_formula_sum "Si O2"
_cell_formula_units_Z 16
_cell_length_a 13.161609
_cell_length_b 9.468401
_cell_length_c 9.352175
_cell_angle_alpha 75.185036
_cell_angle_beta 44.872567
_cell_angle_gamma 71.602568
_cell_volume 779.351442
_symmetry_space_group_name_H-M "P -1"
_symmetry_group_IT_number 2
_symmetry_cell_setting 'triclinic'
loop_
_space_group_symop_operation_xyz
x,y,z
-x,-y,-z
loop_
_atom_site_type_symbol
_atom_site_label
_atom_site_fract_x
_atom_site_fract_y
_atom_site_fract_z
Si Si1 0.070658 0.624100 0.319397
Si Si2 0.627999 0.402172 0.801807
Si Si3 0.376067 0.447215 0.544162
Si Si4 0.348242 0.117920 0.612430
Si Si5 0.138578 0.116848 0.092212
Si Si6 0.871664 0.948244 0.396274
Si Si7 0.114739 0.455232 0.023434
Si Si8 0.351330 0.936091 0.160464
O O1 0.223245 0.618369 0.249552
O O2 0.094567 0.570874 0.144341
O O3 0.000000 0.500000 0.500000
O O4 0.968173 0.787797 0.387480
O O5 0.650023 0.461981 0.603447
O O6 0.594290 0.239065 0.862226
O O7 0.500000 0.500000 0.000000
O O8 0.500000 0.500000 0.500000
O O9 0.395421 0.277387 0.514733
O O10 0.257941 0.456341 0.786864
O O11 0.237398 0.085430 0.609491
O O12 0.500000 0.000000 0.500000
O O13 0.245712 0.117696 0.851945
O O14 0.103937 0.289731 0.132635
O O15 0.240832 0.009003 0.127660
O O16 0.991386 0.053090 0.221142
O O17 0.755790 0.027496 0.607246
O O18 0.000000 0.500000 0.000000
O O19 0.500000 0.000000 0.000000
#
# Coordination Sequence:
#
# PCOD9066248 Si02
#       8
#     2   2   2   2   2   2   2   2
#     4  12  25  45  76 107 148 193 244 310 364 445
#     4  12  29  48  74 109 145 195 252 305 377 448
#     4  11  27  46  71 104 144 190 244 298 372 440
#     4  11  26  45  73 105 148 193 244 307 366 446
#     4  11  25  46  72 106 144 192 249 296 375 439
#     4  12  26  48  72 108 145 194 248 302 374 448
#     4  11  25  45  72 106 146 190 238 303 365 438
#     4  12  29  47  75 105 149 193 245 311 376 445
#
# _framework density 20.529890999999999
#
# number of rings (size 3 to 8) (size 9 to 14) (size 15 to 20)
#    0.000    0.500    1.250    6.000   15.750    1.000 
#    0.000    0.000    0.000    0.000    0.000    0.000 
#    0.000    0.000    0.000    0.000    0.000    0.000 
#
# Total GULP energy -89349.949679 kJ/mol
# GULP energy per Si atom -5584.371855 kJ/mol
# Density = 2.048316 g / cm^3
# Si number density = 20.529891 Si / 1000 Ang^3
#
#
#
# Elastic Constant Matrix: (Units=GPa)
#
#
# Indices 1 2 3 4 5 6 
#
# 1 163.9005 65.7914 49.8764 -11.3191 -16.8653 10.1683
# 2 65.7914 169.9561 73.1168 -9.1739 -17.9203 5.4308
# 3 49.8764 73.1168 89.3342 -3.4757 -15.5578 9.4370
# 4 -11.3191 -9.1739 -3.4757 39.6211 5.0014 -3.7437
# 5 -16.8653 -17.9203 -15.5578 5.0014 55.6370 -2.8388
# 6 10.1683 5.4308 9.4370 -3.7437 -2.8388 34.2773
#
#
#
# Elastic Compliance Matrix: (Units=1/GPa)
#
#
# Indices 1 2 3 4 5 6 
#
# 1 0.007849 -0.001679 -0.002679 0.001400 0.000907 -0.001097
# 2 -0.001679 0.009579 -0.006863 0.001159 0.000607 0.001047
# 3 -0.002679 -0.006863 0.018995 -0.001282 0.002236 -0.003302
# 4 0.001400 0.001159 -0.001282 0.026255 -0.001795 0.002473
# 5 0.000907 0.000607 0.002236 -0.001795 0.019252 0.000418
# 6 -0.001097 0.001047 -0.003302 0.002473 0.000418 0.030547
#
#
# Mechanical properties :
#
#
# Convention : Reuss Voigt Hill
#
# Bulk Modulus (GPa) = 71.52763 88.97334 80.25048
# Shear Modulus (GPa) = 35.82176 41.53414 38.67795
#
# Velocity S-wave (km/s) = 4.18168 4.50277 4.34520
# Velocity P-wave (km/s) = 7.63097 8.39439 8.02177
#
# Compressibility (1/GPa) = 0.01398061
#
# Stress axis : x y z
#
# Youngs Moduli (GPa) = 127.40802 104.39063 52.64580
#
# Poissons Ratio (x) = 0.17532 0.14105
# Poissons Ratio (y) = 0.21397 0.36129
# Poissons Ratio (z) = 0.34135 0.71639
#
# Static dielectric constant tensor:
#      x y z
#    x 1.815340 0.081260 -0.057910 
#    y 0.081260 1.738850 -0.000390 
#    z -0.057910 -0.000390 1.655100 
# 
# From -- ./inp_files/243319.got.cif
#   From: 2010.05.17/outbox.cif.g08.bks.cpg/sg2_122_cif.got.tgz:243319.got - 2010.06.03 11:33:40.
