data_PCOD9066068
_publ_section_title
;
Structure prediction by ZEFSAII (Michael W. Deem and Ramdas Pophale) SiO2 
 PCOD9066068
Probable space group: P -1
;
_chemical_formula_sum "Si O2"
_cell_formula_units_Z 15
_cell_length_a 9.458893
_cell_length_b 23.904783
_cell_length_c 8.575685
_cell_angle_alpha 30.478634
_cell_angle_beta 129.806270
_cell_angle_gamma 140.217503
_cell_volume 627.876317
_symmetry_space_group_name_H-M "P -1"
_symmetry_group_IT_number 2
_symmetry_cell_setting 'triclinic'
loop_
_space_group_symop_operation_xyz
x,y,z
-x,-y,-z
loop_
_atom_site_type_symbol
_atom_site_label
_atom_site_fract_x
_atom_site_fract_y
_atom_site_fract_z
Si Si1 0.321455 0.343834 0.251407
Si Si2 0.541063 0.183396 0.222614
Si Si3 0.981131 0.700552 0.285307
Si Si4 0.532719 0.650019 0.994705
Si Si5 0.000000 0.500000 0.000000
Si Si6 0.919458 0.350926 0.848793
Si Si7 0.695517 0.057083 0.879007
Si Si8 0.258287 0.105743 0.935112
O O1 0.318931 0.254782 0.602182
O O2 0.500000 0.500000 0.000000
O O3 0.374622 0.298549 0.236789
O O4 0.094492 0.335411 0.103573
O O5 0.661514 0.133330 0.532417
O O6 0.445592 0.240022 0.138249
O O7 0.717798 0.295474 0.958673
O O8 0.352970 0.082163 0.214538
O O9 0.104490 0.724105 0.149433
O O10 0.080176 0.836781 0.124814
O O11 0.717334 0.623292 0.250581
O O12 0.041237 0.612978 0.636847
O O13 0.267415 0.542903 0.060664
O O14 0.000000 0.500000 0.500000
O O15 0.500000 0.000000 0.000000
O O16 0.665611 0.931745 0.074376
O O17 0.000000 0.000000 0.000000
#
# Coordination Sequence:
#
# PCOD9066068 Si02
#       8
#     2   2   2   2   1   2   2   2
#     4  11  27  48  74 107 153 195 254 313 383 454
#     4  12  25  46  74 110 148 196 258 310 380 455
#     4  11  26  48  71 109 151 200 251 314 376 455
#     4  11  26  45  73 111 148 199 250 310 381 453
#     4  12  24  42  78 104 152 188 260 296 384 440
#     4  11  25  44  73 110 149 198 249 314 379 453
#     4  12  26  47  77 105 149 201 256 312 379 454
#     4  12  27  47  73 109 151 198 250 316 383 455
#
# _framework density 23.890056999999999
#
# number of rings (size 3 to 8) (size 9 to 14) (size 15 to 20)
#    0.000    0.533    1.333    5.600    5.600    6.400 
#    0.000    4.667    0.000    0.000    0.000    0.000 
#    0.000    0.000    0.000    0.000    0.000    0.000 
#
# Total GULP energy -83618.675656 kJ/mol
# GULP energy per Si atom -5574.578377 kJ/mol
# Density = 2.383568 g / cm^3
# Si number density = 23.890057 Si / 1000 Ang^3
#
#
#
# Elastic Constant Matrix: (Units=GPa)
#
#
# Indices 1 2 3 4 5 6 
#
# 1 91.4118 40.3878 6.1266 1.4220 17.9240 10.0497
# 2 40.3878 106.5736 24.8431 16.8744 -2.8708 4.3293
# 3 6.1266 24.8431 107.2477 18.2341 2.5586 6.9113
# 4 1.4220 16.8744 18.2341 18.7128 4.3943 6.0218
# 5 17.9240 -2.8708 2.5586 4.3943 23.2942 -9.5609
# 6 10.0497 4.3293 6.9113 6.0218 -9.5609 45.2828
#
#
#
# Elastic Compliance Matrix: (Units=1/GPa)
#
#
# Indices 1 2 3 4 5 6 
#
# 1 0.022706 -0.011897 -0.000476 0.019942 -0.027709 -0.012331
# 2 -0.011897 0.017592 -0.000754 -0.021102 0.018589 0.007805
# 3 -0.000476 -0.000754 0.011291 -0.010561 0.001059 0.000083
# 4 0.019942 -0.021102 -0.010561 0.099447 -0.045219 -0.023568
# 5 -0.027709 0.018589 0.001059 -0.045219 0.086661 0.028521
# 6 -0.012331 0.007805 0.000083 -0.023568 0.028521 0.033217
#
#
# Mechanical properties :
#
#
# Convention : Reuss Voigt Hill
#
# Bulk Modulus (GPa) = 39.47023 49.77201 44.62112
# Shear Modulus (GPa) = 16.36043 33.04968 24.70505
#
# Velocity S-wave (km/s) = 2.61975 3.72345 3.21925
# Velocity P-wave (km/s) = 5.07033 6.27411 5.70407
#
# Compressibility (1/GPa) = 0.02533555
#
# Stress axis : x y z
#
# Youngs Moduli (GPa) = 44.04042 56.84249 88.56511
#
# Poissons Ratio (x) = 0.67625 0.04216
# Poissons Ratio (y) = 0.52395 0.06680
# Poissons Ratio (z) = 0.02096 0.04287
#
# Static dielectric constant tensor:
#      x y z
#    x 1.896120 -0.018980 0.039850 
#    y -0.018980 1.949930 0.003190 
#    z 0.039850 0.003190 1.881930 
# 
# From -- ./inp_files/225906.got.cif
#   From: 2010.05.17/outbox.cif.g08.bks.cpg/sg2_113_cif.got.tgz:225906.got - 2010.06.03 11:33:40.
