data_PCOD9066261
_publ_section_title
;
Structure prediction by ZEFSAII (Michael W. Deem and Ramdas Pophale) SiO2 
 PCOD9066261
Probable space group: P -1
;
_chemical_formula_sum "Si O2"
_cell_formula_units_Z 12
_cell_length_a 14.441670
_cell_length_b 14.954059
_cell_length_c 11.598040
_cell_angle_alpha 151.592006
_cell_angle_beta 48.854308
_cell_angle_gamma 150.251684
_cell_volume 528.698704
_symmetry_space_group_name_H-M "P -1"
_symmetry_group_IT_number 2
_symmetry_cell_setting 'triclinic'
loop_
_space_group_symop_operation_xyz
x,y,z
-x,-y,-z
loop_
_atom_site_type_symbol
_atom_site_label
_atom_site_fract_x
_atom_site_fract_y
_atom_site_fract_z
Si Si1 0.425824 0.916259 0.833118
Si Si2 0.347326 0.243832 0.235138
Si Si3 0.831932 0.284561 0.791202
Si Si4 0.415928 0.397211 0.791532
Si Si5 0.794611 0.626178 0.765781
Si Si6 0.882620 0.631713 0.939392
O O1 0.273098 0.567654 0.513659
O O2 0.630434 0.141271 0.843755
O O3 0.500000 0.000000 0.000000
O O4 0.330221 0.998870 0.979615
O O5 0.500000 0.500000 0.500000
O O6 0.468146 0.444542 0.247671
O O7 0.108873 0.013998 0.187239
O O8 0.760720 0.982220 0.488994
O O9 0.890553 0.466393 0.832770
O O10 0.000000 0.500000 0.000000
O O11 0.612226 0.544920 0.865256
O O12 0.300360 0.451121 0.966890
O O13 0.834678 0.531140 0.730268
O O14 0.000000 0.000000 0.000000
#
# Coordination Sequence:
#
# PCOD9066261 Si02
#       6
#     2   2   2   2   2   2
#     4  11  25  46  73 109 155 194 256 315 367 457
#     4  12  25  45  74 108 150 203 250 308 381 445
#     4  11  25  45  72 112 149 198 253 310 380 443
#     4  11  25  48  70 110 150 194 252 311 374 451
#     4  11  25  49  77 110 152 203 250 311 386 446
#     4  12  26  47  76 108 151 199 251 315 377 450
#
# _framework density 22.697237999999999
#
# number of rings (size 3 to 8) (size 9 to 14) (size 15 to 20)
#    0.000    0.667    3.333    4.500    2.333    6.000 
#    3.000    0.000    0.000    0.000    0.000    0.000 
#    0.000    0.000    0.000    0.000    0.000    0.000 
#
# Total GULP energy -67060.672293 kJ/mol
# GULP energy per Si atom -5588.389358 kJ/mol
# Density = 2.264558 g / cm^3
# Si number density = 22.697238 Si / 1000 Ang^3
#
#
#
# Elastic Constant Matrix: (Units=GPa)
#
#
# Indices 1 2 3 4 5 6 
#
# 1 132.2286 28.8511 45.7407 13.7253 -1.1984 -33.7228
# 2 28.8511 77.1187 46.3102 17.9314 -0.8507 -18.0808
# 3 45.7407 46.3102 113.3354 19.7526 3.3616 -2.3221
# 4 13.7253 17.9314 19.7526 32.0909 5.2541 -1.7578
# 5 -1.1984 -0.8507 3.3616 5.2541 42.8402 3.3298
# 6 -33.7228 -18.0808 -2.3221 -1.7578 3.3298 57.5135
#
#
#
# Elastic Compliance Matrix: (Units=1/GPa)
#
#
# Indices 1 2 3 4 5 6 
#
# 1 0.010626 0.000289 -0.003943 -0.002009 0.000386 0.006078
# 2 0.000289 0.020097 -0.007042 -0.006916 0.001348 0.005914
# 3 -0.003943 -0.007042 0.013744 -0.002951 -0.000654 -0.004024
# 4 -0.002009 -0.006916 -0.002951 0.038327 -0.004504 -0.002039
# 5 0.000386 0.001348 -0.000654 -0.004504 0.024054 -0.000906
# 6 0.006078 0.005914 -0.004024 -0.002039 -0.000906 0.022638
#
#
# Mechanical properties :
#
#
# Convention : Reuss Voigt Hill
#
# Bulk Modulus (GPa) = 43.33856 62.72075 53.02966
# Shear Modulus (GPa) = 31.53169 39.94096 35.73633
#
# Velocity S-wave (km/s) = 3.73128 4.19946 3.97228
# Velocity P-wave (km/s) = 6.13995 7.15595 6.66733
#
# Compressibility (1/GPa) = 0.02307414
#
# Stress axis : x y z
#
# Youngs Moduli (GPa) = 94.10944 49.75852 72.76033
#
# Poissons Ratio (x) = -0.01440 0.28692
# Poissons Ratio (y) = -0.02723 0.51240
# Poissons Ratio (z) = 0.37111 0.35041
#
# Static dielectric constant tensor:
#      x y z
#    x 1.993780 0.001110 0.056480 
#    y 0.001110 1.822380 -0.037380 
#    z 0.056480 -0.037380 1.799170 
# 
# From -- ./inp_files/301317.got.cif
#   From: 2010.05.17/outbox.cif.g08.bks.cpg/sg2_151_cif.got.tgz:301317.got - 2010.06.03 11:33:40.
