data_PCOD9066913
_publ_section_title
;
Structure prediction by ZEFSAII (Michael W. Deem and Ramdas Pophale) SiO2 
 PCOD9066913
Probable space group: P -1
;
_chemical_formula_sum "Si O2"
_cell_formula_units_Z 13
_cell_length_a 11.157073
_cell_length_b 16.566013
_cell_length_c 19.426013
_cell_angle_alpha 155.918966
_cell_angle_beta 159.696661
_cell_angle_gamma 34.229225
_cell_volume 497.226089
_symmetry_space_group_name_H-M "P -1"
_symmetry_group_IT_number 2
_symmetry_cell_setting 'triclinic'
loop_
_space_group_symop_operation_xyz
x,y,z
-x,-y,-z
loop_
_atom_site_type_symbol
_atom_site_label
_atom_site_fract_x
_atom_site_fract_y
_atom_site_fract_z
Si Si1 0.702046 0.929489 0.207877
Si Si2 0.225951 0.631282 0.629373
Si Si3 0.501663 0.099064 0.778466
Si Si4 0.535967 0.291929 0.325145
Si Si5 0.500000 0.500000 0.000000
Si Si6 0.339742 0.263886 0.487600
Si Si7 0.756814 0.221245 0.802628
O O1 0.649317 0.151502 0.333874
O O2 0.115124 0.948785 0.455902
O O3 0.461290 0.844963 0.077634
O O4 0.559193 0.796755 0.962375
O O5 0.172460 0.657682 0.539735
O O6 0.314660 0.417682 0.531786
O O7 0.918437 0.683540 0.551181
O O8 0.500910 0.298437 0.891003
O O9 0.737429 0.961992 0.761248
O O10 0.500000 0.500000 0.500000
O O11 0.152672 0.197119 0.014211
O O12 0.657347 0.383299 0.928017
O O13 0.697206 0.290966 0.746709
O O14 0.500000 0.000000 0.500000
#
# Coordination Sequence:
#
# PCOD9066913 Si02
#       7
#     2   2   2   2   1   2   2
#     4  11  25  47  72 108 147 202 252 321 381 458
#     4  11  26  45  75 108 154 198 260 318 383 463
#     4  11  25  47  76 106 155 196 260 315 387 463
#     4  12  27  48  75 111 152 204 257 320 386 458
#     4  12  26  44  76 114 144 200 254 314 374 468
#     4  11  25  47  72 112 151 205 251 319 390 456
#     4  12  26  47  77 110 151 206 255 312 389 458
#
# _framework density 26.145047000000002
#
# number of rings (size 3 to 8) (size 9 to 14) (size 15 to 20)
#    0.000    0.615    1.538    5.077    4.308    5.538 
#    0.000    0.000    0.000    0.000    0.000    0.000 
#    0.000    0.000    0.000    0.000    0.000    0.000 
#
# Total GULP energy -72675.724043 kJ/mol
# GULP energy per Si atom -5590.440311 kJ/mol
# Density = 2.608554 g / cm^3
# Si number density = 26.145047 Si / 1000 Ang^3
#
#
#
# Elastic Constant Matrix: (Units=GPa)
#
#
# Indices 1 2 3 4 5 6 
#
# 1 166.1155 45.6552 -12.3963 26.7193 -16.4057 12.5617
# 2 45.6552 122.4758 3.3721 32.8428 6.0784 2.5634
# 3 -12.3963 3.3721 49.3776 9.9462 2.4401 -11.5460
# 4 26.7193 32.8428 9.9462 67.8743 -5.2886 2.3460
# 5 -16.4057 6.0784 2.4401 -5.2886 33.9656 5.2152
# 6 12.5617 2.5634 -11.5460 2.3460 5.2152 51.4199
#
#
#
# Elastic Compliance Matrix: (Units=1/GPa)
#
#
# Indices 1 2 3 4 5 6 
#
# 1 0.007672 -0.002636 0.001848 -0.001643 0.004044 -0.001663
# 2 -0.002636 0.010498 -0.000149 -0.004350 -0.003924 0.000684
# 3 0.001848 -0.000149 0.022911 -0.004361 -0.002192 0.005122
# 4 -0.001643 -0.004350 -0.004361 0.018443 0.003408 -0.001548
# 5 0.004044 -0.003924 -0.002192 0.003408 0.033528 -0.004841
# 6 -0.001663 0.000684 0.005122 -0.001548 -0.004841 0.021531
#
#
# Mechanical properties :
#
#
# Convention : Reuss Voigt Hill
#
# Bulk Modulus (GPa) = 25.50539 45.69234 35.59886
# Shear Modulus (GPa) = 38.60242 50.74114 44.67178
#
# Velocity S-wave (km/s) = 3.84666 4.41018 4.13802
# Velocity P-wave (km/s) = 5.43190 6.59146 6.03957
#
# Compressibility (1/GPa) = 0.03920741
#
# Stress axis : x y z
#
# Youngs Moduli (GPa) = 130.34915 95.25207 43.64800
#
# Poissons Ratio (x) = 0.25109 -0.08067
# Poissons Ratio (y) = 0.34361 0.00650
# Poissons Ratio (z) = -0.24091 0.01418
#
# Static dielectric constant tensor:
#      x y z
#    x 2.043090 -0.003170 0.010310 
#    y -0.003170 2.128170 -0.255270 
#    z 0.010310 -0.255270 2.334150 
# 
# From -- ./inp_files/596102.got.cif
#   From: 2010.05.17/outbox.cif.g08.bks.cpg/sg2_299_cif.got.tgz:596102.got - 2010.06.03 11:33:40.
