data_PCOD9066371
_publ_section_title
;
Structure prediction by ZEFSAII (Michael W. Deem and Ramdas Pophale) SiO2 
 PCOD9066371
Probable space group: P -1
;
_chemical_formula_sum "Si O2"
_cell_formula_units_Z 16
_cell_length_a 11.104369
_cell_length_b 12.099879
_cell_length_c 11.764360
_cell_angle_alpha 98.822136
_cell_angle_beta 142.569794
_cell_angle_gamma 107.795948
_cell_volume 666.963967
_symmetry_space_group_name_H-M "P -1"
_symmetry_group_IT_number 2
_symmetry_cell_setting 'triclinic'
loop_
_space_group_symop_operation_xyz
x,y,z
-x,-y,-z
loop_
_atom_site_type_symbol
_atom_site_label
_atom_site_fract_x
_atom_site_fract_y
_atom_site_fract_z
Si Si1 0.171820 0.671755 0.708739
Si Si2 0.152021 0.109276 0.019196
Si Si3 0.434802 0.900652 0.740621
Si Si4 0.241475 0.190245 0.733066
Si Si5 0.968820 0.742714 0.207208
Si Si6 0.426511 0.624392 0.208773
Si Si7 0.172333 0.748920 0.953628
Si Si8 0.334030 0.321717 0.362825
O O1 0.244315 0.793828 0.688811
O O2 0.000000 0.500000 0.500000
O O3 0.471015 0.745726 0.989566
O O4 0.023796 0.660783 0.708457
O O5 0.292136 0.069677 0.043572
O O6 0.398512 0.276234 0.292993
O O7 0.990535 0.136829 0.829102
O O8 0.000000 0.000000 0.000000
O O9 0.260498 0.808164 0.480446
O O10 0.544090 0.070557 0.839412
O O11 0.151953 0.246795 0.767498
O O12 0.341004 0.281593 0.702069
O O13 0.000000 0.000000 0.500000
O O14 0.764915 0.564062 0.977891
O O15 0.239473 0.660842 0.053453
O O16 0.574850 0.695014 0.452978
O O17 0.986646 0.761959 0.886097
O O18 0.500000 0.500000 0.500000
#
# Coordination Sequence:
#
# PCOD9066371 Si02
#       8
#     2   2   2   2   2   2   2   2
#     4  11  25  45  75 109 151 189 246 311 371 444
#     4  12  28  50  72 108 146 193 249 297 364 439
#     4  12  26  46  76 107 148 190 244 308 364 442
#     4  11  25  45  75 109 151 190 245 310 377 438
#     4  12  26  46  76 108 145 194 241 306 372 431
#     4  11  27  46  72 108 146 189 246 301 362 441
#     4  11  27  46  72 109 143 193 242 301 370 428
#     4  12  28  48  76 102 146 197 243 299 358 439
#
# _framework density 23.989301999999999
#
# number of rings (size 3 to 8) (size 9 to 14) (size 15 to 20)
#    0.000    0.500    3.750    3.750   12.250    2.000 
#    0.000    0.000    0.000    0.000    0.000    0.000 
#    0.000    0.000    0.000    0.000    0.000    0.000 
#
# Total GULP energy -89508.361189 kJ/mol
# GULP energy per Si atom -5594.272574 kJ/mol
# Density = 2.393470 g / cm^3
# Si number density = 23.989302 Si / 1000 Ang^3
#
#
#
# Elastic Constant Matrix: (Units=GPa)
#
#
# Indices 1 2 3 4 5 6 
#
# 1 48.1351 5.8484 -10.5829 -13.7929 -1.2407 -11.1122
# 2 5.8484 115.1397 5.3449 -21.5715 15.9981 4.4099
# 3 -10.5829 5.3449 64.8600 -4.7730 3.4980 -7.1812
# 4 -13.7929 -21.5715 -4.7730 53.3067 4.9377 -10.4678
# 5 -1.2407 15.9981 3.4980 4.9377 26.5289 0.5605
# 6 -11.1122 4.4099 -7.1812 -10.4678 0.5605 46.3866
#
#
#
# Elastic Compliance Matrix: (Units=1/GPa)
#
#
# Indices 1 2 3 4 5 6 
#
# 1 0.027099 -0.000025 0.006282 0.009602 -0.001537 0.009652
# 2 -0.000025 0.010642 -0.000096 0.005008 -0.007342 0.000186
# 3 0.006282 -0.000096 0.017518 0.004458 -0.002899 0.005267
# 4 0.009602 0.005008 0.004458 0.026098 -0.008196 0.008503
# 5 -0.001537 -0.007342 -0.002899 -0.008196 0.044011 -0.002500
# 6 0.009652 0.000186 0.005267 0.008503 -0.002500 0.026617
#
#
# Mechanical properties :
#
#
# Convention : Reuss Voigt Hill
#
# Bulk Modulus (GPa) = 14.79724 25.48397 20.14061
# Shear Modulus (GPa) = 30.82777 40.41274 35.62026
#
# Velocity S-wave (km/s) = 3.58867 4.10886 3.85754
# Velocity P-wave (km/s) = 4.83250 5.75816 5.31552
#
# Compressibility (1/GPa) = 0.06758016
#
# Stress axis : x y z
#
# Youngs Moduli (GPa) = 36.90187 93.96602 57.08330
#
# Poissons Ratio (x) = 0.00238 -0.35858
# Poissons Ratio (y) = 0.00094 0.00548
# Poissons Ratio (z) = -0.23181 0.00902
#
# Static dielectric constant tensor:
#      x y z
#    x 2.923140 -0.819770 -0.276230 
#    y -0.819770 2.627160 0.334160 
#    z -0.276230 0.334160 2.259440 
# 
# From -- ./inp_files/428490.got.cif
#   From: 2010.05.17/outbox.cif.g08.bks.cpg/sg2_215_cif.got.tgz:428490.got - 2010.06.03 11:33:40.
