data_PCOD9066369
_publ_section_title
;
Structure prediction by ZEFSAII (Michael W. Deem and Ramdas Pophale) SiO2 
 PCOD9066369
Probable space group: P -1
;
_chemical_formula_sum "Si O2"
_cell_formula_units_Z 16
_cell_length_a 14.819084
_cell_length_b 9.344419
_cell_length_c 9.132306
_cell_angle_alpha 63.406746
_cell_angle_beta 37.949771
_cell_angle_gamma 69.723687
_cell_volume 695.370903
_symmetry_space_group_name_H-M "P -1"
_symmetry_group_IT_number 2
_symmetry_cell_setting 'triclinic'
loop_
_space_group_symop_operation_xyz
x,y,z
-x,-y,-z
loop_
_atom_site_type_symbol
_atom_site_label
_atom_site_fract_x
_atom_site_fract_y
_atom_site_fract_z
Si Si1 0.086288 0.134435 0.921572
Si Si2 0.589295 0.852161 0.390900
Si Si3 0.512842 0.329679 0.141437
Si Si4 0.110800 0.644902 0.744686
Si Si5 0.875750 0.724121 0.504217
Si Si6 0.161115 0.645809 0.328857
Si Si7 0.592184 0.847178 0.904027
Si Si8 0.553851 0.343576 0.584493
O O1 0.238523 0.107876 0.825971
O O2 0.124442 0.250500 0.681974
O O3 0.972800 0.203318 0.152474
O O4 0.000000 0.000000 0.000000
O O5 0.557223 0.691072 0.601538
O O6 0.515069 0.804169 0.354305
O O7 0.500000 0.000000 0.500000
O O8 0.433419 0.192161 0.213676
O O9 0.500000 0.500000 0.000000
O O10 0.681635 0.283667 0.943408
O O11 0.133174 0.645495 0.539892
O O12 0.271439 0.644522 0.616353
O O13 0.000000 0.500000 0.000000
O O14 0.834709 0.535834 0.656343
O O15 0.767915 0.836292 0.685640
O O16 0.036173 0.738838 0.360563
O O17 0.523564 0.694449 0.145471
O O18 0.500000 0.000000 0.000000
O O19 0.500000 0.500000 0.500000
#
# Coordination Sequence:
#
# PCOD9066369 Si02
#       8
#     2   2   2   2   2   2   2   2
#     4  12  27  47  71 102 150 191 228 291 366 435
#     4  12  27  47  72 105 144 189 239 293 361 433
#     4  12  23  46  76  98 136 190 244 293 346 424
#     4  12  26  46  71 107 148 182 236 301 358 421
#     4  11  26  46  74 104 143 188 242 295 364 425
#     4  11  25  45  75 108 136 187 244 303 350 424
#     4  12  26  47  71 102 146 187 237 299 361 424
#     4  12  28  44  74 108 140 190 242 299 354 425
#
# _framework density 23.009305000000001
#
# number of rings (size 3 to 8) (size 9 to 14) (size 15 to 20)
#    0.000    0.250    5.000    3.000    8.750    0.000 
#    0.000    1.250    0.000    0.000    0.000    0.000 
#    0.000    0.000    0.000    0.000    0.000    0.000 
#
# Total GULP energy -89373.531518 kJ/mol
# GULP energy per Si atom -5585.845720 kJ/mol
# Density = 2.295693 g / cm^3
# Si number density = 23.009305 Si / 1000 Ang^3
#
#
#
# Elastic Constant Matrix: (Units=GPa)
#
#
# Indices 1 2 3 4 5 6 
#
# 1 162.3804 31.3815 50.8527 24.0453 -35.0449 -0.5795
# 2 31.3815 92.0605 18.2116 27.5198 -3.3046 -0.9268
# 3 50.8527 18.2116 98.6295 16.8375 -25.5358 -10.0025
# 4 24.0453 27.5198 16.8375 44.1019 -7.7033 0.3743
# 5 -35.0449 -3.3046 -25.5358 -7.7033 51.6177 9.2682
# 6 -0.5795 -0.9268 -10.0025 0.3743 9.2682 42.6829
#
#
#
# Elastic Compliance Matrix: (Units=1/GPa)
#
#
# Indices 1 2 3 4 5 6 
#
# 1 0.008559 -0.001689 -0.002838 -0.001764 0.004306 -0.001505
# 2 -0.001689 0.013852 -0.000801 -0.007757 -0.001917 0.000575
# 3 -0.002838 -0.000801 0.013396 -0.002408 0.003884 0.002261
# 4 -0.001764 -0.007757 -0.002408 0.029723 0.001803 -0.001409
# 5 0.004306 -0.001917 0.003884 0.001803 0.025182 -0.004557
# 6 -0.001505 0.000575 0.002261 -0.001409 -0.004557 0.024952
#
#
# Mechanical properties :
#
#
# Convention : Reuss Voigt Hill
#
# Bulk Modulus (GPa) = 39.75855 61.55133 50.65494
# Shear Modulus (GPa) = 37.11842 44.52214 40.82028
#
# Velocity S-wave (km/s) = 4.02081 4.40359 4.21655
# Velocity P-wave (km/s) = 6.23480 7.25701 6.76524
#
# Compressibility (1/GPa) = 0.02515182
#
# Stress axis : x y z
#
# Youngs Moduli (GPa) = 116.84151 72.18940 74.65015
#
# Poissons Ratio (x) = 0.12196 0.21182
# Poissons Ratio (y) = 0.19739 0.05976
# Poissons Ratio (z) = 0.33154 0.05779
#
# Static dielectric constant tensor:
#      x y z
#    x 2.068910 -0.123860 -0.110660 
#    y -0.123860 1.903740 -0.016210 
#    z -0.110660 -0.016210 1.900690 
# 
# From -- ./inp_files/297756.got.cif
#   From: 2010.05.17/outbox.cif.g08.bks.cpg/sg2_149_cif.got.tgz:297756.got - 2010.06.03 11:33:40.
