data_PCOD9066146
_publ_section_title
;
Structure prediction by ZEFSAII (Michael W. Deem and Ramdas Pophale) SiO2 
 PCOD9066146
Probable space group: P -1
;
_chemical_formula_sum "Si O2"
_cell_formula_units_Z 16
_cell_length_a 11.988112
_cell_length_b 5.989934
_cell_length_c 14.903209
_cell_angle_alpha 56.028335
_cell_angle_beta 57.917596
_cell_angle_gamma 84.895436
_cell_volume 718.330653
_symmetry_space_group_name_H-M "P -1"
_symmetry_group_IT_number 2
_symmetry_cell_setting 'triclinic'
loop_
_space_group_symop_operation_xyz
x,y,z
-x,-y,-z
loop_
_atom_site_type_symbol
_atom_site_label
_atom_site_fract_x
_atom_site_fract_y
_atom_site_fract_z
Si Si1 0.507953 0.904988 0.746817
Si Si2 0.857395 0.074840 0.260671
Si Si3 0.204616 0.014169 0.484466
Si Si4 0.716308 0.518896 0.159501
Si Si5 0.562107 0.826900 0.936293
Si Si6 0.633063 0.651535 0.351500
Si Si7 0.054682 0.434817 0.394223
Si Si8 0.847155 0.978016 0.872399
O O1 0.411571 0.595261 0.829125
O O2 0.551324 0.976641 0.813828
O O3 0.646684 0.988181 0.611526
O O4 0.405829 0.079393 0.726800
O O5 0.805678 0.033087 0.394368
O O6 0.820551 0.328988 0.167253
O O7 0.775684 0.777959 0.314903
O O8 0.019467 0.119837 0.183087
O O9 0.077289 0.780936 0.546754
O O10 0.176230 0.300267 0.397420
O O11 0.651758 0.486001 0.293205
O O12 0.793637 0.838064 0.023260
O O13 0.719037 0.860906 0.887235
O O14 0.500000 0.500000 0.000000
O O15 0.500000 0.000000 0.000000
O O16 0.500000 0.500000 0.500000
O O17 0.107463 0.691343 0.244313
O O18 0.000000 0.500000 0.500000
#
# Coordination Sequence:
#
# PCOD9066146 Si02
#       8
#     2   2   2   2   2   2   2   2
#     4  11  25  45  74 105 144 193 256 317 380 461
#     4  11  26  45  70 109 146 195 251 309 384 459
#     4  11  25  45  72 106 147 193 254 316 380 456
#     4  11  25  48  70 107 149 193 252 313 387 454
#     4  12  28  50  76 112 155 203 253 314 392 468
#     4  11  25  46  73 103 143 200 254 312 379 459
#     4  11  25  45  68 106 147 195 246 309 383 457
#     4  12  26  46  75 109 153 196 251 316 389 467
#
# _framework density 22.273865000000001
#
# number of rings (size 3 to 8) (size 9 to 14) (size 15 to 20)
#    0.000    0.750    2.500    3.375    7.000    4.500 
#    4.500    0.000    0.000    0.000    0.000    0.000 
#    0.000    0.000    0.000    0.000    0.000    0.000 
#
# Total GULP energy -89285.481512 kJ/mol
# GULP energy per Si atom -5580.342595 kJ/mol
# Density = 2.222317 g / cm^3
# Si number density = 22.273865 Si / 1000 Ang^3
#
#
#
# Elastic Constant Matrix: (Units=GPa)
#
#
# Indices 1 2 3 4 5 6 
#
# 1 146.2190 43.5725 42.7798 11.6767 -11.1096 0.6642
# 2 43.5725 52.2814 17.9200 9.5793 -8.1294 18.0928
# 3 42.7798 17.9200 109.6199 7.1857 5.5696 10.2726
# 4 11.6767 9.5793 7.1857 42.3976 -2.4845 10.1743
# 5 -11.1096 -8.1294 5.5696 -2.4845 39.8737 7.7896
# 6 0.6642 18.0928 10.2726 10.1743 7.7896 25.7394
#
#
#
# Elastic Compliance Matrix: (Units=1/GPa)
#
#
# Indices 1 2 3 4 5 6 
#
# 1 0.011358 -0.011659 -0.003297 -0.002511 -0.000960 0.010502
# 2 -0.011659 0.041949 0.000087 0.002557 0.012071 -0.033885
# 3 -0.003297 0.000087 0.010841 -0.000154 -0.001696 -0.003728
# 4 -0.002511 0.002557 -0.000154 0.027268 0.004224 -0.013728
# 5 -0.000960 0.012071 -0.001696 0.004224 0.031481 -0.018980
# 6 0.010502 -0.033885 -0.003728 -0.013728 -0.018980 0.075057
#
#
# Mechanical properties :
#
#
# Convention : Reuss Voigt Hill
#
# Bulk Modulus (GPa) = 29.06235 57.40721 43.23478
# Shear Modulus (GPa) = 20.90628 35.19200 28.04914
#
# Velocity S-wave (km/s) = 3.06698 3.97919 3.55249
# Velocity P-wave (km/s) = 5.06141 6.85137 6.02325
#
# Compressibility (1/GPa) = 0.03440878
#
# Stress axis : x y z
#
# Youngs Moduli (GPa) = 88.04324 23.83829 92.24537
#
# Poissons Ratio (x) = 0.27794 0.30416
# Poissons Ratio (y) = 1.02652 -0.00802
# Poissons Ratio (z) = 0.29030 -0.00207
#
# Static dielectric constant tensor:
#      x y z
#    x 1.796650 -0.010120 0.055710 
#    y -0.010120 1.927080 -0.077800 
#    z 0.055710 -0.077800 1.837390 
# 
# From -- ./inp_files/510723.got.cif
#   From: 2010.05.17/outbox.cif.g08.bks.cpg/sg2_256_cif.got.tgz:510723.got - 2010.06.03 11:33:40.
