data_PCOD9066588
_publ_section_title
;
Structure prediction by ZEFSAII (Michael W. Deem and Ramdas Pophale) SiO2 
 PCOD9066588
Probable space group: P -1
;
_chemical_formula_sum "Si O2"
_cell_formula_units_Z 14
_cell_length_a 9.760359
_cell_length_b 10.871624
_cell_length_c 18.200014
_cell_angle_alpha 128.202756
_cell_angle_beta 147.916710
_cell_angle_gamma 73.462899
_cell_volume 660.365731
_symmetry_space_group_name_H-M "P -1"
_symmetry_group_IT_number 2
_symmetry_cell_setting 'triclinic'
loop_
_space_group_symop_operation_xyz
x,y,z
-x,-y,-z
loop_
_atom_site_type_symbol
_atom_site_label
_atom_site_fract_x
_atom_site_fract_y
_atom_site_fract_z
Si Si1 0.770704 0.363822 0.910008
Si Si2 0.657425 0.998877 0.647231
Si Si3 0.897616 0.787252 0.395145
Si Si4 0.241626 0.653565 0.607043
Si Si5 0.186431 0.406162 0.367176
Si Si6 0.748308 0.983305 0.059631
Si Si7 0.031248 0.610047 0.267765
O O1 0.722355 0.162325 0.795078
O O2 0.419623 0.311587 0.737419
O O3 0.000000 0.500000 0.000000
O O4 0.921172 0.486722 0.098160
O O5 0.500000 0.000000 0.500000
O O6 0.393786 0.792377 0.486825
O O7 0.994362 0.039611 0.793732
O O8 0.123102 0.754425 0.536536
O O9 0.863580 0.697057 0.265041
O O10 0.000000 0.000000 0.500000
O O11 0.296904 0.519579 0.534724
O O12 0.000000 0.500000 0.500000
O O13 0.544696 0.815777 0.847979
O O14 0.500000 0.500000 0.500000
O O15 0.984545 0.463468 0.254263
O O16 0.978057 0.183022 0.197773
O O17 0.500000 0.000000 0.000000
#
# Coordination Sequence:
#
# PCOD9066588 Si02
#       7
#     2   2   2   2   2   2   2
#     4  12  27  44  76 105 145 198 245 303 371 447
#     4  12  27  46  73 112 148 188 250 311 369 443
#     4  11  26  48  73 110 153 193 245 314 374 436
#     4  11  27  47  74 106 148 197 250 301 371 453
#     4  11  25  46  72 103 149 186 243 311 366 432
#     4  12  28  46  77 108 146 198 247 304 377 447
#     4  11  25  47  71 108 148 192 242 310 370 441
#
# _framework density 21.200375000000001
#
# number of rings (size 3 to 8) (size 9 to 14) (size 15 to 20)
#    0.000    0.571    5.714    0.429    8.000    0.571 
#    0.000    0.000    0.000    0.000    0.000    0.000 
#    0.000    0.000    0.000    0.000    0.000    0.000 
#
# Total GULP energy -78050.454072 kJ/mol
# GULP energy per Si atom -5575.032434 kJ/mol
# Density = 2.115212 g / cm^3
# Si number density = 21.200375 Si / 1000 Ang^3
#
#
#
# Elastic Constant Matrix: (Units=GPa)
#
#
# Indices 1 2 3 4 5 6 
#
# 1 136.5617 15.5171 47.7111 5.6705 -3.1759 -10.2765
# 2 15.5171 82.1701 56.4755 16.3255 -12.3183 2.5257
# 3 47.7111 56.4755 143.8659 18.2285 -4.7218 -2.8161
# 4 5.6705 16.3255 18.2285 39.8618 -8.4274 4.9487
# 5 -3.1759 -12.3183 -4.7218 -8.4274 48.0907 2.8833
# 6 -10.2765 2.5257 -2.8161 4.9487 2.8833 28.7396
#
#
#
# Elastic Compliance Matrix: (Units=1/GPa)
#
#
# Indices 1 2 3 4 5 6 
#
# 1 0.008508 0.000369 -0.002861 -0.000368 0.000144 0.002778
# 2 0.000369 0.017923 -0.006652 -0.003384 0.003481 -0.001862
# 3 -0.002861 -0.006652 0.010770 -0.002206 -0.001289 0.001126
# 4 -0.000368 -0.003384 -0.002206 0.029132 0.004327 -0.005500
# 5 0.000144 0.003481 -0.001289 0.004327 0.022530 -0.003386
# 6 0.002778 -0.001862 0.001126 -0.005500 -0.003386 0.037349
#
#
# Mechanical properties :
#
#
# Convention : Reuss Voigt Hill
#
# Bulk Modulus (GPa) = 52.87005 66.88947 59.87976
# Shear Modulus (GPa) = 33.15570 39.53137 36.34353
#
# Velocity S-wave (km/s) = 3.95893 4.32285 4.14489
# Velocity P-wave (km/s) = 6.77421 7.51902 7.15631
#
# Compressibility (1/GPa) = 0.01891430
#
# Stress axis : x y z
#
# Youngs Moduli (GPa) = 117.53787 55.79336 92.85074
#
# Poissons Ratio (x) = -0.02057 0.26561
# Poissons Ratio (y) = -0.04334 0.61760
# Poissons Ratio (z) = 0.33622 0.37111
#
# Static dielectric constant tensor:
#      x y z
#    x 1.475310 0.187910 -0.015310 
#    y 0.187910 1.626560 -0.022990 
#    z -0.015310 -0.022990 1.768880 
# 
# From -- ./inp_files/559977.got.cif
#   From: 2010.05.17/outbox.cif.g08.bks.cpg/sg2_280_cif.got.tgz:559977.got - 2010.06.03 11:33:40.
