data_PCOD9066323
_publ_section_title
;
Structure prediction by ZEFSAII (Michael W. Deem and Ramdas Pophale) SiO2 
 PCOD9066323
Probable space group: P -1
;
_chemical_formula_sum "Si O2"
_cell_formula_units_Z 16
_cell_length_a 22.546461
_cell_length_b 6.327814
_cell_length_c 16.440239
_cell_angle_alpha 112.431406
_cell_angle_beta 157.140406
_cell_angle_gamma 81.926387
_cell_volume 681.211075
_symmetry_space_group_name_H-M "P -1"
_symmetry_group_IT_number 2
_symmetry_cell_setting 'triclinic'
loop_
_space_group_symop_operation_xyz
x,y,z
-x,-y,-z
loop_
_atom_site_type_symbol
_atom_site_label
_atom_site_fract_x
_atom_site_fract_y
_atom_site_fract_z
Si Si1 0.739600 0.249659 0.072951
Si Si2 0.308382 0.878642 0.493693
Si Si3 0.854892 0.492100 0.620714
Si Si4 0.909074 0.618357 0.192055
Si Si5 0.477178 0.682015 0.426492
Si Si6 0.932006 0.798059 0.489772
Si Si7 0.685730 0.670382 0.315380
Si Si8 0.837138 0.016738 0.832357
O O1 0.814109 0.351360 0.091525
O O2 0.769806 0.516005 0.197459
O O3 0.881135 0.190909 0.279794
O O4 0.522521 0.997834 0.764926
O O5 0.304198 0.097318 0.580142
O O6 0.208383 0.602517 0.381404
O O7 0.210496 0.847666 0.280062
O O8 0.697596 0.479077 0.368411
O O9 0.914189 0.316037 0.625013
O O10 0.056427 0.795026 0.925988
O O11 0.737566 0.544669 0.907476
O O12 0.999606 0.892391 0.402981
O O13 0.500000 0.500000 0.500000
O O14 0.500000 0.000000 0.500000
O O15 0.635162 0.752095 0.569715
O O16 0.857591 0.768717 0.484375
O O17 0.500000 0.500000 0.000000
O O18 0.000000 0.000000 0.000000
#
# Coordination Sequence:
#
# PCOD9066323 Si02
#       8
#     2   2   2   2   2   2   2   2
#     4  11  25  47  70 109 147 187 256 318 381 457
#     4  12  26  47  73 109 148 196 250 319 382 460
#     4  12  27  46  77 105 150 202 256 314 398 473
#     4  12  25  46  77 105 148 200 254 312 394 465
#     4  12  30  49  80 118 158 207 262 325 392 472
#     4  11  25  45  74 103 148 196 247 316 385 474
#     4  12  25  47  72 106 148 192 248 310 387 466
#     4  12  27  48  75 111 153 198 262 322 390 469
#
# _framework density 23.487580999999999
#
# number of rings (size 3 to 8) (size 9 to 14) (size 15 to 20)
#    0.000    0.250    7.500    0.750    5.250    3.500 
#    4.500    0.000    0.000    0.000    0.000    0.000 
#    0.000    0.000    0.000    0.000    0.000    0.000 
#
# Total GULP energy -89237.097835 kJ/mol
# GULP energy per Si atom -5577.318615 kJ/mol
# Density = 2.343412 g / cm^3
# Si number density = 23.487581 Si / 1000 Ang^3
#
#
#
# Elastic Constant Matrix: (Units=GPa)
#
#
# Indices 1 2 3 4 5 6 
#
# 1 92.2390 36.7976 16.3822 -7.7730 10.3381 12.9229
# 2 36.7976 74.4271 45.7719 -7.6280 4.8124 9.2114
# 3 16.3822 45.7719 114.7726 -24.6417 -2.3561 6.3027
# 4 -7.7730 -7.6280 -24.6417 29.8501 4.1935 -9.5527
# 5 10.3381 4.8124 -2.3561 4.1935 52.8346 0.8660
# 6 12.9229 9.2114 6.3027 -9.5527 0.8660 49.3737
#
#
#
# Elastic Compliance Matrix: (Units=1/GPa)
#
#
# Indices 1 2 3 4 5 6 
#
# 1 0.014252 -0.007322 0.001550 0.002801 -0.002242 -0.001981
# 2 -0.007322 0.022181 -0.008523 -0.003778 -0.000637 -0.001853
# 3 0.001550 -0.008523 0.014009 0.010189 0.000267 0.001363
# 4 0.002801 -0.003778 0.010189 0.044503 -0.003402 0.007341
# 5 -0.002242 -0.000637 0.000267 -0.003402 0.019711 -0.000332
# 6 -0.001981 -0.001853 0.001363 0.007341 -0.000332 0.022370
#
#
# Mechanical properties :
#
#
# Convention : Reuss Voigt Hill
#
# Bulk Modulus (GPa) = 45.76472 53.26025 49.51249
# Shear Modulus (GPa) = 28.91808 38.57747 33.74778
#
# Velocity S-wave (km/s) = 3.51266 4.05713 3.79467
# Velocity P-wave (km/s) = 5.99822 6.68373 6.35023
#
# Compressibility (1/GPa) = 0.02185089
#
# Stress axis : x y z
#
# Youngs Moduli (GPa) = 70.16456 45.08268 71.38278
#
# Poissons Ratio (x) = 0.33012 -0.11064
# Poissons Ratio (y) = 0.51378 0.60842
# Poissons Ratio (z) = -0.10876 0.38426
#
# Static dielectric constant tensor:
#      x y z
#    x 2.274590 -0.229640 -0.141920 
#    y -0.229640 2.141410 0.098040 
#    z -0.141920 0.098040 1.878590 
# 
# From -- ./inp_files/578762.got.cif
#   From: 2010.05.17/outbox.cif.g08.bks.cpg/sg2_290_cif.got.tgz:578762.got - 2010.06.03 11:33:40.
