data_PCOD9066747
_publ_section_title
;
Structure prediction by ZEFSAII (Michael W. Deem and Ramdas Pophale) SiO2 
 PCOD9066747
Probable space group: P -1
;
_chemical_formula_sum "Si O2"
_cell_formula_units_Z 14
_cell_length_a 5.792206
_cell_length_b 8.095743
_cell_length_c 13.767665
_cell_angle_alpha 110.248973
_cell_angle_beta 106.705255
_cell_angle_gamma 62.044599
_cell_volume 528.878648
_symmetry_space_group_name_H-M "P -1"
_symmetry_group_IT_number 2
_symmetry_cell_setting 'triclinic'
loop_
_space_group_symop_operation_xyz
x,y,z
-x,-y,-z
loop_
_atom_site_type_symbol
_atom_site_label
_atom_site_fract_x
_atom_site_fract_y
_atom_site_fract_z
Si Si1 0.169563 0.824997 0.718131
Si Si2 0.027449 0.202466 0.109041
Si Si3 0.553664 0.924021 0.180336
Si Si4 0.189499 0.889668 0.410817
Si Si5 0.685757 0.549561 0.453059
Si Si6 0.064974 0.590228 0.211240
Si Si7 0.313811 0.647749 0.084769
O O1 0.288803 0.602928 0.659485
O O2 0.114522 0.858410 0.832536
O O3 0.366408 0.920737 0.724996
O O4 0.900457 0.947135 0.650830
O O5 0.009413 0.407306 0.190495
O O6 0.331383 0.054278 0.107063
O O7 0.910108 0.229772 0.993817
O O8 0.420505 0.789304 0.181009
O O9 0.833004 0.753963 0.153588
O O10 0.500910 0.772371 0.448340
O O11 0.113759 0.713778 0.327906
O O12 0.000000 0.000000 0.500000
O O13 0.500000 0.500000 0.500000
O O14 0.000000 0.500000 0.500000
O O15 0.284500 0.518386 0.140700
O O16 0.500000 0.500000 0.000000
#
# Coordination Sequence:
#
# PCOD9066747 Si02
#       7
#     2   2   2   2   2   2   2
#     4  11  28  48  77 120 158 210 268 327 419 481
#     4  12  27  45  79 111 156 211 261 332 398 488
#     4  11  25  46  75 105 158 195 271 312 407 465
#     4  11  25  52  80 117 163 207 272 338 413 492
#     4  12  29  53  85 121 165 217 277 342 419 497
#     4  11  27  49  75 112 157 205 266 330 401 479
#     4  12  27  49  73 112 155 210 265 325 400 475
#
# _framework density 26.471101999999998
#
# number of rings (size 3 to 8) (size 9 to 14) (size 15 to 20)
#    0.000    0.571    2.857    3.429    8.000    2.857 
#    5.143    0.000    0.000    0.000    0.000    0.000 
#    0.000    0.000    0.000    0.000    0.000    0.000 
#
# Total GULP energy -78151.172949 kJ/mol
# GULP energy per Si atom -5582.226639 kJ/mol
# Density = 2.641085 g / cm^3
# Si number density = 26.471102 Si / 1000 Ang^3
#
#
#
# Elastic Constant Matrix: (Units=GPa)
#
#
# Indices 1 2 3 4 5 6 
#
# 1 84.0356 30.4439 40.1945 -9.9066 1.0222 -16.3456
# 2 30.4439 140.7232 18.8113 -3.0724 8.0732 -32.7589
# 3 40.1945 18.8113 81.8891 8.3033 -16.6461 -15.9789
# 4 -9.9066 -3.0724 8.3033 56.7465 -6.0760 9.1239
# 5 1.0222 8.0732 -16.6461 -6.0760 46.3517 -3.7383
# 6 -16.3456 -32.7589 -15.9789 9.1239 -3.7383 49.0505
#
#
#
# Elastic Compliance Matrix: (Units=1/GPa)
#
#
# Indices 1 2 3 4 5 6 
#
# 1 0.017587 -0.002251 -0.008950 0.003890 -0.002658 0.000516
# 2 -0.002251 0.008868 -0.000073 -0.000871 -0.001214 0.005219
# 3 -0.008950 -0.000073 0.019389 -0.004402 0.006970 0.004635
# 4 0.003890 -0.000871 -0.004402 0.019670 0.000715 -0.004324
# 5 -0.002658 -0.001214 0.006970 0.000715 0.024628 0.002318
# 6 0.000516 0.005219 0.004635 -0.004324 0.002318 0.026535
#
#
# Mechanical properties :
#
#
# Convention : Reuss Voigt Hill
#
# Bulk Modulus (GPa) = 42.92211 53.94971 48.43591
# Shear Modulus (GPa) = 34.01601 44.90963 39.46282
#
# Velocity S-wave (km/s) = 3.58861 4.12339 3.86526
# Velocity P-wave (km/s) = 5.78107 6.56465 6.18528
#
# Compressibility (1/GPa) = 0.02329802
#
# Stress axis : x y z
#
# Youngs Moduli (GPa) = 56.86004 112.76139 51.57618
#
# Poissons Ratio (x) = 0.25382 0.46158
# Poissons Ratio (y) = 0.12799 0.00374
# Poissons Ratio (z) = 0.50887 0.00818
#
# Static dielectric constant tensor:
#      x y z
#    x 2.312100 -0.075310 0.094670 
#    y -0.075310 2.093890 -0.022510 
#    z 0.094670 -0.022510 2.019280 
# 
# From -- ./inp_files/480786.got.cif
#   From: 2010.05.17/outbox.cif.g08.bks.cpg/sg2_241_cif.got.tgz:480786.got - 2010.06.03 11:33:40.
