data_PCOD9066084
_publ_section_title
;
Structure prediction by ZEFSAII (Michael W. Deem and Ramdas Pophale) SiO2 
 PCOD9066084
Probable space group: P -1
;
_chemical_formula_sum "Si O2"
_cell_formula_units_Z 12
_cell_length_a 9.764075
_cell_length_b 6.704534
_cell_length_c 15.479863
_cell_angle_alpha 45.406389
_cell_angle_beta 42.711522
_cell_angle_gamma 47.502792
_cell_volume 461.960088
_symmetry_space_group_name_H-M "P -1"
_symmetry_group_IT_number 2
_symmetry_cell_setting 'triclinic'
loop_
_space_group_symop_operation_xyz
x,y,z
-x,-y,-z
loop_
_atom_site_type_symbol
_atom_site_label
_atom_site_fract_x
_atom_site_fract_y
_atom_site_fract_z
Si Si1 0.491863 0.385920 0.332390
Si Si2 0.106728 0.545872 0.203045
Si Si3 0.644405 0.202563 0.888357
Si Si4 0.838339 0.785523 0.539511
Si Si5 0.267951 0.586301 0.541790
Si Si6 0.025410 0.661412 0.849598
O O1 0.463825 0.534845 0.206149
O O2 0.383166 0.136588 0.436439
O O3 0.322933 0.603458 0.410942
O O4 0.727700 0.358790 0.262367
O O5 0.852027 0.653591 0.313123
O O6 0.079928 0.467497 0.140290
O O7 0.285177 0.708586 0.078144
O O8 0.178917 0.321653 0.320559
O O9 0.883822 0.005971 0.809453
O O10 0.500000 0.000000 0.000000
O O11 0.000000 0.500000 0.500000
O O12 0.870531 0.101104 0.445659
O O13 0.500000 0.500000 0.500000
O O14 0.000000 0.500000 0.000000
#
# Coordination Sequence:
#
# PCOD9066084 Si02
#       6
#     2   2   2   2   2   2
#     4  11  25  45  70 107 146 192 241 307 367 439
#     4  11  26  44  74 105 143 194 237 302 370 436
#     4  11  26  49  71 102 145 192 250 303 361 438
#     4  11  25  44  74 108 150 193 240 296 372 448
#     4  12  25  42  72 113 150 187 239 303 380 439
#     4  12  26  47  71 103 146 193 252 302 362 436
#
# _framework density 25.976268999999998
#
# number of rings (size 3 to 8) (size 9 to 14) (size 15 to 20)
#    0.000    0.667    5.000    1.500    7.000    2.000 
#    3.000    0.000    0.000    0.000    0.000    0.000 
#    0.000    0.000    0.000    0.000    0.000    0.000 
#
# Total GULP energy -66814.971682 kJ/mol
# GULP energy per Si atom -5567.914307 kJ/mol
# Density = 2.591715 g / cm^3
# Si number density = 25.976269 Si / 1000 Ang^3
#
#
#
# Elastic Constant Matrix: (Units=GPa)
#
#
# Indices 1 2 3 4 5 6 
#
# 1 281.1421 56.9134 44.3266 -0.1885 -18.3198 48.2757
# 2 56.9134 78.2850 20.2029 20.8285 -28.8333 16.6876
# 3 44.3266 20.2029 85.1096 4.1957 -15.5326 25.6294
# 4 -0.1885 20.8285 4.1957 34.1869 5.0910 -10.1182
# 5 -18.3198 -28.8333 -15.5326 5.0910 51.7151 -3.5334
# 6 48.2757 16.6876 25.6294 -10.1182 -3.5334 50.2928
#
#
#
# Elastic Compliance Matrix: (Units=1/GPa)
#
#
# Indices 1 2 3 4 5 6 
#
# 1 0.004824 -0.003364 -0.001136 0.001547 -0.000844 -0.002683
# 2 -0.003364 0.030588 0.002736 -0.025309 0.018348 -0.012117
# 3 -0.001136 0.002736 0.015809 -0.007133 0.005966 -0.008890
# 4 0.001547 -0.025309 -0.007133 0.054440 -0.019690 0.020117
# 5 -0.000844 0.018348 0.005966 -0.019690 0.032314 -0.010010
# 6 -0.002683 -0.012117 -0.008890 0.020117 -0.010010 0.034354
#
#
# Mechanical properties :
#
#
# Convention : Reuss Voigt Hill
#
# Bulk Modulus (GPa) = 20.96745 76.38029 48.67387
# Shear Modulus (GPa) = 26.07502 48.77854 37.42678
#
# Velocity S-wave (km/s) = 3.17172 4.33807 3.79991
# Velocity P-wave (km/s) = 4.63706 7.38644 6.16692
#
# Compressibility (1/GPa) = 0.04769297
#
# Stress axis : x y z
#
# Youngs Moduli (GPa) = 207.30209 32.69294 63.25424
#
# Poissons Ratio (x) = 0.10999 0.07186
# Poissons Ratio (y) = 0.69741 -0.17309
# Poissons Ratio (z) = 0.23550 -0.08946
#
# Static dielectric constant tensor:
#      x y z
#    x 2.143550 0.081020 -0.118770 
#    y 0.081020 2.151070 0.018550 
#    z -0.118770 0.018550 2.391070 
# 
# From -- ./inp_files/26320.got.cif
#   From: 2010.05.17/outbox.cif.g08.bks.cpg/sg2_14_cif.got.tgz:26320.got - 2010.06.03 11:33:40.
