data_PCOD9066812
_publ_section_title
;
Structure prediction by ZEFSAII (Michael W. Deem and Ramdas Pophale) SiO2 
 PCOD9066812
Probable space group: P -1
;
_chemical_formula_sum "Si O2"
_cell_formula_units_Z 15
_cell_length_a 9.429853
_cell_length_b 12.152333
_cell_length_c 10.546168
_cell_angle_alpha 101.122814
_cell_angle_beta 114.901198
_cell_angle_gamma 36.376093
_cell_volume 625.693441
_symmetry_space_group_name_H-M "P -1"
_symmetry_group_IT_number 2
_symmetry_cell_setting 'triclinic'
loop_
_space_group_symop_operation_xyz
x,y,z
-x,-y,-z
loop_
_atom_site_type_symbol
_atom_site_label
_atom_site_fract_x
_atom_site_fract_y
_atom_site_fract_z
Si Si1 0.792097 0.147655 0.707951
Si Si2 0.183089 0.483346 0.314521
Si Si3 0.366213 0.189441 0.934142
Si Si4 0.475515 0.923192 0.319125
Si Si5 0.494116 0.462644 0.843782
Si Si6 0.590340 0.242657 0.213215
Si Si7 0.922560 0.681233 0.632559
Si Si8 0.500000 0.500000 0.500000
O O1 0.647218 0.112990 0.663585
O O2 0.747301 0.241012 0.844935
O O3 0.648224 0.310758 0.589485
O O4 0.094774 0.952952 0.734039
O O5 0.458428 0.283588 0.304787
O O6 0.092059 0.441167 0.367686
O O7 0.228374 0.579411 0.408358
O O8 0.955437 0.627569 0.153062
O O9 0.461788 0.142475 0.815312
O O10 0.453663 0.248227 0.055442
O O11 0.500000 0.000000 0.000000
O O12 0.743725 0.805909 0.467668
O O13 0.248777 0.150972 0.289970
O O14 0.478633 0.585008 0.781993
O O15 0.225565 0.549392 0.726968
O O16 0.500000 0.500000 0.000000
#
# Coordination Sequence:
#
# PCOD9066812 Si02
#       8
#     2   2   2   2   2   2   2   1
#     4  12  26  50  75 115 151 203 260 310 386 454
#     4  12  26  50  76 111 153 200 261 316 385 458
#     4  12  28  48  77 113 155 205 257 316 388 454
#     4  11  25  46  78 109 153 201 252 321 378 457
#     4  12  27  46  78 112 154 198 251 316 380 459
#     4  12  27  49  75 109 153 201 256 317 374 463
#     4  11  25  48  76 114 152 199 256 315 386 452
#     4  12  26  46  78 108 156 198 248 324 382 462
#
# _framework density 23.973400999999999
#
# number of rings (size 3 to 8) (size 9 to 14) (size 15 to 20)
#    0.000    0.267    4.000    4.400    3.733    2.667 
#    2.400    0.000    0.000    0.000    0.000    0.000 
#    0.000    0.000    0.000    0.000    0.000    0.000 
#
# Total GULP energy -83807.030828 kJ/mol
# GULP energy per Si atom -5587.135389 kJ/mol
# Density = 2.391884 g / cm^3
# Si number density = 23.973401 Si / 1000 Ang^3
#
#
#
# Elastic Constant Matrix: (Units=GPa)
#
#
# Indices 1 2 3 4 5 6 
#
# 1 151.5864 23.0005 35.7120 -6.4511 18.4248 5.0646
# 2 23.0005 103.8988 15.1698 5.9146 -7.1527 -31.8704
# 3 35.7120 15.1698 52.6287 -11.2722 38.5015 6.9495
# 4 -6.4511 5.9146 -11.2722 32.5204 12.1330 4.9334
# 5 18.4248 -7.1527 38.5015 12.1330 18.8994 -17.1276
# 6 5.0646 -31.8704 6.9495 4.9334 -17.1276 26.9173
#
#
#
# Elastic Compliance Matrix: (Units=1/GPa)
#
#
# Indices 1 2 3 4 5 6 
#
# 1 0.008037 -0.001503 -0.005160 0.000133 0.000527 -0.001649
# 2 -0.001503 0.008505 0.006651 0.004021 -0.010133 0.001450
# 3 -0.005160 0.006651 0.006981 -0.007372 0.013384 0.016911
# 4 0.000133 0.004021 -0.007372 0.021147 0.012613 0.010790
# 5 0.000527 -0.010133 0.013384 0.012613 -0.007063 -0.022358
# 6 -0.001649 0.001450 0.016911 0.010790 -0.022358 0.018608
#
#
# Mechanical properties :
#
#
# Convention : Reuss Voigt Hill
#
# Bulk Modulus (GPa) = 42.55160 50.65317 46.60238
# Shear Modulus (GPa) = 78.03809 31.28287 54.66048
#
# Velocity S-wave (km/s) = 5.71162 3.61626 4.78016
# Velocity P-wave (km/s) = 7.82846 6.21379 7.06739
#
# Compressibility (1/GPa) = 0.02350088
#
# Stress axis : x y z
#
# Youngs Moduli (GPa) = 124.42073 117.58175 143.24170
#
# Poissons Ratio (x) = 0.17674 0.73906
# Poissons Ratio (y) = 0.18702 -0.95277
# Poissons Ratio (z) = 0.64195 -0.78209
#
# Static dielectric constant tensor:
#      x y z
#    x 2.014240 -0.236430 -0.212980 
#    y -0.236430 2.258520 0.378460 
#    z -0.212980 0.378460 2.291840 
# 
# From -- ./inp_files/390245.got.cif
#   From: 2010.05.17/outbox.cif.g08.bks.cpg/sg2_196_cif.got.tgz:390245.got - 2010.06.03 11:33:40.
