data_PCOD9066697
_publ_section_title
;
Structure prediction by ZEFSAII (Michael W. Deem and Ramdas Pophale) SiO2 
 PCOD9066697
Probable space group: P -1
;
_chemical_formula_sum "Si O2"
_cell_formula_units_Z 13
_cell_length_a 8.005803
_cell_length_b 13.683476
_cell_length_c 10.653119
_cell_angle_alpha 149.013947
_cell_angle_beta 116.586082
_cell_angle_gamma 54.761826
_cell_volume 487.635207
_symmetry_space_group_name_H-M "P -1"
_symmetry_group_IT_number 2
_symmetry_cell_setting 'triclinic'
loop_
_space_group_symop_operation_xyz
x,y,z
-x,-y,-z
loop_
_atom_site_type_symbol
_atom_site_label
_atom_site_fract_x
_atom_site_fract_y
_atom_site_fract_z
Si Si1 0.704668 0.004350 0.013889
Si Si2 0.111343 0.372692 0.168105
Si Si3 0.264194 0.181085 0.455015
Si Si4 0.387881 0.465148 0.204475
Si Si5 0.071634 0.757902 0.242803
Si Si6 0.382675 0.809253 0.250702
Si Si7 0.500000 0.500000 0.500000
O O1 0.874279 0.811139 0.936900
O O2 0.715691 0.938857 0.800142
O O3 0.690965 0.235683 0.275698
O O4 0.500000 0.000000 0.000000
O O5 0.324393 0.406097 0.259097
O O6 0.922777 0.592554 0.368350
O O7 0.099749 0.298064 0.938809
O O8 0.476241 0.189922 0.583375
O O9 0.240885 0.041169 0.408466
O O10 0.185122 0.642300 0.276351
O O11 0.553779 0.527776 0.393775
O O12 0.481078 0.302427 0.946360
O O13 0.248542 0.691375 0.122026
O O14 0.000000 0.000000 0.500000
#
# Coordination Sequence:
#
# PCOD9066697 Si02
#       7
#     2   2   2   2   2   2   1
#     4  12  26  49  75 106 148 196 244 306 373 439
#     4  12  26  47  73 109 148 196 244 309 368 433
#     4  11  25  46  75 106 148 193 247 302 370 433
#     4  12  25  48  73 106 145 194 246 300 368 438
#     4  12  27  42  71 110 148 189 247 307 366 437
#     4  11  25  46  74 105 146 195 243 301 366 442
#     4  12  26  46  76 106 140 196 250 296 366 448
#
# _framework density 26.659274
#
# number of rings (size 3 to 8) (size 9 to 14) (size 15 to 20)
#    0.000    0.308    4.615    3.231    8.615    0.000 
#    2.769    1.538    0.000    0.000    0.000    0.000 
#    0.000    0.000    0.000    0.000    0.000    0.000 
#
# Total GULP energy -72634.683180 kJ/mol
# GULP energy per Si atom -5587.283322 kJ/mol
# Density = 2.659860 g / cm^3
# Si number density = 26.659274 Si / 1000 Ang^3
#
#
#
# Elastic Constant Matrix: (Units=GPa)
#
#
# Indices 1 2 3 4 5 6 
#
# 1 70.6483 23.3514 23.4528 2.2088 6.8710 5.3604
# 2 23.3514 239.6067 81.0490 10.1708 6.2499 -15.0964
# 3 23.4528 81.0490 171.2958 5.9506 4.7585 -5.1152
# 4 2.2088 10.1708 5.9506 62.7255 -6.0687 1.4019
# 5 6.8710 6.2499 4.7585 -6.0687 38.4816 0.3840
# 6 5.3604 -15.0964 -5.1152 1.4019 0.3840 30.0001
#
#
#
# Elastic Compliance Matrix: (Units=1/GPa)
#
#
# Indices 1 2 3 4 5 6 
#
# 1 0.015583 -0.001112 -0.001634 -0.000368 -0.002422 -0.003575
# 2 -0.001112 0.005229 -0.002209 -0.000705 -0.000514 0.002493
# 3 -0.001634 -0.002209 0.007137 -0.000298 -0.000283 0.000415
# 4 -0.000368 -0.000705 -0.000298 0.016396 0.002814 -0.001142
# 5 -0.002422 -0.000514 -0.000283 0.002814 0.026985 -0.000351
# 6 -0.003575 0.002493 0.000415 -0.001142 -0.000351 0.035355
#
#
# Mechanical properties :
#
#
# Convention : Reuss Voigt Hill
#
# Bulk Modulus (GPa) = 55.43400 81.91749 68.67575
# Shear Modulus (GPa) = 40.78016 49.82127 45.30072
#
# Velocity S-wave (km/s) = 3.91536 4.32767 4.12667
# Velocity P-wave (km/s) = 6.42485 7.46766 6.96579
#
# Compressibility (1/GPa) = 0.01803947
#
# Stress axis : x y z
#
# Youngs Moduli (GPa) = 64.17256 191.22408 140.10940
#
# Poissons Ratio (x) = 0.21272 0.22892
# Poissons Ratio (y) = 0.07139 0.30948
# Poissons Ratio (z) = 0.10485 0.42238
#
# Static dielectric constant tensor:
#      x y z
#    x 2.253750 -0.020820 0.032740 
#    y -0.020820 2.126330 0.024950 
#    z 0.032740 0.024950 2.091170 
# 
# From -- ./inp_files/191133.got.cif
#   From: 2010.05.17/outbox.cif.g08.bks.cpg/sg2_96_cif.got.tgz:191133.got - 2010.06.03 11:33:40.
