data_PCOD9066978
_publ_section_title
;
Structure prediction by ZEFSAII (Michael W. Deem and Ramdas Pophale) SiO2 
 PCOD9066978
Probable space group: P -1
;
_chemical_formula_sum "Si O2"
_cell_formula_units_Z 16
_cell_length_a 5.080299
_cell_length_b 17.097461
_cell_length_c 8.995069
_cell_angle_alpha 98.073341
_cell_angle_beta 121.728457
_cell_angle_gamma 90.425237
_cell_volume 654.888299
_symmetry_space_group_name_H-M "P -1"
_symmetry_group_IT_number 2
_symmetry_cell_setting 'triclinic'
loop_
_space_group_symop_operation_xyz
x,y,z
-x,-y,-z
loop_
_atom_site_type_symbol
_atom_site_label
_atom_site_fract_x
_atom_site_fract_y
_atom_site_fract_z
Si Si1 0.771220 0.667824 0.080879
Si Si2 0.906193 0.314706 0.136863
Si Si3 0.181162 0.536370 0.209395
Si Si4 0.740353 0.133471 0.115281
Si Si5 0.431157 0.113281 0.317230
Si Si6 0.544936 0.066394 0.738658
Si Si7 0.182584 0.430002 0.467525
Si Si8 0.988944 0.163079 0.672677
O O1 0.964206 0.604596 0.203513
O O2 0.857773 0.753734 0.199994
O O3 0.405231 0.642542 0.974685
O O4 0.872060 0.673363 0.937900
O O5 0.794268 0.221767 0.089458
O O6 0.026411 0.344933 0.343403
O O7 0.229941 0.466964 0.323783
O O8 0.530931 0.578729 0.339415
O O9 0.000000 0.500000 0.000000
O O10 0.477840 0.129350 0.161108
O O11 0.081361 0.116694 0.267263
O O12 0.642008 0.071687 0.940791
O O13 0.689236 0.174025 0.485974
O O14 0.523764 0.024782 0.350040
O O15 0.832404 0.108783 0.743859
O O16 0.247535 0.116458 0.655332
O O17 0.000000 0.500000 0.500000
#
# Coordination Sequence:
#
# PCOD9066978 Si02
#       8
#     2   2   2   2   2   2   2   2
#     4  12  25  46  73 101 140 195 234 288 359 428
#     4  12  26  47  73 100 147 187 235 295 353 423
#     4  11  25  47  74 107 147 187 238 289 356 428
#     4  12  24  44  66 101 139 183 236 288 359 419
#     4  12  26  41  69 101 139 181 237 301 352 416
#     4  12  23  46  68  96 137 188 237 292 355 424
#     4  11  27  46  75 112 144 189 239 296 352 424
#     4  12  24  44  67 102 137 184 240 288 357 419
#
# _framework density 24.431650000000001
#
# number of rings (size 3 to 8) (size 9 to 14) (size 15 to 20)
#    0.000    0.250    3.750    5.250    5.250    2.000 
#    0.000    0.000    0.000    0.000    0.000    0.000 
#    0.000    0.000    0.000    0.000    0.000    0.000 
#
# Total GULP energy -89478.755916 kJ/mol
# GULP energy per Si atom -5592.422245 kJ/mol
# Density = 2.437604 g / cm^3
# Si number density = 24.431650 Si / 1000 Ang^3
#
#
#
# Elastic Constant Matrix: (Units=GPa)
#
#
# Indices 1 2 3 4 5 6 
#
# 1 73.6715 3.6662 30.3029 -5.1817 15.3789 -11.8924
# 2 3.6662 69.9928 8.2956 5.8974 3.4201 -11.3646
# 3 30.3029 8.2956 161.6964 15.8816 27.0482 -10.6651
# 4 -5.1817 5.8974 15.8816 33.1168 7.0617 5.4487
# 5 15.3789 3.4201 27.0482 7.0617 39.5607 -16.7871
# 6 -11.8924 -11.3646 -10.6651 5.4487 -16.7871 36.9457
#
#
#
# Elastic Compliance Matrix: (Units=1/GPa)
#
#
# Indices 1 2 3 4 5 6 
#
# 1 0.016203 -0.000453 -0.002584 0.004597 -0.004663 0.001534
# 2 -0.000453 0.015613 -0.000292 -0.004280 0.002476 0.006328
# 3 -0.002584 -0.000292 0.007604 -0.003275 -0.003518 0.000158
# 4 0.004597 -0.004280 -0.003275 0.037317 -0.010538 -0.011074
# 5 -0.004663 0.002476 -0.003518 -0.010538 0.038501 0.017293
# 6 0.001534 0.006328 0.000158 -0.011074 0.017293 0.039043
#
#
# Mechanical properties :
#
#
# Convention : Reuss Voigt Hill
#
# Bulk Modulus (GPa) = 30.52307 43.32112 36.92209
# Shear Modulus (GPa) = 29.09343 39.46438 34.27891
#
# Velocity S-wave (km/s) = 3.45455 4.02344 3.74980
# Velocity P-wave (km/s) = 5.33219 6.27329 5.82179
#
# Compressibility (1/GPa) = 0.03276211
#
# Stress axis : x y z
#
# Youngs Moduli (GPa) = 61.71552 64.05021 131.50723
#
# Poissons Ratio (x) = 0.02901 0.33978
# Poissons Ratio (y) = 0.02795 0.03846
# Poissons Ratio (z) = 0.15945 0.01873
#
# Static dielectric constant tensor:
#      x y z
#    x 1.994760 0.056400 -0.006480 
#    y 0.056400 1.971410 0.007070 
#    z -0.006480 0.007070 2.008420 
# 
# From -- ./inp_files/120064.got.cif
#   From: 2010.05.17/outbox.cif.g08.bks.cpg/sg2_61_cif.got.tgz:120064.got - 2010.06.03 11:33:40.
