data_PCOD9066364
_publ_section_title
;
Structure prediction by ZEFSAII (Michael W. Deem and Ramdas Pophale) SiO2 
 PCOD9066364
Probable space group: P -1
;
_chemical_formula_sum "Si O2"
_cell_formula_units_Z 14
_cell_length_a 22.894505
_cell_length_b 8.296792
_cell_length_c 9.907686
_cell_angle_alpha 46.412458
_cell_angle_beta 143.379255
_cell_angle_gamma 148.120122
_cell_volume 592.716601
_symmetry_space_group_name_H-M "P -1"
_symmetry_group_IT_number 2
_symmetry_cell_setting 'triclinic'
loop_
_space_group_symop_operation_xyz
x,y,z
-x,-y,-z
loop_
_atom_site_type_symbol
_atom_site_label
_atom_site_fract_x
_atom_site_fract_y
_atom_site_fract_z
Si Si1 0.065765 0.408672 0.483433
Si Si2 0.321084 0.819610 0.370365
Si Si3 0.553056 0.832227 0.874362
Si Si4 0.913996 0.083789 0.821501
Si Si5 0.038731 0.196162 0.253728
Si Si6 0.648278 0.232840 0.076119
Si Si7 0.659556 0.723323 0.682235
O O1 0.030904 0.611135 0.323418
O O2 0.030549 0.286282 0.335449
O O3 0.225749 0.634571 0.674228
O O4 0.991833 0.112719 0.609217
O O5 0.431530 0.818076 0.631714
O O6 0.184355 0.471369 0.304776
O O7 0.364141 0.008773 0.202526
O O8 0.302276 0.986263 0.346036
O O9 0.500000 0.500000 0.000000
O O10 0.638205 0.057872 0.028058
O O11 0.751804 0.822105 0.663886
O O12 0.936342 0.144942 0.988954
O O13 0.000000 0.000000 0.000000
O O14 0.676393 0.528816 0.913840
O O15 0.500000 0.000000 0.000000
O O16 0.500000 0.500000 0.500000
#
# Coordination Sequence:
#
# PCOD9066364 Si02
#       7
#     2   2   2   2   2   2   2
#     4  11  25  47  73 107 149 198 254 309 373 457
#     4  11  25  45  75 105 149 199 247 313 377 448
#     4  11  26  47  72 114 149 192 252 315 382 447
#     4  12  28  47  76 111 150 201 250 315 385 449
#     4  11  25  46  73 105 148 197 254 301 380 447
#     4  12  24  45  77 110 148 197 253 312 379 451
#     4  12  24  48  76 107 148 194 254 308 377 452
#
# _framework density 23.620056000000002
#
# number of rings (size 3 to 8) (size 9 to 14) (size 15 to 20)
#    0.000    0.571    4.286    3.000    2.000    2.857 
#    0.000    0.000    0.000    0.000    0.000    0.000 
#    0.000    0.000    0.000    0.000    0.000    0.000 
#
# Total GULP energy -78357.620318 kJ/mol
# GULP energy per Si atom -5596.972880 kJ/mol
# Density = 2.356630 g / cm^3
# Si number density = 23.620056 Si / 1000 Ang^3
#
#
#
# Elastic Constant Matrix: (Units=GPa)
#
#
# Indices 1 2 3 4 5 6 
#
# 1 90.3641 54.1185 35.0666 -14.7617 17.0561 -1.1779
# 2 54.1185 165.9335 62.0343 -37.6105 14.7169 20.0991
# 3 35.0666 62.0343 94.0314 -32.1143 6.8011 -11.2787
# 4 -14.7617 -37.6105 -32.1143 63.3736 -1.0255 -5.2097
# 5 17.0561 14.7169 6.8011 -1.0255 43.2175 0.2973
# 6 -1.1779 20.0991 -11.2787 -5.2097 0.2973 38.6279
#
#
#
# Elastic Compliance Matrix: (Units=1/GPa)
#
#
# Indices 1 2 3 4 5 6 
#
# 1 0.015199 -0.003786 -0.002649 0.000021 -0.004304 0.001696
# 2 -0.003786 0.010887 -0.005869 0.001993 -0.001193 -0.007216
# 3 -0.002649 -0.005869 0.018686 0.006132 0.000185 0.009255
# 4 0.000021 0.001993 0.006132 0.020344 -0.001193 0.003507
# 5 -0.004304 -0.001193 0.000185 -0.001193 0.025185 0.000189
# 6 0.001696 -0.007216 0.009255 0.003507 0.000189 0.032868
#
#
# Mechanical properties :
#
#
# Convention : Reuss Voigt Hill
#
# Bulk Modulus (GPa) = 49.59252 72.52974 61.06113
# Shear Modulus (GPa) = 32.36302 42.31778 37.34040
#
# Velocity S-wave (km/s) = 3.70557 4.23733 3.98034
# Velocity P-wave (km/s) = 6.27295 7.39685 6.85796
#
# Compressibility (1/GPa) = 0.02016433
#
# Stress axis : x y z
#
# Youngs Moduli (GPa) = 65.79189 91.85294 53.51723
#
# Poissons Ratio (x) = 0.34775 0.14175
# Poissons Ratio (y) = 0.24909 0.31410
# Poissons Ratio (z) = 0.17426 0.53910
#
# Static dielectric constant tensor:
#      x y z
#    x 1.965000 0.039560 -0.003240 
#    y 0.039560 1.942280 0.062170 
#    z -0.003240 0.062170 1.907900 
# 
# From -- ./inp_files/476373.got.cif
#   From: 2010.05.17/outbox.cif.g08.bks.cpg/sg2_239_cif.got.tgz:476373.got - 2010.06.03 11:33:40.
