data_PCOD9066973
_publ_section_title
;
Structure prediction by ZEFSAII (Michael W. Deem and Ramdas Pophale) SiO2 
 PCOD9066973
Probable space group: P -1
;
_chemical_formula_sum "Si O2"
_cell_formula_units_Z 16
_cell_length_a 8.797021
_cell_length_b 18.970536
_cell_length_c 6.915822
_cell_angle_alpha 120.422991
_cell_angle_beta 56.843775
_cell_angle_gamma 130.656269
_cell_volume 712.259881
_symmetry_space_group_name_H-M "P -1"
_symmetry_group_IT_number 2
_symmetry_cell_setting 'triclinic'
loop_
_space_group_symop_operation_xyz
x,y,z
-x,-y,-z
loop_
_atom_site_type_symbol
_atom_site_label
_atom_site_fract_x
_atom_site_fract_y
_atom_site_fract_z
Si Si1 0.781905 0.997740 0.699291
Si Si2 0.530212 0.142032 0.598495
Si Si3 0.773961 0.726185 0.528161
Si Si4 0.795795 0.905074 0.932744
Si Si5 0.592233 0.399702 0.661908
Si Si6 0.166856 0.698260 0.687175
Si Si7 0.321256 0.395135 0.195516
Si Si8 0.799231 0.182466 0.830079
O O1 0.607103 0.939255 0.575423
O O2 0.705304 0.943837 0.882888
O O3 0.824721 0.104394 0.823243
O O4 0.000000 0.000000 0.500000
O O5 0.702999 0.232773 0.485559
O O6 0.656277 0.128837 0.667728
O O7 0.356790 0.149979 0.857633
O O8 0.848418 0.831792 0.696773
O O9 0.590301 0.691789 0.451656
O O10 0.689342 0.652482 0.659891
O O11 0.977724 0.735526 0.298498
O O12 0.000000 0.000000 0.000000
O O13 0.795444 0.389389 0.484639
O O14 0.624020 0.496136 0.680663
O O15 0.496426 0.394870 0.933949
O O16 0.919226 0.664521 0.804185
O O17 0.265251 0.760240 0.900068
#
# Coordination Sequence:
#
# PCOD9066973 Si02
#       8
#     2   2   2   2   2   2   2   2
#     4  12  25  44  68 100 141 190 240 293 348 417
#     4  12  25  45  66  99 139 188 236 291 355 406
#     4  12  23  45  71 102 144 184 235 290 356 418
#     4  12  26  43  72 104 139 186 242 291 348 419
#     4  11  25  47  74 106 140 185 233 291 364 419
#     4  12  26  45  73 104 144 182 235 291 358 426
#     4  11  25  47  76 105 141 183 232 297 355 429
#     4  12  26  43  69 101 143 187 235 294 351 418
#
# _framework density 22.463709999999999
#
# number of rings (size 3 to 8) (size 9 to 14) (size 15 to 20)
#    0.000    0.250    5.000    4.125    1.750    3.000 
#    0.000    0.625    0.000    0.000    0.000    0.000 
#    0.000    0.000    0.000    0.000    0.000    0.000 
#
# Total GULP energy -89498.598799 kJ/mol
# GULP energy per Si atom -5593.662425 kJ/mol
# Density = 2.241258 g / cm^3
# Si number density = 22.463710 Si / 1000 Ang^3
#
#
#
# Elastic Constant Matrix: (Units=GPa)
#
#
# Indices 1 2 3 4 5 6 
#
# 1 48.8326 6.1027 26.7590 2.3714 6.0434 -1.9050
# 2 6.1027 82.6928 47.7061 -0.8943 -4.1568 -11.4721
# 3 26.7590 47.7061 115.5356 -1.7814 6.5494 -24.8639
# 4 2.3714 -0.8943 -1.7814 30.4578 -3.0864 4.1519
# 5 6.0434 -4.1568 6.5494 -3.0864 29.8626 4.7323
# 6 -1.9050 -11.4721 -24.8639 4.1519 4.7323 45.8355
#
#
#
# Elastic Compliance Matrix: (Units=1/GPa)
#
#
# Indices 1 2 3 4 5 6 
#
# 1 0.024272 0.001512 -0.006429 -0.002344 -0.003288 -0.001548
# 2 0.001512 0.016389 -0.007372 0.000337 0.003665 -0.000243
# 3 -0.006429 -0.007372 0.014773 -0.000117 -0.003979 0.006323
# 4 -0.002344 0.000337 -0.000117 0.033983 0.004635 -0.003633
# 5 -0.003288 0.003665 -0.003979 0.004635 0.036903 -0.005608
# 6 -0.001548 -0.000243 0.006323 -0.003633 -0.005608 0.026030
#
#
# Mechanical properties :
#
#
# Convention : Reuss Voigt Hill
#
# Bulk Modulus (GPa) = 32.40887 45.35521 38.88204
# Shear Modulus (GPa) = 26.70755 32.33072 29.51913
#
# Velocity S-wave (km/s) = 3.45181 3.79785 3.62896
# Velocity P-wave (km/s) = 5.50865 6.28218 5.90809
#
# Compressibility (1/GPa) = 0.03085575
#
# Stress axis : x y z
#
# Youngs Moduli (GPa) = 41.19890 61.01796 67.69138
#
# Poissons Ratio (x) = -0.09227 0.43519
# Poissons Ratio (y) = -0.06230 0.49904
# Poissons Ratio (z) = 0.26487 0.44984
#
# Static dielectric constant tensor:
#      x y z
#    x 1.867220 0.031090 -0.026880 
#    y 0.031090 1.805760 -0.016640 
#    z -0.026880 -0.016640 1.831480 
# 
# From -- ./inp_files/53649.got.cif
#   From: 2010.05.17/outbox.cif.g08.bks.cpg/sg2_27_cif.got.tgz:53649.got - 2010.06.03 11:33:40.
