data_PCOD9066852
_publ_section_title
;
Structure prediction by ZEFSAII (Michael W. Deem and Ramdas Pophale) SiO2 
 PCOD9066852
Probable space group: P -1
;
_chemical_formula_sum "Si O2"
_cell_formula_units_Z 12
_cell_length_a 19.923399
_cell_length_b 10.253499
_cell_length_c 16.510572
_cell_angle_alpha 158.995401
_cell_angle_beta 22.759636
_cell_angle_gamma 145.156836
_cell_volume 447.685693
_symmetry_space_group_name_H-M "P -1"
_symmetry_group_IT_number 2
_symmetry_cell_setting 'triclinic'
loop_
_space_group_symop_operation_xyz
x,y,z
-x,-y,-z
loop_
_atom_site_type_symbol
_atom_site_label
_atom_site_fract_x
_atom_site_fract_y
_atom_site_fract_z
Si Si1 0.286078 0.621865 0.791418
Si Si2 0.602710 0.272938 0.654254
Si Si3 0.052604 0.243442 0.651502
Si Si4 0.391042 0.956798 0.176119
Si Si5 0.227701 0.338634 0.179330
Si Si6 0.868985 0.017203 0.078460
O O1 0.500000 0.500000 0.500000
O O2 0.296025 0.369782 0.556569
O O3 0.201707 0.056905 0.114204
O O4 0.136455 0.544396 0.971557
O O5 0.435597 0.154925 0.809122
O O6 0.691601 0.030369 0.336927
O O7 0.736095 0.315974 0.605460
O O8 0.508082 0.685085 0.956169
O O9 0.201217 0.891634 0.326998
O O10 0.132059 0.570403 0.716215
O O11 0.000000 0.000000 0.500000
O O12 0.500000 0.000000 0.000000
O O13 0.113900 0.271398 0.185908
O O14 0.000000 0.000000 0.000000
#
# Coordination Sequence:
#
# PCOD9066852 Si02
#       6
#     2   2   2   2   2   2
#     4  12  24  45  73 102 140 189 239 296 359 428
#     4  11  25  48  73 105 140 194 238 296 367 428
#     4  12  27  45  71 108 143 189 244 298 360 432
#     4  12  23  45  73 103 142 184 242 300 357 427
#     4  11  25  47  70 101 143 188 240 289 362 432
#     4  12  28  46  70 106 148 187 241 298 365 430
#
# _framework density 26.80452
#
# number of rings (size 3 to 8) (size 9 to 14) (size 15 to 20)
#    0.000    0.333    5.000    3.000    4.667    0.667 
#    0.000    0.000    0.000    0.000    0.000    0.000 
#    0.000    0.000    0.000    0.000    0.000    0.000 
#
# Total GULP energy -66859.783782 kJ/mol
# GULP energy per Si atom -5571.648649 kJ/mol
# Density = 2.674351 g / cm^3
# Si number density = 26.804520 Si / 1000 Ang^3
#
#
#
# Elastic Constant Matrix: (Units=GPa)
#
#
# Indices 1 2 3 4 5 6 
#
# 1 189.8965 31.2587 47.3406 -3.1358 -8.4930 30.3273
# 2 31.2587 62.3367 7.6007 -3.7312 -1.1172 -13.0707
# 3 47.3406 7.6007 88.4176 -0.3840 19.3192 -10.9624
# 4 -3.1358 -3.7312 -0.3840 47.8612 -1.5654 6.6276
# 5 -8.4930 -1.1172 19.3192 -1.5654 70.7072 -7.2534
# 6 30.3273 -13.0707 -10.9624 6.6276 -7.2534 46.0252
#
#
#
# Elastic Compliance Matrix: (Units=1/GPa)
#
#
# Indices 1 2 3 4 5 6 
#
# 1 0.009231 -0.005683 -0.005951 0.001424 0.001749 -0.009043
# 2 -0.005683 0.020724 0.002532 -0.000157 0.000002 0.010256
# 3 -0.005951 0.002532 0.016208 -0.001313 -0.004311 0.008011
# 4 0.001424 -0.000157 -0.001313 0.021580 0.000562 -0.004314
# 5 0.001749 0.000002 -0.004311 0.000562 0.015563 0.000193
# 6 -0.009043 0.010256 0.008011 -0.004314 0.000193 0.033158
#
#
# Mechanical properties :
#
#
# Convention : Reuss Voigt Hill
#
# Bulk Modulus (GPa) = 35.76729 57.00564 46.38647
# Shear Modulus (GPa) = 34.72492 49.88210 42.30351
#
# Velocity S-wave (km/s) = 3.60319 4.31856 3.97700
# Velocity P-wave (km/s) = 5.53926 6.79559 6.19933
#
# Compressibility (1/GPa) = 0.02795851
#
# Stress axis : x y z
#
# Youngs Moduli (GPa) = 108.32949 48.25315 61.69769
#
# Poissons Ratio (x) = 0.27422 0.36717
# Poissons Ratio (y) = 0.61563 -0.15621
# Poissons Ratio (z) = 0.64469 -0.12217
#
# Static dielectric constant tensor:
#      x y z
#    x 2.096610 -0.177230 0.050910 
#    y -0.177230 1.747320 0.024690 
#    z 0.050910 0.024690 2.174980 
# 
# From -- ./inp_files/183707.got.cif
#   From: 2010.05.17/outbox.cif.g08.bks.cpg/sg2_92_cif.got.tgz:183707.got - 2010.06.03 11:33:40.
