data_PCOD9066012
_publ_section_title
;
Structure prediction by ZEFSAII (Michael W. Deem and Ramdas Pophale) SiO2 
 PCOD9066012
Probable space group: P -1
;
_chemical_formula_sum "Si O2"
_cell_formula_units_Z 12
_cell_length_a 8.416940
_cell_length_b 15.010003
_cell_length_c 12.536133
_cell_angle_alpha 151.884079
_cell_angle_beta 69.261536
_cell_angle_gamma 128.447809
_cell_volume 496.957705
_symmetry_space_group_name_H-M "P -1"
_symmetry_group_IT_number 2
_symmetry_cell_setting 'triclinic'
loop_
_space_group_symop_operation_xyz
x,y,z
-x,-y,-z
loop_
_atom_site_type_symbol
_atom_site_label
_atom_site_fract_x
_atom_site_fract_y
_atom_site_fract_z
Si Si1 0.315000 0.869625 0.176789
Si Si2 0.293566 0.204353 0.694982
Si Si3 0.902219 0.688817 0.327004
Si Si4 0.894906 0.200954 0.079041
Si Si5 0.760785 0.682605 0.578208
Si Si6 0.194270 0.762207 0.631554
O O1 0.342909 0.067939 0.458955
O O2 0.577552 0.988319 0.222063
O O3 0.133459 0.563662 0.933749
O O4 0.226511 0.867285 0.078670
O O5 0.157977 0.257317 0.712561
O O6 0.500000 0.500000 0.000000
O O7 0.160073 0.991015 0.598877
O O8 0.738929 0.625749 0.397530
O O9 0.761516 0.183584 0.195726
O O10 0.145523 0.506258 0.342503
O O11 0.901504 0.987561 0.878668
O O12 0.500000 0.500000 0.500000
O O13 0.944434 0.669077 0.564247
#
# Coordination Sequence:
#
# PCOD9066012 Si02
#       6
#     2   2   2   2   2   2
#     4  12  25  47  78 105 154 191 244 314 364 433
#     4  11  28  49  77 105 145 196 252 306 368 439
#     4  11  26  48  74 109 147 191 251 304 371 433
#     4  11  25  44  71 108 153 190 245 294 367 436
#     4  12  26  47  74 105 153 194 242 300 367 441
#     4  11  27  42  73 114 147 197 244 294 371 445
#
# _framework density 24.146925
#
# number of rings (size 3 to 8) (size 9 to 14) (size 15 to 20)
#    0.000    0.667    3.333    2.500    9.333    0.667 
#    0.000    0.000    0.000    0.000    0.000    0.000 
#    0.000    0.000    0.000    0.000    0.000    0.000 
#
# Total GULP energy -67021.544465 kJ/mol
# GULP energy per Si atom -5585.128705 kJ/mol
# Density = 2.409197 g / cm^3
# Si number density = 24.146925 Si / 1000 Ang^3
#
#
#
# Elastic Constant Matrix: (Units=GPa)
#
#
# Indices 1 2 3 4 5 6 
#
# 1 64.0984 42.5777 20.5119 14.2773 -15.5500 -12.3891
# 2 42.5777 143.6520 47.2155 12.1110 1.3488 12.2068
# 3 20.5119 47.2155 174.7968 18.7486 -34.3113 -0.3229
# 4 14.2773 12.1110 18.7486 42.9168 -13.4638 -4.2027
# 5 -15.5500 1.3488 -34.3113 -13.4638 35.1615 4.7812
# 6 -12.3891 12.2068 -0.3229 -4.2027 4.7812 33.1760
#
#
#
# Elastic Compliance Matrix: (Units=1/GPa)
#
#
# Indices 1 2 3 4 5 6 
#
# 1 0.026892 -0.009525 0.001991 -0.002311 0.011742 0.011582
# 2 -0.009525 0.011710 -0.003377 -0.001755 -0.007675 -0.007015
# 3 0.001991 -0.003377 0.008156 -0.000474 0.008685 0.000754
# 4 -0.002311 -0.001755 -0.000474 0.027775 0.008945 0.002008
# 5 0.011742 -0.007675 0.008685 0.008945 0.045575 0.001858
# 6 0.011582 -0.007015 0.000754 0.002008 0.001858 0.037042
#
#
# Mechanical properties :
#
#
# Convention : Reuss Voigt Hill
#
# Bulk Modulus (GPa) = 40.09842 67.01749 53.55795
# Shear Modulus (GPa) = 26.69728 40.40033 33.54880
#
# Velocity S-wave (km/s) = 3.32869 4.09480 3.73146
# Velocity P-wave (km/s) = 5.60497 7.08313 6.38696
#
# Compressibility (1/GPa) = 0.02493864
#
# Stress axis : x y z
#
# Youngs Moduli (GPa) = 37.18516 85.39466 122.60207
#
# Poissons Ratio (x) = 0.81337 -0.24411
# Poissons Ratio (y) = 0.35418 0.41398
# Poissons Ratio (z) = -0.07404 0.28835
#
# Static dielectric constant tensor:
#      x y z
#    x 2.043740 0.107730 0.107260 
#    y 0.107730 1.983010 0.064720 
#    z 0.107260 0.064720 2.053560 
# 
# From -- ./inp_files/60151.got.cif
#   From: 2010.05.17/outbox.cif.g08.bks.cpg/sg2_31_cif.got.tgz:60151.got - 2010.06.03 11:33:40.
