data_PCOD9066281
_publ_section_title
;
Structure prediction by ZEFSAII (Michael W. Deem and Ramdas Pophale) SiO2 
 PCOD9066281
Probable space group: P -1
;
_chemical_formula_sum "Si O2"
_cell_formula_units_Z 15
_cell_length_a 9.364916
_cell_length_b 6.036561
_cell_length_c 21.383094
_cell_angle_alpha 55.614299
_cell_angle_beta 139.623922
_cell_angle_gamma 109.447209
_cell_volume 635.446289
_symmetry_space_group_name_H-M "P -1"
_symmetry_group_IT_number 2
_symmetry_cell_setting 'triclinic'
loop_
_space_group_symop_operation_xyz
x,y,z
-x,-y,-z
loop_
_atom_site_type_symbol
_atom_site_label
_atom_site_fract_x
_atom_site_fract_y
_atom_site_fract_z
Si Si1 0.514204 0.221137 0.842176
Si Si2 0.677253 0.535810 0.606247
Si Si3 0.260674 0.782465 0.650862
Si Si4 0.000000 0.500000 0.500000
Si Si5 0.552229 0.170809 0.720393
Si Si6 0.963280 0.201318 0.054826
Si Si7 0.934805 0.980307 0.623825
Si Si8 0.102636 0.046755 0.800026
O O1 0.467752 0.548547 0.776508
O O2 0.458639 0.169356 0.759595
O O3 0.338529 0.125985 0.845787
O O4 0.772303 0.113457 0.961205
O O5 0.500000 0.500000 0.500000
O O6 0.584953 0.453886 0.655678
O O7 0.720308 0.841511 0.568348
O O8 0.909546 0.313009 0.708577
O O9 0.129327 0.676792 0.566702
O O10 0.101227 0.839086 0.648203
O O11 0.372637 0.050201 0.637446
O O12 0.932313 0.301264 0.564041
O O13 0.795811 0.990174 0.834886
O O14 0.875476 0.161527 0.101813
O O15 0.000000 0.500000 0.000000
O O16 0.023569 0.907089 0.734566
#
# Coordination Sequence:
#
# PCOD9066281 Si02
#       8
#     2   2   2   1   2   2   2   2
#     4  12  23  47  71 105 142 193 242 301 361 426
#     4  11  26  46  68 105 149 189 238 303 365 432
#     4  12  23  44  71 105 145 185 246 296 358 436
#     4  12  24  40  72 104 142 190 234 300 366 420
#     4  11  25  45  74 108 148 193 243 303 364 433
#     4  11  25  45  73 106 150 191 241 304 369 427
#     4  12  24  45  72 103 144 186 246 294 361 435
#     4  11  25  47  71 104 143 194 241 296 360 436
#
# _framework density 23.605456
#
# number of rings (size 3 to 8) (size 9 to 14) (size 15 to 20)
#    0.000    0.533    5.333    2.000    1.867    3.733 
#    0.000    1.333    0.000    0.000    0.000    0.000 
#    0.000    0.000    0.000    0.000    0.000    0.000 
#
# Total GULP energy -83650.106601 kJ/mol
# GULP energy per Si atom -5576.673773 kJ/mol
# Density = 2.355173 g / cm^3
# Si number density = 23.605456 Si / 1000 Ang^3
#
#
#
# Elastic Constant Matrix: (Units=GPa)
#
#
# Indices 1 2 3 4 5 6 
#
# 1 127.4509 37.5504 44.8158 4.1834 -13.0400 19.6026
# 2 37.5504 108.8331 46.5055 26.7715 -9.0511 41.7508
# 3 44.8158 46.5055 93.5487 12.3849 2.5678 13.5499
# 4 4.1834 26.7715 12.3849 39.9679 4.4094 -5.8104
# 5 -13.0400 -9.0511 2.5678 4.4094 55.9923 -2.7176
# 6 19.6026 41.7508 13.5499 -5.8104 -2.7176 47.6854
#
#
#
# Elastic Compliance Matrix: (Units=1/GPa)
#
#
# Indices 1 2 3 4 5 6 
#
# 1 0.010120 -0.000632 -0.004288 0.000110 0.002334 -0.002242
# 2 -0.000632 0.026320 -0.007059 -0.019231 0.004837 -0.022847
# 3 -0.004288 -0.007059 0.015677 0.001130 -0.002779 0.003468
# 4 0.000110 -0.019231 0.001130 0.041211 -0.005352 0.021188
# 5 0.002334 0.004837 -0.002779 -0.005352 0.019543 -0.003943
# 6 -0.002242 -0.022847 0.003468 0.021188 -0.003943 0.043267
#
#
# Mechanical properties :
#
#
# Convention : Reuss Voigt Hill
#
# Bulk Modulus (GPa) = 35.51207 65.28625 50.39916
# Shear Modulus (GPa) = 26.38753 42.12653 34.25703
#
# Velocity S-wave (km/s) = 3.34706 4.22905 3.81364
# Velocity P-wave (km/s) = 5.47848 7.18079 6.38661
#
# Compressibility (1/GPa) = 0.02815944
#
# Stress axis : x y z
#
# Youngs Moduli (GPa) = 98.81275 37.99339 63.78615
#
# Poissons Ratio (x) = 0.02403 0.27349
# Poissons Ratio (y) = 0.06249 0.45027
# Poissons Ratio (z) = 0.42368 0.26820
#
# Static dielectric constant tensor:
#      x y z
#    x 1.929900 -0.036910 0.048870 
#    y -0.036910 1.937390 -0.036870 
#    z 0.048870 -0.036870 1.916060 
# 
# From -- ./inp_files/480805.got.cif
#   From: 2010.05.17/outbox.cif.g08.bks.cpg/sg2_241_cif.got.tgz:480805.got - 2010.06.03 11:33:40.
