data_PCOD9066562
_publ_section_title
;
Structure prediction by ZEFSAII (Michael W. Deem and Ramdas Pophale) SiO2 
 PCOD9066562
Probable space group: P -1
;
_chemical_formula_sum "Si O2"
_cell_formula_units_Z 12
_cell_length_a 14.141793
_cell_length_b 5.968159
_cell_length_c 9.149628
_cell_angle_alpha 127.040841
_cell_angle_beta 56.686473
_cell_angle_gamma 108.278542
_cell_volume 514.941368
_symmetry_space_group_name_H-M "P -1"
_symmetry_group_IT_number 2
_symmetry_cell_setting 'triclinic'
loop_
_space_group_symop_operation_xyz
x,y,z
-x,-y,-z
loop_
_atom_site_type_symbol
_atom_site_label
_atom_site_fract_x
_atom_site_fract_y
_atom_site_fract_z
Si Si1 0.412915 0.832159 0.410599
Si Si2 0.489819 0.210080 0.223308
Si Si3 0.840051 0.238357 0.302675
Si Si4 0.247468 0.751256 0.951454
Si Si5 0.880070 0.847727 0.554412
Si Si6 0.890137 0.704045 0.163519
O O1 0.443630 0.503274 0.303682
O O2 0.281179 0.837467 0.558680
O O3 0.500000 0.000000 0.500000
O O4 0.427493 0.014561 0.319315
O O5 0.618296 0.259546 0.188113
O O6 0.500000 0.000000 0.000000
O O7 0.812066 0.234521 0.151597
O O8 0.883996 0.516500 0.454907
O O9 0.924737 0.989832 0.174818
O O10 0.201343 0.449165 0.919868
O O11 0.201251 0.981487 0.197408
O O12 0.842396 0.803625 0.400775
O O13 0.000000 0.000000 0.500000
O O14 0.000000 0.500000 0.000000
#
# Coordination Sequence:
#
# PCOD9066562 Si02
#       6
#     2   2   2   2   2   2
#     4  12  25  48  75 108 153 197 249 305 376 444
#     4  12  27  46  76 113 152 198 251 310 371 450
#     4  11  27  44  77 103 147 199 244 305 375 446
#     4  11  25  46  71 107 148 194 246 304 374 443
#     4  11  25  48  70 106 142 186 246 311 367 443
#     4  11  25  49  71 103 144 190 245 305 370 443
#
# _framework density 23.303626000000001
#
# number of rings (size 3 to 8) (size 9 to 14) (size 15 to 20)
#    0.000    0.667    3.333    3.000    7.000    4.667 
#    0.000    0.000    0.000    0.000    0.000    0.000 
#    0.000    0.000    0.000    0.000    0.000    0.000 
#
# Total GULP energy -66822.578011 kJ/mol
# GULP energy per Si atom -5568.548168 kJ/mol
# Density = 2.325059 g / cm^3
# Si number density = 23.303626 Si / 1000 Ang^3
#
#
#
# Elastic Constant Matrix: (Units=GPa)
#
#
# Indices 1 2 3 4 5 6 
#
# 1 79.3060 40.2777 31.9847 9.9272 -17.8350 9.3002
# 2 40.2777 177.8611 85.7542 22.8539 -22.4957 14.3360
# 3 31.9847 85.7542 135.7066 16.3936 -0.6976 -1.1686
# 4 9.9272 22.8539 16.3936 53.7677 8.6960 -17.2469
# 5 -17.8350 -22.4957 -0.6976 8.6960 39.9401 3.5116
# 6 9.3002 14.3360 -1.1686 -17.2469 3.5116 34.0961
#
#
#
# Elastic Compliance Matrix: (Units=1/GPa)
#
#
# Indices 1 2 3 4 5 6 
#
# 1 0.018620 0.001221 -0.004217 -0.008096 0.011662 -0.011033
# 2 0.001221 0.011743 -0.006767 -0.008137 0.009747 -0.010622
# 3 -0.004217 -0.006767 0.012281 0.003155 -0.006757 0.006708
# 4 -0.008096 -0.008137 0.003155 0.033236 -0.017521 0.024355
# 5 0.011662 0.009747 -0.006757 -0.017521 0.041245 -0.020621
# 6 -0.011033 -0.010622 0.006708 0.024355 -0.020621 0.051478
#
#
# Mechanical properties :
#
#
# Convention : Reuss Voigt Hill
#
# Bulk Modulus (GPa) = 43.25593 78.76743 61.01168
# Shear Modulus (GPa) = 25.53194 41.21791 33.37493
#
# Velocity S-wave (km/s) = 3.31361 4.21019 3.78852
# Velocity P-wave (km/s) = 5.76560 7.58342 6.73611
#
# Compressibility (1/GPa) = 0.02311822
#
# Stress axis : x y z
#
# Youngs Moduli (GPa) = 53.70587 85.15858 81.42919
#
# Poissons Ratio (x) = -0.10401 0.34342
# Poissons Ratio (y) = -0.06560 0.55100
# Poissons Ratio (z) = 0.22650 0.57623
#
# Static dielectric constant tensor:
#      x y z
#    x 2.102160 0.195550 -0.037430 
#    y 0.195550 2.781930 -0.077820 
#    z -0.037430 -0.077820 1.871020 
# 
# From -- ./inp_files/55603.got.cif
#   From: 2010.05.17/outbox.cif.g08.bks.cpg/sg2_28_cif.got.tgz:55603.got - 2010.06.03 11:33:40.
