data_PCOD9066398
_publ_section_title
;
Structure prediction by ZEFSAII (Michael W. Deem and Ramdas Pophale) SiO2 
 PCOD9066398
Probable space group: P -1
;
_chemical_formula_sum "Si O2"
_cell_formula_units_Z 16
_cell_length_a 7.639966
_cell_length_b 9.351176
_cell_length_c 14.211667
_cell_angle_alpha 122.814054
_cell_angle_beta 82.134165
_cell_angle_gamma 59.021019
_cell_volume 597.498395
_symmetry_space_group_name_H-M "P -1"
_symmetry_group_IT_number 2
_symmetry_cell_setting 'triclinic'
loop_
_space_group_symop_operation_xyz
x,y,z
-x,-y,-z
loop_
_atom_site_type_symbol
_atom_site_label
_atom_site_fract_x
_atom_site_fract_y
_atom_site_fract_z
Si Si1 0.947911 0.875069 0.173760
Si Si2 0.224152 0.499142 0.163215
Si Si3 0.744366 0.927868 0.023341
Si Si4 0.465056 0.106467 0.717672
Si Si5 0.255499 0.123215 0.199052
Si Si6 0.405450 0.674617 0.310171
Si Si7 0.880257 0.178607 0.440884
Si Si8 0.915792 0.649561 0.419539
O O1 0.927823 0.888659 0.068939
O O2 0.192385 0.631577 0.117871
O O3 0.753298 0.861177 0.216418
O O4 0.872051 0.101777 0.311402
O O5 0.430546 0.468884 0.194303
O O6 0.993200 0.662164 0.314285
O O7 0.229182 0.298216 0.061432
O O8 0.462085 0.127502 0.156870
O O9 0.766427 0.966729 0.927304
O O10 0.633480 0.035156 0.772433
O O11 0.637577 0.880226 0.553615
O O12 0.399933 0.323242 0.744628
O O13 0.001855 0.397995 0.330330
O O14 0.355962 0.711919 0.438172
O O15 0.136458 0.925729 0.377848
O O16 0.915821 0.353557 0.521452
#
# Coordination Sequence:
#
# PCOD9066398 Si02
#       8
#     2   2   2   2   2   2   2   2
#     4  10  18  28  46  75  99 116 144 190 241 274
#     4   9  17  31  51  70  91 122 154 186 227 275
#     4   9  18  32  48  66  90 124 164 192 214 261
#     4  10  18  28  46  75  99 116 144 190 241 274
#     4   9  18  32  48  66  90 124 164 192 214 261
#     4   8  15  28  46  68  93 121 150 182 227 279
#     4   8  15  28  46  68  93 121 150 182 227 279
#     4   9  17  31  51  70  91 122 154 186 227 275
#
# _framework density 26.778314999999999
#
# number of rings (size 3 to 8) (size 9 to 14) (size 15 to 20)
#    0.000    3.000    0.000    3.000    0.000    2.000 
#    0.000    5.000    0.000    6.750    0.000   21.000 
#    0.000    0.000    0.000    0.000    0.000    0.000 
#
# Total GULP energy -89394.542104 kJ/mol
# GULP energy per Si atom -5587.158881 kJ/mol
# Density = 2.671737 g / cm^3
# Si number density = 26.778315 Si / 1000 Ang^3
#
#
#
# Elastic Constant Matrix: (Units=GPa)
#
#
# Indices 1 2 3 4 5 6 
#
# 1 86.5102 1.9498 20.0017 4.2813 13.5141 17.8342
# 2 1.9498 44.5780 38.4733 -14.1181 7.4481 -1.6794
# 3 20.0017 38.4733 130.7968 -5.8602 32.1490 -7.9282
# 4 4.2813 -14.1181 -5.8602 40.3832 -2.9901 12.1630
# 5 13.5141 7.4481 32.1490 -2.9901 39.4245 -9.5581
# 6 17.8342 -1.6794 -7.9282 12.1630 -9.5581 23.2761
#
#
#
# Elastic Compliance Matrix: (Units=1/GPa)
#
#
# Indices 1 2 3 4 5 6 
#
# 1 0.017356 0.003514 -0.002462 0.004349 -0.009098 -0.019892
# 2 0.003514 0.035864 -0.010970 0.013966 -0.000750 -0.011448
# 3 -0.002462 -0.010970 0.013061 -0.003568 -0.006895 0.004577
# 4 0.004349 0.013966 -0.003568 0.035540 -0.004314 -0.023883
# 5 -0.009098 -0.000750 -0.006895 -0.004314 0.039508 0.023047
# 6 -0.019892 -0.011448 0.004577 -0.023883 0.023047 0.080881
#
#
# Mechanical properties :
#
#
# Convention : Reuss Voigt Hill
#
# Bulk Modulus (GPa) = 21.53123 42.52606 32.02865
# Shear Modulus (GPa) = 19.41519 34.04743 26.73131
#
# Velocity S-wave (km/s) = 2.69557 3.56962 3.16293
# Velocity P-wave (km/s) = 4.21261 5.73627 5.03244
#
# Compressibility (1/GPa) = 0.04644416
#
# Stress axis : x y z
#
# Youngs Moduli (GPa) = 57.61597 27.88302 76.56210
#
# Poissons Ratio (x) = -0.09798 0.18853
# Poissons Ratio (y) = -0.20247 0.83992
# Poissons Ratio (z) = 0.14188 0.30589
#
# Static dielectric constant tensor:
#      x y z
#    x 2.151190 -0.045960 -0.019240 
#    y -0.045960 2.237120 0.008900 
#    z -0.019240 0.008900 2.105400 
# 
# From -- ./inp_files/270292.got.cif
#   From: 2010.05.17/outbox.cif.g08.bks.cpg/sg2_136_cif.got.tgz:270292.got - 2010.06.03 11:33:40.
