data_PCOD9066277
_publ_section_title
;
Structure prediction by ZEFSAII (Michael W. Deem and Ramdas Pophale) SiO2 
 PCOD9066277
Probable space group: P -1
;
_chemical_formula_sum "Si O2"
_cell_formula_units_Z 14
_cell_length_a 8.158757
_cell_length_b 11.984848
_cell_length_c 8.642886
_cell_angle_alpha 42.753439
_cell_angle_beta 103.243088
_cell_angle_gamma 105.236960
_cell_volume 552.692417
_symmetry_space_group_name_H-M "P -1"
_symmetry_group_IT_number 2
_symmetry_cell_setting 'triclinic'
loop_
_space_group_symop_operation_xyz
x,y,z
-x,-y,-z
loop_
_atom_site_type_symbol
_atom_site_label
_atom_site_fract_x
_atom_site_fract_y
_atom_site_fract_z
Si Si1 0.795741 0.794109 0.177106
Si Si2 0.078345 0.831220 0.699564
Si Si3 0.549771 0.575943 0.137448
Si Si4 0.882791 0.310041 0.820598
Si Si5 0.817394 0.623909 0.653892
Si Si6 0.378392 0.904529 0.198499
Si Si7 0.396297 0.747977 0.667469
O O1 0.637439 0.663911 0.215521
O O2 0.803805 0.777523 0.380232
O O3 0.957580 0.738543 0.186237
O O4 0.764099 0.974995 0.931407
O O5 0.235009 0.816982 0.633825
O O6 0.929358 0.686074 0.761577
O O7 0.139019 0.798845 0.917654
O O8 0.000000 0.000000 0.500000
O O9 0.364110 0.476049 0.236297
O O10 0.649910 0.438738 0.221157
O O11 0.526469 0.718586 0.861603
O O12 0.903777 0.497217 0.694599
O O13 0.717491 0.263934 0.725380
O O14 0.461818 0.863457 0.419606
O O15 0.500000 0.000000 0.000000
#
# Coordination Sequence:
#
# PCOD9066277 Si02
#       7
#     2   2   2   2   2   2   2
#     4  12  25  44  72 103 143 186 233 290 356 413
#     4  12  26  46  72 105 144 184 234 291 353 417
#     4  11  25  45  73 106 139 185 241 287 345 422
#     4  12  25  45  70 103 141 184 242 285 350 421
#     4  12  24  46  73 103 140 187 238 289 345 417
#     4  12  26  47  70 104 141 184 234 296 356 416
#     4  11  25  47  71  99 145 181 237 284 357 413
#
# _framework density 25.330545999999998
#
# number of rings (size 3 to 8) (size 9 to 14) (size 15 to 20)
#    0.000    0.286    1.429    7.714    4.000    0.571 
#    0.000    0.000    0.000    0.000    0.000    0.000 
#    0.000    0.000    0.000    0.000    0.000    0.000 
#
# Total GULP energy -78557.808856 kJ/mol
# GULP energy per Si atom -5611.272061 kJ/mol
# Density = 2.527289 g / cm^3
# Si number density = 25.330546 Si / 1000 Ang^3
#
#
#
# Elastic Constant Matrix: (Units=GPa)
#
#
# Indices 1 2 3 4 5 6 
#
# 1 107.4400 35.6681 24.5255 3.6088 -9.7018 -27.0127
# 2 35.6681 81.8621 6.9575 -9.4838 1.5220 -5.7684
# 3 24.5255 6.9575 143.8989 15.9199 5.4083 -28.2277
# 4 3.6088 -9.4838 15.9199 48.8242 -12.9748 3.2491
# 5 -9.7018 1.5220 5.4083 -12.9748 32.9791 -6.2391
# 6 -27.0127 -5.7684 -28.2277 3.2491 -6.2391 40.8396
#
#
#
# Elastic Compliance Matrix: (Units=1/GPa)
#
#
# Indices 1 2 3 4 5 6 
#
# 1 0.014202 -0.005734 -0.000424 -0.001091 0.005836 0.009269
# 2 -0.005734 0.014991 -0.000556 0.003295 -0.001473 -0.002547
# 3 -0.000424 -0.000556 0.008642 -0.003785 -0.001942 0.005619
# 4 -0.001091 0.003295 -0.003785 0.025162 0.009397 -0.003439
# 5 0.005836 -0.001473 -0.001942 0.009397 0.037502 0.007292
# 6 0.009269 -0.002547 0.005619 -0.003439 0.007292 0.035529
#
#
# Mechanical properties :
#
#
# Convention : Reuss Voigt Hill
#
# Bulk Modulus (GPa) = 40.97040 51.94479 46.45760
# Shear Modulus (GPa) = 31.72764 42.26524 36.99644
#
# Velocity S-wave (km/s) = 3.54297 4.08922 3.82586
# Velocity P-wave (km/s) = 5.73988 6.54575 6.15602
#
# Compressibility (1/GPa) = 0.02440786
#
# Stress axis : x y z
#
# Youngs Moduli (GPa) = 70.41337 66.70742 115.70858
#
# Poissons Ratio (x) = 0.38248 0.04901
# Poissons Ratio (y) = 0.40372 0.06438
# Poissons Ratio (z) = 0.02983 0.03711
#
# Static dielectric constant tensor:
#      x y z
#    x 1.991020 -0.021270 0.019280 
#    y -0.021270 1.949330 -0.027280 
#    z 0.019280 -0.027280 2.006470 
# 
# From -- ./inp_files/183834.got.cif
#   From: 2010.05.17/outbox.cif.g08.bks.cpg/sg2_92_cif.got.tgz:183834.got - 2010.06.03 11:33:40.
