data_PCOD9066452
_publ_section_title
;
Structure prediction by ZEFSAII (Michael W. Deem and Ramdas Pophale) SiO2 
 PCOD9066452
Probable space group: P -1
;
_chemical_formula_sum "Si O2"
_cell_formula_units_Z 16
_cell_length_a 18.420956
_cell_length_b 10.284029
_cell_length_c 6.563239
_cell_angle_alpha 58.687884
_cell_angle_beta 134.586383
_cell_angle_gamma 130.601734
_cell_volume 667.764607
_symmetry_space_group_name_H-M "P -1"
_symmetry_group_IT_number 2
_symmetry_cell_setting 'triclinic'
loop_
_space_group_symop_operation_xyz
x,y,z
-x,-y,-z
loop_
_atom_site_type_symbol
_atom_site_label
_atom_site_fract_x
_atom_site_fract_y
_atom_site_fract_z
Si Si1 0.245502 0.939048 0.271638
Si Si2 0.873312 0.343736 0.420840
Si Si3 0.372797 0.444196 0.708983
Si Si4 0.577362 0.762154 0.323544
Si Si5 0.042472 0.923744 0.333467
Si Si6 0.402122 0.987801 0.170921
Si Si7 0.655282 0.351021 0.836452
Si Si8 0.157903 0.174324 0.725156
O O1 0.179550 0.747893 0.390886
O O2 0.294690 0.934658 0.150032
O O3 0.348029 0.084039 0.496762
O O4 0.167092 0.030008 0.998656
O O5 0.000000 0.500000 0.500000
O O6 0.882063 0.174238 0.486407
O O7 0.785997 0.415344 0.112395
O O8 0.354936 0.336724 0.548700
O O9 0.353130 0.597877 0.454978
O O10 0.280833 0.334143 0.788326
O O11 0.500000 0.500000 0.000000
O O12 0.448984 0.641713 0.252655
O O13 0.563877 0.839709 0.021321
O O14 0.933117 0.789209 0.361331
O O15 0.109764 0.083829 0.487777
O O16 0.000000 0.000000 0.000000
O O17 0.383990 0.851603 0.073404
O O18 0.500000 0.000000 0.500000
#
# Coordination Sequence:
#
# PCOD9066452 Si02
#       8
#     2   2   2   2   2   2   2   2
#     4  12  23  45  76 106 139 191 243 299 357 438
#     4  12  28  45  70 108 146 189 238 300 371 416
#     4  12  27  47  71 112 152 190 237 297 371 440
#     4  12  24  46  75 103 145 193 244 286 361 445
#     4  11  25  49  78 101 136 194 256 299 347 426
#     4  12  22  41  72 103 142 181 241 290 355 438
#     4  12  26  45  69 109 152 188 232 305 369 422
#     4  11  25  45  80 104 134 191 254 296 349 424
#
# _framework density 23.960540000000002
#
# number of rings (size 3 to 8) (size 9 to 14) (size 15 to 20)
#    0.000    0.250    5.000    4.500    1.750    2.000 
#    0.000    1.875    0.000    0.000    0.000    0.000 
#    0.000    0.000    0.000    0.000    0.000    0.000 
#
# Total GULP energy -89309.724493 kJ/mol
# GULP energy per Si atom -5581.857781 kJ/mol
# Density = 2.390600 g / cm^3
# Si number density = 23.960540 Si / 1000 Ang^3
#
#
#
# Elastic Constant Matrix: (Units=GPa)
#
#
# Indices 1 2 3 4 5 6 
#
# 1 103.1572 0.0988 5.2352 1.4166 5.1433 27.4381
# 2 0.0988 72.3810 28.9267 -4.0845 -6.4511 30.1500
# 3 5.2352 28.9267 132.7647 -4.7190 -2.5239 26.4921
# 4 1.4166 -4.0845 -4.7190 39.2471 6.9639 -2.6193
# 5 5.1433 -6.4511 -2.5239 6.9639 30.7251 0.7461
# 6 27.4381 30.1500 26.4921 -2.6193 0.7461 56.2083
#
#
#
# Elastic Compliance Matrix: (Units=1/GPa)
#
#
# Indices 1 2 3 4 5 6 
#
# 1 0.011696 0.002796 0.000369 -0.000389 -0.001073 -0.007387
# 2 0.002796 0.019532 -0.002115 0.000303 0.003655 -0.010879
# 3 0.000369 -0.002115 0.008616 0.000571 0.000147 -0.003083
# 4 -0.000389 0.000303 0.000571 0.026714 -0.005905 0.001082
# 5 -0.001073 0.003655 0.000147 -0.005905 0.034899 -0.002245
# 6 -0.007387 -0.010879 -0.003083 0.001082 -0.002245 0.028766
#
#
# Mechanical properties :
#
#
# Convention : Reuss Voigt Hill
#
# Bulk Modulus (GPa) = 23.84028 41.86935 32.85481
# Shear Modulus (GPa) = 35.18569 43.50557 39.34563
#
# Velocity S-wave (km/s) = 3.83624 4.26575 4.05668
# Velocity P-wave (km/s) = 5.44001 6.46331 5.97361
#
# Compressibility (1/GPa) = 0.04194582
#
# Stress axis : x y z
#
# Youngs Moduli (GPa) = 85.49742 51.19900 116.05674
#
# Poissons Ratio (x) = -0.14315 -0.04288
# Poissons Ratio (y) = -0.23905 0.24542
# Poissons Ratio (z) = -0.03159 0.10827
#
# Static dielectric constant tensor:
#      x y z
#    x 2.088020 0.082410 0.078080 
#    y 0.082410 2.117520 0.216630 
#    z 0.078080 0.216630 2.097730 
# 
# From -- ./inp_files/109605.got.cif
#   From: 2010.05.17/outbox.cif.g08.bks.cpg/sg2_55_cif.got.tgz:109605.got - 2010.06.03 11:33:40.
