data_PCOD9066015
_publ_section_title
;
Structure prediction by ZEFSAII (Michael W. Deem and Ramdas Pophale) SiO2 
 PCOD9066015
Probable space group: P -1
;
_chemical_formula_sum "Si O2"
_cell_formula_units_Z 13
_cell_length_a 18.217817
_cell_length_b 9.287163
_cell_length_c 15.374977
_cell_angle_alpha 137.833224
_cell_angle_beta 19.974653
_cell_angle_gamma 138.361568
_cell_volume 581.734849
_symmetry_space_group_name_H-M "P -1"
_symmetry_group_IT_number 2
_symmetry_cell_setting 'triclinic'
loop_
_space_group_symop_operation_xyz
x,y,z
-x,-y,-z
loop_
_atom_site_type_symbol
_atom_site_label
_atom_site_fract_x
_atom_site_fract_y
_atom_site_fract_z
Si Si1 0.883078 0.516302 0.377957
Si Si2 0.451444 0.148130 0.703906
Si Si3 0.857509 0.542916 0.763144
Si Si4 0.488238 0.112964 0.970386
Si Si5 0.854395 0.552008 0.106173
Si Si6 0.553714 0.861590 0.622308
Si Si7 0.000000 0.000000 0.500000
O O1 0.639534 0.370613 0.585443
O O2 0.914546 0.773309 0.436647
O O3 0.003813 0.513242 0.334413
O O4 0.010752 0.414342 0.117100
O O5 0.500000 0.000000 0.500000
O O6 0.497908 0.014261 0.676628
O O7 0.226406 0.234728 0.016086
O O8 0.633155 0.356826 0.921286
O O9 0.000000 0.500000 0.500000
O O10 0.595657 0.991200 0.722920
O O11 0.500000 0.000000 0.000000
O O12 0.230083 0.073109 0.219374
O O13 0.761285 0.764894 0.323568
O O14 0.649241 0.345873 0.231964
O O15 0.000000 0.500000 0.000000
#
# Coordination Sequence:
#
# PCOD9066015 Si02
#       7
#     2   2   2   2   2   2   1
#     4  12  26  46  72 104 143 184 243 288 357 426
#     4  12  28  48  72 101 150 193 234 293 358 424
#     4  12  28  45  72 108 143 189 237 294 362 422
#     4  12  25  44  73 101 142 181 239 294 355 416
#     4  11  25  44  71  99 136 184 235 291 348 416
#     4  11  26  44  67 104 137 180 239 286 349 426
#     4  12  24  44  76 102 138 188 238 294 356 412
#
# _framework density 22.346952000000002
#
# number of rings (size 3 to 8) (size 9 to 14) (size 15 to 20)
#    0.000    0.308    4.615    2.769    4.308    9.846 
#    0.000    0.000    0.000    0.000    0.000    0.000 
#    0.000    0.000    0.000    0.000    0.000    0.000 
#
# Total GULP energy -72384.535820 kJ/mol
# GULP energy per Si atom -5568.041217 kJ/mol
# Density = 2.229609 g / cm^3
# Si number density = 22.346952 Si / 1000 Ang^3
#
#
#
# Elastic Constant Matrix: (Units=GPa)
#
#
# Indices 1 2 3 4 5 6 
#
# 1 99.1204 19.9562 29.2073 13.0623 35.7488 -2.7811
# 2 19.9562 97.5545 55.4364 -0.1967 1.1965 23.0148
# 3 29.2073 55.4364 155.0136 15.0736 37.4436 -1.5855
# 4 13.0623 -0.1967 15.0736 48.6536 7.7459 5.1133
# 5 35.7488 1.1965 37.4436 7.7459 44.5971 0.5501
# 6 -2.7811 23.0148 -1.5855 5.1133 0.5501 31.2211
#
#
#
# Elastic Compliance Matrix: (Units=1/GPa)
#
#
# Indices 1 2 3 4 5 6 
#
# 1 0.016964 -0.007303 0.003742 -0.004049 -0.015940 0.008029
# 2 -0.007303 0.021738 -0.010275 0.005041 0.013247 -0.018256
# 3 0.003742 -0.010275 0.013077 -0.004002 -0.013124 0.009458
# 4 -0.004049 0.005041 -0.004002 0.023357 0.002514 -0.008150
# 5 -0.015940 0.013247 -0.013124 0.002514 0.045588 -0.013067
# 6 0.008029 -0.018256 0.009458 -0.008150 -0.013067 0.048247
#
#
# Mechanical properties :
#
#
# Convention : Reuss Voigt Hill
#
# Bulk Modulus (GPa) = 41.48357 62.32093 51.90225
# Shear Modulus (GPa) = 24.42836 41.36692 32.89764
#
# Velocity S-wave (km/s) = 3.30985 4.30713 3.84100
# Velocity P-wave (km/s) = 5.76286 7.25835 6.55340
#
# Compressibility (1/GPa) = 0.02410593
#
# Stress axis : x y z
#
# Youngs Moduli (GPa) = 58.94705 46.00251 76.47236
#
# Poissons Ratio (x) = 0.33597 -0.28613
# Poissons Ratio (y) = 0.43051 0.78574
# Poissons Ratio (z) = -0.22056 0.47266
#
# Static dielectric constant tensor:
#      x y z
#    x 1.805650 0.064600 0.063510 
#    y 0.064600 1.906360 0.291790 
#    z 0.063510 0.291790 2.150240 
# 
# From -- ./inp_files/36730.got.cif
#   From: 2010.05.17/outbox.cif.g08.bks.cpg/sg2_19_cif.got.tgz:36730.got - 2010.06.03 11:33:40.
