data_PCOD9066897
_publ_section_title
;
Structure prediction by ZEFSAII (Michael W. Deem and Ramdas Pophale) SiO2 
 PCOD9066897
Probable space group: P -1
;
_chemical_formula_sum "Si O2"
_cell_formula_units_Z 16
_cell_length_a 11.195376
_cell_length_b 19.534822
_cell_length_c 6.818120
_cell_angle_alpha 48.487914
_cell_angle_beta 81.813464
_cell_angle_gamma 49.153582
_cell_volume 724.599072
_symmetry_space_group_name_H-M "P -1"
_symmetry_group_IT_number 2
_symmetry_cell_setting 'triclinic'
loop_
_space_group_symop_operation_xyz
x,y,z
-x,-y,-z
loop_
_atom_site_type_symbol
_atom_site_label
_atom_site_fract_x
_atom_site_fract_y
_atom_site_fract_z
Si Si1 0.913842 0.602832 0.643288
Si Si2 0.115505 0.639502 0.280166
Si Si3 0.850334 0.864891 0.586995
Si Si4 0.416281 0.100454 0.645580
Si Si5 0.044419 0.826410 0.256312
Si Si6 0.280900 0.846092 0.370340
Si Si7 0.377020 0.859493 0.707465
Si Si8 0.366667 0.357116 0.598707
O O1 0.755715 0.751023 0.501769
O O2 0.811608 0.596203 0.523223
O O3 0.053390 0.590669 0.524930
O O4 0.000000 0.500000 0.000000
O O5 0.129626 0.721100 0.257259
O O6 0.295165 0.500312 0.388974
O O7 0.952017 0.754971 0.946402
O O8 0.663492 0.922888 0.452942
O O9 0.981912 0.793476 0.504255
O O10 0.795619 0.999723 0.402398
O O11 0.549511 0.098310 0.521667
O O12 0.500000 0.000000 0.000000
O O13 0.182524 0.819055 0.335499
O O14 0.859526 0.987824 0.932995
O O15 0.316922 0.816285 0.650576
O O16 0.476971 0.744225 0.411077
O O17 0.535981 0.738142 0.048690
#
# Coordination Sequence:
#
# PCOD9066897 Si02
#       8
#     2   2   2   2   2   2   2   2
#     4  12  24  44  70  95 144 188 214 271 352 416
#     4  12  26  44  70 103 139 180 227 280 342 410
#     4  12  23  42  69 101 136 179 225 284 346 403
#     4  12  22  38  68  99 135 175 225 284 339 403
#     4  11  25  47  72 101 137 181 233 287 337 399
#     4  11  25  47  72 101 137 181 233 287 337 399
#     4  12  23  42  69 101 136 179 225 284 346 403
#     4  12  26  44  70 103 139 180 227 280 342 410
#
# _framework density 22.081177
#
# number of rings (size 3 to 8) (size 9 to 14) (size 15 to 20)
#    0.000    0.250    5.000    5.250    0.000    2.000 
#    0.000    1.250    0.000    0.000    0.000    0.000 
#    0.000    0.000    0.000    0.000    0.000    0.000 
#
# Total GULP energy -89554.169908 kJ/mol
# GULP energy per Si atom -5597.135619 kJ/mol
# Density = 2.203092 g / cm^3
# Si number density = 22.081177 Si / 1000 Ang^3
#
#
#
# Elastic Constant Matrix: (Units=GPa)
#
#
# Indices 1 2 3 4 5 6 
#
# 1 55.0964 15.6635 16.8139 1.9525 18.6337 25.4726
# 2 15.6635 130.5721 28.9612 -13.5663 16.9143 34.1805
# 3 16.8139 28.9612 169.2235 -4.2321 28.3933 24.5677
# 4 1.9525 -13.5663 -4.2321 36.5316 6.7936 5.9549
# 5 18.6337 16.9143 28.3933 6.7936 24.2965 7.4380
# 6 25.4726 34.1805 24.5677 5.9549 7.4380 35.7589
#
#
#
# Elastic Compliance Matrix: (Units=1/GPa)
#
#
# Indices 1 2 3 4 5 6 
#
# 1 0.047590 0.011981 0.007748 0.018485 -0.045503 -0.044289
# 2 0.011981 0.015757 0.003344 0.013295 -0.020483 -0.023847
# 3 0.007748 0.003344 0.009559 0.007293 -0.017547 -0.012848
# 4 0.018485 0.013295 0.007293 0.043662 -0.034690 -0.030941
# 5 -0.045503 -0.020483 -0.017547 -0.034690 0.105887 0.047800
# 6 -0.044289 -0.023847 -0.012848 -0.030941 0.047800 0.086346
#
#
# Mechanical properties :
#
#
# Convention : Reuss Voigt Hill
#
# Bulk Modulus (GPa) = 8.39964 53.08547 30.74256
# Shear Modulus (GPa) = 16.53780 38.88096 27.70938
#
# Velocity S-wave (km/s) = 2.73967 4.20076 3.54628
# Velocity P-wave (km/s) = 3.71752 6.90085 5.54264
#
# Compressibility (1/GPa) = 0.11905274
#
# Stress axis : x y z
#
# Youngs Moduli (GPa) = 21.01302 63.46429 104.61460
#
# Poissons Ratio (x) = -0.76039 -0.81055
# Poissons Ratio (y) = -0.25177 -0.34986
# Poissons Ratio (z) = -0.16281 -0.21224
#
# Static dielectric constant tensor:
#      x y z
#    x 1.867380 0.022080 0.002510 
#    y 0.022080 1.837780 0.010790 
#    z 0.002510 0.010790 1.761110 
# 
# From -- ./inp_files/81218.got.cif
#   From: 2010.05.17/outbox.cif.g08.bks.cpg/sg2_41_cif.got.tgz:81218.got - 2010.06.03 11:33:40.
