data_PCOD9066054
_publ_section_title
;
Structure prediction by ZEFSAII (Michael W. Deem and Ramdas Pophale) SiO2 
 PCOD9066054
Probable space group: P -1
;
_chemical_formula_sum "Si O2"
_cell_formula_units_Z 16
_cell_length_a 13.700565
_cell_length_b 16.415863
_cell_length_c 22.309064
_cell_angle_alpha 159.072632
_cell_angle_beta 147.235919
_cell_angle_gamma 24.547579
_cell_volume 743.266177
_symmetry_space_group_name_H-M "P -1"
_symmetry_group_IT_number 2
_symmetry_cell_setting 'triclinic'
loop_
_space_group_symop_operation_xyz
x,y,z
-x,-y,-z
loop_
_atom_site_type_symbol
_atom_site_label
_atom_site_fract_x
_atom_site_fract_y
_atom_site_fract_z
Si Si1 0.652616 0.106668 0.657463
Si Si2 0.975225 0.193292 0.461511
Si Si3 0.617093 0.880169 0.720974
Si Si4 0.204674 0.158511 0.889758
Si Si5 0.737188 0.209382 0.090827
Si Si6 0.735178 0.855521 0.947027
Si Si7 0.097134 0.155657 0.628794
Si Si8 0.859115 0.803267 0.675065
O O1 0.494402 0.447499 0.790318
O O2 0.500000 0.000000 0.500000
O O3 0.731543 0.058761 0.734374
O O4 0.872010 0.914010 0.593568
O O5 0.778892 0.547365 0.601260
O O6 0.130848 0.096337 0.534362
O O7 0.858924 0.040582 0.301701
O O8 0.674890 0.850055 0.659220
O O9 0.345940 0.039263 0.702576
O O10 0.693220 0.053946 0.911205
O O11 0.462169 0.023099 0.907921
O O12 0.226986 0.129565 0.953237
O O13 0.000000 0.500000 0.000000
O O14 0.954369 0.206677 0.195794
O O15 0.789858 0.030518 0.055985
O O16 0.901089 0.508703 0.778994
O O17 0.000000 0.000000 0.500000
O O18 0.000000 0.500000 0.500000
#
# Coordination Sequence:
#
# PCOD9066054 Si02
#       8
#     2   2   2   2   2   2   2   2
#     4  12  25  44  75 106 141 188 236 298 365 430
#     4  12  25  44  73 102 143 185 244 291 361 432
#     4  12  28  47  72 107 145 192 239 299 368 429
#     4  11  25  44  73 103 143 190 246 297 359 428
#     4  12  27  45  73 103 149 186 238 298 366 429
#     4  11  26  45  68 107 143 188 242 297 362 428
#     4  12  28  46  72 104 147 191 244 296 362 433
#     4  12  25  48  76 106 144 187 245 298 362 434
#
# _framework density 21.526609000000001
#
# number of rings (size 3 to 8) (size 9 to 14) (size 15 to 20)
#    0.000    0.250    3.750    4.125    7.000    3.500 
#    0.000    0.000    0.000    0.000    0.000    0.000 
#    0.000    0.000    0.000    0.000    0.000    0.000 
#
# Total GULP energy -89582.083110 kJ/mol
# GULP energy per Si atom -5598.880194 kJ/mol
# Density = 2.147761 g / cm^3
# Si number density = 21.526609 Si / 1000 Ang^3
#
#
#
# Elastic Constant Matrix: (Units=GPa)
#
#
# Indices 1 2 3 4 5 6 
#
# 1 74.2334 25.7035 10.8058 6.6685 3.0697 0.0280
# 2 25.7035 135.9477 53.2977 7.1459 5.1236 -9.1702
# 3 10.8058 53.2977 131.4606 10.0276 13.1573 -8.0786
# 4 6.6685 7.1459 10.0276 49.1125 10.0924 3.0046
# 5 3.0697 5.1236 13.1573 10.0924 26.1950 -1.6737
# 6 0.0280 -9.1702 -8.0786 3.0046 -1.6737 39.8072
#
#
#
# Elastic Compliance Matrix: (Units=1/GPa)
#
#
# Indices 1 2 3 4 5 6 
#
# 1 0.014558 -0.002706 0.000044 -0.001417 -0.000688 -0.000547
# 2 -0.002706 0.009342 -0.003488 -0.000479 0.000523 0.001504
# 3 0.000044 -0.003488 0.009512 -0.000732 -0.003753 0.001024
# 4 -0.001417 -0.000479 -0.000732 0.022605 -0.008230 -0.002310
# 5 -0.000688 0.000523 -0.003753 -0.008230 0.043325 0.001802
# 6 -0.000547 0.001504 0.001024 -0.002310 0.001802 0.025926
#
#
# Mechanical properties :
#
#
# Convention : Reuss Voigt Hill
#
# Bulk Modulus (GPa) = 47.37042 57.91729 52.64385
# Shear Modulus (GPa) = 34.57688 39.81193 37.19440
#
# Velocity S-wave (km/s) = 4.01214 4.30516 4.16123
# Velocity P-wave (km/s) = 6.59669 7.18860 6.89900
#
# Compressibility (1/GPa) = 0.02111022
#
# Stress axis : x y z
#
# Youngs Moduli (GPa) = 68.69284 107.04419 105.13116
#
# Poissons Ratio (x) = 0.28966 -0.00461
# Poissons Ratio (y) = 0.18588 0.36674
# Poissons Ratio (z) = -0.00301 0.37341
#
# Static dielectric constant tensor:
#      x y z
#    x 1.787720 0.002000 -0.010570 
#    y 0.002000 1.684950 -0.058600 
#    z -0.010570 -0.058600 1.755640 
# 
# From -- ./inp_files/612210.got.cif
#   From: 2010.05.17/outbox.cif.g08.bks.cpg/sg2_307_cif.got.tgz:612210.got - 2010.06.03 11:33:40.
