data_PCOD9066213
_publ_section_title
;
Structure prediction by ZEFSAII (Michael W. Deem and Ramdas Pophale) SiO2 
 PCOD9066213
Probable space group: P -1
;
_chemical_formula_sum "Si O2"
_cell_formula_units_Z 14
_cell_length_a 11.714719
_cell_length_b 11.919382
_cell_length_c 9.621514
_cell_angle_alpha 97.671442
_cell_angle_beta 132.716529
_cell_angle_gamma 119.324369
_cell_volume 590.871538
_symmetry_space_group_name_H-M "P -1"
_symmetry_group_IT_number 2
_symmetry_cell_setting 'triclinic'
loop_
_space_group_symop_operation_xyz
x,y,z
-x,-y,-z
loop_
_atom_site_type_symbol
_atom_site_label
_atom_site_fract_x
_atom_site_fract_y
_atom_site_fract_z
Si Si1 0.521736 0.912482 0.613462
Si Si2 0.630649 0.411386 0.555607
Si Si3 0.073711 0.203079 0.053661
Si Si4 0.770258 0.702700 0.308323
Si Si5 0.050620 0.420059 0.429470
Si Si6 0.880244 0.987148 0.571328
Si Si7 0.501046 0.051456 0.856952
O O1 0.375037 0.717091 0.409364
O O2 0.500000 0.000000 0.500000
O O3 0.403067 0.895274 0.651076
O O4 0.819814 0.052631 0.915785
O O5 0.338660 0.288711 0.309314
O O6 0.822306 0.608232 0.823420
O O7 0.717016 0.448613 0.470194
O O8 0.948232 0.082108 0.789491
O O9 0.920553 0.676082 0.468474
O O10 0.794831 0.806573 0.472603
O O11 0.500000 0.500000 0.000000
O O12 0.873995 0.841130 0.291983
O O13 0.000000 0.500000 0.500000
O O14 0.793242 0.254918 0.099791
O O15 0.662192 0.932331 0.304084
O O16 0.500000 0.000000 0.000000
#
# Coordination Sequence:
#
# PCOD9066213 Si02
#       7
#     2   2   2   2   2   2   2
#     4  12  26  48  74 107 145 197 247 308 373 442
#     4  11  27  47  74 107 149 192 251 306 373 453
#     4  11  25  48  74 108 145 196 245 309 377 443
#     4  11  25  45  71 107 146 193 244 301 374 443
#     4  12  25  45  74 107 146 195 246 304 373 442
#     4  11  25  45  73 105 150 191 248 309 365 446
#     4  12  24  46  71 105 149 194 245 303 373 438
#
# _framework density 23.693812000000001
#
# number of rings (size 3 to 8) (size 9 to 14) (size 15 to 20)
#    0.000    0.571    4.286    3.000    2.000    5.143 
#    2.571    0.000    0.000    0.000    0.000    0.000 
#    0.000    0.000    0.000    0.000    0.000    0.000 
#
# Total GULP energy -78237.457416 kJ/mol
# GULP energy per Si atom -5588.389815 kJ/mol
# Density = 2.363988 g / cm^3
# Si number density = 23.693812 Si / 1000 Ang^3
#
#
#
# Elastic Constant Matrix: (Units=GPa)
#
#
# Indices 1 2 3 4 5 6 
#
# 1 127.5081 51.2433 34.2707 8.2988 -20.0562 -30.7460
# 2 51.2433 119.7483 36.2841 23.3119 -22.7629 -43.8827
# 3 34.2707 36.2841 95.6526 15.8888 -6.7679 -29.0029
# 4 8.2988 23.3119 15.8888 37.4282 1.0316 -12.9672
# 5 -20.0562 -22.7629 -6.7679 1.0316 50.0593 12.5491
# 6 -30.7460 -43.8827 -29.0029 -12.9672 12.5491 52.6611
#
#
#
# Elastic Compliance Matrix: (Units=1/GPa)
#
#
# Indices 1 2 3 4 5 6 
#
# 1 0.010302 -0.002755 -0.001941 0.001045 0.001980 0.002436
# 2 -0.002755 0.014333 -0.001000 -0.005340 0.003473 0.007642
# 3 -0.001941 -0.001000 0.013451 -0.002962 -0.000568 0.004847
# 4 0.001045 -0.005340 -0.002962 0.032369 -0.003939 0.003438
# 5 0.001980 0.003473 -0.000568 -0.003939 0.023036 -0.002722
# 6 0.002436 0.007642 0.004847 0.003438 -0.002722 0.030944
#
#
# Mechanical properties :
#
#
# Convention : Reuss Voigt Hill
#
# Bulk Modulus (GPa) = 37.46133 65.16723 51.31428
# Shear Modulus (GPa) = 34.54822 42.77045 38.65933
#
# Velocity S-wave (km/s) = 3.82267 4.25329 4.04372
# Velocity P-wave (km/s) = 5.94379 7.18918 6.59594
#
# Compressibility (1/GPa) = 0.02669419
#
# Stress axis : x y z
#
# Youngs Moduli (GPa) = 97.06596 69.76961 74.34458
#
# Poissons Ratio (x) = 0.19220 0.14431
# Poissons Ratio (y) = 0.26740 0.07435
# Poissons Ratio (z) = 0.18841 0.06977
#
# Static dielectric constant tensor:
#      x y z
#    x 2.045830 0.034590 0.017860 
#    y 0.034590 1.903490 0.065560 
#    z 0.017860 0.065560 1.826890 
# 
# From -- ./inp_files/259225.got.cif
#   From: 2010.05.17/outbox.cif.g08.bks.cpg/sg2_130_cif.got.tgz:259225.got - 2010.06.03 11:33:40.
