data_PCOD9066142
_publ_section_title
;
Structure prediction by ZEFSAII (Michael W. Deem and Ramdas Pophale) SiO2 
 PCOD9066142
Probable space group: P -1
;
_chemical_formula_sum "Si O2"
_cell_formula_units_Z 16
_cell_length_a 15.186600
_cell_length_b 9.376022
_cell_length_c 8.190530
_cell_angle_alpha 90.715599
_cell_angle_beta 97.563120
_cell_angle_gamma 39.350022
_cell_volume 725.599998
_symmetry_space_group_name_H-M "P -1"
_symmetry_group_IT_number 2
_symmetry_cell_setting 'triclinic'
loop_
_space_group_symop_operation_xyz
x,y,z
-x,-y,-z
loop_
_atom_site_type_symbol
_atom_site_label
_atom_site_fract_x
_atom_site_fract_y
_atom_site_fract_z
Si Si1 0.648749 0.229111 0.844433
Si Si2 0.633887 0.257825 0.231254
Si Si3 0.362488 0.083493 0.273122
Si Si4 0.070485 0.575429 0.678165
Si Si5 0.946493 0.483449 0.829159
Si Si6 0.950786 0.976814 0.828439
Si Si7 0.629855 0.935575 0.331916
Si Si8 0.052324 0.102833 0.653070
O O1 0.505300 0.481516 0.746952
O O2 0.790826 0.120995 0.805035
O O3 0.645490 0.064854 0.804756
O O4 0.649433 0.253423 0.039572
O O5 0.618424 0.110760 0.268078
O O6 0.781654 0.127000 0.341602
O O7 0.218145 0.345125 0.196292
O O8 0.368653 0.062763 0.470646
O O9 0.498026 0.002850 0.248686
O O10 0.225527 0.316751 0.697779
O O11 0.965828 0.575357 0.690425
O O12 0.023257 0.719123 0.508337
O O13 0.050573 0.715889 0.818152
O O14 0.038558 0.231616 0.802851
O O15 0.000000 0.500000 0.000000
O O16 0.974279 0.057253 0.686674
O O17 0.000000 0.000000 0.000000
#
# Coordination Sequence:
#
# PCOD9066142 Si02
#       8
#     2   2   2   2   2   2   2   2
#     4  11  26  47  67  98 142 180 227 275 346 410
#     4  11  25  45  68 101 137 183 222 284 337 405
#     4  11  25  46  68 102 139 178 228 281 341 407
#     4  12  25  45  70 102 134 181 230 286 339 403
#     4  12  23  43  71 102 137 181 227 286 340 401
#     4  12  26  46  69 101 136 180 228 280 343 407
#     4  11  26  46  71 101 139 177 231 283 339 405
#     4  12  24  44  70 101 139 176 230 282 341 405
#
# _framework density 22.050718
#
# number of rings (size 3 to 8) (size 9 to 14) (size 15 to 20)
#    0.000    0.500    5.000    3.000    3.500    1.000 
#    0.000    0.000    0.000    0.000    0.000    0.000 
#    0.000    0.000    0.000    0.000    0.000    0.000 
#
# Total GULP energy -89630.333738 kJ/mol
# GULP energy per Si atom -5601.895859 kJ/mol
# Density = 2.200053 g / cm^3
# Si number density = 22.050718 Si / 1000 Ang^3
#
#
#
# Elastic Constant Matrix: (Units=GPa)
#
#
# Indices 1 2 3 4 5 6 
#
# 1 130.7054 11.9573 7.9238 -12.2990 -5.9403 -19.0991
# 2 11.9573 95.2945 -3.5708 -8.8944 -4.6306 -18.8615
# 3 7.9238 -3.5708 33.1107 -4.9638 -4.5506 -4.5008
# 4 -12.2990 -8.8944 -4.9638 38.9544 5.9064 8.7938
# 5 -5.9403 -4.6306 -4.5506 5.9064 31.5803 -6.0179
# 6 -19.0991 -18.8615 -4.5008 8.7938 -6.0179 41.9010
#
#
#
# Elastic Compliance Matrix: (Units=1/GPa)
#
#
# Indices 1 2 3 4 5 6 
#
# 1 0.008480 -0.000163 -0.001088 0.001398 0.001848 0.003647
# 2 -0.000163 0.012028 0.002727 0.001281 0.002990 0.005794
# 3 -0.001088 0.002727 0.032468 0.002627 0.005224 0.004418
# 4 0.001398 0.001281 0.002627 0.028792 -0.005574 -0.005347
# 5 0.001848 0.002990 0.005224 -0.005574 0.035978 0.009087
# 6 0.003647 0.005794 0.004418 -0.005347 0.009087 0.031038
#
#
# Mechanical properties :
#
#
# Convention : Reuss Voigt Hill
#
# Bulk Modulus (GPa) = 17.87962 32.41458 25.14710
# Shear Modulus (GPa) = 30.39970 38.67382 34.53676
#
# Velocity S-wave (km/s) = 3.71701 4.19245 3.96187
# Velocity P-wave (km/s) = 5.15244 6.17798 5.68837
#
# Compressibility (1/GPa) = 0.05592961
#
# Stress axis : x y z
#
# Youngs Moduli (GPa) = 117.92295 83.13951 30.79909
#
# Poissons Ratio (x) = 0.01352 0.03350
# Poissons Ratio (y) = 0.01917 -0.08398
# Poissons Ratio (z) = 0.12825 -0.22669
#
# Static dielectric constant tensor:
#      x y z
#    x 1.779500 -0.005620 -0.014650 
#    y -0.005620 1.777260 0.035830 
#    z -0.014650 0.035830 1.878570 
# 
# From -- ./inp_files/207312.got.cif
#   From: 2010.05.17/outbox.cif.g08.bks.cpg/sg2_104_cif.got.tgz:207312.got - 2010.06.03 11:33:40.
