data_PCOD9066220
_publ_section_title
;
Structure prediction by ZEFSAII (Michael W. Deem and Ramdas Pophale) SiO2 
 PCOD9066220
Probable space group: P -1
;
_chemical_formula_sum "Si O2"
_cell_formula_units_Z 14
_cell_length_a 8.917334
_cell_length_b 11.887554
_cell_length_c 9.817250
_cell_angle_alpha 110.306355
_cell_angle_beta 109.042876
_cell_angle_gamma 38.391446
_cell_volume 603.490606
_symmetry_space_group_name_H-M "P -1"
_symmetry_group_IT_number 2
_symmetry_cell_setting 'triclinic'
loop_
_space_group_symop_operation_xyz
x,y,z
-x,-y,-z
loop_
_atom_site_type_symbol
_atom_site_label
_atom_site_fract_x
_atom_site_fract_y
_atom_site_fract_z
Si Si1 0.133039 0.050200 0.056992
Si Si2 0.237957 0.113240 0.398005
Si Si3 0.694464 0.464322 0.124500
Si Si4 0.119166 0.392424 0.848113
Si Si5 0.723706 0.670395 0.630085
Si Si6 0.346438 0.016766 0.849347
Si Si7 0.295683 0.570473 0.574224
O O1 0.258178 0.016201 0.226753
O O2 0.957895 0.265159 0.075524
O O3 0.245797 0.977441 0.908617
O O4 0.000000 0.000000 0.000000
O O5 0.152448 0.292140 0.395266
O O6 0.985746 0.223182 0.449448
O O7 0.500000 0.000000 0.500000
O O8 0.700513 0.603015 0.147565
O O9 0.662517 0.432704 0.254995
O O10 0.500000 0.500000 0.000000
O O11 0.209911 0.204551 0.814469
O O12 0.905596 0.513767 0.727580
O O13 0.000000 0.500000 0.000000
O O14 0.658758 0.598436 0.487259
O O15 0.497992 0.859759 0.716972
O O16 0.500000 0.000000 0.000000
O O17 0.500000 0.500000 0.500000
#
# Coordination Sequence:
#
# PCOD9066220 Si02
#       7
#     2   2   2   2   2   2   2
#     4  11  25  45  71 113 158 193 261 339 392 473
#     4  11  25  50  77 111 150 214 267 323 400 477
#     4  11  26  47  73 109 150 208 257 322 410 460
#     4  12  23  45  74 109 150 196 265 325 385 472
#     4  12  26  46  74 108 156 200 262 326 392 481
#     4  12  24  42  73 116 141 200 264 319 395 472
#     4  11  28  49  75 113 161 207 260 331 404 474
#
# _framework density 23.198374999999999
#
# number of rings (size 3 to 8) (size 9 to 14) (size 15 to 20)
#    0.000    0.571    7.143    0.429   10.000    1.143 
#    0.000    0.714    0.000    0.000    0.000    0.000 
#    0.000    0.000    0.000    0.000    0.000    0.000 
#
# Total GULP energy -77982.694459 kJ/mol
# GULP energy per Si atom -5570.192461 kJ/mol
# Density = 2.314557 g / cm^3
# Si number density = 23.198375 Si / 1000 Ang^3
#
#
#
# Elastic Constant Matrix: (Units=GPa)
#
#
# Indices 1 2 3 4 5 6 
#
# 1 125.9011 24.0021 22.3920 1.2564 -24.3746 -0.2809
# 2 24.0021 115.4297 35.7894 -0.7770 4.0789 -5.3295
# 3 22.3920 35.7894 96.5762 -5.6580 0.5672 -18.7077
# 4 1.2564 -0.7770 -5.6580 43.5485 -4.6038 -2.8806
# 5 -24.3746 4.0789 0.5672 -4.6038 49.5201 7.1765
# 6 -0.2809 -5.3295 -18.7077 -2.8806 7.1765 39.2001
#
#
#
# Elastic Compliance Matrix: (Units=1/GPa)
#
#
# Indices 1 2 3 4 5 6 
#
# 1 0.009625 -0.001641 -0.002072 -0.000167 0.005186 -0.002104
# 2 -0.001641 0.010107 -0.003373 -0.000382 -0.001641 0.000025
# 3 -0.002072 -0.003373 0.013449 0.001997 -0.001636 0.006391
# 4 -0.000167 -0.000382 0.001997 0.023561 0.001783 0.002305
# 5 0.005186 -0.001641 -0.001636 0.001783 0.023819 -0.005197
# 6 -0.002104 0.000025 0.006391 0.002305 -0.005197 0.029669
#
#
# Mechanical properties :
#
#
# Convention : Reuss Voigt Hill
#
# Bulk Modulus (GPa) = 52.60125 55.80825 54.20475
# Shear Modulus (GPa) = 38.24444 43.50196 40.87320
#
# Velocity S-wave (km/s) = 4.06468 4.33507 4.20205
# Velocity P-wave (km/s) = 6.68974 7.01187 6.85270
#
# Compressibility (1/GPa) = 0.01901096
#
# Stress axis : x y z
#
# Youngs Moduli (GPa) = 103.89724 98.94360 74.35257
#
# Poissons Ratio (x) = 0.16233 0.15402
# Poissons Ratio (y) = 0.17046 0.25079
# Poissons Ratio (z) = 0.21522 0.33373
#
# Static dielectric constant tensor:
#      x y z
#    x 1.900110 -0.075960 0.123020 
#    y -0.075960 1.927670 0.017020 
#    z 0.123020 0.017020 1.806400 
# 
# From -- ./inp_files/188606.got.cif
#   From: 2010.05.17/outbox.cif.g08.bks.cpg/sg2_95_cif.got.tgz:188606.got - 2010.06.03 11:33:40.
