data_PCOD9066086
_publ_section_title
;
Structure prediction by ZEFSAII (Michael W. Deem and Ramdas Pophale) SiO2 
 PCOD9066086
Probable space group: P -1
;
_chemical_formula_sum "Si O2"
_cell_formula_units_Z 16
_cell_length_a 9.710027
_cell_length_b 13.794208
_cell_length_c 14.505338
_cell_angle_alpha 42.350108
_cell_angle_beta 56.743709
_cell_angle_gamma 89.642627
_cell_volume 772.539876
_symmetry_space_group_name_H-M "P -1"
_symmetry_group_IT_number 2
_symmetry_cell_setting 'triclinic'
loop_
_space_group_symop_operation_xyz
x,y,z
-x,-y,-z
loop_
_atom_site_type_symbol
_atom_site_label
_atom_site_fract_x
_atom_site_fract_y
_atom_site_fract_z
Si Si1 0.682350 0.183780 0.624868
Si Si2 0.545799 0.796517 0.926369
Si Si3 0.856612 0.466290 0.892745
Si Si4 0.907922 0.803252 0.729913
Si Si5 0.256456 0.340420 0.647564
Si Si6 0.734446 0.362393 0.670925
Si Si7 0.766154 0.138327 0.276040
Si Si8 0.790592 0.006585 0.164703
O O1 0.664696 0.214096 0.717138
O O2 0.901774 0.399614 0.346813
O O3 0.720778 0.039903 0.690567
O O4 0.436795 0.070911 0.747945
O O5 0.684431 0.733413 0.912769
O O6 0.360810 0.695860 0.981807
O O7 0.415017 0.737361 0.112235
O O8 0.836688 0.618388 0.827746
O O9 0.857403 0.349991 0.056611
O O10 0.094357 0.852790 0.698987
O O11 0.000000 0.000000 0.500000
O O12 0.500000 0.500000 0.500000
O O13 0.272284 0.481461 0.474043
O O14 0.223421 0.171630 0.723778
O O15 0.031044 0.211814 0.887116
O O16 0.000000 0.500000 0.500000
O O17 0.780036 0.044169 0.248099
O O18 0.500000 0.000000 0.500000
#
# Coordination Sequence:
#
# PCOD9066086 Si02
#       8
#     2   2   2   2   2   2   2   2
#     4  12  23  46  74 101 150 188 240 297 358 434
#     4  12  26  44  73 106 143 190 237 300 364 436
#     4  12  25  49  76 100 146 195 241 295 369 431
#     4  12  27  48  73 105 147 183 240 310 364 428
#     4  11  25  45  70 103 146 190 237 295 360 428
#     4  12  25  43  70 108 143 190 237 291 368 427
#     4  12  27  48  76 108 141 192 251 292 362 440
#     4  11  25  44  75 101 142 191 241 299 350 431
#
# _framework density 20.710906000000001
#
# number of rings (size 3 to 8) (size 9 to 14) (size 15 to 20)
#    0.000    0.250    5.000    4.125    1.750    3.000 
#    0.000    0.000    0.000    0.000    0.000    0.000 
#    0.000    0.000    0.000    0.000    0.000    0.000 
#
# Total GULP energy -89489.628633 kJ/mol
# GULP energy per Si atom -5593.101790 kJ/mol
# Density = 2.066377 g / cm^3
# Si number density = 20.710906 Si / 1000 Ang^3
#
#
#
# Elastic Constant Matrix: (Units=GPa)
#
#
# Indices 1 2 3 4 5 6 
#
# 1 129.0028 26.9200 37.8225 -6.4409 12.4941 -2.5301
# 2 26.9200 147.2270 35.6152 -5.7054 15.4345 -5.9805
# 3 37.8225 35.6152 101.5940 2.3762 5.1772 -2.7274
# 4 -6.4409 -5.7054 2.3762 36.4472 -9.2261 -1.5257
# 5 12.4941 15.4345 5.1772 -9.2261 36.1689 2.8895
# 6 -2.5301 -5.9805 -2.7274 -1.5257 2.8895 34.5215
#
#
#
# Elastic Compliance Matrix: (Units=1/GPa)
#
#
# Indices 1 2 3 4 5 6 
#
# 1 0.009057 -0.000621 -0.003056 0.001176 -0.002170 0.000548
# 2 -0.000621 0.007844 -0.002356 0.000635 -0.002744 0.001385
# 3 -0.003056 -0.002356 0.011857 -0.001694 -0.000087 0.000237
# 4 0.001176 0.000635 -0.001694 0.029678 0.007073 0.000782
# 5 -0.002170 -0.002744 -0.000087 0.007073 0.031623 -0.002976
# 6 0.000548 0.001385 0.000237 0.000782 -0.002976 0.029550
#
#
# Mechanical properties :
#
#
# Convention : Reuss Voigt Hill
#
# Bulk Modulus (GPa) = 59.91349 64.28215 62.09782
# Shear Modulus (GPa) = 36.43207 39.92526 38.17866
#
# Velocity S-wave (km/s) = 4.19868 4.39537 4.29815
# Velocity P-wave (km/s) = 7.24545 7.54084 7.39462
#
# Compressibility (1/GPa) = 0.01669073
#
# Stress axis : x y z
#
# Youngs Moduli (GPa) = 110.41016 127.47853 84.33532
#
# Poissons Ratio (x) = 0.07922 0.25775
# Poissons Ratio (y) = 0.06861 0.19873
# Poissons Ratio (z) = 0.33744 0.30040
#
# Static dielectric constant tensor:
#      x y z
#    x 1.704480 -0.017120 0.011600 
#    y -0.017120 1.768800 -0.000770 
#    z 0.011600 -0.000770 1.775960 
# 
# From -- ./inp_files/503806.got.cif
#   From: 2010.05.17/outbox.cif.g08.bks.cpg/sg2_252_cif.got.tgz:503806.got - 2010.06.03 11:33:40.
