data_PCOD9066386
_publ_section_title
;
Structure prediction by ZEFSAII (Michael W. Deem and Ramdas Pophale) SiO2 
 PCOD9066386
Probable space group: P -1
;
_chemical_formula_sum "Si O2"
_cell_formula_units_Z 11
_cell_length_a 7.156576
_cell_length_b 8.975272
_cell_length_c 9.217028
_cell_angle_alpha 119.551280
_cell_angle_beta 99.863766
_cell_angle_gamma 119.363045
_cell_volume 376.353393
_symmetry_space_group_name_H-M "P -1"
_symmetry_group_IT_number 2
_symmetry_cell_setting 'triclinic'
loop_
_space_group_symop_operation_xyz
x,y,z
-x,-y,-z
loop_
_atom_site_type_symbol
_atom_site_label
_atom_site_fract_x
_atom_site_fract_y
_atom_site_fract_z
Si Si1 0.855747 0.423421 0.124122
Si Si2 0.801335 0.799707 0.583546
Si Si3 0.264482 0.394641 0.218590
Si Si4 0.510579 0.973382 0.663244
Si Si5 0.000000 0.500000 0.500000
Si Si6 0.212612 0.262026 0.859586
O O1 0.918880 0.649430 0.181915
O O2 0.107129 0.456556 0.163735
O O3 0.811590 0.401855 0.279634
O O4 0.633394 0.196205 0.889504
O O5 0.567976 0.602355 0.357633
O O6 0.816840 0.672474 0.656091
O O7 0.686984 0.909826 0.681393
O O8 0.074947 0.012944 0.658322
O O9 0.193552 0.207894 0.004448
O O10 0.228922 0.744938 0.564696
O O11 0.500000 0.000000 0.500000
O O12 0.500000 0.500000 0.000000
#
# Coordination Sequence:
#
# PCOD9066386 Si02
#       6
#     2   2   2   2   1   2
#     4  12  27  48  79 112 154 206 260 317 396 465
#     4  11  25  45  76 105 152 194 257 316 391 451
#     4  11  25  48  76 106 147 208 252 318 391 460
#     4  12  26  49  78 116 157 208 259 329 390 468
#     4  12  28  44  76 118 152 202 270 314 384 472
#     4  12  28  45  74 110 152 199 258 323 384 465
#
# _framework density 29.227844999999999
#
# number of rings (size 3 to 8) (size 9 to 14) (size 15 to 20)
#    0.000    0.364    3.636    3.818    2.545    2.182 
#    0.000    0.000    0.000    0.000    0.000    0.000 
#    0.000    0.000    0.000    0.000    0.000    0.000 
#
# Total GULP energy -61422.557705 kJ/mol
# GULP energy per Si atom -5583.868882 kJ/mol
# Density = 2.916132 g / cm^3
# Si number density = 29.227845 Si / 1000 Ang^3
#
#
#
# Elastic Constant Matrix: (Units=GPa)
#
#
# Indices 1 2 3 4 5 6 
#
# 1 76.0177 38.9942 31.6778 12.3253 33.1521 -13.4082
# 2 38.9942 218.0265 128.7735 0.3121 19.3024 14.6170
# 3 31.6778 128.7735 271.9659 -3.0719 14.7464 18.8990
# 4 12.3253 0.3121 -3.0719 69.9792 12.8682 -6.6620
# 5 33.1521 19.3024 14.7464 12.8682 60.5957 -1.2235
# 6 -13.4082 14.6170 18.8990 -6.6620 -1.2235 46.7542
#
#
#
# Elastic Compliance Matrix: (Units=1/GPa)
#
#
# Indices 1 2 3 4 5 6 
#
# 1 0.020613 -0.002612 -0.001117 -0.001228 -0.009777 0.006749
# 2 -0.002612 0.006838 -0.002804 0.000167 -0.000137 -0.001733
# 3 -0.001117 -0.002804 0.005235 0.000268 0.000142 -0.001518
# 4 -0.001228 0.000167 0.000268 0.015151 -0.002632 0.001577
# 5 -0.009777 -0.000137 0.000142 -0.002632 0.022367 -0.002608
# 6 0.006749 -0.001733 -0.001518 0.001577 -0.002608 0.024636
#
#
# Mechanical properties :
#
#
# Convention : Reuss Voigt Hill
#
# Bulk Modulus (GPa) = 50.96537 107.21122 79.08829
# Shear Modulus (GPa) = 43.68841 59.90344 51.79592
#
# Velocity S-wave (km/s) = 3.87040 4.53209 4.21425
# Velocity P-wave (km/s) = 6.11951 8.00920 7.12726
#
# Compressibility (1/GPa) = 0.01962117
#
# Stress axis : x y z
#
# Youngs Moduli (GPa) = 48.51210 146.24571 191.01097
#
# Poissons Ratio (x) = 0.38202 0.21333
# Poissons Ratio (y) = 0.12672 0.53552
# Poissons Ratio (z) = 0.05418 0.41002
#
# Static dielectric constant tensor:
#      x y z
#    x 1.770010 0.255350 0.289180 
#    y 0.255350 2.145400 -0.075900 
#    z 0.289180 -0.075900 2.084780 
# 
# From -- ./inp_files/152705.got.cif
#   From: 2010.05.17/outbox.cif.g08.bks.cpg/sg2_77_cif.got.tgz:152705.got - 2010.06.03 11:33:40.
