data_PCOD9066139
_publ_section_title
;
Structure prediction by ZEFSAII (Michael W. Deem and Ramdas Pophale) SiO2 
 PCOD9066139
Probable space group: P -1
;
_chemical_formula_sum "Si O2"
_cell_formula_units_Z 16
_cell_length_a 19.196397
_cell_length_b 6.417254
_cell_length_c 21.027486
_cell_angle_alpha 128.304667
_cell_angle_beta 20.862765
_cell_angle_gamma 133.796797
_cell_volume 662.207416
_symmetry_space_group_name_H-M "P -1"
_symmetry_group_IT_number 2
_symmetry_cell_setting 'triclinic'
loop_
_space_group_symop_operation_xyz
x,y,z
-x,-y,-z
loop_
_atom_site_type_symbol
_atom_site_label
_atom_site_fract_x
_atom_site_fract_y
_atom_site_fract_z
Si Si1 0.747623 0.361682 0.926932
Si Si2 0.217704 0.936079 0.866592
Si Si3 0.442931 0.765351 0.122036
Si Si4 0.164685 0.310036 0.767382
Si Si5 0.539882 0.724616 0.387919
Si Si6 0.987067 0.568434 0.626871
Si Si7 0.474205 0.736356 0.236556
Si Si8 0.895149 0.774306 0.341990
O O1 0.868717 0.478297 0.779111
O O2 0.927930 0.352308 0.819570
O O3 0.609769 0.544309 0.095623
O O4 0.572381 0.031760 0.016547
O O5 0.285346 0.164442 0.795555
O O6 0.423467 0.009637 0.751024
O O7 0.144406 0.616335 0.839342
O O8 0.026421 0.918605 0.071653
O O9 0.509442 0.839971 0.152839
O O10 0.187550 0.654872 0.313228
O O11 0.500000 0.500000 0.000000
O O12 0.373470 0.370579 0.641698
O O13 0.142919 0.191221 0.693299
O O14 0.330598 0.470287 0.489863
O O15 0.500000 0.000000 0.500000
O O16 0.220789 0.566287 0.429622
O O17 0.028460 0.899812 0.635324
#
# Coordination Sequence:
#
# PCOD9066139 Si02
#       8
#     2   2   2   2   2   2   2   2
#     4  12  26  48  77 109 150 192 246 302 374 436
#     4  11  25  45  67 106 141 190 242 298 361 430
#     4  12  25  52  77 110 149 194 240 308 374 439
#     4  11  25  45  72  98 148 191 240 301 363 425
#     4  12  26  42  71 103 140 188 246 291 356 427
#     4  12  27  48  77 111 150 194 248 300 373 441
#     4  12  28  46  76 110 152 189 249 305 364 441
#     4  12  26  45  77 106 150 196 241 305 367 431
#
# _framework density 24.161612999999999
#
# number of rings (size 3 to 8) (size 9 to 14) (size 15 to 20)
#    0.000    0.250    3.750    4.500    5.250    5.500 
#    0.000    0.000    0.000    0.000    0.000    0.000 
#    0.000    0.000    0.000    0.000    0.000    0.000 
#
# Total GULP energy -89611.623850 kJ/mol
# GULP energy per Si atom -5600.726491 kJ/mol
# Density = 2.410662 g / cm^3
# Si number density = 24.161613 Si / 1000 Ang^3
#
#
#
# Elastic Constant Matrix: (Units=GPa)
#
#
# Indices 1 2 3 4 5 6 
#
# 1 98.2982 12.1089 22.2540 -7.0015 -13.7760 -7.9779
# 2 12.1089 101.8929 43.3974 -17.6439 -1.8769 -13.9006
# 3 22.2540 43.3974 139.2031 -18.6538 -13.2737 -24.8188
# 4 -7.0015 -17.6439 -18.6538 45.8604 -4.7343 -5.7368
# 5 -13.7760 -1.8769 -13.2737 -4.7343 51.4610 -1.1096
# 6 -7.9779 -13.9006 -24.8188 -5.7368 -1.1096 24.0337
#
#
#
# Elastic Compliance Matrix: (Units=1/GPa)
#
#
# Indices 1 2 3 4 5 6 
#
# 1 0.011214 -0.000164 -0.000446 0.002278 0.003174 0.003858
# 2 -0.000164 0.012370 -0.002070 0.004701 0.000438 0.006105
# 3 -0.000446 -0.002070 0.010983 0.005382 0.003380 0.011437
# 4 0.002278 0.004701 0.005382 0.028700 0.005158 0.016122
# 5 0.003174 0.000438 0.003380 0.005158 0.021796 0.007034
# 6 0.003858 0.006105 0.011437 0.016122 0.007034 0.062404
#
#
# Mechanical properties :
#
#
# Convention : Reuss Voigt Hill
#
# Bulk Modulus (GPa) = 34.23708 54.99054 44.61381
# Shear Modulus (GPa) = 30.75713 41.71326 36.23520
#
# Velocity S-wave (km/s) = 3.57175 4.15954 3.87680
# Velocity P-wave (km/s) = 5.58665 6.77332 6.20840
#
# Compressibility (1/GPa) = 0.02920810
#
# Stress axis : x y z
#
# Youngs Moduli (GPa) = 89.17105 80.83839 91.04780
#
# Poissons Ratio (x) = 0.01322 0.04063
# Poissons Ratio (y) = 0.01458 0.18849
# Poissons Ratio (z) = 0.03979 0.16736
#
# Static dielectric constant tensor:
#      x y z
#    x 1.929710 0.022350 -0.007610 
#    y 0.022350 1.941770 -0.004270 
#    z -0.007610 -0.004270 1.943690 
# 
# From -- ./inp_files/613435.got.cif
#   From: 2010.05.17/outbox.cif.g08.bks.cpg/sg2_307_cif.got.tgz:613435.got - 2010.06.03 11:33:40.
