data_PCOD9066425
_publ_section_title
;
Structure prediction by ZEFSAII (Michael W. Deem and Ramdas Pophale) SiO2 
 PCOD9066425
Probable space group: P -1
;
_chemical_formula_sum "Si O2"
_cell_formula_units_Z 12
_cell_length_a 6.667052
_cell_length_b 23.194045
_cell_length_c 5.211492
_cell_angle_alpha 108.850980
_cell_angle_beta 131.157427
_cell_angle_gamma 57.921254
_cell_volume 513.672634
_symmetry_space_group_name_H-M "P -1"
_symmetry_group_IT_number 2
_symmetry_cell_setting 'triclinic'
loop_
_space_group_symop_operation_xyz
x,y,z
-x,-y,-z
loop_
_atom_site_type_symbol
_atom_site_label
_atom_site_fract_x
_atom_site_fract_y
_atom_site_fract_z
Si Si1 0.268707 0.767011 0.716193
Si Si2 0.205060 0.364317 0.289215
Si Si3 0.548612 0.454057 0.724254
Si Si4 0.442568 0.863274 0.749748
Si Si5 0.252048 0.252576 0.512774
Si Si6 0.659575 0.048176 0.717869
O O1 0.526710 0.698884 0.713722
O O2 0.717684 0.795072 0.775933
O O3 0.985948 0.755051 0.517961
O O4 0.426930 0.774860 0.121284
O O5 0.321921 0.420700 0.501053
O O6 0.159268 0.329385 0.458118
O O7 0.889229 0.396174 0.928954
O O8 0.500000 0.500000 0.500000
O O9 0.500000 0.500000 0.000000
O O10 0.214258 0.832628 0.594632
O O11 0.358426 0.914431 0.513498
O O12 0.477493 0.899056 0.086816
O O13 0.500000 0.000000 0.500000
O O14 0.000000 0.000000 0.000000
#
# Coordination Sequence:
#
# PCOD9066425 Si02
#       6
#     2   2   2   2   2   2
#     4  11  25  45  78 106 144 185 235 311 358 420
#     4  11  26  46  74 109 144 187 246 294 364 423
#     4  12  28  48  74 104 148 195 238 292 352 431
#     4  11  26  50  74 109 144 187 246 294 364 423
#     4  11  25  45  78 106 144 185 235 311 358 420
#     4  12  28  48  74 104 148 195 238 292 352 431
#
# _framework density 23.361177999999999
#
# number of rings (size 3 to 8) (size 9 to 14) (size 15 to 20)
#    0.000    0.667    1.667    4.000    9.333    6.667 
#    0.000    0.000    0.000    0.000    0.000    0.000 
#    0.000    0.000    0.000    0.000    0.000    0.000 
#
# Total GULP energy -67205.199256 kJ/mol
# GULP energy per Si atom -5600.433271 kJ/mol
# Density = 2.330801 g / cm^3
# Si number density = 23.361178 Si / 1000 Ang^3
#
#
#
# Elastic Constant Matrix: (Units=GPa)
#
#
# Indices 1 2 3 4 5 6 
#
# 1 148.3194 70.8953 63.9372 -2.5133 -5.9539 47.6980
# 2 70.8953 112.7236 41.3074 -0.2352 -9.3459 48.1809
# 3 63.9372 41.3074 100.6418 -2.9269 -3.2987 33.4912
# 4 -2.5133 -0.2352 -2.9269 46.8818 -3.8022 -9.6310
# 5 -5.9539 -9.3459 -3.2987 -3.8022 56.3510 1.5258
# 6 47.6980 48.1809 33.4912 -9.6310 1.5258 69.5549
#
#
#
# Elastic Compliance Matrix: (Units=1/GPa)
#
#
# Indices 1 2 3 4 5 6 
#
# 1 0.011835 -0.004506 -0.004754 -0.000225 0.000284 -0.002743
# 2 -0.004506 0.015379 -0.000978 -0.001565 0.002111 -0.007355
# 3 -0.004754 -0.000978 0.014358 0.000047 0.000260 -0.002975
# 4 -0.000225 -0.001565 0.000047 0.022282 0.001107 0.004277
# 5 0.000284 0.002111 0.000260 0.001107 0.018271 -0.002029
# 6 -0.002743 -0.007355 -0.002975 0.004277 -0.002029 0.023423
#
#
# Mechanical properties :
#
#
# Convention : Reuss Voigt Hill
#
# Bulk Modulus (GPa) = 47.40224 79.32939 63.36582
# Shear Modulus (GPa) = 37.57861 46.92722 42.25291
#
# Velocity S-wave (km/s) = 4.01508 4.48679 4.25747
# Velocity P-wave (km/s) = 6.46758 7.80213 7.16599
#
# Compressibility (1/GPa) = 0.02109605
#
# Stress axis : x y z
#
# Youngs Moduli (GPa) = 84.49603 65.02311 69.64940
#
# Poissons Ratio (x) = 0.29298 0.33109
# Poissons Ratio (y) = 0.38072 0.06815
# Poissons Ratio (z) = 0.40166 0.06362
#
# Static dielectric constant tensor:
#      x y z
#    x 1.878800 -0.022170 -0.039750 
#    y -0.022170 1.883080 0.005580 
#    z -0.039750 0.005580 1.884650 
# 
# From -- ./inp_files/9059.got.cif
#   From: 2010.05.17/outbox.cif.g08.bks.cpg/sg2_5_cif.got.tgz:9059.got - 2010.06.03 11:33:40.
