data_PCOD9066984
_publ_section_title
;
Structure prediction by ZEFSAII (Michael W. Deem and Ramdas Pophale) SiO2 
 PCOD9066984
Probable space group: P -1
;
_chemical_formula_sum "Si O2"
_cell_formula_units_Z 12
_cell_length_a 5.246751
_cell_length_b 15.847163
_cell_length_c 14.590391
_cell_angle_alpha 24.729847
_cell_angle_beta 108.406939
_cell_angle_gamma 115.226824
_cell_volume 450.867347
_symmetry_space_group_name_H-M "P -1"
_symmetry_group_IT_number 2
_symmetry_cell_setting 'triclinic'
loop_
_space_group_symop_operation_xyz
x,y,z
-x,-y,-z
loop_
_atom_site_type_symbol
_atom_site_label
_atom_site_fract_x
_atom_site_fract_y
_atom_site_fract_z
Si Si1 0.255722 0.923831 0.325756
Si Si2 0.788828 0.636676 0.096634
Si Si3 0.271212 0.557537 0.911961
Si Si4 0.711183 0.490085 0.688406
Si Si5 0.659452 0.920377 0.540708
Si Si6 0.337582 0.088026 0.969554
O O1 0.948778 0.729505 0.474207
O O2 0.505046 0.898971 0.443575
O O3 0.198432 0.127698 0.161366
O O4 0.370278 0.997516 0.164001
O O5 0.072057 0.642916 0.175346
O O6 0.544146 0.650817 0.268987
O O7 0.487392 0.532187 0.220043
O O8 0.163329 0.481496 0.871957
O O9 0.359048 0.835607 0.660000
O O10 0.373959 0.347194 0.170234
O O11 0.000000 0.500000 0.000000
O O12 0.000000 0.000000 0.500000
O O13 0.500000 0.000000 0.000000
O O14 0.000000 0.000000 0.000000
#
# Coordination Sequence:
#
# PCOD9066984 Si02
#       6
#     2   2   2   2   2   2
#     4  11  27  51  83 109 160 209 256 329 394 455
#     4  11  25  47  74 108 151 198 263 313 390 457
#     4  12  25  45  69 102 152 197 258 331 375 446
#     4  11  25  47  80 112 150 201 260 316 392 478
#     4  12  28  47  73 114 153 203 270 314 383 465
#     4  11  26  49  77 119 154 196 257 319 398 479
#
# _framework density 26.615365000000001
#
# number of rings (size 3 to 8) (size 9 to 14) (size 15 to 20)
#    0.000    0.667    1.667    5.000    2.333   13.333 
#    0.000    0.000    0.000    0.000    0.000    0.000 
#    0.000    0.000    0.000    0.000    0.000    0.000 
#
# Total GULP energy -66977.178224 kJ/mol
# GULP energy per Si atom -5581.431519 kJ/mol
# Density = 2.655479 g / cm^3
# Si number density = 26.615365 Si / 1000 Ang^3
#
#
#
# Elastic Constant Matrix: (Units=GPa)
#
#
# Indices 1 2 3 4 5 6 
#
# 1 291.3763 66.4193 85.4796 -15.8346 -24.5071 -0.1492
# 2 66.4193 163.1575 79.7062 -16.6821 -27.8286 -18.7416
# 3 85.4796 79.7062 221.3913 -44.6250 -33.7125 7.8770
# 4 -15.8346 -16.6821 -44.6250 61.4546 11.1388 -2.4301
# 5 -24.5071 -27.8286 -33.7125 11.1388 73.3379 -12.2824
# 6 -0.1492 -18.7416 7.8770 -2.4301 -12.2824 52.1127
#
#
#
# Elastic Compliance Matrix: (Units=1/GPa)
#
#
# Indices 1 2 3 4 5 6 
#
# 1 0.004032 -0.001033 -0.001147 -0.000157 0.000437 -0.000091
# 2 -0.001033 0.008653 -0.002486 -0.000011 0.002478 0.004068
# 3 -0.001147 -0.002486 0.006812 0.003738 0.000982 -0.001521
# 4 -0.000157 -0.000011 0.003738 0.019170 -0.001245 0.000031
# 5 0.000437 0.002478 0.000982 -0.001245 0.016113 0.004484
# 6 -0.000091 0.004068 -0.001521 0.000031 0.004484 0.021940
#
#
# Mechanical properties :
#
#
# Convention : Reuss Voigt Hill
#
# Bulk Modulus (GPa) = 98.37467 126.57059 112.47263
# Shear Modulus (GPa) = 55.90312 67.00237 61.45274
#
# Velocity S-wave (km/s) = 4.58799 5.02284 4.81033
# Velocity P-wave (km/s) = 8.06896 9.01650 8.55586
#
# Compressibility (1/GPa) = 0.01016522
#
# Stress axis : x y z
#
# Youngs Moduli (GPa) = 248.01149 115.56641 146.80546
#
# Poissons Ratio (x) = 0.11941 0.16834
# Poissons Ratio (y) = 0.25625 0.36494
# Poissons Ratio (z) = 0.28439 0.28728
#
# Static dielectric constant tensor:
#      x y z
#    x 2.028530 0.052310 0.182570 
#    y 0.052310 2.164110 -0.023980 
#    z 0.182570 -0.023980 2.328430 
# 
# From -- ./inp_files/550619.got.cif
#   From: 2010.05.17/outbox.cif.g08.bks.cpg/sg2_276_cif.got.tgz:550619.got - 2010.06.03 11:33:40.
