data_PCOD9066523
_publ_section_title
;
Structure prediction by ZEFSAII (Michael W. Deem and Ramdas Pophale) SiO2 
 PCOD9066523
Probable space group: P -1
;
_chemical_formula_sum "Si O2"
_cell_formula_units_Z 16
_cell_length_a 11.840617
_cell_length_b 13.880687
_cell_length_c 11.588679
_cell_angle_alpha 145.627462
_cell_angle_beta 102.707142
_cell_angle_gamma 104.793851
_cell_volume 638.665584
_symmetry_space_group_name_H-M "P -1"
_symmetry_group_IT_number 2
_symmetry_cell_setting 'triclinic'
loop_
_space_group_symop_operation_xyz
x,y,z
-x,-y,-z
loop_
_atom_site_type_symbol
_atom_site_label
_atom_site_fract_x
_atom_site_fract_y
_atom_site_fract_z
Si Si1 0.743174 0.041619 0.545051
Si Si2 0.304373 0.348425 0.468198
Si Si3 0.799514 0.415467 0.767217
Si Si4 0.923030 0.456128 0.588407
Si Si5 0.602960 0.176726 0.082029
Si Si6 0.357486 0.070788 0.328573
Si Si7 0.808717 0.801308 0.184568
Si Si8 0.919068 0.041289 0.188394
O O1 0.712024 0.170430 0.587298
O O2 0.638708 0.926355 0.529459
O O3 0.695753 0.816291 0.240361
O O4 0.972230 0.309328 0.881618
O O5 0.431037 0.665704 0.797383
O O6 0.122069 0.196589 0.352359
O O7 0.401735 0.301682 0.504428
O O8 0.228821 0.201465 0.180261
O O9 0.804915 0.375625 0.594910
O O10 0.719544 0.509274 0.868517
O O11 0.821060 0.407575 0.403416
O O12 0.926173 0.254790 0.396900
O O13 0.127673 0.781317 0.967119
O O14 0.570784 0.011411 0.805961
O O15 0.500000 0.000000 0.000000
O O16 0.865417 0.923330 0.189033
O O17 0.000000 0.000000 0.500000
#
# Coordination Sequence:
#
# PCOD9066523 Si02
#       8
#     2   2   2   2   2   2   2   2
#     4   9  18  29  49  82 117 143 179 226 282 328
#     4  11  22  36  59  84 115 150 190 232 286 335
#     4   9  17  29  51  80 118 147 176 227 280 330
#     4  11  19  38  61  86 116 152 190 232 283 337
#     4  12  26  41  58  83 115 151 191 239 289 340
#     4  11  22  38  60  88 116 150 189 236 281 341
#     4  10  18  28  46  82 122 146 176 224 288 333
#     4  11  19  33  59  90 117 149 187 237 280 336
#
# _framework density 25.052236000000001
#
# number of rings (size 3 to 8) (size 9 to 14) (size 15 to 20)
#    0.000    1.500    3.750    4.875    1.750    1.500 
#    0.000    0.000    0.000    0.750    0.000    2.625 
#    0.000    0.000    0.000    0.000    0.000    0.000 
#
# Total GULP energy -89729.834219 kJ/mol
# GULP energy per Si atom -5608.114639 kJ/mol
# Density = 2.499522 g / cm^3
# Si number density = 25.052236 Si / 1000 Ang^3
#
#
#
# Elastic Constant Matrix: (Units=GPa)
#
#
# Indices 1 2 3 4 5 6 
#
# 1 135.7040 73.3139 46.0760 -0.1770 -43.9478 -9.8072
# 2 73.3139 219.6501 72.0605 -9.2633 -41.7499 8.0542
# 3 46.0760 72.0605 120.8231 -9.1920 -55.5178 -5.5920
# 4 -0.1770 -9.2633 -9.1920 48.0080 -2.9342 -5.7945
# 5 -43.9478 -41.7499 -55.5178 -2.9342 60.8498 4.5495
# 6 -9.8072 8.0542 -5.5920 -5.7945 4.5495 47.8527
#
#
#
# Elastic Compliance Matrix: (Units=1/GPa)
#
#
# Indices 1 2 3 4 5 6 
#
# 1 0.010828 -0.002636 0.000441 0.000258 0.006266 0.002150
# 2 -0.002636 0.006482 -0.002874 0.000464 0.000087 -0.001919
# 3 0.000441 -0.002874 0.016241 0.003563 0.013214 0.001647
# 4 0.000258 0.000464 0.003563 0.022204 0.004629 0.002640
# 5 0.006266 0.000087 0.013214 0.004629 0.033283 0.000210
# 6 0.002150 -0.001919 0.001647 0.002640 0.000210 0.022153
#
#
# Mechanical properties :
#
#
# Convention : Reuss Voigt Hill
#
# Bulk Modulus (GPa) = 42.70951 95.45312 69.08131
# Shear Modulus (GPa) = 38.71946 50.32389 44.52167
#
# Velocity S-wave (km/s) = 3.93561 4.48678 4.22020
# Velocity P-wave (km/s) = 6.14307 8.06387 7.16810
#
# Compressibility (1/GPa) = 0.02341399
#
# Stress axis : x y z
#
# Youngs Moduli (GPa) = 92.35116 154.27525 61.57102
#
# Poissons Ratio (x) = 0.40664 -0.02716
# Poissons Ratio (y) = 0.24342 0.17696
# Poissons Ratio (z) = -0.04074 0.44341
#
# Static dielectric constant tensor:
#      x y z
#    x 2.030760 0.028570 0.113330 
#    y 0.028570 1.871610 0.017500 
#    z 0.113330 0.017500 2.080640 
# 
# From -- ./inp_files/418651.got.cif
#   From: 2010.05.17/outbox.cif.g08.bks.cpg/sg2_210_cif.got.tgz:418651.got - 2010.06.03 11:33:40.
