data_PCOD9066642
_publ_section_title
;
Structure prediction by ZEFSAII (Michael W. Deem and Ramdas Pophale) SiO2 
 PCOD9066642
Probable space group: P -1
;
_chemical_formula_sum "Si O2"
_cell_formula_units_Z 16
_cell_length_a 8.603462
_cell_length_b 21.940812
_cell_length_c 8.923601
_cell_angle_alpha 27.545403
_cell_angle_beta 114.489703
_cell_angle_gamma 112.627233
_cell_volume 708.317343
_symmetry_space_group_name_H-M "P -1"
_symmetry_group_IT_number 2
_symmetry_cell_setting 'triclinic'
loop_
_space_group_symop_operation_xyz
x,y,z
-x,-y,-z
loop_
_atom_site_type_symbol
_atom_site_label
_atom_site_fract_x
_atom_site_fract_y
_atom_site_fract_z
Si Si1 0.177149 0.763122 0.677167
Si Si2 0.800160 0.725106 0.595114
Si Si3 0.328547 0.535299 0.766128
Si Si4 0.675329 0.954725 0.234802
Si Si5 0.151094 0.767473 0.329238
Si Si6 0.473611 0.106695 0.383114
Si Si7 0.178184 0.534596 0.404060
Si Si8 0.760250 0.693486 0.302442
O O1 0.188433 0.699871 0.653461
O O2 0.340346 0.860840 0.542906
O O3 0.982444 0.805285 0.493048
O O4 0.177124 0.676737 0.016130
O O5 0.697949 0.812746 0.477841
O O6 0.728633 0.704854 0.443356
O O7 0.809589 0.576399 0.984823
O O8 0.266730 0.681909 0.453389
O O9 0.326110 0.520877 0.617549
O O10 0.500000 0.500000 0.000000
O O11 0.654490 0.941216 0.433252
O O12 0.500000 0.000000 0.000000
O O13 0.804023 0.077349 0.983111
O O14 0.953850 0.754348 0.233008
O O15 0.500000 0.000000 0.500000
O O16 0.387149 0.231031 0.003734
O O17 0.218578 0.442872 0.478728
O O18 0.000000 0.500000 0.500000
#
# Coordination Sequence:
#
# PCOD9066642 Si02
#       8
#     2   2   2   2   2   2   2   2
#     4  11  26  46  72 102 146 186 238 296 362 419
#     4  11  25  48  76 101 146 193 244 289 365 438
#     4  12  26  43  73 107 140 189 239 294 360 430
#     4  12  25  47  74 103 142 193 248 292 356 435
#     4  11  25  46  73 102 144 193 241 294 364 429
#     4  12  29  45  70 107 149 184 246 303 357 422
#     4  12  24  46  73 108 145 183 240 296 363 436
#     4  11  26  45  72 107 142 187 237 307 359 424
#
# _framework density 22.588744999999999
#
# number of rings (size 3 to 8) (size 9 to 14) (size 15 to 20)
#    0.000    0.500    3.750    3.000    7.000    4.000 
#    0.000    0.000    0.000    0.000    0.000    0.000 
#    0.000    0.000    0.000    0.000    0.000    0.000 
#
# Total GULP energy -89331.462212 kJ/mol
# GULP energy per Si atom -5583.216388 kJ/mol
# Density = 2.253733 g / cm^3
# Si number density = 22.588745 Si / 1000 Ang^3
#
#
#
# Elastic Constant Matrix: (Units=GPa)
#
#
# Indices 1 2 3 4 5 6 
#
# 1 50.2914 28.4008 1.1866 2.6520 -1.3783 -13.3161
# 2 28.4008 104.4752 10.2889 14.3796 7.0665 -11.9008
# 3 1.1866 10.2889 46.7847 9.7958 -13.2492 -21.6402
# 4 2.6520 14.3796 9.7958 38.9198 -9.8344 3.0965
# 5 -1.3783 7.0665 -13.2492 -9.8344 30.8903 0.1036
# 6 -13.3161 -11.9008 -21.6402 3.0965 0.1036 48.9915
#
#
#
# Elastic Compliance Matrix: (Units=1/GPa)
#
#
# Indices 1 2 3 4 5 6 
#
# 1 0.026053 -0.007145 0.006164 0.000044 0.005428 0.008054
# 2 -0.007145 0.012980 -0.003391 -0.005065 -0.006355 0.000047
# 3 0.006164 -0.003391 0.034809 -0.005678 0.014117 0.016556
# 4 0.000044 -0.005065 -0.005678 0.031680 0.008830 -0.005748
# 5 0.005428 -0.006355 0.014117 0.008830 0.042917 0.005519
# 6 0.008054 0.000047 0.016556 -0.005748 0.005519 0.030277
#
#
# Mechanical properties :
#
#
# Convention : Reuss Voigt Hill
#
# Bulk Modulus (GPa) = 15.36160 31.25599 23.30879
# Shear Modulus (GPa) = 23.90529 34.53865 29.22197
#
# Velocity S-wave (km/s) = 3.25666 3.91451 3.60064
# Velocity P-wave (km/s) = 4.57782 5.85647 5.25617
#
# Compressibility (1/GPa) = 0.06509739
#
# Stress axis : x y z
#
# Youngs Moduli (GPa) = 38.38385 77.04016 28.72826
#
# Poissons Ratio (x) = 0.55045 -0.17708
# Poissons Ratio (y) = 0.27425 0.09742
# Poissons Ratio (z) = -0.23659 0.26125
#
# Static dielectric constant tensor:
#      x y z
#    x 1.948440 -0.015610 -0.041780 
#    y -0.015610 1.859680 -0.008820 
#    z -0.041780 -0.008820 1.885010 
# 
# From -- ./inp_files/222888.got.cif
#   From: 2010.05.17/outbox.cif.g08.bks.cpg/sg2_112_cif.got.tgz:222888.got - 2010.06.03 11:33:40.
