data_PCOD9066224
_publ_section_title
;
Structure prediction by ZEFSAII (Michael W. Deem and Ramdas Pophale) SiO2 
 PCOD9066224
Probable space group: P -1
;
_chemical_formula_sum "Si O2"
_cell_formula_units_Z 14
_cell_length_a 13.330566
_cell_length_b 9.073320
_cell_length_c 13.522498
_cell_angle_alpha 94.440519
_cell_angle_beta 32.520862
_cell_angle_gamma 115.879953
_cell_volume 632.393235
_symmetry_space_group_name_H-M "P -1"
_symmetry_group_IT_number 2
_symmetry_cell_setting 'triclinic'
loop_
_space_group_symop_operation_xyz
x,y,z
-x,-y,-z
loop_
_atom_site_type_symbol
_atom_site_label
_atom_site_fract_x
_atom_site_fract_y
_atom_site_fract_z
Si Si1 0.177222 0.731652 0.407675
Si Si2 0.929659 0.176763 0.299117
Si Si3 0.440261 0.290295 0.910006
Si Si4 0.811696 0.989296 0.726119
Si Si5 0.262741 0.379196 0.470317
Si Si6 0.092242 0.528683 0.773835
Si Si7 0.413921 0.704163 0.715464
O O1 0.035996 0.733133 0.615828
O O2 0.436872 0.795205 0.234714
O O3 0.259976 0.902668 0.269195
O O4 0.000000 0.500000 0.500000
O O5 0.908790 0.300582 0.247658
O O6 0.663811 0.942181 0.506992
O O7 0.172798 0.202636 0.083147
O O8 0.645060 0.522553 0.711047
O O9 0.401039 0.230920 0.055919
O O10 0.995817 0.145269 0.669510
O O11 0.000000 0.000000 0.500000
O O12 0.203071 0.487673 0.592805
O O13 0.478885 0.391504 0.336575
O O14 0.264983 0.599829 0.731058
O O15 0.793184 0.335693 0.040321
#
# Coordination Sequence:
#
# PCOD9066224 Si02
#       7
#     2   2   2   2   2   2   2
#     4  12  25  45  66  99 134 178 221 269 328 393
#     4  12  24  45  68  99 136 172 221 277 328 397
#     4  12  25  43  70  94 139 174 222 270 336 379
#     4  12  25  45  66  99 134 178 221 269 328 393
#     4  12  24  45  68  99 136 172 221 277 328 397
#     4  11  25  45  71  99 132 175 221 277 337 394
#     4  11  25  45  71  99 132 175 221 277 337 394
#
# _framework density 22.138123
#
# number of rings (size 3 to 8) (size 9 to 14) (size 15 to 20)
#    0.000    0.286    7.143    1.286    2.000    2.286 
#    5.143    0.714    0.000    0.000    0.000    0.000 
#    0.000    0.000    0.000    0.000    0.000    0.000 
#
# Total GULP energy -78245.616862 kJ/mol
# GULP energy per Si atom -5588.972633 kJ/mol
# Density = 2.208774 g / cm^3
# Si number density = 22.138123 Si / 1000 Ang^3
#
#
#
# Elastic Constant Matrix: (Units=GPa)
#
#
# Indices 1 2 3 4 5 6 
#
# 1 107.5786 34.9537 24.3729 15.4525 -10.9952 -39.3778
# 2 34.9537 79.8298 35.4613 8.6773 -13.3797 -16.6915
# 3 24.3729 35.4613 99.2270 -2.4543 -8.4462 6.8210
# 4 15.4525 8.6773 -2.4543 21.5261 -6.0203 -0.1664
# 5 -10.9952 -13.3797 -8.4462 -6.0203 42.5175 4.6016
# 6 -39.3778 -16.6915 6.8210 -0.1664 4.6016 27.1450
#
#
#
# Elastic Compliance Matrix: (Units=1/GPa)
#
#
# Indices 1 2 3 4 5 6 
#
# 1 0.041657 0.008515 -0.019297 -0.035863 -0.003124 0.070825
# 2 0.008515 0.022232 -0.012289 -0.015863 0.001396 0.028777
# 3 -0.019297 -0.012289 0.022906 0.022026 0.003329 -0.041735
# 4 -0.035863 -0.015863 0.022026 0.083174 0.009287 -0.068378
# 5 -0.003124 0.001396 0.003329 0.009287 0.026088 -0.008876
# 6 0.070825 0.028777 -0.041735 -0.068378 -0.008876 0.168849
#
#
# Mechanical properties :
#
#
# Convention : Reuss Voigt Hill
#
# Bulk Modulus (GPa) = 24.59689 52.91237 38.75463
# Shear Modulus (GPa) = 11.77582 31.02753 21.40167
#
# Velocity S-wave (km/s) = 2.30885 3.74778 3.11261
# Velocity P-wave (km/s) = 4.27112 6.53305 5.51920
#
# Compressibility (1/GPa) = 0.04065555
#
# Stress axis : x y z
#
# Youngs Moduli (GPa) = 24.00552 44.97980 43.65580
#
# Poissons Ratio (x) = -0.38302 0.84242
# Poissons Ratio (y) = -0.20442 0.53647
# Poissons Ratio (z) = 0.46323 0.55274
#
# Static dielectric constant tensor:
#      x y z
#    x 1.811660 -0.022070 0.015240 
#    y -0.022070 1.793020 -0.003580 
#    z 0.015240 -0.003580 1.827420 
# 
# From -- ./inp_files/529753.got.cif
#   From: 2010.05.17/outbox.cif.g08.bks.cpg/sg2_265_cif.got.tgz:529753.got - 2010.06.03 11:33:40.
