data_PCOD9066380
_publ_section_title
;
Structure prediction by ZEFSAII (Michael W. Deem and Ramdas Pophale) SiO2 
 PCOD9066380
Probable space group: P -1
;
_chemical_formula_sum "Si O2"
_cell_formula_units_Z 13
_cell_length_a 21.832813
_cell_length_b 12.246298
_cell_length_c 9.995615
_cell_angle_alpha 46.529462
_cell_angle_beta 153.496710
_cell_angle_gamma 150.121177
_cell_volume 545.619448
_symmetry_space_group_name_H-M "P -1"
_symmetry_group_IT_number 2
_symmetry_cell_setting 'triclinic'
loop_
_space_group_symop_operation_xyz
x,y,z
-x,-y,-z
loop_
_atom_site_type_symbol
_atom_site_label
_atom_site_fract_x
_atom_site_fract_y
_atom_site_fract_z
Si Si1 0.558402 0.308351 0.808710
Si Si2 0.429850 0.122707 0.017646
Si Si3 0.150631 0.712610 0.221619
Si Si4 0.837619 0.828085 0.943728
Si Si5 0.839622 0.934171 0.132994
Si Si6 0.500000 0.500000 0.000000
Si Si7 0.125233 0.613611 0.790828
O O1 0.757451 0.590316 0.987044
O O2 0.369081 0.241742 0.426031
O O3 0.481587 0.186974 0.905876
O O4 0.645238 0.264443 0.907403
O O5 0.624283 0.185517 0.405431
O O6 0.438446 0.285696 0.979784
O O7 0.199687 0.837283 0.809354
O O8 0.019111 0.595786 0.204514
O O9 0.000000 0.500000 0.000000
O O10 0.178815 0.903817 0.057512
O O11 0.941724 0.962269 0.172066
O O12 0.000000 0.000000 0.000000
O O13 0.609104 0.660993 0.941355
O O14 0.000000 0.000000 0.500000
O O15 0.000000 0.500000 0.500000
#
# Coordination Sequence:
#
# PCOD9066380 Si02
#       7
#     2   2   2   2   2   1   2
#     4  11  25  45  75 117 150 205 270 328 408 479
#     4  12  27  49  80 116 161 213 270 336 412 482
#     4  12  28  50  76 120 162 216 277 329 413 493
#     4  11  26  45  75 111 156 203 266 330 407 479
#     4  12  28  47  76 110 156 212 265 328 397 479
#     4  12  28  50  78 108 164 208 270 326 406 478
#     4  12  27  48  85 116 164 212 268 342 410 489
#
# _framework density 23.826129999999999
#
# number of rings (size 3 to 8) (size 9 to 14) (size 15 to 20)
#    0.000    0.308    3.077    4.154    6.462    6.154 
#    0.000    0.000    0.000    0.000    0.000    0.000 
#    0.000    0.000    0.000    0.000    0.000    0.000 
#
# Total GULP energy -72547.267942 kJ/mol
# GULP energy per Si atom -5580.559072 kJ/mol
# Density = 2.377190 g / cm^3
# Si number density = 23.826130 Si / 1000 Ang^3
#
#
#
# Elastic Constant Matrix: (Units=GPa)
#
#
# Indices 1 2 3 4 5 6 
#
# 1 111.1929 24.6881 37.0615 -12.1124 -10.1253 -4.7742
# 2 24.6881 178.4879 45.0929 -15.3018 -0.5429 -7.5143
# 3 37.0615 45.0929 114.6471 -11.9636 -23.7557 -17.1475
# 4 -12.1124 -15.3018 -11.9636 28.0492 4.3541 -4.8853
# 5 -10.1253 -0.5429 -23.7557 4.3541 37.5488 -3.6616
# 6 -4.7742 -7.5143 -17.1475 -4.8853 -3.6616 57.4972
#
#
#
# Elastic Compliance Matrix: (Units=1/GPa)
#
#
# Indices 1 2 3 4 5 6 
#
# 1 0.010399 -0.000497 -0.002634 0.003026 0.000811 0.000322
# 2 -0.000497 0.006529 -0.002507 0.002603 -0.001912 0.000164
# 3 -0.002634 -0.002507 0.013000 0.002566 0.007574 0.004031
# 4 0.003026 0.002603 0.002566 0.040564 -0.001769 0.004691
# 5 0.000811 -0.001912 0.007574 -0.001769 0.032208 0.003977
# 6 0.000322 0.000164 0.004031 0.004691 0.003977 0.019294
#
#
# Mechanical properties :
#
#
# Convention : Reuss Voigt Hill
#
# Bulk Modulus (GPa) = 53.61776 68.66808 61.14292
# Shear Modulus (GPa) = 35.84520 44.45142 40.14831
#
# Velocity S-wave (km/s) = 3.88293 4.32401 4.10939
# Velocity P-wave (km/s) = 6.53112 7.33570 6.94507
#
# Compressibility (1/GPa) = 0.01865054
#
# Stress axis : x y z
#
# Youngs Moduli (GPa) = 96.16241 153.16091 76.92276
#
# Poissons Ratio (x) = 0.07620 0.20262
# Poissons Ratio (y) = 0.04784 0.19286
# Poissons Ratio (z) = 0.25330 0.38401
#
# Static dielectric constant tensor:
#      x y z
#    x 1.848840 -0.004980 -0.036190 
#    y -0.004980 1.909230 0.033850 
#    z -0.036190 0.033850 1.869230 
# 
# From -- ./inp_files/346012.got.cif
#   From: 2010.05.17/outbox.cif.g08.bks.cpg/sg2_174_cif.got.tgz:346012.got - 2010.06.03 11:33:40.
