data_PCOD9066091
_publ_section_title
;
Structure prediction by ZEFSAII (Michael W. Deem and Ramdas Pophale) SiO2 
 PCOD9066091
Probable space group: P -1
;
_chemical_formula_sum "Si O2"
_cell_formula_units_Z 12
_cell_length_a 9.166640
_cell_length_b 12.031344
_cell_length_c 9.258534
_cell_angle_alpha 69.516475
_cell_angle_beta 30.314519
_cell_angle_gamma 68.011183
_cell_volume 477.124343
_symmetry_space_group_name_H-M "P -1"
_symmetry_group_IT_number 2
_symmetry_cell_setting 'triclinic'
loop_
_space_group_symop_operation_xyz
x,y,z
-x,-y,-z
loop_
_atom_site_type_symbol
_atom_site_label
_atom_site_fract_x
_atom_site_fract_y
_atom_site_fract_z
Si Si1 0.568768 0.164654 0.444685
Si Si2 0.398545 0.088234 0.328900
Si Si3 0.181879 0.895045 0.296882
Si Si4 0.474463 0.346777 0.800968
Si Si5 0.029137 0.320685 0.951148
Si Si6 0.026365 0.471689 0.321649
O O1 0.562861 0.150613 0.283649
O O2 0.239515 0.206587 0.758100
O O3 0.672590 0.035720 0.484212
O O4 0.757111 0.268181 0.274765
O O5 0.082381 0.160813 0.526810
O O6 0.607921 0.062981 0.023156
O O7 0.381340 0.792241 0.262468
O O8 0.000000 0.000000 0.500000
O O9 0.225614 0.372666 0.880437
O O10 0.731816 0.425674 0.540470
O O11 0.306282 0.375197 0.083485
O O12 0.939862 0.412831 0.856969
O O13 0.000000 0.500000 0.500000
#
# Coordination Sequence:
#
# PCOD9066091 Si02
#       6
#     2   2   2   2   2   2
#     4  11  25  44  75 107 144 201 244 310 371 437
#     4  11  25  45  70 108 153 191 257 303 364 443
#     4  12  26  45  75 108 153 198 247 299 379 446
#     4  12  27  49  74 111 151 195 244 310 377 440
#     4  12  25  47  77 105 151 191 255 301 381 440
#     4  12  28  48  77 110 147 195 255 309 373 439
#
# _framework density 25.150677999999999
#
# number of rings (size 3 to 8) (size 9 to 14) (size 15 to 20)
#    0.000    0.333    0.000    8.000    7.000    5.333 
#    0.000    0.000    0.000    0.000    0.000    0.000 
#    0.000    0.000    0.000    0.000    0.000    0.000 
#
# Total GULP energy -67321.400671 kJ/mol
# GULP energy per Si atom -5610.116723 kJ/mol
# Density = 2.509343 g / cm^3
# Si number density = 25.150678 Si / 1000 Ang^3
#
#
#
# Elastic Constant Matrix: (Units=GPa)
#
#
# Indices 1 2 3 4 5 6 
#
# 1 109.0930 26.9123 38.5504 -3.1290 7.1792 -2.1640
# 2 26.9123 68.6872 12.5087 -0.5336 2.5141 -13.2020
# 3 38.5504 12.5087 139.0600 -7.5299 -1.6773 -1.9983
# 4 -3.1290 -0.5336 -7.5299 54.0014 9.7842 -0.9627
# 5 7.1792 2.5141 -1.6773 9.7842 47.9382 0.3729
# 6 -2.1640 -13.2020 -1.9983 -0.9627 0.3729 39.5518
#
#
#
# Elastic Compliance Matrix: (Units=1/GPa)
#
#
# Indices 1 2 3 4 5 6 
#
# 1 0.011235 -0.003994 -0.002760 0.000514 -0.001668 -0.000830
# 2 -0.003994 0.017268 -0.000368 0.000054 -0.000375 0.005532
# 3 -0.002760 -0.000368 0.008045 0.000864 0.000537 0.000149
# 4 0.000514 0.000054 0.000864 0.019407 -0.004015 0.000600
# 5 -0.001668 -0.000375 0.000537 -0.004015 0.021972 -0.000494
# 6 -0.000830 0.005532 0.000149 0.000600 -0.000494 0.027111
#
#
# Mechanical properties :
#
#
# Convention : Reuss Voigt Hill
#
# Bulk Modulus (GPa) = 44.83407 52.53145 48.68276
# Shear Modulus (GPa) = 39.45855 44.22286 41.84071
#
# Velocity S-wave (km/s) = 3.96521 4.19778 4.08315
# Velocity P-wave (km/s) = 6.23127 6.66537 6.45197
#
# Compressibility (1/GPa) = 0.02230447
#
# Stress axis : x y z
#
# Youngs Moduli (GPa) = 89.00813 57.91077 124.30653
#
# Poissons Ratio (x) = 0.23128 0.34303
# Poissons Ratio (y) = 0.35548 0.04577
# Poissons Ratio (z) = 0.24562 0.02132
#
# Static dielectric constant tensor:
#      x y z
#    x 2.039870 0.051170 0.001960 
#    y 0.051170 1.990030 0.016900 
#    z 0.001960 0.016900 1.906850 
# 
# From -- ./inp_files/175640.got.cif
#   From: 2010.05.17/outbox.cif.g08.bks.cpg/sg2_88_cif.got.tgz:175640.got - 2010.06.03 11:33:40.
