data_PCOD9066935
_publ_section_title
;
Structure prediction by ZEFSAII (Michael W. Deem and Ramdas Pophale) SiO2 
 PCOD9066935
Probable space group: P -1
;
_chemical_formula_sum "Si O2"
_cell_formula_units_Z 9
_cell_length_a 9.562085
_cell_length_b 8.419853
_cell_length_c 7.716270
_cell_angle_alpha 51.682322
_cell_angle_beta 56.403553
_cell_angle_gamma 86.836358
_cell_volume 364.482708
_symmetry_space_group_name_H-M "P -1"
_symmetry_group_IT_number 2
_symmetry_cell_setting 'triclinic'
loop_
_space_group_symop_operation_xyz
x,y,z
-x,-y,-z
loop_
_atom_site_type_symbol
_atom_site_label
_atom_site_fract_x
_atom_site_fract_y
_atom_site_fract_z
Si Si1 0.045503 0.191515 0.480421
Si Si2 0.726450 0.895887 0.328197
Si Si3 0.500000 0.500000 0.500000
Si Si4 0.341707 0.672967 0.953694
Si Si5 0.328833 0.754171 0.285718
O O1 0.107491 0.117498 0.666870
O O2 0.866280 0.238446 0.591997
O O3 0.212401 0.425082 0.142365
O O4 0.000000 0.000000 0.500000
O O5 0.667504 0.740883 0.302823
O O6 0.542935 0.781768 0.655197
O O7 0.746693 0.148835 0.118011
O O8 0.357180 0.617881 0.515822
O O9 0.360879 0.640296 0.167746
O O10 0.500000 0.000000 0.000000
#
# Coordination Sequence:
#
# PCOD9066935 Si02
#       5
#     2   2   1   2   2
#     4  12  28  45  73 109 145 190 240 295 353 426
#     4  11  26  47  76 107 142 194 233 294 362 425
#     4  12  26  44  80 104 140 192 240 290 364 418
#     4  11  25  47  73 105 149 185 240 290 357 429
#     4  12  26  48  72 106 145 190 239 296 358 420
#
# _framework density 24.692530999999999
#
# number of rings (size 3 to 8) (size 9 to 14) (size 15 to 20)
#    0.000    0.444    4.444    2.667    6.222    3.556 
#    0.000    0.000    0.000    0.000    0.000    0.000 
#    0.000    0.000    0.000    0.000    0.000    0.000 
#
# Total GULP energy -50185.364273 kJ/mol
# GULP energy per Si atom -5576.151586 kJ/mol
# Density = 2.463633 g / cm^3
# Si number density = 24.692531 Si / 1000 Ang^3
#
#
#
# Elastic Constant Matrix: (Units=GPa)
#
#
# Indices 1 2 3 4 5 6 
#
# 1 163.2783 23.7094 11.7633 -22.0850 -10.3496 -27.7506
# 2 23.7094 113.8411 21.2561 -44.8170 -4.4608 9.2922
# 3 11.7633 21.2561 62.2084 -19.1917 0.0330 1.2814
# 4 -22.0850 -44.8170 -19.1917 54.3455 -2.9279 -6.3860
# 5 -10.3496 -4.4608 0.0330 -2.9279 27.1485 -6.1631
# 6 -27.7506 9.2922 1.2814 -6.3860 -6.1631 56.2879
#
#
#
# Elastic Compliance Matrix: (Units=1/GPa)
#
#
# Indices 1 2 3 4 5 6 
#
# 1 0.007770 -0.000391 -0.000355 0.003507 0.004361 0.004778
# 2 -0.000391 0.013436 -0.001249 0.010542 0.003003 -0.000858
# 3 -0.000355 -0.001249 0.018197 0.005295 0.000265 0.000247
# 4 0.003507 0.010542 0.005295 0.031284 0.007396 0.004227
# 5 0.004361 0.003003 0.000265 0.007396 0.041381 0.007018
# 6 0.004778 -0.000858 0.000247 0.004227 0.007018 0.021506
#
#
# Mechanical properties :
#
#
# Convention : Reuss Voigt Hill
#
# Bulk Modulus (GPa) = 28.23681 50.30950 39.27315
# Shear Modulus (GPa) = 33.47440 46.39634 39.93537
#
# Velocity S-wave (km/s) = 3.68591 4.33940 4.02594
# Velocity P-wave (km/s) = 5.43827 6.74728 6.12783
#
# Compressibility (1/GPa) = 0.03541476
#
# Stress axis : x y z
#
# Youngs Moduli (GPa) = 128.70589 74.42417 54.95336
#
# Poissons Ratio (x) = 0.02907 0.01949
# Poissons Ratio (y) = 0.05028 0.06864
# Poissons Ratio (z) = 0.04565 0.09296
#
# Static dielectric constant tensor:
#      x y z
#    x 1.979640 0.028980 0.084330 
#    y 0.028980 1.954390 0.010750 
#    z 0.084330 0.010750 2.001890 
# 
# From -- ./inp_files/143907.got.cif
#   From: 2010.05.17/outbox.cif.g08.bks.cpg/sg2_72_cif.got.tgz:143907.got - 2010.06.03 11:33:40.
