data_PCOD9066932
_publ_section_title
;
Structure prediction by ZEFSAII (Michael W. Deem and Ramdas Pophale) SiO2 
 PCOD9066932
Probable space group: P -1
;
_chemical_formula_sum "Si O2"
_cell_formula_units_Z 15
_cell_length_a 9.330249
_cell_length_b 10.628566
_cell_length_c 16.570864
_cell_angle_alpha 34.702096
_cell_angle_beta 45.767613
_cell_angle_gamma 57.348162
_cell_volume 668.002091
_symmetry_space_group_name_H-M "P -1"
_symmetry_group_IT_number 2
_symmetry_cell_setting 'triclinic'
loop_
_space_group_symop_operation_xyz
x,y,z
-x,-y,-z
loop_
_atom_site_type_symbol
_atom_site_label
_atom_site_fract_x
_atom_site_fract_y
_atom_site_fract_z
Si Si1 0.067971 0.521629 0.334962
Si Si2 0.371310 0.891324 0.683457
Si Si3 0.720346 0.642041 0.506194
Si Si4 0.212566 0.975681 0.971898
Si Si5 0.000000 0.500000 0.000000
Si Si6 0.269216 0.432233 0.799594
Si Si7 0.960780 0.748824 0.675577
Si Si8 0.541185 0.761093 0.848905
O O1 0.171774 0.396922 0.431130
O O2 0.083749 0.404866 0.304296
O O3 0.837108 0.528964 0.448473
O O4 0.170354 0.771712 0.158082
O O5 0.526151 0.832655 0.723591
O O6 0.500000 0.000000 0.500000
O O7 0.264563 0.097488 0.652697
O O8 0.202631 0.691147 0.836813
O O9 0.492336 0.544816 0.656423
O O10 0.382266 0.891416 0.890948
O O11 0.273993 0.217049 0.855636
O O12 0.000000 0.000000 0.000000
O O13 0.848814 0.645921 0.032289
O O14 0.125248 0.621761 0.725559
O O15 0.762983 0.774554 0.792683
O O16 0.000000 0.000000 0.500000
O O17 0.500000 0.500000 0.000000
#
# Coordination Sequence:
#
# PCOD9066932 Si02
#       8
#     2   2   2   2   1   2   2   2
#     4  11  25  47  73 103 157 194 257 317 399 454
#     4  12  25  47  77 106 157 209 257 315 394 474
#     4  11  26  47  72 110 147 208 248 326 391 462
#     4  12  24  48  74 109 151 200 257 321 388 462
#     4  12  26  44  74 114 146 196 260 308 390 464
#     4  12  27  47  77 110 150 202 263 318 392 475
#     4  12  27  44  72 111 145 198 254 319 381 468
#     4  12  25  47  76 108 156 199 258 324 395 452
#
# _framework density 22.455020000000001
#
# number of rings (size 3 to 8) (size 9 to 14) (size 15 to 20)
#    0.000    0.267    4.000    4.800    3.733    2.133 
#    0.000    0.000    0.000    0.000    0.000    0.000 
#    0.000    0.000    0.000    0.000    0.000    0.000 
#
# Total GULP energy -83558.191161 kJ/mol
# GULP energy per Si atom -5570.546077 kJ/mol
# Density = 2.240391 g / cm^3
# Si number density = 22.455020 Si / 1000 Ang^3
#
#
#
# Elastic Constant Matrix: (Units=GPa)
#
#
# Indices 1 2 3 4 5 6 
#
# 1 52.9824 46.8557 11.9423 6.3561 -4.4958 -11.7469
# 2 46.8557 166.5191 26.1404 18.5692 -18.7488 -16.3776
# 3 11.9423 26.1404 69.3021 8.3623 -17.8350 -12.5002
# 4 6.3561 18.5692 8.3623 59.4169 -8.0599 -3.2830
# 5 -4.4958 -18.7488 -17.8350 -8.0599 48.6459 -5.0423
# 6 -11.7469 -16.3776 -12.5002 -3.2830 -5.0423 35.0075
#
#
#
# Elastic Compliance Matrix: (Units=1/GPa)
#
#
# Indices 1 2 3 4 5 6 
#
# 1 0.026200 -0.006663 -0.001020 -0.000288 -0.000021 0.005280
# 2 -0.006663 0.008618 -0.001062 -0.001438 0.002244 0.001605
# 3 -0.001020 -0.001062 0.017973 -0.000834 0.006617 0.006454
# 4 -0.000288 -0.001438 -0.000834 0.017770 0.002152 0.000909
# 5 -0.000021 0.002244 0.006617 0.002152 0.024949 0.007201
# 6 0.005280 0.001605 0.006454 0.000909 0.007201 0.034515
#
#
# Mechanical properties :
#
#
# Convention : Reuss Voigt Hill
#
# Bulk Modulus (GPa) = 28.32701 50.96449 39.64575
# Shear Modulus (GPa) = 31.39099 42.20509 36.79804
#
# Velocity S-wave (km/s) = 3.74297 4.34007 4.05253
# Velocity P-wave (km/s) = 5.59662 6.91812 6.29216
#
# Compressibility (1/GPa) = 0.03530200
#
# Stress axis : x y z
#
# Youngs Moduli (GPa) = 38.16779 116.03886 55.63784
#
# Poissons Ratio (x) = 0.77318 0.05674
# Poissons Ratio (y) = 0.25432 0.05907
# Poissons Ratio (z) = 0.03892 0.12320
#
# Static dielectric constant tensor:
#      x y z
#    x 1.903870 0.007150 0.061990 
#    y 0.007150 1.852620 0.020420 
#    z 0.061990 0.020420 1.974290 
# 
# From -- ./inp_files/559480.got.cif
#   From: 2010.05.17/outbox.cif.g08.bks.cpg/sg2_280_cif.got.tgz:559480.got - 2010.06.03 11:33:40.
