data_PCOD9066379
_publ_section_title
;
Structure prediction by ZEFSAII (Michael W. Deem and Ramdas Pophale) SiO2 
 PCOD9066379
Probable space group: P -1
;
_chemical_formula_sum "Si O2"
_cell_formula_units_Z 14
_cell_length_a 8.049501
_cell_length_b 11.975515
_cell_length_c 9.574872
_cell_angle_alpha 55.902606
_cell_angle_beta 104.719923
_cell_angle_gamma 66.712572
_cell_volume 547.788148
_symmetry_space_group_name_H-M "P -1"
_symmetry_group_IT_number 2
_symmetry_cell_setting 'triclinic'
loop_
_space_group_symop_operation_xyz
x,y,z
-x,-y,-z
loop_
_atom_site_type_symbol
_atom_site_label
_atom_site_fract_x
_atom_site_fract_y
_atom_site_fract_z
Si Si1 0.537532 0.811459 0.278303
Si Si2 0.761500 0.773539 0.639207
Si Si3 0.075827 0.040905 0.349339
Si Si4 0.428317 0.606699 0.056960
Si Si5 0.874532 0.771906 0.175201
Si Si6 0.218284 0.383787 0.962173
Si Si7 0.690777 0.302405 0.559073
O O1 0.604788 0.832311 0.430739
O O2 0.759392 0.727311 0.290178
O O3 0.464150 0.695778 0.363022
O O4 0.315996 0.009648 0.035483
O O5 0.756530 0.927011 0.588939
O O6 0.026791 0.602398 0.768243
O O7 0.724243 0.688497 0.817103
O O8 0.181954 0.882394 0.372871
O O9 0.000000 0.000000 0.500000
O O10 0.844103 0.229636 0.105817
O O11 0.554094 0.685451 0.019725
O O12 0.533329 0.463786 0.302540
O O13 0.500000 0.500000 0.000000
O O14 0.892152 0.683602 0.095282
O O15 0.110991 0.710093 0.323197
#
# Coordination Sequence:
#
# PCOD9066379 Si02
#       7
#     2   2   2   2   2   2   2
#     4  11  26  47  76 107 149 198 252 303 377 445
#     4  11  25  45  75 114 140 193 252 309 374 438
#     4  12  25  43  76 110 152 194 246 313 378 441
#     4  12  24  45  73 112 149 199 242 311 383 432
#     4  11  27  50  74 108 151 204 244 304 382 446
#     4  11  25  47  73 106 157 184 251 314 366 446
#     4  12  27  50  74 109 155 196 257 306 367 455
#
# _framework density 25.557324999999999
#
# number of rings (size 3 to 8) (size 9 to 14) (size 15 to 20)
#    0.000    0.571    2.857    3.857    8.000    3.429 
#    0.000    1.429    0.000    0.000    0.000    0.000 
#    0.000    0.000    0.000    0.000    0.000    0.000 
#
# Total GULP energy -78692.186019 kJ/mol
# GULP energy per Si atom -5620.870430 kJ/mol
# Density = 2.549916 g / cm^3
# Si number density = 25.557325 Si / 1000 Ang^3
#
#
#
# Elastic Constant Matrix: (Units=GPa)
#
#
# Indices 1 2 3 4 5 6 
#
# 1 167.1692 19.5546 72.0229 14.8831 -0.1383 13.4920
# 2 19.5546 110.5365 31.2494 7.4594 22.0263 -1.0402
# 3 72.0229 31.2494 164.7209 1.0794 15.8923 -2.5539
# 4 14.8831 7.4594 1.0794 34.7097 -5.9462 10.3342
# 5 -0.1383 22.0263 15.8923 -5.9462 46.7714 8.0261
# 6 13.4920 -1.0402 -2.5539 10.3342 8.0261 35.7470
#
#
#
# Elastic Compliance Matrix: (Units=1/GPa)
#
#
# Indices 1 2 3 4 5 6 
#
# 1 0.008044 -0.000676 -0.003606 -0.001926 0.001867 -0.003176
# 2 -0.000676 0.010925 -0.001153 -0.003870 -0.005745 0.002899
# 3 -0.003606 -0.001153 0.008151 0.000387 -0.002597 0.002381
# 4 -0.001926 -0.003870 0.000387 0.035230 0.008114 -0.011364
# 5 0.001867 -0.005745 -0.002597 0.008114 0.027655 -0.009613
# 6 -0.003176 0.002899 0.002381 -0.011364 -0.009613 0.034871
#
#
# Mechanical properties :
#
#
# Convention : Reuss Voigt Hill
#
# Bulk Modulus (GPa) = 61.52962 76.45338 68.99150
# Shear Modulus (GPa) = 35.42041 44.75227 40.08634
#
# Velocity S-wave (km/s) = 3.72683 4.18910 3.96471
# Velocity P-wave (km/s) = 6.53043 7.30599 6.92907
#
# Compressibility (1/GPa) = 0.01625233
#
# Stress axis : x y z
#
# Youngs Moduli (GPa) = 124.31935 91.52984 122.68379
#
# Poissons Ratio (x) = 0.06184 0.44236
# Poissons Ratio (y) = 0.08399 0.14142
# Poissons Ratio (z) = 0.44825 0.10551
#
# Static dielectric constant tensor:
#      x y z
#    x 2.012260 -0.007160 -0.001460 
#    y -0.007160 2.019220 -0.005530 
#    z -0.001460 -0.005530 1.953270 
# 
# From -- ./inp_files/185204.got.cif
#   From: 2010.05.17/outbox.cif.g08.bks.cpg/sg2_93_cif.got.tgz:185204.got - 2010.06.03 11:33:40.
