data_PCOD9066064
_publ_section_title
;
Structure prediction by ZEFSAII (Michael W. Deem and Ramdas Pophale) SiO2 
 PCOD9066064
Probable space group: P -1
;
_chemical_formula_sum "Si O2"
_cell_formula_units_Z 15
_cell_length_a 6.460880
_cell_length_b 15.399447
_cell_length_c 13.249427
_cell_angle_alpha 42.887752
_cell_angle_beta 119.584465
_cell_angle_gamma 132.308863
_cell_volume 663.463187
_symmetry_space_group_name_H-M "P -1"
_symmetry_group_IT_number 2
_symmetry_cell_setting 'triclinic'
loop_
_space_group_symop_operation_xyz
x,y,z
-x,-y,-z
loop_
_atom_site_type_symbol
_atom_site_label
_atom_site_fract_x
_atom_site_fract_y
_atom_site_fract_z
Si Si1 0.388209 0.346213 0.824982
Si Si2 0.742389 0.188449 0.785419
Si Si3 0.902828 0.576212 0.636426
Si Si4 0.000000 0.500000 0.500000
Si Si5 0.382007 0.542254 0.840737
Si Si6 0.832372 0.101885 0.481111
Si Si7 0.344642 0.842294 0.968483
Si Si8 0.069525 0.159327 0.272229
O O1 0.580920 0.465131 0.684521
O O2 0.383399 0.445892 0.829527
O O3 0.067506 0.239992 0.806010
O O4 0.516665 0.245790 0.967425
O O5 0.741331 0.324765 0.616190
O O6 0.539434 0.020065 0.842663
O O7 0.683779 0.183897 0.895488
O O8 0.969756 0.555675 0.556852
O O9 0.083737 0.526955 0.789997
O O10 0.018729 0.747822 0.545385
O O11 0.610659 0.717663 0.730171
O O12 0.500000 0.500000 0.000000
O O13 0.896514 0.146105 0.341349
O O14 0.500000 0.000000 0.500000
O O15 0.955728 0.997034 0.623279
O O16 0.049287 0.792614 0.889828
#
# Coordination Sequence:
#
# PCOD9066064 Si02
#       8
#     2   2   2   1   2   2   2   2
#     4  12  23  47  72 105 138 197 245 298 370 434
#     4  11  26  48  72 102 148 188 255 304 362 440
#     4  12  26  47  73 105 149 191 248 309 367 437
#     4  12  26  50  72 106 144 192 250 314 350 448
#     4  12  25  43  72 106 144 185 240 301 361 446
#     4  11  25  45  72 108 146 191 236 295 376 441
#     4  11  26  48  71 106 146 194 244 308 365 436
#     4  11  25  44  73 108 142 185 243 296 366 454
#
# _framework density 22.608640999999999
#
# number of rings (size 3 to 8) (size 9 to 14) (size 15 to 20)
#    0.000    0.533    5.333    2.000    3.733    3.733 
#    4.800    0.000    0.000    0.000    0.000    0.000 
#    0.000    0.000    0.000    0.000    0.000    0.000 
#
# Total GULP energy -83709.310860 kJ/mol
# GULP energy per Si atom -5580.620724 kJ/mol
# Density = 2.255718 g / cm^3
# Si number density = 22.608641 Si / 1000 Ang^3
#
#
#
# Elastic Constant Matrix: (Units=GPa)
#
#
# Indices 1 2 3 4 5 6 
#
# 1 69.1969 43.7220 11.0807 -4.4452 -9.6315 -5.1475
# 2 43.7220 121.7692 21.9194 -41.4927 4.1323 -7.1690
# 3 11.0807 21.9194 58.9371 -18.9506 -9.2495 -7.5086
# 4 -4.4452 -41.4927 -18.9506 37.6440 6.4539 3.2447
# 5 -9.6315 4.1323 -9.2495 6.4539 35.7497 -12.4634
# 6 -5.1475 -7.1690 -7.5086 3.2447 -12.4634 46.5636
#
#
#
# Elastic Compliance Matrix: (Units=1/GPa)
#
#
# Indices 1 2 3 4 5 6 
#
# 1 0.024804 -0.014245 -0.002087 -0.016345 0.012365 0.004661
# 2 -0.014245 0.022038 0.000279 0.025055 -0.011906 -0.003070
# 3 -0.002087 0.000279 0.021622 0.009833 0.004562 0.003835
# 4 -0.016345 0.025055 0.009833 0.060666 -0.017552 -0.005289
# 5 0.012365 -0.011906 0.004562 -0.017552 0.041413 0.012577
# 6 0.004661 -0.003070 0.003835 -0.005289 0.012577 0.025872
#
#
# Mechanical properties :
#
#
# Convention : Reuss Voigt Hill
#
# Bulk Modulus (GPa) = 27.50452 44.81637 36.16045
# Shear Modulus (GPa) = 20.77782 35.53688 28.15735
#
# Velocity S-wave (km/s) = 3.03482 3.96893 3.53289
# Velocity P-wave (km/s) = 4.94693 6.39288 5.71581
#
# Compressibility (1/GPa) = 0.03635766
#
# Stress axis : x y z
#
# Youngs Moduli (GPa) = 40.31557 45.37686 46.24914
#
# Poissons Ratio (x) = 0.64640 0.09650
# Poissons Ratio (y) = 0.57430 -0.01289
# Poissons Ratio (z) = 0.08412 -0.01264
#
# Static dielectric constant tensor:
#      x y z
#    x 1.804590 0.026300 0.042620 
#    y 0.026300 1.813830 -0.014740 
#    z 0.042620 -0.014740 1.927500 
# 
# From -- ./inp_files/71157.got.cif
#   From: 2010.05.17/outbox.cif.g08.bks.cpg/sg2_36_cif.got.tgz:71157.got - 2010.06.03 11:33:40.
