data_PCOD9066284
_publ_section_title
;
Structure prediction by ZEFSAII (Michael W. Deem and Ramdas Pophale) SiO2 
 PCOD9066284
Probable space group: P -1
;
_chemical_formula_sum "Si O2"
_cell_formula_units_Z 14
_cell_length_a 9.598833
_cell_length_b 15.437657
_cell_length_c 5.084419
_cell_angle_alpha 70.214257
_cell_angle_beta 109.033832
_cell_angle_gamma 116.895853
_cell_volume 618.680904
_symmetry_space_group_name_H-M "P -1"
_symmetry_group_IT_number 2
_symmetry_cell_setting 'triclinic'
loop_
_space_group_symop_operation_xyz
x,y,z
-x,-y,-z
loop_
_atom_site_type_symbol
_atom_site_label
_atom_site_fract_x
_atom_site_fract_y
_atom_site_fract_z
Si Si1 0.521658 0.940434 0.323971
Si Si2 0.756049 0.792509 0.186127
Si Si3 0.573632 0.465177 0.329315
Si Si4 0.071961 0.620269 0.909632
Si Si5 0.894528 0.632508 0.290505
Si Si6 0.848841 0.912879 0.612449
Si Si7 0.418388 0.730303 0.254798
O O1 0.699008 0.943254 0.448329
O O2 0.414226 0.823311 0.325864
O O3 0.500000 0.000000 0.500000
O O4 0.500000 0.000000 0.000000
O O5 0.792937 0.698905 0.216251
O O6 0.817743 0.820681 0.491030
O O7 0.568878 0.773028 0.103383
O O8 0.847053 0.879789 0.945736
O O9 0.500000 0.500000 0.500000
O O10 0.764731 0.520968 0.366866
O O11 0.540910 0.349134 0.460349
O O12 0.500000 0.500000 0.000000
O O13 0.034687 0.651613 0.567978
O O14 0.255493 0.671091 0.059002
O O15 0.000000 0.500000 0.000000
O O16 0.967866 0.649808 0.030176
O O17 0.000000 0.000000 0.500000
#
# Coordination Sequence:
#
# PCOD9066284 Si02
#       7
#     2   2   2   2   2   2   2
#     4  11  26  47  72 106 142 192 249 300 371 444
#     4  11  25  45  73 107 135 190 244 294 371 441
#     4  12  26  42  75 110 147 194 249 303 366 437
#     4  12  27  46  66 106 155 199 244 302 369 436
#     4  12  26  45  69 106 148 192 249 296 360 449
#     4  11  25  47  74 102 141 177 239 317 370 426
#     4  11  27  48  76 108 153 201 247 308 369 442
#
# _framework density 22.628789000000001
#
# number of rings (size 3 to 8) (size 9 to 14) (size 15 to 20)
#    0.000    0.571    2.857    4.286    4.000    8.000 
#    0.000    0.000    0.000    0.000    0.000    0.000 
#    0.000    0.000    0.000    0.000    0.000    0.000 
#
# Total GULP energy -78394.161684 kJ/mol
# GULP energy per Si atom -5599.582977 kJ/mol
# Density = 2.257729 g / cm^3
# Si number density = 22.628789 Si / 1000 Ang^3
#
#
#
# Elastic Constant Matrix: (Units=GPa)
#
#
# Indices 1 2 3 4 5 6 
#
# 1 68.2922 45.3507 9.7447 11.7124 -10.6832 7.2671
# 2 45.3507 141.8295 41.4727 0.6692 1.1126 -6.5624
# 3 9.7447 41.4727 131.7571 0.8288 -6.3564 -10.1646
# 4 11.7124 0.6692 0.8288 38.5772 2.8024 -0.0780
# 5 -10.6832 1.1126 -6.3564 2.8024 30.6351 6.3830
# 6 7.2671 -6.5624 -10.1646 -0.0780 6.3830 53.7836
#
#
#
# Elastic Compliance Matrix: (Units=1/GPa)
#
#
# Indices 1 2 3 4 5 6 
#
# 1 0.023352 -0.008031 0.000951 -0.007739 0.010425 -0.005204
# 2 -0.008031 0.010565 -0.002781 0.002647 -0.004501 0.002387
# 3 0.000951 -0.002781 0.008568 -0.000573 0.002074 0.000904
# 4 -0.007739 0.002647 -0.000573 0.028675 -0.005955 0.002009
# 5 0.010425 -0.004501 0.002074 -0.005955 0.038701 -0.006167
# 6 -0.005204 0.002387 0.000904 0.002009 -0.006167 0.020493
#
#
# Mechanical properties :
#
#
# Convention : Reuss Voigt Hill
#
# Bulk Modulus (GPa) = 43.93113 59.44613 51.68863
# Shear Modulus (GPa) = 31.71270 40.95322 36.33296
#
# Velocity S-wave (km/s) = 3.74763 4.25877 4.01135
# Velocity P-wave (km/s) = 6.17918 7.10704 6.65929
#
# Compressibility (1/GPa) = 0.02276290
#
# Stress axis : x y z
#
# Youngs Moduli (GPa) = 42.82243 94.65015 116.70920
#
# Poissons Ratio (x) = 0.76015 -0.11098
# Poissons Ratio (y) = 0.34391 0.32460
# Poissons Ratio (z) = -0.04072 0.26325
#
# Static dielectric constant tensor:
#      x y z
#    x 1.931420 0.079500 -0.031370 
#    y 0.079500 2.042990 0.025920 
#    z -0.031370 0.025920 1.833830 
# 
# From -- ./inp_files/34820.got.cif
#   From: 2010.05.17/outbox.cif.g08.bks.cpg/sg2_18_cif.got.tgz:34820.got - 2010.06.03 11:33:40.
