data_PCOD9066953
_publ_section_title
;
Structure prediction by ZEFSAII (Michael W. Deem and Ramdas Pophale) SiO2 
 PCOD9066953
Probable space group: P -1
;
_chemical_formula_sum "Si O2"
_cell_formula_units_Z 14
_cell_length_a 12.975748
_cell_length_b 21.265179
_cell_length_c 5.182448
_cell_angle_alpha 113.418883
_cell_angle_beta 112.449413
_cell_angle_gamma 24.093261
_cell_volume 534.978985
_symmetry_space_group_name_H-M "P -1"
_symmetry_group_IT_number 2
_symmetry_cell_setting 'triclinic'
loop_
_space_group_symop_operation_xyz
x,y,z
-x,-y,-z
loop_
_atom_site_type_symbol
_atom_site_label
_atom_site_fract_x
_atom_site_fract_y
_atom_site_fract_z
Si Si1 0.632411 0.647262 0.711120
Si Si2 0.649292 0.089260 0.418572
Si Si3 0.089521 0.236422 0.644272
Si Si4 0.284551 0.074910 0.059960
Si Si5 0.333635 0.601009 0.757016
Si Si6 0.142764 0.849193 0.810476
Si Si7 0.804700 0.679342 0.277314
O O1 0.458889 0.777440 0.540058
O O2 0.425458 0.711884 0.753012
O O3 0.911988 0.477957 0.586143
O O4 0.720042 0.656304 0.018979
O O5 0.422193 0.181416 0.516214
O O6 0.673906 0.028606 0.092959
O O7 0.926324 0.941003 0.560484
O O8 0.065642 0.213689 0.862472
O O9 0.160067 0.276387 0.810848
O O10 0.853813 0.357818 0.423517
O O11 0.270710 0.100070 0.386651
O O12 0.500000 0.000000 0.000000
O O13 0.500000 0.500000 0.500000
O O14 0.197717 0.750878 0.876678
O O15 0.500000 0.500000 0.000000
O O16 0.000000 0.000000 0.000000
#
# Coordination Sequence:
#
# PCOD9066953 Si02
#       7
#     2   2   2   2   2   2   2
#     4  11  26  47  74 109 158 205 259 322 410 472
#     4  12  25  46  76 109 152 201 264 327 394 470
#     4  12  26  47  75 111 149 204 259 325 389 477
#     4  12  25  42  75 108 151 193 257 320 392 452
#     4  12  29  54  79 114 164 217 267 329 409 486
#     4  12  27  49  81 118 155 208 275 332 396 480
#     4  11  25  47  73 111 156 201 261 323 405 480
#
# _framework density 26.169250999999999
#
# number of rings (size 3 to 8) (size 9 to 14) (size 15 to 20)
#    0.000    0.286    4.286    3.857    4.000    2.286 
#    2.571    0.000    0.000    0.000    0.000    0.000 
#    0.000    0.000    0.000    0.000    0.000    0.000 
#
# Total GULP energy -78109.681777 kJ/mol
# GULP energy per Si atom -5579.262984 kJ/mol
# Density = 2.610969 g / cm^3
# Si number density = 26.169251 Si / 1000 Ang^3
#
#
#
# Elastic Constant Matrix: (Units=GPa)
#
#
# Indices 1 2 3 4 5 6 
#
# 1 101.7497 51.9548 15.8829 -7.7937 17.2272 -14.6960
# 2 51.9548 146.4151 52.8302 -36.5455 6.6766 -24.6604
# 3 15.8829 52.8302 85.1748 -14.4758 -3.2979 -17.8543
# 4 -7.7937 -36.5455 -14.4758 55.9510 -3.0869 -1.9288
# 5 17.2272 6.6766 -3.2979 -3.0869 42.2936 -9.2970
# 6 -14.6960 -24.6604 -17.8543 -1.9288 -9.2970 58.2130
#
#
#
# Elastic Compliance Matrix: (Units=1/GPa)
#
#
# Indices 1 2 3 4 5 6 
#
# 1 0.012942 -0.004738 0.000221 -0.001463 -0.004490 0.000562
# 2 -0.004738 0.012343 -0.005110 0.006211 0.000646 0.002774
# 3 0.000221 -0.005110 0.015828 0.001050 0.002735 0.003217
# 4 -0.001463 0.006211 0.001050 0.022241 0.002125 0.003660
# 5 -0.004490 0.000646 0.002735 0.002125 0.026687 0.004312
# 6 0.000562 0.002774 0.003217 0.003660 0.004312 0.020292
#
#
# Mechanical properties :
#
#
# Convention : Reuss Voigt Hill
#
# Bulk Modulus (GPa) = 45.74927 63.85282 54.80104
# Shear Modulus (GPa) = 36.52998 45.46965 40.99982
#
# Velocity S-wave (km/s) = 3.74024 4.17288 3.96247
# Velocity P-wave (km/s) = 6.01437 6.90436 6.47467
#
# Compressibility (1/GPa) = 0.02185827
#
# Stress axis : x y z
#
# Youngs Moduli (GPa) = 77.26737 81.01643 63.18057
#
# Poissons Ratio (x) = 0.38384 -0.01394
# Poissons Ratio (y) = 0.36608 0.32287
# Poissons Ratio (z) = -0.01705 0.41401
#
# Static dielectric constant tensor:
#      x y z
#    x 2.367910 -0.929880 -0.315040 
#    y -0.929880 4.931660 0.815260 
#    z -0.315040 0.815260 2.278090 
# 
# From -- ./inp_files/101307.got.cif
#   From: 2010.05.17/outbox.cif.g08.bks.cpg/sg2_51_cif.got.tgz:101307.got - 2010.06.03 11:33:40.
