data_PCOD9066052
_publ_section_title
;
Structure prediction by ZEFSAII (Michael W. Deem and Ramdas Pophale) SiO2 
 PCOD9066052
Probable space group: P -1
;
_chemical_formula_sum "Si O2"
_cell_formula_units_Z 12
_cell_length_a 8.764900
_cell_length_b 5.637402
_cell_length_c 14.678728
_cell_angle_alpha 65.041204
_cell_angle_beta 47.600514
_cell_angle_gamma 84.146871
_cell_volume 467.183135
_symmetry_space_group_name_H-M "P -1"
_symmetry_group_IT_number 2
_symmetry_cell_setting 'triclinic'
loop_
_space_group_symop_operation_xyz
x,y,z
-x,-y,-z
loop_
_atom_site_type_symbol
_atom_site_label
_atom_site_fract_x
_atom_site_fract_y
_atom_site_fract_z
Si Si1 0.276979 0.803331 0.647702
Si Si2 0.032622 0.118158 0.571771
Si Si3 0.579097 0.329272 0.917602
Si Si4 0.784420 0.124325 0.136334
Si Si5 0.012178 0.704922 0.154765
Si Si6 0.624703 0.333714 0.702666
O O1 0.216905 0.491264 0.692903
O O2 0.500000 0.000000 0.500000
O O3 0.099662 0.927301 0.650935
O O4 0.277175 0.770624 0.761293
O O5 0.229767 0.395895 0.448693
O O6 0.805043 0.173751 0.675573
O O7 0.000000 0.000000 0.500000
O O8 0.828904 0.364895 0.826957
O O9 0.543852 0.426855 0.815449
O O10 0.500000 0.500000 0.000000
O O11 0.500000 0.000000 0.000000
O O12 0.579229 0.882442 0.224593
O O13 0.978685 0.999380 0.109801
O O14 0.877825 0.323878 0.982858
#
# Coordination Sequence:
#
# PCOD9066052 Si02
#       6
#     2   2   2   2   2   2
#     4  12  26  43  71 105 143 195 243 310 377 457
#     4  11  25  44  73 102 145 193 250 313 374 451
#     4  12  28  47  79 113 150 199 254 316 379 452
#     4  11  25  46  70 103 148 185 252 301 389 439
#     4  11  26  45  72 103 144 191 247 310 377 444
#     4  11  25  46  70 106 142 195 249 313 376 449
#
# _framework density 25.685858
#
# number of rings (size 3 to 8) (size 9 to 14) (size 15 to 20)
#    0.000    0.667    1.667    4.500    7.000    8.000 
#    0.000    0.000    0.000    0.000    0.000    0.000 
#    0.000    0.000    0.000    0.000    0.000    0.000 
#
# Total GULP energy -67086.307448 kJ/mol
# GULP energy per Si atom -5590.525621 kJ/mol
# Density = 2.562740 g / cm^3
# Si number density = 25.685858 Si / 1000 Ang^3
#
#
#
# Elastic Constant Matrix: (Units=GPa)
#
#
# Indices 1 2 3 4 5 6 
#
# 1 127.9539 35.8630 31.2323 -9.0000 1.9081 1.5525
# 2 35.8630 72.5624 23.7919 0.7994 -2.9109 8.3325
# 3 31.2323 23.7919 98.7460 -17.9854 -18.9520 22.6137
# 4 -9.0000 0.7994 -17.9854 51.3088 11.2392 0.4051
# 5 1.9081 -2.9109 -18.9520 11.2392 54.1837 -7.5777
# 6 1.5525 8.3325 22.6137 0.4051 -7.5777 43.3657
#
#
#
# Elastic Compliance Matrix: (Units=1/GPa)
#
#
# Indices 1 2 3 4 5 6 
#
# 1 0.009686 -0.004228 -0.002442 0.001219 -0.001470 0.001471
# 2 -0.004228 0.016973 -0.002682 -0.002001 0.000308 -0.001639
# 3 -0.002442 -0.002682 0.014348 0.003982 0.003247 -0.006349
# 4 0.001219 -0.002001 0.003982 0.021956 -0.003673 -0.002583
# 5 -0.001470 0.000308 0.003247 -0.003673 0.020694 0.001951
# 6 0.001471 -0.001639 -0.006349 -0.002583 0.001951 0.026998
#
#
# Mechanical properties :
#
#
# Convention : Reuss Voigt Hill
#
# Bulk Modulus (GPa) = 44.83655 53.44855 49.14255
# Shear Modulus (GPa) = 36.55169 43.66332 40.10751
#
# Velocity S-wave (km/s) = 3.77640 4.12745 3.95582
# Velocity P-wave (km/s) = 6.04223 6.60062 6.32759
#
# Compressibility (1/GPa) = 0.02230323
#
# Stress axis : x y z
#
# Youngs Moduli (GPa) = 103.24014 58.91759 69.69683
#
# Poissons Ratio (x) = 0.24910 0.17018
# Poissons Ratio (y) = 0.43649 0.18694
# Poissons Ratio (z) = 0.25208 0.15803
#
# Static dielectric constant tensor:
#      x y z
#    x 2.068980 0.053200 -0.020960 
#    y 0.053200 2.196230 0.017900 
#    z -0.020960 0.017900 2.046460 
# 
# From -- ./inp_files/38672.got.cif
#   From: 2010.05.17/outbox.cif.g08.bks.cpg/sg2_20_cif.got.tgz:38672.got - 2010.06.03 11:33:40.
