data_PCOD9066227
_publ_section_title
;
Structure prediction by ZEFSAII (Michael W. Deem and Ramdas Pophale) SiO2 
 PCOD9066227
Probable space group: P -1
;
_chemical_formula_sum "Si O2"
_cell_formula_units_Z 12
_cell_length_a 10.905245
_cell_length_b 7.166656
_cell_length_c 11.254450
_cell_angle_alpha 132.559866
_cell_angle_beta 48.855662
_cell_angle_gamma 116.060069
_cell_volume 487.859004
_symmetry_space_group_name_H-M "P -1"
_symmetry_group_IT_number 2
_symmetry_cell_setting 'triclinic'
loop_
_space_group_symop_operation_xyz
x,y,z
-x,-y,-z
loop_
_atom_site_type_symbol
_atom_site_label
_atom_site_fract_x
_atom_site_fract_y
_atom_site_fract_z
Si Si1 0.539855 0.831795 0.784921
Si Si2 0.599299 0.733759 0.332531
Si Si3 0.970119 0.743790 0.714109
Si Si4 0.628709 0.720962 0.039616
Si Si5 0.090413 0.297676 0.534665
Si Si6 0.055431 0.246841 0.794226
O O1 0.486074 0.536687 0.700721
O O2 0.733818 0.825076 0.643121
O O3 0.449834 0.001594 0.815859
O O4 0.500000 0.000000 0.000000
O O5 0.673873 0.696101 0.137327
O O6 0.749222 0.768579 0.340824
O O7 0.500000 0.000000 0.500000
O O8 0.003158 0.716998 0.538697
O O9 0.097890 0.604303 0.658408
O O10 0.786354 0.680956 0.839980
O O11 0.987166 0.040790 0.838120
O O12 0.500000 0.500000 0.000000
O O13 0.001780 0.223693 0.680411
O O14 0.000000 0.500000 0.000000
#
# Coordination Sequence:
#
# PCOD9066227 Si02
#       6
#     2   2   2   2   2   2
#     4  12  24  46  75 106 142 190 244 293 361 424
#     4  12  27  46  71 110 146 187 240 300 365 424
#     4  11  25  46  70 103 141 187 238 294 358 423
#     4  12  25  46  76 103 143 190 246 298 355 433
#     4  11  25  45  72 100 141 188 242 290 352 426
#     4  12  27  44  69 104 147 186 233 292 366 425
#
# _framework density 24.597270999999999
#
# number of rings (size 3 to 8) (size 9 to 14) (size 15 to 20)
#    0.000    0.333    3.333    4.500    0.000   13.333 
#    0.000    0.000    0.000    0.000    0.000    0.000 
#    0.000    0.000    0.000    0.000    0.000    0.000 
#
# Total GULP energy -67076.824487 kJ/mol
# GULP energy per Si atom -5589.735374 kJ/mol
# Density = 2.454129 g / cm^3
# Si number density = 24.597271 Si / 1000 Ang^3
#
#
#
# Elastic Constant Matrix: (Units=GPa)
#
#
# Indices 1 2 3 4 5 6 
#
# 1 68.3063 23.1410 25.4124 -1.0970 -13.7943 2.2479
# 2 23.1410 143.4533 50.4392 18.9278 -15.8739 6.0849
# 3 25.4124 50.4392 130.5455 2.9682 -34.5062 3.3879
# 4 -1.0970 18.9278 2.9682 31.9185 -10.0132 -3.3234
# 5 -13.7943 -15.8739 -34.5062 -10.0132 40.5374 2.3968
# 6 2.2479 6.0849 3.3879 -3.3234 2.3968 45.7046
#
#
#
# Elastic Compliance Matrix: (Units=1/GPa)
#
#
# Indices 1 2 3 4 5 6 
#
# 1 0.016867 -0.002190 -0.001269 0.003416 0.004672 -0.000441
# 2 -0.002190 0.009144 -0.003291 -0.005729 -0.001309 -0.001214
# 3 -0.001269 -0.003291 0.011484 0.003598 0.008977 -0.000560
# 4 0.003416 -0.005729 0.003598 0.038316 0.011297 0.002522
# 5 0.004672 -0.001309 0.008977 0.011297 0.036284 -0.001802
# 6 -0.000441 -0.001214 -0.000560 0.002522 -0.001802 0.022382
#
#
# Mechanical properties :
#
#
# Convention : Reuss Voigt Hill
#
# Bulk Modulus (GPa) = 41.67364 60.03225 50.85295
# Shear Modulus (GPa) = 32.05649 39.85292 35.95471
#
# Velocity S-wave (km/s) = 3.61398 4.02956 3.82741
# Velocity P-wave (km/s) = 5.86461 6.79035 6.34439
#
# Compressibility (1/GPa) = 0.02399598
#
# Stress axis : x y z
#
# Youngs Moduli (GPa) = 59.28875 109.36462 87.07625
#
# Poissons Ratio (x) = 0.23949 0.11046
# Poissons Ratio (y) = 0.12983 0.28656
# Poissons Ratio (z) = 0.07521 0.35991
#
# Static dielectric constant tensor:
#      x y z
#    x 1.994790 0.047100 0.106940 
#    y 0.047100 2.179620 0.266260 
#    z 0.106940 0.266260 2.228070 
# 
# From -- ./inp_files/230935.got.cif
#   From: 2010.05.17/outbox.cif.g08.bks.cpg/sg2_116_cif.got.tgz:230935.got - 2010.06.03 11:33:40.
