data_PCOD9066655
_publ_section_title
;
Structure prediction by ZEFSAII (Michael W. Deem and Ramdas Pophale) SiO2 
 PCOD9066655
Probable space group: P -1
;
_chemical_formula_sum "Si O2"
_cell_formula_units_Z 16
_cell_length_a 19.580682
_cell_length_b 7.883261
_cell_length_c 8.456312
_cell_angle_alpha 67.188831
_cell_angle_beta 68.378539
_cell_angle_gamma 35.122165
_cell_volume 688.984665
_symmetry_space_group_name_H-M "P -1"
_symmetry_group_IT_number 2
_symmetry_cell_setting 'triclinic'
loop_
_space_group_symop_operation_xyz
x,y,z
-x,-y,-z
loop_
_atom_site_type_symbol
_atom_site_label
_atom_site_fract_x
_atom_site_fract_y
_atom_site_fract_z
Si Si1 0.487052 0.317085 0.503594
Si Si2 0.993373 0.804798 0.127359
Si Si3 0.765942 0.058405 0.089865
Si Si4 0.739099 0.749564 0.941065
Si Si5 0.905789 0.071722 0.447454
Si Si6 0.711982 0.774903 0.308232
Si Si7 0.394835 0.320555 0.890917
Si Si8 0.722893 0.151757 0.719251
O O1 0.500000 0.500000 0.500000
O O2 0.432143 0.284939 0.691106
O O3 0.392591 0.519138 0.367978
O O4 0.607348 0.993301 0.445572
O O5 0.121771 0.476649 0.085313
O O6 0.885763 0.922814 0.086868
O O7 0.969616 0.862767 0.313806
O O8 0.000000 0.000000 0.000000
O O9 0.645811 0.394962 0.130162
O O10 0.780212 0.833717 0.243581
O O11 0.744669 0.102279 0.905294
O O12 0.697042 0.984830 0.767617
O O13 0.671196 0.881093 0.120771
O O14 0.718232 0.577018 0.986218
O O15 0.802194 0.425608 0.365003
O O16 0.836598 0.035139 0.595858
O O17 0.000000 0.000000 0.500000
O O18 0.500000 0.000000 0.000000
#
# Coordination Sequence:
#
# PCOD9066655 Si02
#       8
#     2   2   2   2   2   2   2   2
#     4  12  26  48  74 106 150 187 237 306 358 427
#     4  12  23  48  73  99 149 188 241 297 364 428
#     4  11  25  46  73 105 143 191 241 294 362 437
#     4  11  26  45  75 104 139 197 240 296 366 429
#     4  12  28  46  71 110 145 190 246 302 358 428
#     4  11  26  45  74 102 144 188 243 292 366 426
#     4  12  26  45  73 106 143 193 241 289 367 434
#     4  11  28  46  72 109 143 185 248 299 359 431
#
# _framework density 23.222579
#
# number of rings (size 3 to 8) (size 9 to 14) (size 15 to 20)
#    0.000    0.500    3.750    3.000    5.250    4.500 
#    0.000    0.000    0.000    0.000    0.000    0.000 
#    0.000    0.000    0.000    0.000    0.000    0.000 
#
# Total GULP energy -89272.057381 kJ/mol
# GULP energy per Si atom -5579.503586 kJ/mol
# Density = 2.316972 g / cm^3
# Si number density = 23.222579 Si / 1000 Ang^3
#
#
#
# Elastic Constant Matrix: (Units=GPa)
#
#
# Indices 1 2 3 4 5 6 
#
# 1 80.0560 16.6660 38.2236 0.8116 -13.5820 -14.4500
# 2 16.6660 102.1655 52.1486 11.3517 1.9991 -4.0243
# 3 38.2236 52.1486 155.9235 7.3650 -25.0592 -2.2888
# 4 0.8116 11.3517 7.3650 40.7074 3.8988 0.0405
# 5 -13.5820 1.9991 -25.0592 3.8988 47.7854 -7.6437
# 6 -14.4500 -4.0243 -2.2888 0.0405 -7.6437 34.5640
#
#
#
# Elastic Compliance Matrix: (Units=1/GPa)
#
#
# Indices 1 2 3 4 5 6 
#
# 1 0.016108 -0.000988 -0.002818 0.000043 0.004320 0.007388
# 2 -0.000988 0.012452 -0.004259 -0.002412 -0.002817 0.000135
# 3 -0.002818 -0.004259 0.009255 -0.000840 0.004281 -0.000113
# 4 0.000043 -0.002412 -0.000840 0.025636 -0.002566 -0.000916
# 5 0.004320 -0.002817 0.004281 -0.002566 0.025927 0.007498
# 6 0.007388 0.000135 -0.000113 -0.000916 0.007498 0.033688
#
#
# Mechanical properties :
#
#
# Convention : Reuss Voigt Hill
#
# Bulk Modulus (GPa) = 46.11377 61.35795 53.73586
# Shear Modulus (GPa) = 34.14768 40.01847 37.08307
#
# Velocity S-wave (km/s) = 3.83881 4.15572 4.00040
# Velocity P-wave (km/s) = 6.28880 7.03603 6.67288
#
# Compressibility (1/GPa) = 0.02168549
#
# Stress axis : x y z
#
# Youngs Moduli (GPa) = 62.07965 80.31099 108.05385
#
# Poissons Ratio (x) = 0.07933 0.30447
# Poissons Ratio (y) = 0.06132 0.46021
# Poissons Ratio (z) = 0.17492 0.34205
#
# Static dielectric constant tensor:
#      x y z
#    x 2.247650 -0.146570 -0.135600 
#    y -0.146570 2.852410 0.316250 
#    z -0.135600 0.316250 2.020140 
# 
# From -- ./inp_files/343420.got.cif
#   From: 2010.05.17/outbox.cif.g08.bks.cpg/sg2_172_cif.got.tgz:343420.got - 2010.06.03 11:33:40.
