data_PCOD9066898
_publ_section_title
;
Structure prediction by ZEFSAII (Michael W. Deem and Ramdas Pophale) SiO2 
 PCOD9066898
Probable space group: P -1
;
_chemical_formula_sum "Si O2"
_cell_formula_units_Z 12
_cell_length_a 17.009025
_cell_length_b 5.050537
_cell_length_c 8.979599
_cell_angle_alpha 125.010347
_cell_angle_beta 124.566823
_cell_angle_gamma 60.953280
_cell_volume 505.416347
_symmetry_space_group_name_H-M "P -1"
_symmetry_group_IT_number 2
_symmetry_cell_setting 'triclinic'
loop_
_space_group_symop_operation_xyz
x,y,z
-x,-y,-z
loop_
_atom_site_type_symbol
_atom_site_label
_atom_site_fract_x
_atom_site_fract_y
_atom_site_fract_z
Si Si1 0.022676 0.914897 0.826940
Si Si2 0.588368 0.703120 0.052144
Si Si3 0.449115 0.273713 0.654142
Si Si4 0.257057 0.446834 0.353916
Si Si5 0.060048 0.665363 0.379626
Si Si6 0.761548 0.313540 0.925931
O O1 0.957680 0.645560 0.647311
O O2 0.137695 0.744794 0.891738
O O3 0.994509 0.247090 0.808571
O O4 0.000000 0.000000 0.000000
O O5 0.539166 0.394701 0.864143
O O6 0.683452 0.608114 0.019385
O O7 0.606899 0.773536 0.267343
O O8 0.500000 0.000000 0.000000
O O9 0.361952 0.502878 0.537586
O O10 0.500000 0.000000 0.500000
O O11 0.173358 0.604001 0.434883
O O12 0.229267 0.587047 0.204104
O O13 0.264938 0.048061 0.225525
O O14 0.000000 0.000000 0.500000
#
# Coordination Sequence:
#
# PCOD9066898 Si02
#       6
#     2   2   2   2   2   2
#     4  12  23  46  70  99 142 188 234 287 348 423
#     4  11  27  46  72 107 139 188 242 291 364 430
#     4  11  25  47  72 101 145 184 234 300 358 421
#     4  12  25  45  72 104 140 191 235 289 363 419
#     4  12  26  44  68 106 146 185 238 290 350 418
#     4  12  26  44  75 103 139 188 243 287 359 425
#
# _framework density 23.742804
#
# number of rings (size 3 to 8) (size 9 to 14) (size 15 to 20)
#    0.000    0.333    5.000    3.000    7.000    2.667 
#    0.000    0.000    0.000    0.000    0.000    0.000 
#    0.000    0.000    0.000    0.000    0.000    0.000 
#
# Total GULP energy -66946.273294 kJ/mol
# GULP energy per Si atom -5578.856108 kJ/mol
# Density = 2.368876 g / cm^3
# Si number density = 23.742804 Si / 1000 Ang^3
#
#
#
# Elastic Constant Matrix: (Units=GPa)
#
#
# Indices 1 2 3 4 5 6 
#
# 1 88.6336 20.1598 19.3049 11.0205 -8.5210 -29.7860
# 2 20.1598 77.6386 3.0909 3.6307 -3.1985 -14.8310
# 3 19.3049 3.0909 73.4746 6.7636 -23.4850 -3.7440
# 4 11.0205 3.6307 6.7636 49.2463 -16.6748 -0.5672
# 5 -8.5210 -3.1985 -23.4850 -16.6748 38.3873 -1.1857
# 6 -29.7860 -14.8310 -3.7440 -0.5672 -1.1857 67.6701
#
#
#
# Elastic Compliance Matrix: (Units=1/GPa)
#
#
# Indices 1 2 3 4 5 6 
#
# 1 0.014827 -0.002490 -0.003199 -0.002563 0.000192 0.005785
# 2 -0.002490 0.013935 0.000464 -0.000220 0.000859 0.001997
# 3 -0.003199 0.000464 0.017779 0.001985 0.011065 -0.000112
# 4 -0.002563 -0.000220 0.001985 0.024412 0.011210 -0.000666
# 5 0.000192 0.000859 0.011065 0.011210 0.037854 0.001642
# 6 0.005785 0.001997 -0.000112 -0.000666 0.001642 0.017779
#
#
# Mechanical properties :
#
#
# Convention : Reuss Voigt Hill
#
# Bulk Modulus (GPa) = 27.70588 36.09533 31.90060
# Shear Modulus (GPa) = 33.54244 44.20683 38.87464
#
# Velocity S-wave (km/s) = 3.76272 4.31966 4.05077
# Velocity P-wave (km/s) = 5.52919 6.33363 5.94503
#
# Compressibility (1/GPa) = 0.03609342
#
# Stress axis : x y z
#
# Youngs Moduli (GPa) = 67.44534 71.75987 56.24533
#
# Poissons Ratio (x) = 0.17866 0.17992
# Poissons Ratio (y) = 0.16792 -0.02612
# Poissons Ratio (z) = 0.21574 -0.03333
#
# Static dielectric constant tensor:
#      x y z
#    x 2.094820 0.052480 -0.122300 
#    y 0.052480 1.892610 -0.061630 
#    z -0.122300 -0.061630 1.945160 
# 
# From -- ./inp_files/38283.got.cif
#   From: 2010.05.17/outbox.cif.g08.bks.cpg/sg2_20_cif.got.tgz:38283.got - 2010.06.03 11:33:40.
