data_PCOD9066575
_publ_section_title
;
Structure prediction by ZEFSAII (Michael W. Deem and Ramdas Pophale) SiO2 
 PCOD9066575
Probable space group: P -1
;
_chemical_formula_sum "Si O2"
_cell_formula_units_Z 12
_cell_length_a 16.286290
_cell_length_b 6.700684
_cell_length_c 8.977657
_cell_angle_alpha 98.299202
_cell_angle_beta 131.123224
_cell_angle_gamma 51.245570
_cell_volume 512.478325
_symmetry_space_group_name_H-M "P -1"
_symmetry_group_IT_number 2
_symmetry_cell_setting 'triclinic'
loop_
_space_group_symop_operation_xyz
x,y,z
-x,-y,-z
loop_
_atom_site_type_symbol
_atom_site_label
_atom_site_fract_x
_atom_site_fract_y
_atom_site_fract_z
Si Si1 0.860828 0.819626 0.438923
Si Si2 0.023018 0.950457 0.198868
Si Si3 0.353097 0.255879 0.757819
Si Si4 0.309312 0.312945 0.410447
Si Si5 0.269557 0.719218 0.907839
Si Si6 0.483417 0.316856 0.375702
O O1 0.750913 0.805672 0.387798
O O2 0.000000 0.500000 0.500000
O O3 0.915324 0.928467 0.627982
O O4 0.759237 0.052215 0.208483
O O5 0.145359 0.605212 0.306487
O O6 0.866950 0.098727 0.114486
O O7 0.000000 0.000000 0.000000
O O8 0.413011 0.253618 0.668282
O O9 0.254454 0.552023 0.758573
O O10 0.500000 0.000000 0.000000
O O11 0.353408 0.353990 0.310843
O O12 0.359953 0.014690 0.438239
O O13 0.425590 0.457850 0.157990
O O14 0.500000 0.500000 0.500000
#
# Coordination Sequence:
#
# PCOD9066575 Si02
#       6
#     2   2   2   2   2   2
#     4  12  27  46  77 105 146 197 242 296 370 429
#     4  12  25  47  73 106 145 192 241 301 361 431
#     4  12  26  45  75 108 142 187 246 301 362 431
#     4  11  25  46  71  99 147 180 235 302 359 423
#     4  12  25  47  73 105 146 186 246 306 354 433
#     4  11  27  45  71 105 143 190 236 296 370 433
#
# _framework density 23.415624999999999
#
# number of rings (size 3 to 8) (size 9 to 14) (size 15 to 20)
#    0.000    0.333    6.667    1.500    4.667    2.000 
#    0.000    2.500    0.000    0.000    0.000    0.000 
#    0.000    0.000    0.000    0.000    0.000    0.000 
#
# Total GULP energy -66956.593214 kJ/mol
# GULP energy per Si atom -5579.716101 kJ/mol
# Density = 2.336233 g / cm^3
# Si number density = 23.415625 Si / 1000 Ang^3
#
#
#
# Elastic Constant Matrix: (Units=GPa)
#
#
# Indices 1 2 3 4 5 6 
#
# 1 67.6386 42.6023 14.8361 -3.3353 -23.1091 0.4501
# 2 42.6023 205.7167 43.1125 -23.6320 -6.3628 -4.9070
# 3 14.8361 43.1125 104.4116 -11.5557 -38.0361 21.7081
# 4 -3.3353 -23.6320 -11.5557 45.4782 0.3117 -7.5101
# 5 -23.1091 -6.3628 -38.0361 0.3117 46.9019 -4.6390
# 6 0.4501 -4.9070 21.7081 -7.5101 -4.6390 38.7816
#
#
#
# Elastic Compliance Matrix: (Units=1/GPa)
#
#
# Indices 1 2 3 4 5 6 
#
# 1 0.021474 -0.004973 0.004057 -0.000341 0.013035 -0.001656
# 2 -0.004973 0.007044 -0.004281 0.002789 -0.004656 0.003329
# 3 0.004057 -0.004281 0.018341 0.001177 0.015416 -0.008783
# 4 -0.000341 0.002789 0.001177 0.024463 0.001458 0.004610
# 5 0.013035 -0.004656 0.015416 0.001458 0.039168 -0.004402
# 6 -0.001656 0.003329 -0.008783 0.004610 -0.004402 0.031508
#
#
# Mechanical properties :
#
#
# Convention : Reuss Voigt Hill
#
# Bulk Modulus (GPa) = 27.42391 64.31873 45.87132
# Shear Modulus (GPa) = 30.38611 44.71341 37.54976
#
# Velocity S-wave (km/s) = 3.60625 4.37459 4.00887
# Velocity P-wave (km/s) = 5.39233 7.28313 6.40785
#
# Compressibility (1/GPa) = 0.03646454
#
# Stress axis : x y z
#
# Youngs Moduli (GPa) = 46.56721 141.96488 54.52273
#
# Poissons Ratio (x) = 0.70598 -0.22120
# Poissons Ratio (y) = 0.23158 0.23344
# Poissons Ratio (z) = -0.18892 0.60781
#
# Static dielectric constant tensor:
#      x y z
#    x 1.924070 -0.021920 -0.035150 
#    y -0.021920 1.961610 -0.069600 
#    z -0.035150 -0.069600 1.988370 
# 
# From -- ./inp_files/31777.got.cif
#   From: 2010.05.17/outbox.cif.g08.bks.cpg/sg2_16_cif.got.tgz:31777.got - 2010.06.03 11:33:40.
