data_PCOD9066824
_publ_section_title
;
Structure prediction by ZEFSAII (Michael W. Deem and Ramdas Pophale) SiO2 
 PCOD9066824
Probable space group: P -1
;
_chemical_formula_sum "Si O2"
_cell_formula_units_Z 14
_cell_length_a 8.517746
_cell_length_b 6.609221
_cell_length_c 15.653689
_cell_angle_alpha 134.057505
_cell_angle_beta 107.583838
_cell_angle_gamma 80.262936
_cell_volume 602.623168
_symmetry_space_group_name_H-M "P -1"
_symmetry_group_IT_number 2
_symmetry_cell_setting 'triclinic'
loop_
_space_group_symop_operation_xyz
x,y,z
-x,-y,-z
loop_
_atom_site_type_symbol
_atom_site_label
_atom_site_fract_x
_atom_site_fract_y
_atom_site_fract_z
Si Si1 0.709657 0.197385 0.274238
Si Si2 0.398713 0.420074 0.202303
Si Si3 0.072810 0.283281 0.340131
Si Si4 0.692818 0.962560 0.569040
Si Si5 0.676141 0.584847 0.012148
Si Si6 0.131147 0.957860 0.084033
Si Si7 0.350482 0.786875 0.532553
O O1 0.582185 0.356888 0.242308
O O2 0.648014 0.151679 0.348413
O O3 0.888309 0.361478 0.352341
O O4 0.728231 0.891710 0.146574
O O5 0.347489 0.721551 0.316490
O O6 0.290366 0.161521 0.149072
O O7 0.359663 0.412320 0.093579
O O8 0.210579 0.536561 0.421542
O O9 0.141741 0.114441 0.381478
O O10 0.067695 0.078617 0.197646
O O11 0.700228 0.971162 0.470724
O O12 0.540007 0.761267 0.523110
O O13 0.500000 0.500000 0.000000
O O14 0.809235 0.356968 0.988943
O O15 0.000000 0.000000 0.000000
#
# Coordination Sequence:
#
# PCOD9066824 Si02
#       7
#     2   2   2   2   2   2   2
#     4  12  28  45  74 108 153 190 233 300 365 431
#     4  12  25  49  71 108 142 193 241 293 361 427
#     4  12  26  49  70 109 145 187 243 301 356 427
#     4  11  25  46  80 101 140 195 245 296 356 424
#     4  12  26  48  73 106 147 187 240 293 363 426
#     4  12  27  46  77 106 142 191 243 299 352 427
#     4  11  26  49  72 108 144 190 243 295 362 430
#
# _framework density 23.231766
#
# number of rings (size 3 to 8) (size 9 to 14) (size 15 to 20)
#    0.000    0.286    4.286    3.857    8.000    1.714 
#    2.571    0.000    0.000    0.000    0.000    0.000 
#    0.000    0.000    0.000    0.000    0.000    0.000 
#
# Total GULP energy -78419.112768 kJ/mol
# GULP energy per Si atom -5601.365198 kJ/mol
# Density = 2.317889 g / cm^3
# Si number density = 23.231766 Si / 1000 Ang^3
#
#
#
# Elastic Constant Matrix: (Units=GPa)
#
#
# Indices 1 2 3 4 5 6 
#
# 1 100.2409 64.2072 37.3219 -9.9319 22.5576 -24.4426
# 2 64.2072 138.2680 76.9944 -11.7073 -6.3825 -26.0615
# 3 37.3219 76.9944 151.3691 -7.1068 -8.9498 -23.6863
# 4 -9.9319 -11.7073 -7.1068 62.5754 1.2430 10.2417
# 5 22.5576 -6.3825 -8.9498 1.2430 46.8868 -7.8733
# 6 -24.4426 -26.0615 -23.6863 10.2417 -7.8733 39.1648
#
#
#
# Elastic Compliance Matrix: (Units=1/GPa)
#
#
# Indices 1 2 3 4 5 6 
#
# 1 0.018325 -0.007922 -0.000405 0.000946 -0.009360 0.003792
# 2 -0.007922 0.014224 -0.004516 0.000330 0.005343 0.002778
# 3 -0.000405 -0.004516 0.009571 -0.000353 0.001922 0.003010
# 4 0.000946 0.000330 -0.000353 0.016862 -0.001619 -0.004138
# 5 -0.009360 0.005343 0.001922 -0.001619 0.027789 0.004886
# 6 0.003792 0.002778 0.003010 -0.004138 0.004886 0.033632
#
#
# Mechanical properties :
#
#
# Convention : Reuss Voigt Hill
#
# Bulk Modulus (GPa) = 60.84183 82.99167 71.91675
# Shear Modulus (GPa) = 32.98893 43.81571 38.40232
#
# Velocity S-wave (km/s) = 3.77237 4.34755 4.07013
# Velocity P-wave (km/s) = 6.72460 7.81041 7.28776
#
# Compressibility (1/GPa) = 0.01643606
#
# Stress axis : x y z
#
# Youngs Moduli (GPa) = 54.56902 70.30575 104.48217
#
# Poissons Ratio (x) = 0.55694 0.04228
# Poissons Ratio (y) = 0.43228 0.47180
# Poissons Ratio (z) = 0.02208 0.31747
#
# Static dielectric constant tensor:
#      x y z
#    x 1.879510 0.021250 -0.020850 
#    y 0.021250 1.880570 -0.011220 
#    z -0.020850 -0.011220 1.907410 
# 
# From -- ./inp_files/488774.got.cif
#   From: 2010.05.17/outbox.cif.g08.bks.cpg/sg2_245_cif.got.tgz:488774.got - 2010.06.03 11:33:40.
