data_PCOD9066231
_publ_section_title
;
Structure prediction by ZEFSAII (Michael W. Deem and Ramdas Pophale) SiO2 
 PCOD9066231
Probable space group: P -1
;
_chemical_formula_sum "Si O2"
_cell_formula_units_Z 14
_cell_length_a 6.808402
_cell_length_b 9.616709
_cell_length_c 20.192441
_cell_angle_alpha 133.712840
_cell_angle_beta 134.168951
_cell_angle_gamma 48.752494
_cell_volume 643.884879
_symmetry_space_group_name_H-M "P -1"
_symmetry_group_IT_number 2
_symmetry_cell_setting 'triclinic'
loop_
_space_group_symop_operation_xyz
x,y,z
-x,-y,-z
loop_
_atom_site_type_symbol
_atom_site_label
_atom_site_fract_x
_atom_site_fract_y
_atom_site_fract_z
Si Si1 0.277890 0.068191 0.103310
Si Si2 0.258054 0.364906 0.673439
Si Si3 0.659825 0.624531 0.885195
Si Si4 0.344088 0.355765 0.324963
Si Si5 0.671765 0.633586 0.049679
Si Si6 0.674154 0.049798 0.410801
Si Si7 0.325621 0.348224 0.538123
O O1 0.371325 0.169409 0.094387
O O2 0.220621 0.233921 0.202826
O O3 0.537152 0.864875 0.119173
O O4 0.000000 0.000000 0.000000
O O5 0.433980 0.517340 0.774962
O O6 0.328393 0.264657 0.584792
O O7 0.919901 0.500431 0.645522
O O8 0.347091 0.173220 0.681059
O O9 0.985806 0.475044 0.895213
O O10 0.629206 0.648706 0.965067
O O11 0.589707 0.195182 0.374809
O O12 0.476262 0.508736 0.370599
O O13 0.500000 0.500000 0.000000
O O14 0.445353 0.177884 0.454356
O O15 0.000000 0.000000 0.500000
O O16 0.000000 0.500000 0.500000
#
# Coordination Sequence:
#
# PCOD9066231 Si02
#       7
#     2   2   2   2   2   2   2
#     4  12  25  46  75 101 147 196 235 297 375 431
#     4  12  26  45  73 104 145 186 244 295 366 434
#     4  11  26  45  70 107 138 191 242 299 357 440
#     4  12  27  46  71 109 147 187 244 307 360 436
#     4  11  25  45  72 102 146 183 243 301 358 430
#     4  12  26  46  76 104 146 195 237 302 371 431
#     4  12  24  48  72 102 146 188 241 300 362 431
#
# _framework density 21.743019
#
# number of rings (size 3 to 8) (size 9 to 14) (size 15 to 20)
#    0.000    0.286    5.714    3.000    2.000    3.429 
#    0.000    0.000    0.000    0.000    0.000    0.000 
#    0.000    0.000    0.000    0.000    0.000    0.000 
#
# Total GULP energy -78345.908509 kJ/mol
# GULP energy per Si atom -5596.136322 kJ/mol
# Density = 2.169353 g / cm^3
# Si number density = 21.743019 Si / 1000 Ang^3
#
#
#
# Elastic Constant Matrix: (Units=GPa)
#
#
# Indices 1 2 3 4 5 6 
#
# 1 102.8703 38.0960 20.8000 3.8877 12.2817 3.4262
# 2 38.0960 124.3971 10.5560 14.6369 7.2756 14.2146
# 3 20.8000 10.5560 65.9982 8.7768 14.0972 1.2988
# 4 3.8877 14.6369 8.7768 32.6298 5.4160 4.6242
# 5 12.2817 7.2756 14.0972 5.4160 38.5340 -0.7157
# 6 3.4262 14.2146 1.2988 4.6242 -0.7157 41.8343
#
#
#
# Elastic Compliance Matrix: (Units=1/GPa)
#
#
# Indices 1 2 3 4 5 6 
#
# 1 0.011771 -0.003389 -0.002857 0.001244 -0.002240 0.000100
# 2 -0.003389 0.009816 0.000104 -0.003590 -0.000356 -0.002670
# 3 -0.002857 0.000104 0.017591 -0.003596 -0.005040 -0.000036
# 4 0.001244 -0.003590 -0.003596 0.033978 -0.003226 -0.002581
# 5 -0.002240 -0.000356 -0.005040 -0.003226 0.029054 0.001315
# 6 0.000100 -0.002670 -0.000036 -0.002581 0.001315 0.025112
#
#
# Mechanical properties :
#
#
# Convention : Reuss Voigt Hill
#
# Bulk Modulus (GPa) = 37.18191 48.01885 42.60038
# Shear Modulus (GPa) = 33.65424 37.52050 35.58737
#
# Velocity S-wave (km/s) = 3.93850 4.15858 4.05004
# Velocity P-wave (km/s) = 6.14981 6.72243 6.44248
#
# Compressibility (1/GPa) = 0.02689480
#
# Stress axis : x y z
#
# Youngs Moduli (GPa) = 84.95655 101.87211 56.84715
#
# Poissons Ratio (x) = 0.34526 0.16239
# Poissons Ratio (y) = 0.28793 -0.00592
# Poissons Ratio (z) = 0.24269 -0.01061
#
# Static dielectric constant tensor:
#      x y z
#    x 1.832530 0.024890 -0.015760 
#    y 0.024890 1.779030 0.005610 
#    z -0.015760 0.005610 1.805020 
# 
# From -- ./inp_files/34900.got.cif
#   From: 2010.05.17/outbox.cif.g08.bks.cpg/sg2_18_cif.got.tgz:34900.got - 2010.06.03 11:33:40.
