data_PCOD9066204
_publ_section_title
;
Structure prediction by ZEFSAII (Michael W. Deem and Ramdas Pophale) SiO2 
 PCOD9066204
Probable space group: P -1
;
_chemical_formula_sum "Si O2"
_cell_formula_units_Z 15
_cell_length_a 24.903936
_cell_length_b 15.509582
_cell_length_c 6.849877
_cell_angle_alpha 74.030070
_cell_angle_beta 62.446642
_cell_angle_gamma 19.488004
_cell_volume 656.547672
_symmetry_space_group_name_H-M "P -1"
_symmetry_group_IT_number 2
_symmetry_cell_setting 'triclinic'
loop_
_space_group_symop_operation_xyz
x,y,z
-x,-y,-z
loop_
_atom_site_type_symbol
_atom_site_label
_atom_site_fract_x
_atom_site_fract_y
_atom_site_fract_z
Si Si1 0.482911 0.017732 0.247099
Si Si2 0.521715 0.123145 0.372533
Si Si3 0.246553 0.658522 0.295367
Si Si4 0.715524 0.224098 0.576605
Si Si5 0.211541 0.102688 0.750653
Si Si6 0.405570 0.524197 0.743407
Si Si7 0.000000 0.500000 0.500000
Si Si8 0.001798 0.317698 0.337916
O O1 0.589665 0.950631 0.213093
O O2 0.237560 0.368938 0.488184
O O3 0.558632 0.817886 0.340579
O O4 0.500000 0.000000 0.000000
O O5 0.352290 0.423300 0.362371
O O6 0.703482 0.930891 0.255122
O O7 0.314674 0.648193 0.313383
O O8 0.322662 0.567574 0.003998
O O9 0.000000 0.000000 0.500000
O O10 0.511672 0.452607 0.736584
O O11 0.762057 0.197484 0.298288
O O12 0.883723 0.921702 0.581834
O O13 0.065337 0.343383 0.673910
O O14 0.411359 0.775929 0.511172
O O15 0.111742 0.179391 0.031633
O O16 0.991291 0.600907 0.598907
#
# Coordination Sequence:
#
# PCOD9066204 Si02
#       8
#     2   2   2   2   2   2   1   2
#     4  11  28  47  71  98 143 189 232 285 356 421
#     4  11  26  48  70 102 141 188 234 288 352 417
#     4  12  27  45  73 102 145 185 237 289 344 421
#     4  11  25  45  71 105 142 181 237 292 347 415
#     4  12  26  46  75 106 140 182 239 297 349 418
#     4  11  26  45  72 105 140 189 228 288 358 410
#     4  12  26  42  72 106 138 176 236 294 356 404
#     4  12  27  44  72 106 140 181 238 293 347 420
#
# _framework density 22.846779000000002
#
# number of rings (size 3 to 8) (size 9 to 14) (size 15 to 20)
#    0.000    0.533    4.000    2.400    7.467    2.667 
#    0.000    0.000    0.000    0.000    0.000    0.000 
#    0.000    0.000    0.000    0.000    0.000    0.000 
#
# Total GULP energy -83746.194921 kJ/mol
# GULP energy per Si atom -5583.079661 kJ/mol
# Density = 2.279478 g / cm^3
# Si number density = 22.846779 Si / 1000 Ang^3
#
#
#
# Elastic Constant Matrix: (Units=GPa)
#
#
# Indices 1 2 3 4 5 6 
#
# 1 84.2836 22.2102 56.3880 -7.7343 3.7809 4.8611
# 2 22.2102 175.0537 87.4786 -57.6779 -14.8656 14.3598
# 3 56.3880 87.4786 155.1709 -25.8836 -5.1168 -13.9748
# 4 -7.7343 -57.6779 -25.8836 42.9554 -0.0110 -1.7914
# 5 3.7809 -14.8656 -5.1168 -0.0110 18.4855 -9.5274
# 6 4.8611 14.3598 -13.9748 -1.7914 -9.5274 39.1565
#
#
#
# Elastic Compliance Matrix: (Units=1/GPa)
#
#
# Indices 1 2 3 4 5 6 
#
# 1 0.018031 0.002234 -0.008727 0.000642 -0.008544 -0.008222
# 2 0.002234 0.015645 -0.007135 0.016857 0.007025 -0.006081
# 3 -0.008727 -0.007135 0.014361 -0.002081 0.005168 0.009988
# 4 0.000642 0.016857 -0.002081 0.044693 0.011799 -0.002089
# 5 -0.008544 0.007025 0.005168 0.011799 0.072466 0.018501
# 6 -0.008222 -0.006081 0.009988 -0.002089 0.018501 0.036760
#
#
# Mechanical properties :
#
#
# Convention : Reuss Voigt Hill
#
# Bulk Modulus (GPa) = 48.12346 82.96242 65.54294
# Shear Modulus (GPa) = 21.17399 36.68158 28.92778
#
# Velocity S-wave (km/s) = 3.04761 4.01127 3.56218
# Velocity P-wave (km/s) = 5.78733 7.60560 6.75790
#
# Compressibility (1/GPa) = 0.02077988
#
# Stress axis : x y z
#
# Youngs Moduli (GPa) = 55.46057 63.92003 69.63201
#
# Poissons Ratio (x) = -0.14278 0.60765
# Poissons Ratio (y) = -0.12388 0.49686
# Poissons Ratio (z) = 0.48398 0.45610
#
# Static dielectric constant tensor:
#      x y z
#    x 1.837340 0.016830 -0.003460 
#    y 0.016830 1.868610 -0.001990 
#    z -0.003460 -0.001990 1.861540 
# 
# From -- ./inp_files/124170.got.cif
#   From: 2010.05.17/outbox.cif.g08.bks.cpg/sg2_63_cif.got.tgz:124170.got - 2010.06.03 11:33:40.
