data_PCOD9066028
_publ_section_title
;
Structure prediction by ZEFSAII (Michael W. Deem and Ramdas Pophale) SiO2 
 PCOD9066028
Probable space group: P -1
;
_chemical_formula_sum "Si O2"
_cell_formula_units_Z 16
_cell_length_a 24.828446
_cell_length_b 6.158632
_cell_length_c 22.069654
_cell_angle_alpha 49.145330
_cell_angle_beta 19.805148
_cell_angle_gamma 61.380851
_cell_volume 732.031403
_symmetry_space_group_name_H-M "P -1"
_symmetry_group_IT_number 2
_symmetry_cell_setting 'triclinic'
loop_
_space_group_symop_operation_xyz
x,y,z
-x,-y,-z
loop_
_atom_site_type_symbol
_atom_site_label
_atom_site_fract_x
_atom_site_fract_y
_atom_site_fract_z
Si Si1 0.678194 0.915560 0.983299
Si Si2 0.833344 0.199835 0.193018
Si Si3 0.485646 0.747287 0.423777
Si Si4 0.409697 0.699731 0.095517
Si Si5 0.012586 0.350080 0.166023
Si Si6 0.978828 0.719024 0.352625
Si Si7 0.305171 0.528642 0.528121
Si Si8 0.167531 0.536368 0.103343
O O1 0.644465 0.128097 0.931298
O O2 0.486585 0.696985 0.263523
O O3 0.732289 0.657859 0.945811
O O4 0.851398 0.143999 0.803856
O O5 0.632399 0.116138 0.443776
O O6 0.838237 0.866915 0.260172
O O7 0.864610 0.345902 0.065637
O O8 0.000000 0.500000 0.000000
O O9 0.500000 0.500000 0.500000
O O10 0.369258 0.538595 0.526895
O O11 0.676941 0.064670 0.137854
O O12 0.215738 0.411719 0.384265
O O13 0.500000 0.500000 0.000000
O O14 0.500000 0.000000 0.000000
O O15 0.805276 0.281620 0.395059
O O16 0.093714 0.439039 0.131226
O O17 0.008734 0.008160 0.220712
O O18 0.995037 0.448932 0.345105
#
# Coordination Sequence:
#
# PCOD9066028 Si02
#       8
#     2   2   2   2   2   2   2   2
#     4  11  26  48  75 107 147 191 244 304 373 446
#     4  12  26  41  63  98 138 195 239 300 363 428
#     4  12  25  41  67  99 143 189 246 299 362 434
#     4  12  31  52  82 118 151 195 247 309 380 453
#     4  11  26  42  70 101 143 186 247 299 368 436
#     4  11  26  49  77 105 146 189 241 300 377 441
#     4  12  25  44  67 101 140 187 243 301 360 437
#     4  11  25  44  72 106 140 193 238 306 368 437
#
# _framework density 21.856985999999999
#
# number of rings (size 3 to 8) (size 9 to 14) (size 15 to 20)
#    0.000    0.500    3.750    3.000   12.250    2.500 
#    0.000    0.000    0.000    0.000    0.000    0.000 
#    0.000    0.000    0.000    0.000    0.000    0.000 
#
# Total GULP energy -89360.982071 kJ/mol
# GULP energy per Si atom -5585.061379 kJ/mol
# Density = 2.180724 g / cm^3
# Si number density = 21.856986 Si / 1000 Ang^3
#
#
#
# Elastic Constant Matrix: (Units=GPa)
#
#
# Indices 1 2 3 4 5 6 
#
# 1 74.6134 37.6825 3.7798 -1.3098 -3.2647 -18.5883
# 2 37.6825 109.5564 28.3192 23.3285 9.1519 -18.2516
# 3 3.7798 28.3192 91.8830 25.2124 14.7602 1.4285
# 4 -1.3098 23.3285 25.2124 43.7372 8.8910 0.9446
# 5 -3.2647 9.1519 14.7602 8.8910 30.9747 0.7585
# 6 -18.5883 -18.2516 1.4285 0.9446 0.7585 36.0313
#
#
#
# Elastic Compliance Matrix: (Units=1/GPa)
#
#
# Indices 1 2 3 4 5 6 
#
# 1 0.018208 -0.006080 -0.000315 0.003272 0.002775 0.006182
# 2 -0.006080 0.013931 -0.002106 -0.006059 -0.002117 0.004207
# 3 -0.000315 -0.002106 0.013902 -0.005997 -0.004276 -0.001533
# 4 0.003272 -0.006059 -0.005997 0.030443 -0.003700 -0.001864
# 5 0.002775 -0.002117 -0.004276 -0.003700 0.036306 -0.000139
# 6 0.006182 0.004207 -0.001533 -0.001864 -0.000139 0.033187
#
#
# Mechanical properties :
#
#
# Convention : Reuss Voigt Hill
#
# Bulk Modulus (GPa) = 34.43664 46.17953 40.30808
# Shear Modulus (GPa) = 28.95884 35.90006 32.42945
#
# Velocity S-wave (km/s) = 3.64390 4.05717 3.85608
# Velocity P-wave (km/s) = 5.78737 6.56669 6.18931
#
# Compressibility (1/GPa) = 0.02903883
#
# Stress axis : x y z
#
# Youngs Moduli (GPa) = 54.92123 71.78021 71.93196
#
# Poissons Ratio (x) = 0.43642 0.02265
# Poissons Ratio (y) = 0.33392 0.15152
# Poissons Ratio (z) = 0.01729 0.15120
#
# Static dielectric constant tensor:
#      x y z
#    x 1.770190 0.027220 -0.010520 
#    y 0.027220 1.616160 -0.031020 
#    z -0.010520 -0.031020 1.820720 
# 
# From -- ./inp_files/39236.got.cif
#   From: 2010.05.17/outbox.cif.g08.bks.cpg/sg2_20_cif.got.tgz:39236.got - 2010.06.03 11:33:40.
