data_PCOD9066467
_publ_section_title
;
Structure prediction by ZEFSAII (Michael W. Deem and Ramdas Pophale) SiO2 
 PCOD9066467
Probable space group: P -1
;
_chemical_formula_sum "Si O2"
_cell_formula_units_Z 14
_cell_length_a 14.186040
_cell_length_b 15.186741
_cell_length_c 5.726105
_cell_angle_alpha 84.404446
_cell_angle_beta 125.814939
_cell_angle_gamma 132.714280
_cell_volume 635.444932
_symmetry_space_group_name_H-M "P -1"
_symmetry_group_IT_number 2
_symmetry_cell_setting 'triclinic'
loop_
_space_group_symop_operation_xyz
x,y,z
-x,-y,-z
loop_
_atom_site_type_symbol
_atom_site_label
_atom_site_fract_x
_atom_site_fract_y
_atom_site_fract_z
Si Si1 0.787746 0.623839 0.809614
Si Si2 0.714756 0.194679 0.091914
Si Si3 0.967496 0.084634 0.997768
Si Si4 0.402603 0.395658 0.097255
Si Si5 0.673476 0.980822 0.288921
Si Si6 0.787377 0.899343 0.179248
Si Si7 0.917048 0.355005 0.850799
O O1 0.579063 0.478656 0.489635
O O2 0.758723 0.636472 0.031456
O O3 0.851999 0.752418 0.735361
O O4 0.921255 0.622153 0.949550
O O5 0.689408 0.074637 0.120973
O O6 0.809479 0.285268 0.456198
O O7 0.807740 0.266658 0.955783
O O8 0.510406 0.113622 0.810227
O O9 0.869556 0.089345 0.667548
O O10 0.813252 0.986312 0.993412
O O11 0.000000 0.000000 0.000000
O O12 0.500000 0.500000 0.000000
O O13 0.308315 0.246988 0.973047
O O14 0.671164 0.881305 0.206918
O O15 0.000000 0.000000 0.500000
O O16 0.000000 0.500000 0.000000
#
# Coordination Sequence:
#
# PCOD9066467 Si02
#       7
#     2   2   2   2   2   2   2
#     4  11  25  46  68 102 145 191 238 314 369 449
#     4  11  28  50  74 112 145 200 252 315 375 427
#     4  12  22  43  71 102 143 185 247 300 375 437
#     4  11  26  41  67 102 146 188 237 301 381 446
#     4  11  26  43  75 103 148 187 249 323 367 447
#     4  12  24  41  71 106 141 191 245 307 373 453
#     4  12  28  50  78 104 150 201 255 303 375 449
#
# _framework density 22.031806
#
# number of rings (size 3 to 8) (size 9 to 14) (size 15 to 20)
#    0.000    0.571    4.286    2.143    6.000    2.286 
#    0.000    0.000    0.000    0.000    0.000    0.000 
#    0.000    0.000    0.000    0.000    0.000    0.000 
#
# Total GULP energy -77934.261633 kJ/mol
# GULP energy per Si atom -5566.732974 kJ/mol
# Density = 2.198166 g / cm^3
# Si number density = 22.031806 Si / 1000 Ang^3
#
#
#
# Elastic Constant Matrix: (Units=GPa)
#
#
# Indices 1 2 3 4 5 6 
#
# 1 187.2272 79.6302 47.0927 11.0811 21.9700 -1.3495
# 2 79.6302 136.2352 29.1089 30.2435 6.3237 10.6243
# 3 47.0927 29.1089 74.1384 18.8747 13.4908 0.7865
# 4 11.0811 30.2435 18.8747 36.3926 -1.5731 -10.4634
# 5 21.9700 6.3237 13.4908 -1.5731 36.6346 -0.3514
# 6 -1.3495 10.6243 0.7865 -10.4634 -0.3514 48.1712
#
#
#
# Elastic Compliance Matrix: (Units=1/GPa)
#
#
# Indices 1 2 3 4 5 6 
#
# 1 0.008663 -0.005235 -0.004139 0.004442 -0.002553 0.002411
# 2 -0.005235 0.013154 0.001184 -0.011561 -0.000117 -0.005579
# 3 -0.004139 0.001184 0.019450 -0.010938 -0.005384 -0.003110
# 4 0.004442 -0.011561 -0.010938 0.045301 0.005427 0.012732
# 5 -0.002553 -0.000117 -0.005384 0.005427 0.031078 0.001448
# 6 0.002411 -0.005579 -0.003110 0.012732 0.001448 0.024884
#
#
# Mechanical properties :
#
#
# Convention : Reuss Voigt Hill
#
# Bulk Modulus (GPa) = 40.18086 78.80714 59.49400
# Shear Modulus (GPa) = 29.90351 40.35762 35.13056
#
# Velocity S-wave (km/s) = 3.68814 4.28458 3.99750
# Velocity P-wave (km/s) = 6.03438 7.76687 6.95478
#
# Compressibility (1/GPa) = 0.02488747
#
# Stress axis : x y z
#
# Youngs Moduli (GPa) = 115.43846 76.02368 51.41404
#
# Poissons Ratio (x) = 0.39795 0.21281
# Poissons Ratio (y) = 0.60427 -0.06088
# Poissons Ratio (z) = 0.47781 -0.09003
#
# Static dielectric constant tensor:
#      x y z
#    x 1.745430 0.258480 0.117170 
#    y 0.258480 1.355900 -0.601980 
#    z 0.117170 -0.601980 1.273110 
# 
# From -- ./inp_files/78023.got.cif
#   From: 2010.05.17/outbox.cif.g08.bks.cpg/sg2_40_cif.got.tgz:78023.got - 2010.06.03 11:33:40.
