data_PCOD9066276
_publ_section_title
;
Structure prediction by ZEFSAII (Michael W. Deem and Ramdas Pophale) SiO2 
 PCOD9066276
Probable space group: P -1
;
_chemical_formula_sum "Si O2"
_cell_formula_units_Z 14
_cell_length_a 10.829834
_cell_length_b 8.095032
_cell_length_c 15.394026
_cell_angle_alpha 57.802738
_cell_angle_beta 136.311496
_cell_angle_gamma 90.801897
_cell_volume 609.238097
_symmetry_space_group_name_H-M "P -1"
_symmetry_group_IT_number 2
_symmetry_cell_setting 'triclinic'
loop_
_space_group_symop_operation_xyz
x,y,z
-x,-y,-z
loop_
_atom_site_type_symbol
_atom_site_label
_atom_site_fract_x
_atom_site_fract_y
_atom_site_fract_z
Si Si1 0.372215 0.153745 0.519562
Si Si2 0.104821 0.670742 0.163931
Si Si3 0.131150 0.948340 0.398481
Si Si4 0.332027 0.024217 0.019474
Si Si5 0.911844 0.777659 0.859028
Si Si6 0.831404 0.806129 0.309177
Si Si7 0.468123 0.403454 0.638126
O O1 0.225209 0.375380 0.311787
O O2 0.358587 0.298968 0.558022
O O3 0.270580 0.006042 0.512280
O O4 0.635666 0.967322 0.675066
O O5 0.323492 0.657342 0.297306
O O6 0.880270 0.800869 0.072213
O O7 0.015713 0.809081 0.987968
O O8 0.296846 0.694732 0.495517
O O9 0.966959 0.909109 0.374224
O O10 0.006653 0.168319 0.200733
O O11 0.224933 0.135961 0.839075
O O12 0.569247 0.983165 0.163220
O O13 0.435621 0.743193 0.179754
O O14 0.000000 0.500000 0.000000
O O15 0.000000 0.500000 0.500000
#
# Coordination Sequence:
#
# PCOD9066276 Si02
#       7
#     2   2   2   2   2   2   2
#     4  12  26  43  66 112 148 182 233 295 364 430
#     4  12  24  42  72 105 146 186 233 303 364 427
#     4  12  25  47  75 103 150 194 234 298 366 421
#     4  11  25  45  73 106 137 190 252 289 354 432
#     4  12  24  44  70 109 150 185 236 294 366 442
#     4  11  25  48  73 102 141 195 249 298 345 422
#     4  12  24  44  76 108 146 188 235 299 368 433
#
# _framework density 22.979520999999998
#
# number of rings (size 3 to 8) (size 9 to 14) (size 15 to 20)
#    0.000    0.286    5.714    3.857    2.000    0.000 
#    0.000    1.429    0.000    0.000    0.000    0.000 
#    0.000    0.000    0.000    0.000    0.000    0.000 
#
# Total GULP energy -78168.301026 kJ/mol
# GULP energy per Si atom -5583.450073 kJ/mol
# Density = 2.292722 g / cm^3
# Si number density = 22.979521 Si / 1000 Ang^3
#
#
#
# Elastic Constant Matrix: (Units=GPa)
#
#
# Indices 1 2 3 4 5 6 
#
# 1 90.3317 40.5520 31.7199 15.8866 12.9185 34.3065
# 2 40.5520 138.5709 35.6469 7.7203 14.5438 31.7912
# 3 31.7199 35.6469 128.1718 -4.2670 -3.3731 14.5597
# 4 15.8866 7.7203 -4.2670 44.5863 7.5453 3.4676
# 5 12.9185 14.5438 -3.3731 7.5453 55.3522 7.1950
# 6 34.3065 31.7912 14.5597 3.4676 7.1950 42.3428
#
#
#
# Elastic Compliance Matrix: (Units=1/GPa)
#
#
# Indices 1 2 3 4 5 6 
#
# 1 0.018635 -0.001352 -0.003071 -0.005433 -0.001846 -0.012268
# 2 -0.001352 0.009426 -0.001775 -0.000669 -0.001521 -0.005058
# 3 -0.003071 -0.001775 0.009129 0.002012 0.001430 0.000274
# 4 -0.005433 -0.000669 0.002012 0.024839 -0.002150 0.002544
# 5 -0.001846 -0.001521 0.001430 -0.002150 0.019403 -0.000976
# 6 -0.012268 -0.005058 0.000274 0.002544 -0.000976 0.037217
#
#
# Mechanical properties :
#
#
# Convention : Reuss Voigt Hill
#
# Bulk Modulus (GPa) = 40.33376 63.65688 51.99532
# Shear Modulus (GPa) = 35.89114 45.06663 40.47889
#
# Velocity S-wave (km/s) = 3.95634 4.43331 4.20160
# Velocity P-wave (km/s) = 6.20164 7.34625 6.79808
#
# Compressibility (1/GPa) = 0.02479313
#
# Stress axis : x y z
#
# Youngs Moduli (GPa) = 53.66387 106.08834 109.53887
#
# Poissons Ratio (x) = 0.14346 0.33644
# Poissons Ratio (y) = 0.07257 0.19439
# Poissons Ratio (z) = 0.16483 0.18827
#
# Static dielectric constant tensor:
#      x y z
#    x 1.902820 -0.029190 -0.039350 
#    y -0.029190 2.010170 0.060610 
#    z -0.039350 0.060610 1.893090 
# 
# From -- ./inp_files/566557.got.cif
#   From: 2010.05.17/outbox.cif.g08.bks.cpg/sg2_284_cif.got.tgz:566557.got - 2010.06.03 11:33:40.
