data_PCOD9066525
_publ_section_title
;
Structure prediction by ZEFSAII (Michael W. Deem and Ramdas Pophale) SiO2 
 PCOD9066525
Probable space group: P -1
;
_chemical_formula_sum "Si O2"
_cell_formula_units_Z 16
_cell_length_a 9.795884
_cell_length_b 24.108131
_cell_length_c 9.511684
_cell_angle_alpha 26.085607
_cell_angle_beta 132.699752
_cell_angle_gamma 131.461635
_cell_volume 716.049293
_symmetry_space_group_name_H-M "P -1"
_symmetry_group_IT_number 2
_symmetry_cell_setting 'triclinic'
loop_
_space_group_symop_operation_xyz
x,y,z
-x,-y,-z
loop_
_atom_site_type_symbol
_atom_site_label
_atom_site_fract_x
_atom_site_fract_y
_atom_site_fract_z
Si Si1 0.993908 0.995581 0.837238
Si Si2 0.481855 0.640792 0.288857
Si Si3 0.304045 0.693329 0.759954
Si Si4 0.436034 0.426784 0.979214
Si Si5 0.089558 0.300162 0.630631
Si Si6 0.704607 0.158739 0.133649
Si Si7 0.965132 0.636760 0.225096
Si Si8 0.406603 0.993490 0.100946
O O1 0.837027 0.075522 0.496322
O O2 0.209677 0.045480 0.832506
O O3 0.000000 0.000000 0.000000
O O4 0.944361 0.854377 0.055530
O O5 0.419284 0.530695 0.609027
O O6 0.704367 0.655424 0.388079
O O7 0.382766 0.627083 0.099353
O O8 0.416888 0.767050 0.018175
O O9 0.357228 0.847044 0.454038
O O10 0.080353 0.658035 0.671341
O O11 0.406658 0.651429 0.788527
O O12 0.229320 0.342521 0.033393
O O13 0.500000 0.500000 0.000000
O O14 0.070086 0.348257 0.666960
O O15 0.556211 0.072855 0.127260
O O16 0.852127 0.261775 0.917047
O O17 0.000000 0.500000 0.500000
O O18 0.500000 0.000000 0.000000
#
# Coordination Sequence:
#
# PCOD9066525 Si02
#       8
#     2   2   2   2   2   2   2   2
#     4  11  25  46  70 109 148 190 242 297 364 439
#     4  12  26  47  74 107 145 191 250 297 366 435
#     4  11  25  47  74 107 146 189 241 304 363 431
#     4  12  28  47  75 104 147 193 244 307 368 428
#     4  11  25  46  76 107 150 190 243 301 366 438
#     4  12  26  44  76 105 148 193 240 302 369 425
#     4  12  26  49  70 106 149 187 250 304 361 439
#     4  11  26  44  73 107 148 191 244 295 365 441
#
# _framework density 22.344830000000002
#
# number of rings (size 3 to 8) (size 9 to 14) (size 15 to 20)
#    0.000    0.500    2.500    5.625    3.500    5.000 
#    0.000    0.000    0.000    0.000    0.000    0.000 
#    0.000    0.000    0.000    0.000    0.000    0.000 
#
# Total GULP energy -89618.913583 kJ/mol
# GULP energy per Si atom -5601.182099 kJ/mol
# Density = 2.229397 g / cm^3
# Si number density = 22.344830 Si / 1000 Ang^3
#
#
#
# Elastic Constant Matrix: (Units=GPa)
#
#
# Indices 1 2 3 4 5 6 
#
# 1 164.7016 82.1021 24.5138 2.4941 25.9345 6.0221
# 2 82.1021 181.1836 57.5681 7.3386 10.0274 7.9228
# 3 24.5138 57.5681 71.1271 -13.2549 17.7724 7.6407
# 4 2.4941 7.3386 -13.2549 27.1953 2.2711 9.7653
# 5 25.9345 10.0274 17.7724 2.2711 41.5055 7.5849
# 6 6.0221 7.9228 7.6407 9.7653 7.5849 50.7834
#
#
#
# Elastic Compliance Matrix: (Units=1/GPa)
#
#
# Indices 1 2 3 4 5 6 
#
# 1 0.008822 -0.004551 0.002466 0.002192 -0.005534 -0.000302
# 2 -0.004551 0.010774 -0.009998 -0.008201 0.004745 0.001231
# 3 0.002466 -0.009998 0.028188 0.018923 -0.011332 -0.004920
# 4 0.002192 -0.008201 0.018923 0.052542 -0.008415 -0.010674
# 5 -0.005534 0.004745 -0.011332 -0.008415 0.031999 -0.001540
# 6 -0.000302 0.001231 -0.004920 -0.010674 -0.001540 0.022558
#
#
# Mechanical properties :
#
#
# Convention : Reuss Voigt Hill
#
# Bulk Modulus (GPa) = 42.33876 82.82003 62.57939
# Shear Modulus (GPa) = 26.74937 40.75205 33.75071
#
# Velocity S-wave (km/s) = 3.46369 4.27521 3.89067
# Velocity P-wave (km/s) = 5.91483 7.84314 6.94622
#
# Compressibility (1/GPa) = 0.02361902
#
# Stress axis : x y z
#
# Youngs Moduli (GPa) = 113.35057 92.81847 35.47628
#
# Poissons Ratio (x) = 0.42238 -0.08749
# Poissons Ratio (y) = 0.51581 0.35469
# Poissons Ratio (z) = -0.27954 0.92799
#
# Static dielectric constant tensor:
#      x y z
#    x 1.052900 1.809560 -0.538880 
#    y 1.809560 -2.566970 1.291360 
#    z -0.538880 1.291360 1.443190 
# 
# From -- ./inp_files/225876.got.cif
#   From: 2010.05.17/outbox.cif.g08.bks.cpg/sg2_113_cif.got.tgz:225876.got - 2010.06.03 11:33:40.
