data_PCOD9066681
_publ_section_title
;
Structure prediction by ZEFSAII (Michael W. Deem and Ramdas Pophale) SiO2 
 PCOD9066681
Probable space group: P -1
;
_chemical_formula_sum "Si O2"
_cell_formula_units_Z 12
_cell_length_a 20.445551
_cell_length_b 16.063824
_cell_length_c 6.812535
_cell_angle_alpha 115.664064
_cell_angle_beta 109.914380
_cell_angle_gamma 18.207654
_cell_volume 609.920934
_symmetry_space_group_name_H-M "P -1"
_symmetry_group_IT_number 2
_symmetry_cell_setting 'triclinic'
loop_
_space_group_symop_operation_xyz
x,y,z
-x,-y,-z
loop_
_atom_site_type_symbol
_atom_site_label
_atom_site_fract_x
_atom_site_fract_y
_atom_site_fract_z
Si Si1 0.168972 0.644824 0.850239
Si Si2 0.696978 0.208367 0.781670
Si Si3 0.504858 0.715226 0.523328
Si Si4 0.423396 0.149616 0.768819
Si Si5 0.780136 0.271145 0.674764
Si Si6 0.751712 0.786798 0.069647
O O1 0.294179 0.508162 0.636366
O O2 0.288490 0.409181 0.835663
O O3 0.188321 0.709405 0.075285
O O4 0.920205 0.934695 0.848999
O O5 0.726531 0.234717 0.646237
O O6 0.500000 0.500000 0.000000
O O7 0.596073 0.549046 0.638423
O O8 0.361610 0.821998 0.366501
O O9 0.371876 0.972138 0.710861
O O10 0.281634 0.259614 0.871575
O O11 0.500000 0.000000 0.500000
O O12 0.629681 0.918461 0.875354
O O13 0.000000 0.000000 0.500000
O O14 0.000000 0.500000 0.000000
#
# Coordination Sequence:
#
# PCOD9066681 Si02
#       6
#     2   2   2   2   2   2
#     4  12  25  46  70 102 140 179 230 281 340 408
#     4  12  26  43  70 104 137 181 233 278 337 402
#     4  12  25  45  69 102 139 181 228 281 343 405
#     4  11  25  46  73  99 136 181 224 282 351 404
#     4  12  24  45  71  97 140 182 225 282 335 399
#     4  11  27  45  71 106 135 173 234 285 340 408
#
# _framework density 19.674682000000001
#
# number of rings (size 3 to 8) (size 9 to 14) (size 15 to 20)
#    0.000    0.333    6.667    2.000    2.333    4.667 
#    0.000    0.000    0.000    0.000    0.000    0.000 
#    0.000    0.000    0.000    0.000    0.000    0.000 
#
# Total GULP energy -67177.559975 kJ/mol
# GULP energy per Si atom -5598.129998 kJ/mol
# Density = 1.962990 g / cm^3
# Si number density = 19.674682 Si / 1000 Ang^3
#
#
#
# Elastic Constant Matrix: (Units=GPa)
#
#
# Indices 1 2 3 4 5 6 
#
# 1 95.9424 45.2378 11.9964 0.8619 -4.5310 -4.7742
# 2 45.2378 123.1822 30.8307 -6.6218 -12.4837 -21.1625
# 3 11.9964 30.8307 111.4186 -2.0025 0.7102 -22.1504
# 4 0.8619 -6.6218 -2.0025 32.6272 -6.8173 -0.6701
# 5 -4.5310 -12.4837 0.7102 -6.8173 37.2063 -1.6594
# 6 -4.7742 -21.1625 -22.1504 -0.6701 -1.6594 42.1949
#
#
#
# Elastic Compliance Matrix: (Units=1/GPa)
#
#
# Indices 1 2 3 4 5 6 
#
# 1 0.012715 -0.004933 -0.000270 -0.001467 -0.000425 -0.001217
# 2 -0.004933 0.011779 -0.001772 0.003388 0.004213 0.004639
# 3 -0.000270 -0.001772 0.010402 0.000258 -0.000577 0.004523
# 4 -0.001467 0.003388 0.000258 0.032925 0.007096 0.002471
# 5 -0.000425 0.004213 -0.000577 0.007096 0.029686 0.003042
# 6 -0.001217 0.004639 0.004523 0.002471 0.003042 0.028422
#
#
# Mechanical properties :
#
#
# Convention : Reuss Voigt Hill
#
# Bulk Modulus (GPa) = 47.73974 56.29701 52.01838
# Shear Modulus (GPa) = 34.04592 38.57090 36.30841
#
# Velocity S-wave (km/s) = 4.16437 4.43248 4.30052
# Velocity P-wave (km/s) = 6.88766 7.40756 7.15234
#
# Compressibility (1/GPa) = 0.02094691
#
# Stress axis : x y z
#
# Youngs Moduli (GPa) = 78.64608 84.89524 96.13546
#
# Poissons Ratio (x) = 0.41880 0.02592
# Poissons Ratio (y) = 0.38797 0.17036
# Poissons Ratio (z) = 0.02120 0.15044
#
# Static dielectric constant tensor:
#      x y z
#    x 1.674260 0.005670 -0.004380 
#    y 0.005670 1.666230 -0.016100 
#    z -0.004380 -0.016100 1.661180 
# 
# From -- ./inp_files/335032.got.cif
#   From: 2010.05.17/outbox.cif.g08.bks.cpg/sg2_168_cif.got.tgz:335032.got - 2010.06.03 11:33:40.
