data_PCOD9066874
_publ_section_title
;
Structure prediction by ZEFSAII (Michael W. Deem and Ramdas Pophale) SiO2 
 PCOD9066874
Probable space group: P -1
;
_chemical_formula_sum "Si O2"
_cell_formula_units_Z 14
_cell_length_a 19.073915
_cell_length_b 8.527241
_cell_length_c 9.077066
_cell_angle_alpha 131.837831
_cell_angle_beta 126.037030
_cell_angle_gamma 32.356517
_cell_volume 587.530733
_symmetry_space_group_name_H-M "P -1"
_symmetry_group_IT_number 2
_symmetry_cell_setting 'triclinic'
loop_
_space_group_symop_operation_xyz
x,y,z
-x,-y,-z
loop_
_atom_site_type_symbol
_atom_site_label
_atom_site_fract_x
_atom_site_fract_y
_atom_site_fract_z
Si Si1 0.171801 0.753189 0.423135
Si Si2 0.034121 0.211367 0.794065
Si Si3 0.870288 0.857279 0.604336
Si Si4 0.491038 0.426983 0.109216
Si Si5 0.326025 0.109325 0.765652
Si Si6 0.519054 0.810277 0.544368
Si Si7 0.794752 0.242572 0.016654
O O1 0.325816 0.454986 0.407342
O O2 0.099914 0.671433 0.330759
O O3 0.124771 0.026799 0.645743
O O4 0.119914 0.926542 0.312704
O O5 0.000000 0.500000 0.000000
O O6 0.121304 0.918110 0.832527
O O7 0.749540 0.949585 0.440540
O O8 0.000000 0.500000 0.500000
O O9 0.851787 0.944810 0.805630
O O10 0.484296 0.642512 0.339211
O O11 0.355805 0.549862 0.019938
O O12 0.605095 0.081783 0.114566
O O13 0.500000 0.500000 0.000000
O O14 0.435432 0.982920 0.699766
O O15 0.221441 0.489290 0.893269
O O16 0.500000 0.000000 0.500000
#
# Coordination Sequence:
#
# PCOD9066874 Si02
#       7
#     2   2   2   2   2   2   2
#     4  11  25  47  71 104 148 197 249 300 379 443
#     4  11  26  47  72 106 151 197 252 311 363 450
#     4  12  26  47  77 105 150 200 247 306 382 450
#     4  12  25  46  76 113 147 196 252 312 383 448
#     4  12  26  51  74 109 160 194 249 319 379 454
#     4  12  25  46  77 110 151 203 246 310 387 452
#     4  12  27  47  73 111 147 193 252 309 377 451
#
# _framework density 23.82854
#
# number of rings (size 3 to 8) (size 9 to 14) (size 15 to 20)
#    0.000    0.286    2.857    6.000    2.000    6.857 
#    2.571    0.000    0.000    0.000    0.000    0.000 
#    0.000    0.000    0.000    0.000    0.000    0.000 
#
# Total GULP energy -78264.136884 kJ/mol
# GULP energy per Si atom -5590.295492 kJ/mol
# Density = 2.377431 g / cm^3
# Si number density = 23.828540 Si / 1000 Ang^3
#
#
#
# Elastic Constant Matrix: (Units=GPa)
#
#
# Indices 1 2 3 4 5 6 
#
# 1 67.4442 21.5886 19.6951 -0.2577 -0.9010 -8.0137
# 2 21.5886 104.6024 23.1033 1.0225 -13.3084 10.8435
# 3 19.6951 23.1033 103.9584 15.5327 -4.7571 -9.1591
# 4 -0.2577 1.0225 15.5327 46.0377 5.7322 0.2377
# 5 -0.9010 -13.3084 -4.7571 5.7322 35.2509 0.1090
# 6 -8.0137 10.8435 -9.1591 0.2377 0.1090 45.1345
#
#
#
# Elastic Compliance Matrix: (Units=1/GPa)
#
#
# Indices 1 2 3 4 5 6 
#
# 1 0.017041 -0.003534 -0.002379 0.001135 -0.001415 0.003389
# 2 -0.003534 0.011663 -0.002067 -0.000067 0.004057 -0.003858
# 3 -0.002379 -0.002067 0.011399 -0.003992 0.001339 0.002405
# 4 0.001135 -0.000067 -0.003992 0.023624 -0.004374 -0.000706
# 5 -0.001415 0.004057 0.001339 -0.004374 0.030758 -0.001005
# 6 0.003389 -0.003858 0.002405 -0.000706 -0.001005 0.024179
#
#
# Mechanical properties :
#
#
# Convention : Reuss Voigt Hill
#
# Bulk Modulus (GPa) = 41.41898 44.97543 43.19721
# Shear Modulus (GPa) = 35.04556 39.39251 37.21904
#
# Velocity S-wave (km/s) = 3.83918 4.07032 3.95644
# Velocity P-wave (km/s) = 6.08870 6.40356 6.24812
#
# Compressibility (1/GPa) = 0.02414352
#
# Stress axis : x y z
#
# Youngs Moduli (GPa) = 58.68145 85.74434 87.72801
#
# Poissons Ratio (x) = 0.30303 0.20869
# Poissons Ratio (y) = 0.20739 0.18130
# Poissons Ratio (z) = 0.13959 0.17720
#
# Static dielectric constant tensor:
#      x y z
#    x 2.044310 -0.010910 0.048440 
#    y -0.010910 1.902120 -0.017640 
#    z 0.048440 -0.017640 1.892340 
# 
# From -- ./inp_files/343883.got.cif
#   From: 2010.05.17/outbox.cif.g08.bks.cpg/sg2_172_cif.got.tgz:343883.got - 2010.06.03 11:33:40.
