data_PCOD9066115
_publ_section_title
;
Structure prediction by ZEFSAII (Michael W. Deem and Ramdas Pophale) SiO2 
 PCOD9066115
Probable space group: P -1
;
_chemical_formula_sum "Si O2"
_cell_formula_units_Z 16
_cell_length_a 8.245802
_cell_length_b 5.321088
_cell_length_c 19.435819
_cell_angle_alpha 114.441158
_cell_angle_beta 56.735719
_cell_angle_gamma 118.104641
_cell_volume 614.859986
_symmetry_space_group_name_H-M "P -1"
_symmetry_group_IT_number 2
_symmetry_cell_setting 'triclinic'
loop_
_space_group_symop_operation_xyz
x,y,z
-x,-y,-z
loop_
_atom_site_type_symbol
_atom_site_label
_atom_site_fract_x
_atom_site_fract_y
_atom_site_fract_z
Si Si1 0.509153 0.180432 0.304683
Si Si2 0.632092 0.979897 0.901699
Si Si3 0.908788 0.655286 0.757273
Si Si4 0.862772 0.721952 0.264599
Si Si5 0.835560 0.556117 0.600398
Si Si6 0.319363 0.046623 0.873038
Si Si7 0.097571 0.424796 0.038413
Si Si8 0.555928 0.969082 0.407080
O O1 0.667398 0.451097 0.256327
O O2 0.278810 0.197720 0.359397
O O3 0.569427 0.920584 0.223572
O O4 0.589165 0.215215 0.369031
O O5 0.486218 0.962103 0.869496
O O6 0.811928 0.289778 0.904410
O O7 0.711217 0.703246 0.844502
O O8 0.500000 0.000000 0.000000
O O9 0.895725 0.594929 0.671382
O O10 0.982978 0.413864 0.749410
O O11 0.054221 0.993570 0.770135
O O12 0.751668 0.867761 0.361500
O O13 0.640164 0.269181 0.606797
O O14 0.000000 0.500000 0.500000
O O15 0.274742 0.306397 0.955278
O O16 0.086737 0.813709 0.905389
O O17 0.000000 0.500000 0.000000
O O18 0.500000 0.000000 0.500000
#
# Coordination Sequence:
#
# PCOD9066115 Si02
#       8
#     2   2   2   2   2   2   2   2
#     4  11  25  47  77 109 152 208 259 323 390 471
#     4  12  26  47  73 112 155 208 257 324 394 467
#     4  12  27  49  77 117 153 203 258 329 388 468
#     4  11  26  48  78 109 151 197 265 314 394 460
#     4  11  27  45  74 112 155 198 255 320 396 464
#     4  11  25  48  71 111 153 201 263 321 393 465
#     4  11  25  44  77 107 152 206 257 322 388 468
#     4  11  26  49  78 110 152 205 258 324 392 472
#
# _framework density 26.022186000000001
#
# number of rings (size 3 to 8) (size 9 to 14) (size 15 to 20)
#    0.000    0.750    3.750    1.875    5.250    6.500 
#    0.000    0.000    0.000    0.000    0.000    0.000 
#    0.000    0.000    0.000    0.000    0.000    0.000 
#
# Total GULP energy -89291.386713 kJ/mol
# GULP energy per Si atom -5580.711670 kJ/mol
# Density = 2.596296 g / cm^3
# Si number density = 26.022186 Si / 1000 Ang^3
#
#
#
# Elastic Constant Matrix: (Units=GPa)
#
#
# Indices 1 2 3 4 5 6 
#
# 1 168.4196 32.1110 71.5556 7.2325 -5.7854 -28.5537
# 2 32.1110 86.7992 20.0094 -4.6270 4.4741 4.3143
# 3 71.5556 20.0094 231.1929 -0.1304 -15.7498 -23.2864
# 4 7.2325 -4.6270 -0.1304 25.2296 -7.7207 1.4076
# 5 -5.7854 4.4741 -15.7498 -7.7207 58.4688 11.9539
# 6 -28.5537 4.3143 -23.2864 1.4076 11.9539 50.6977
#
#
#
# Elastic Compliance Matrix: (Units=1/GPa)
#
#
# Indices 1 2 3 4 5 6 
#
# 1 0.008135 -0.002922 -0.001894 -0.003357 -0.000792 0.004241
# 2 -0.002922 0.013075 -0.000555 0.003281 -0.000390 -0.003013
# 3 -0.001894 -0.000555 0.005143 0.000752 0.001124 0.001057
# 4 -0.003357 0.003281 0.000752 0.043373 0.006268 -0.004506
# 5 -0.000792 -0.000390 0.001124 0.006268 0.019121 -0.004579
# 6 0.004241 -0.003013 0.001057 -0.004506 -0.004579 0.024060
#
#
# Mechanical properties :
#
#
# Convention : Reuss Voigt Hill
#
# Bulk Modulus (GPa) = 64.05846 81.52931 72.79389
# Shear Modulus (GPa) = 38.80402 51.06160 44.93281
#
# Velocity S-wave (km/s) = 3.86578 4.43452 4.15988
# Velocity P-wave (km/s) = 6.67802 7.59069 7.14894
#
# Compressibility (1/GPa) = 0.01561074
#
# Stress axis : x y z
#
# Youngs Moduli (GPa) = 122.92439 76.48439 194.43814
#
# Poissons Ratio (x) = 0.22348 0.36820
# Poissons Ratio (y) = 0.35917 0.10799
# Poissons Ratio (z) = 0.23278 0.04248
#
# Static dielectric constant tensor:
#      x y z
#    x 1.855290 0.007330 -0.293980 
#    y 0.007330 2.175670 -0.074790 
#    z -0.293980 -0.074790 1.866860 
# 
# From -- ./inp_files/585842.got.cif
#   From: 2010.05.17/outbox.cif.g08.bks.cpg/sg2_293_cif.got.tgz:585842.got - 2010.06.03 11:33:40.
