data_PCOD9066442
_publ_section_title
;
Structure prediction by ZEFSAII (Michael W. Deem and Ramdas Pophale) SiO2 
 PCOD9066442
Probable space group: P -1
;
_chemical_formula_sum "Si O2"
_cell_formula_units_Z 16
_cell_length_a 5.736962
_cell_length_b 10.318908
_cell_length_c 11.686619
_cell_angle_alpha 106.293979
_cell_angle_beta 107.609451
_cell_angle_gamma 73.175944
_cell_volume 616.909474
_symmetry_space_group_name_H-M "P -1"
_symmetry_group_IT_number 2
_symmetry_cell_setting 'triclinic'
loop_
_space_group_symop_operation_xyz
x,y,z
-x,-y,-z
loop_
_atom_site_type_symbol
_atom_site_label
_atom_site_fract_x
_atom_site_fract_y
_atom_site_fract_z
Si Si1 0.091901 0.239877 0.725424
Si Si2 0.210707 0.383218 0.563679
Si Si3 0.786455 0.961637 0.799581
Si Si4 0.181632 0.794724 0.979357
Si Si5 0.637957 0.463056 0.763216
Si Si6 0.748523 0.656147 0.996564
Si Si7 0.526782 0.726723 0.657201
Si Si8 0.942909 0.050358 0.375922
O O1 0.138192 0.271070 0.608663
O O2 0.219027 0.320915 0.858382
O O3 0.799035 0.312005 0.717598
O O4 0.170273 0.077218 0.721932
O O5 0.352464 0.459973 0.696546
O O6 0.384668 0.309092 0.468409
O O7 0.000000 0.500000 0.500000
O O8 0.621936 0.849883 0.764160
O O9 0.811692 0.965575 0.668330
O O10 0.733394 0.110404 0.886255
O O11 0.051107 0.890269 0.879665
O O12 0.446232 0.712277 0.947997
O O13 0.957444 0.726286 0.981148
O O14 0.653989 0.586710 0.708409
O O15 0.754986 0.504505 0.908155
O O16 0.230646 0.796504 0.626268
O O17 0.000000 0.000000 0.500000
#
# Coordination Sequence:
#
# PCOD9066442 Si02
#       8
#     2   2   2   2   2   2   2   2
#     4  12  28  50  75 114 160 202 258 332 401 466
#     4  12  29  48  77 109 154 209 268 323 391 474
#     4  11  25  45  79 106 159 199 265 314 407 464
#     4  11  26  47  79 117 157 209 259 329 390 487
#     4  12  28  49  79 109 156 207 270 320 394 477
#     4  12  27  49  80 116 162 204 269 326 408 459
#     4  12  26  47  78 110 146 205 264 322 390 479
#     4  12  27  45  76 112 155 197 259 330 402 461
#
# _framework density 25.935735000000001
#
# number of rings (size 3 to 8) (size 9 to 14) (size 15 to 20)
#    0.000    0.250    3.750    3.750    8.750    5.500 
#    0.000    0.000    0.000    0.000    0.000    0.000 
#    0.000    0.000    0.000    0.000    0.000    0.000 
#
# Total GULP energy -89370.008460 kJ/mol
# GULP energy per Si atom -5585.625529 kJ/mol
# Density = 2.587670 g / cm^3
# Si number density = 25.935735 Si / 1000 Ang^3
#
#
#
# Elastic Constant Matrix: (Units=GPa)
#
#
# Indices 1 2 3 4 5 6 
#
# 1 62.9318 25.1233 12.3431 5.8455 1.9972 8.5568
# 2 25.1233 117.6729 12.3100 -2.6468 -11.3098 -8.5526
# 3 12.3431 12.3100 119.4811 -1.1563 7.4023 11.0570
# 4 5.8455 -2.6468 -1.1563 45.6042 5.3987 -0.4517
# 5 1.9972 -11.3098 7.4023 5.3987 50.5820 5.4412
# 6 8.5568 -8.5526 11.0570 -0.4517 5.4412 36.2153
#
#
#
# Elastic Compliance Matrix: (Units=1/GPa)
#
#
# Indices 1 2 3 4 5 6 
#
# 1 0.018812 -0.004415 -0.000995 -0.002654 -0.000752 -0.005104
# 2 -0.004415 0.010017 -0.001013 0.000907 0.002098 0.003414
# 3 -0.000995 -0.001013 0.008893 0.000419 -0.001262 -0.002524
# 4 -0.002654 0.000907 0.000419 0.022618 -0.002312 0.001343
# 5 -0.000752 0.002098 -0.001262 -0.002312 0.020928 -0.002115
# 6 -0.005104 0.003414 -0.002524 0.001343 -0.002115 0.030730
#
#
# Mechanical properties :
#
#
# Convention : Reuss Voigt Hill
#
# Bulk Modulus (GPa) = 40.20164 44.40430 42.30297
# Shear Modulus (GPa) = 37.55532 43.16760 40.36146
#
# Velocity S-wave (km/s) = 3.80941 4.08414 3.94916
# Velocity P-wave (km/s) = 5.90618 6.27681 6.09431
#
# Compressibility (1/GPa) = 0.02487461
#
# Stress axis : x y z
#
# Youngs Moduli (GPa) = 53.15625 99.83029 112.45376
#
# Poissons Ratio (x) = 0.44078 0.11193
# Poissons Ratio (y) = 0.23470 0.11393
# Poissons Ratio (z) = 0.05291 0.10114
#
# Static dielectric constant tensor:
#      x y z
#    x 2.133440 0.053500 0.047170 
#    y 0.053500 2.141580 0.027210 
#    z 0.047170 0.027210 2.063680 
# 
# From -- ./inp_files/365084.got.cif
#   From: 2010.05.17/outbox.cif.g08.bks.cpg/sg2_183_cif.got.tgz:365084.got - 2010.06.03 11:33:40.
