data_PCOD9066807
_publ_section_title
;
Structure prediction by ZEFSAII (Michael W. Deem and Ramdas Pophale) SiO2 
 PCOD9066807
Probable space group: P -1
;
_chemical_formula_sum "Si O2"
_cell_formula_units_Z 14
_cell_length_a 14.817958
_cell_length_b 12.267463
_cell_length_c 5.485957
_cell_angle_alpha 50.100654
_cell_angle_beta 68.307181
_cell_angle_gamma 48.698808
_cell_volume 572.239203
_symmetry_space_group_name_H-M "P -1"
_symmetry_group_IT_number 2
_symmetry_cell_setting 'triclinic'
loop_
_space_group_symop_operation_xyz
x,y,z
-x,-y,-z
loop_
_atom_site_type_symbol
_atom_site_label
_atom_site_fract_x
_atom_site_fract_y
_atom_site_fract_z
Si Si1 0.864261 0.592485 0.910690
Si Si2 0.796581 0.795643 0.178887
Si Si3 0.462263 0.890981 0.056049
Si Si4 0.810230 0.254055 0.881106
Si Si5 0.604961 0.340390 0.286985
Si Si6 0.316729 0.468832 0.750463
Si Si7 0.945878 0.938691 0.835352
O O1 0.849806 0.678015 0.538556
O O2 0.789275 0.712748 0.052552
O O3 0.808389 0.482962 0.085052
O O4 0.000000 0.500000 0.000000
O O5 0.880814 0.854357 0.935075
O O6 0.664262 0.963843 0.150641
O O7 0.433353 0.781450 0.414521
O O8 0.577661 0.735809 0.014175
O O9 0.500000 0.000000 0.000000
O O10 0.722931 0.456365 0.591168
O O11 0.848553 0.113410 0.832262
O O12 0.732555 0.229452 0.180495
O O13 0.938333 0.201742 0.915825
O O14 0.630713 0.429791 0.347426
O O15 0.500000 0.500000 0.000000
O O16 0.000000 0.000000 0.500000
#
# Coordination Sequence:
#
# PCOD9066807 Si02
#       7
#     2   2   2   2   2   2   2
#     4  12  30  51  81 115 162 211 270 334 412 484
#     4  12  29  50  78 116 160 210 267 337 412 480
#     4  12  27  51  75 117 161 211 266 338 408 477
#     4  11  25  46  77 111 152 204 270 331 402 476
#     4  12  28  47  81 111 158 210 275 332 396 489
#     4  12  27  49  77 112 156 213 269 328 399 489
#     4  11  26  46  78 111 153 204 269 338 406 480
#
# _framework density 24.465294
#
# number of rings (size 3 to 8) (size 9 to 14) (size 15 to 20)
#    0.000    0.286    2.857    4.286   16.000    0.571 
#    0.000    0.000    0.000    0.000    0.000    0.000 
#    0.000    0.000    0.000    0.000    0.000    0.000 
#
# Total GULP energy -78331.868588 kJ/mol
# GULP energy per Si atom -5595.133471 kJ/mol
# Density = 2.440961 g / cm^3
# Si number density = 24.465294 Si / 1000 Ang^3
#
#
#
# Elastic Constant Matrix: (Units=GPa)
#
#
# Indices 1 2 3 4 5 6 
#
# 1 145.9789 10.3063 44.4247 -18.5497 -21.4466 -9.0694
# 2 10.3063 87.9644 0.6987 -2.7027 1.5304 -4.3322
# 3 44.4247 0.6987 98.5133 -6.5839 -7.8917 1.1640
# 4 -18.5497 -2.7027 -6.5839 28.2757 -5.4143 0.3441
# 5 -21.4466 1.5304 -7.8917 -5.4143 55.5945 -9.4217
# 6 -9.0694 -4.3322 1.1640 0.3441 -9.4217 47.7126
#
#
#
# Elastic Compliance Matrix: (Units=1/GPa)
#
#
# Indices 1 2 3 4 5 6 
#
# 1 0.009571 -0.000849 -0.003590 0.006143 0.004249 0.002624
# 2 -0.000849 0.011528 0.000293 0.000524 -0.000418 0.000792
# 3 -0.003590 0.000293 0.011824 0.000471 0.000177 -0.000913
# 4 0.006143 0.000524 0.000471 0.040827 0.006779 0.002248
# 5 0.004249 -0.000418 0.000177 0.006779 0.021153 0.004893
# 6 0.002624 0.000792 -0.000913 0.002248 0.004893 0.022502
#
#
# Mechanical properties :
#
#
# Convention : Reuss Voigt Hill
#
# Bulk Modulus (GPa) = 40.59858 49.25733 44.92796
# Shear Modulus (GPa) = 37.33984 44.78503 41.06244
#
# Velocity S-wave (km/s) = 3.91095 4.28314 4.10127
# Velocity P-wave (km/s) = 6.08477 6.68114 6.38991
#
# Compressibility (1/GPa) = 0.02463140
#
# Stress axis : x y z
#
# Youngs Moduli (GPa) = 104.48629 86.74754 84.57271
#
# Poissons Ratio (x) = 0.07363 0.30361
# Poissons Ratio (y) = 0.08868 -0.02479
# Poissons Ratio (z) = 0.37510 -0.02543
#
# Static dielectric constant tensor:
#      x y z
#    x 2.007040 0.036240 0.052730 
#    y 0.036240 2.021170 -0.000480 
#    z 0.052730 -0.000480 2.006870 
# 
# From -- ./inp_files/94284.got.cif
#   From: 2010.05.17/outbox.cif.g08.bks.cpg/sg2_48_cif.got.tgz:94284.got - 2010.06.03 11:33:40.
