data_PCOD9066918
_publ_section_title
;
Structure prediction by ZEFSAII (Michael W. Deem and Ramdas Pophale) SiO2 
 PCOD9066918
Probable space group: P -1
;
_chemical_formula_sum "Si O2"
_cell_formula_units_Z 14
_cell_length_a 8.380268
_cell_length_b 13.439480
_cell_length_c 8.116301
_cell_angle_alpha 72.956775
_cell_angle_beta 127.088991
_cell_angle_gamma 125.860925
_cell_volume 588.395357
_symmetry_space_group_name_H-M "P -1"
_symmetry_group_IT_number 2
_symmetry_cell_setting 'triclinic'
loop_
_space_group_symop_operation_xyz
x,y,z
-x,-y,-z
loop_
_atom_site_type_symbol
_atom_site_label
_atom_site_fract_x
_atom_site_fract_y
_atom_site_fract_z
Si Si1 0.121868 0.464863 0.950503
Si Si2 0.419234 0.673722 0.784312
Si Si3 0.583075 0.609787 0.624260
Si Si4 0.164877 0.191979 0.582656
Si Si5 0.925871 0.273552 0.623875
Si Si6 0.023207 0.127376 0.983652
Si Si7 0.750222 0.018015 0.187771
O O1 0.321322 0.591659 0.925953
O O2 0.987672 0.377041 0.751644
O O3 0.219444 0.392801 0.143333
O O4 0.000000 0.500000 0.000000
O O5 0.389941 0.590853 0.646663
O O6 0.699716 0.770272 0.915270
O O7 0.270830 0.734360 0.615472
O O8 0.500000 0.500000 0.500000
O O9 0.673271 0.729833 0.509171
O O10 0.137394 0.285367 0.636790
O O11 0.894619 0.088772 0.408270
O O12 0.262812 0.111854 0.759107
O O13 0.867353 0.154722 0.751961
O O14 0.922760 0.110393 0.110715
O O15 0.000000 0.000000 0.000000
O O16 0.500000 0.000000 0.000000
#
# Coordination Sequence:
#
# PCOD9066918 Si02
#       7
#     2   2   2   2   2   2   2
#     4  12  26  51  77 113 151 197 255 312 388 456
#     4  12  27  47  78 110 156 197 247 317 380 445
#     4  12  25  45  74 108 151 193 245 309 379 450
#     4  11  25  47  72 114 150 193 259 303 375 454
#     4  12  26  46  78 110 155 195 255 309 384 448
#     4  12  27  49  71 113 153 203 257 305 372 449
#     4  11  26  48  77 105 152 201 253 313 369 440
#
# _framework density 23.793524000000001
#
# number of rings (size 3 to 8) (size 9 to 14) (size 15 to 20)
#    0.000    0.286    4.286    3.429    6.000    0.571 
#    2.571    0.000    0.000    0.000    0.000    0.000 
#    0.000    0.000    0.000    0.000    0.000    0.000 
#
# Total GULP energy -78266.405985 kJ/mol
# GULP energy per Si atom -5590.457570 kJ/mol
# Density = 2.373937 g / cm^3
# Si number density = 23.793524 Si / 1000 Ang^3
#
#
#
# Elastic Constant Matrix: (Units=GPa)
#
#
# Indices 1 2 3 4 5 6 
#
# 1 167.2949 61.7438 51.6632 -16.7328 -5.8703 -0.0522
# 2 61.7438 136.7873 43.8004 -28.0665 7.1900 9.9733
# 3 51.6632 43.8004 111.3022 -26.5280 21.3302 4.6328
# 4 -16.7328 -28.0665 -26.5280 52.0609 -7.7607 -9.3267
# 5 -5.8703 7.1900 21.3302 -7.7607 47.0295 -13.5752
# 6 -0.0522 9.9733 4.6328 -9.3267 -13.5752 41.6931
#
#
#
# Elastic Compliance Matrix: (Units=1/GPa)
#
#
# Indices 1 2 3 4 5 6 
#
# 1 0.008295 -0.002952 -0.003440 0.000318 0.003794 0.002405
# 2 -0.002952 0.009969 -0.001483 0.003135 -0.001260 -0.001932
# 3 -0.003440 -0.001483 0.013319 0.003500 -0.006364 -0.002419
# 4 0.000318 0.003135 0.003500 0.024291 0.003556 0.005453
# 5 0.003794 -0.001260 -0.006364 0.003556 0.028614 0.011125
# 6 0.002405 -0.001932 -0.002419 0.005453 0.011125 0.029561
#
#
# Mechanical properties :
#
#
# Convention : Reuss Voigt Hill
#
# Bulk Modulus (GPa) = 63.16233 81.08882 72.12558
# Shear Modulus (GPa) = 37.01572 45.36849 41.19211
#
# Velocity S-wave (km/s) = 3.94852 4.37138 4.16532
# Velocity P-wave (km/s) = 6.88414 7.72223 7.31520
#
# Compressibility (1/GPa) = 0.01583222
#
# Stress axis : x y z
#
# Youngs Moduli (GPa) = 120.55409 100.31413 75.07833
#
# Poissons Ratio (x) = 0.29616 0.25826
# Poissons Ratio (y) = 0.35591 0.11137
# Poissons Ratio (z) = 0.41468 0.14880
#
# Static dielectric constant tensor:
#      x y z
#    x 2.019480 -0.115260 -0.156640 
#    y -0.115260 1.982350 0.143160 
#    z -0.156640 0.143160 2.089150 
# 
# From -- ./inp_files/201156.got.cif
#   From: 2010.05.17/outbox.cif.g08.bks.cpg/sg2_101_cif.got.tgz:201156.got - 2010.06.03 11:33:40.
