data_PCOD9066842
_publ_section_title
;
Structure prediction by ZEFSAII (Michael W. Deem and Ramdas Pophale) SiO2 
 PCOD9066842
Probable space group: P -1
;
_chemical_formula_sum "Si O2"
_cell_formula_units_Z 12
_cell_length_a 12.954084
_cell_length_b 8.601409
_cell_length_c 13.686597
_cell_angle_alpha 31.115222
_cell_angle_beta 145.013212
_cell_angle_gamma 135.592923
_cell_volume 451.432651
_symmetry_space_group_name_H-M "P -1"
_symmetry_group_IT_number 2
_symmetry_cell_setting 'triclinic'
loop_
_space_group_symop_operation_xyz
x,y,z
-x,-y,-z
loop_
_atom_site_type_symbol
_atom_site_label
_atom_site_fract_x
_atom_site_fract_y
_atom_site_fract_z
Si Si1 0.766705 0.867653 0.772878
Si Si2 0.643254 0.288586 0.280864
Si Si3 0.454738 0.203119 0.684167
Si Si4 0.891798 0.755839 0.135603
Si Si5 0.884154 0.776879 0.462171
Si Si6 0.170322 0.712467 0.985102
O O1 0.656045 0.108941 0.492191
O O2 0.752126 0.854051 0.888486
O O3 0.740307 0.526472 0.894085
O O4 0.978080 0.976575 0.868152
O O5 0.808884 0.529958 0.272974
O O6 0.647496 0.024760 0.346084
O O7 0.500000 0.500000 0.000000
O O8 0.500000 0.500000 0.500000
O O9 0.321250 0.245447 0.648107
O O10 0.657821 0.142593 0.902032
O O11 0.030769 0.542269 0.302791
O O12 0.904932 0.977996 0.275568
O O13 0.000000 0.000000 0.500000
O O14 0.000000 0.500000 0.000000
#
# Coordination Sequence:
#
# PCOD9066842 Si02
#       6
#     2   2   2   2   2   2
#     4  11  25  47  69 101 141 188 234 285 360 424
#     4  12  27  46  70 105 145 184 240 294 358 425
#     4  12  26  45  70 106 140 185 243 294 356 424
#     4  11  26  47  72 103 143 189 235 291 361 428
#     4  12  23  46  72 102 142 183 240 296 353 425
#     4  12  25  44  74 103 142 187 237 297 359 424
#
# _framework density 26.582039000000002
#
# number of rings (size 3 to 8) (size 9 to 14) (size 15 to 20)
#    0.000    0.333    5.000    3.000    4.667    2.000 
#    0.000    0.000    0.000    0.000    0.000    0.000 
#    0.000    0.000    0.000    0.000    0.000    0.000 
#
# Total GULP energy -66940.585381 kJ/mol
# GULP energy per Si atom -5578.382115 kJ/mol
# Density = 2.652154 g / cm^3
# Si number density = 26.582039 Si / 1000 Ang^3
#
#
#
# Elastic Constant Matrix: (Units=GPa)
#
#
# Indices 1 2 3 4 5 6 
#
# 1 83.6498 27.8323 36.4672 -10.5649 -23.5857 25.9985
# 2 27.8323 152.6476 32.2574 -7.7379 -8.5306 2.1215
# 3 36.4672 32.2574 186.9759 8.5163 -25.3835 2.5667
# 4 -10.5649 -7.7379 8.5163 58.2498 8.1286 -1.6222
# 5 -23.5857 -8.5306 -25.3835 8.1286 38.1117 2.2575
# 6 25.9985 2.1215 2.5667 -1.6222 2.2575 47.0363
#
#
#
# Elastic Compliance Matrix: (Units=1/GPa)
#
#
# Indices 1 2 3 4 5 6 
#
# 1 0.020669 -0.002463 -0.002008 0.001826 0.011205 -0.011679
# 2 -0.002463 0.007174 -0.000912 0.000778 -0.000760 0.001151
# 3 -0.002008 -0.000912 0.006405 -0.001849 0.003179 0.000585
# 4 0.001826 0.000778 -0.001849 0.018405 -0.003845 -0.000124
# 5 0.011205 -0.000760 0.003179 -0.003845 0.036427 -0.008213
# 6 -0.011679 0.001151 0.000585 -0.000124 -0.008213 0.028021
#
#
# Mechanical properties :
#
#
# Convention : Reuss Voigt Hill
#
# Bulk Modulus (GPa) = 42.58533 68.48746 55.53639
# Shear Modulus (GPa) = 36.84747 50.46067 43.65407
#
# Velocity S-wave (km/s) = 3.72718 4.36167 4.05685
# Velocity P-wave (km/s) = 5.88027 7.15445 6.54842
#
# Compressibility (1/GPa) = 0.02348227
#
# Stress axis : x y z
#
# Youngs Moduli (GPa) = 48.38100 139.39709 156.12970
#
# Poissons Ratio (x) = 0.34337 0.31351
# Poissons Ratio (y) = 0.11917 0.14232
# Poissons Ratio (z) = 0.09715 0.12707
#
# Static dielectric constant tensor:
#      x y z
#    x 2.382990 0.118110 -0.068310 
#    y 0.118110 2.050600 -0.087490 
#    z -0.068310 -0.087490 2.027140 
# 
# From -- ./inp_files/529245.got.cif
#   From: 2010.05.17/outbox.cif.g08.bks.cpg/sg2_265_cif.got.tgz:529245.got - 2010.06.03 11:33:40.
