data_PCOD9066555
_publ_section_title
;
Structure prediction by ZEFSAII (Michael W. Deem and Ramdas Pophale) SiO2 
 PCOD9066555
Probable space group: P -1
;
_chemical_formula_sum "Si O2"
_cell_formula_units_Z 14
_cell_length_a 7.582861
_cell_length_b 8.926929
_cell_length_c 17.446545
_cell_angle_alpha 122.023112
_cell_angle_beta 58.212203
_cell_angle_gamma 145.768275
_cell_volume 553.508183
_symmetry_space_group_name_H-M "P -1"
_symmetry_group_IT_number 2
_symmetry_cell_setting 'triclinic'
loop_
_space_group_symop_operation_xyz
x,y,z
-x,-y,-z
loop_
_atom_site_type_symbol
_atom_site_label
_atom_site_fract_x
_atom_site_fract_y
_atom_site_fract_z
Si Si1 0.087122 0.585319 0.236076
Si Si2 0.569595 0.692731 0.970220
Si Si3 0.257171 0.780486 0.561366
Si Si4 0.769857 0.954411 0.597617
Si Si5 0.799627 0.795349 0.711638
Si Si6 0.166251 0.368810 0.830366
Si Si7 0.242017 0.981544 0.850184
O O1 0.083720 0.760310 0.334273
O O2 0.845172 0.272189 0.223291
O O3 0.456268 0.759532 0.198336
O O4 0.994851 0.583347 0.170540
O O5 0.289349 0.507155 0.922433
O O6 0.500000 0.500000 0.000000
O O7 0.636386 0.915100 0.062072
O O8 0.903313 0.860001 0.897999
O O9 0.000000 0.500000 0.500000
O O10 0.072372 0.824688 0.653467
O O11 0.500000 0.000000 0.500000
O O12 0.449374 0.788651 0.580132
O O13 0.729811 0.816012 0.646752
O O14 0.000000 0.000000 0.500000
O O15 0.480975 0.520022 0.749967
O O16 0.927244 0.050190 0.795727
#
# Coordination Sequence:
#
# PCOD9066555 Si02
#       7
#     2   2   2   2   2   2   2
#     4  11  25  47  70 107 141 197 242 296 370 437
#     4  11  26  47  75 108 149 191 239 311 368 437
#     4  12  27  45  74 108 140 197 249 306 372 440
#     4  11  26  50  77 108 156 196 249 314 365 438
#     4  11  26  49  71 108 151 194 251 303 373 435
#     4  11  27  46  74 102 150 190 243 305 364 438
#     4  11  25  46  71 106 146 182 248 287 379 433
#
# _framework density 25.293213999999999
#
# number of rings (size 3 to 8) (size 9 to 14) (size 15 to 20)
#    0.000    0.857    2.857    2.571   10.000    5.143 
#    0.000    0.000    0.000    0.000    0.000    0.000 
#    0.000    0.000    0.000    0.000    0.000    0.000 
#
# Total GULP energy -78529.431974 kJ/mol
# GULP energy per Si atom -5609.245141 kJ/mol
# Density = 2.523565 g / cm^3
# Si number density = 25.293214 Si / 1000 Ang^3
#
#
#
# Elastic Constant Matrix: (Units=GPa)
#
#
# Indices 1 2 3 4 5 6 
#
# 1 124.6956 43.6674 54.1428 3.3635 30.5072 26.6503
# 2 43.6674 121.2742 35.1860 12.2344 13.8749 5.8843
# 3 54.1428 35.1860 112.1739 15.6718 19.5889 1.8151
# 4 3.3635 12.2344 15.6718 59.7982 12.7188 3.8100
# 5 30.5072 13.8749 19.5889 12.7188 55.5627 4.3404
# 6 26.6503 5.8843 1.8151 3.8100 4.3404 42.0679
#
#
#
# Elastic Compliance Matrix: (Units=1/GPa)
#
#
# Indices 1 2 3 4 5 6 
#
# 1 0.014299 -0.002888 -0.005340 0.002823 -0.005258 -0.008137
# 2 -0.002888 0.009842 -0.001485 -0.001491 -0.000059 0.000658
# 3 -0.005340 -0.001485 0.012407 -0.002710 -0.000714 0.003375
# 4 0.002823 -0.001491 -0.002710 0.018663 -0.004282 -0.002711
# 5 -0.005258 -0.000059 -0.000714 -0.004282 0.022015 0.001486
# 6 -0.008137 0.000658 0.003375 -0.002711 0.001486 0.028781
#
#
# Mechanical properties :
#
#
# Convention : Reuss Voigt Hill
#
# Bulk Modulus (GPa) = 58.40850 69.34846 63.87848
# Shear Modulus (GPa) = 38.12715 46.49560 42.31137
#
# Velocity S-wave (km/s) = 3.88674 4.29215 4.09447
# Velocity P-wave (km/s) = 6.57914 7.21393 6.90383
#
# Compressibility (1/GPa) = 0.01712080
#
# Stress axis : x y z
#
# Youngs Moduli (GPa) = 69.93599 101.60838 80.59898
#
# Poissons Ratio (x) = 0.29340 0.43043
# Poissons Ratio (y) = 0.20195 0.11972
# Poissons Ratio (z) = 0.37349 0.15093
#
# Static dielectric constant tensor:
#      x y z
#    x 2.018180 -0.007530 0.000940 
#    y -0.007530 1.954090 -0.008760 
#    z 0.000940 -0.008760 2.001700 
# 
# From -- ./inp_files/558580.got.cif
#   From: 2010.05.17/outbox.cif.g08.bks.cpg/sg2_280_cif.got.tgz:558580.got - 2010.06.03 11:33:40.
