data_PCOD9066039
_publ_section_title
;
Structure prediction by ZEFSAII (Michael W. Deem and Ramdas Pophale) SiO2 
 PCOD9066039
Probable space group: P -1
;
_chemical_formula_sum "Si O2"
_cell_formula_units_Z 12
_cell_length_a 5.226590
_cell_length_b 9.451093
_cell_length_c 16.220633
_cell_angle_alpha 48.982688
_cell_angle_beta 109.292878
_cell_angle_gamma 86.603212
_cell_volume 525.976395
_symmetry_space_group_name_H-M "P -1"
_symmetry_group_IT_number 2
_symmetry_cell_setting 'triclinic'
loop_
_space_group_symop_operation_xyz
x,y,z
-x,-y,-z
loop_
_atom_site_type_symbol
_atom_site_label
_atom_site_fract_x
_atom_site_fract_y
_atom_site_fract_z
Si Si1 0.145029 0.663196 0.462249
Si Si2 0.819763 0.859992 0.050810
Si Si3 0.242758 0.524086 0.347767
Si Si4 0.163042 0.141106 0.430760
Si Si5 0.896680 0.132885 0.242350
Si Si6 0.215929 0.274340 0.086424
O O1 0.249507 0.649143 0.382878
O O2 0.406254 0.584765 0.586985
O O3 0.000000 0.500000 0.500000
O O4 0.955792 0.900247 0.360819
O O5 0.020420 0.680446 0.201325
O O6 0.787055 0.771525 0.992687
O O7 0.500000 0.000000 0.000000
O O8 0.000000 0.000000 0.000000
O O9 0.156837 0.326297 0.417192
O O10 0.011087 0.227464 0.294136
O O11 0.500000 0.000000 0.500000
O O12 0.000000 0.000000 0.500000
O O13 0.549209 0.242367 0.153998
O O14 0.087839 0.139178 0.180494
O O15 0.000000 0.500000 0.000000
#
# Coordination Sequence:
#
# PCOD9066039 Si02
#       6
#     2   2   2   2   2   2
#     4  11  25  44  72 108 141 190 239 305 381 432
#     4  12  28  49  74 109 147 198 255 306 366 440
#     4  11  26  44  72 104 145 188 243 306 366 444
#     4  12  25  45  70 110 146 187 239 300 374 440
#     4  12  26  47  77 106 152 190 249 306 372 445
#     4  12  27  50  75 108 149 202 248 304 370 443
#
# _framework density 22.814710999999999
#
# number of rings (size 3 to 8) (size 9 to 14) (size 15 to 20)
#    0.000    0.333    1.667    6.500    9.333    1.333 
#    0.000    0.000    0.000    0.000    0.000    0.000 
#    0.000    0.000    0.000    0.000    0.000    0.000 
#
# Total GULP energy -67077.536076 kJ/mol
# GULP energy per Si atom -5589.794673 kJ/mol
# Density = 2.276278 g / cm^3
# Si number density = 22.814711 Si / 1000 Ang^3
#
#
#
# Elastic Constant Matrix: (Units=GPa)
#
#
# Indices 1 2 3 4 5 6 
#
# 1 151.1421 31.4500 54.0080 9.2257 23.2585 9.7313
# 2 31.4500 140.8991 48.5135 -0.5941 22.7390 -5.4668
# 3 54.0080 48.5135 135.8942 20.0299 21.6831 6.1160
# 4 9.2257 -0.5941 20.0299 39.1777 15.9168 -7.5260
# 5 23.2585 22.7390 21.6831 15.9168 48.7674 0.0414
# 6 9.7313 -5.4668 6.1160 -7.5260 0.0414 42.7333
#
#
#
# Elastic Compliance Matrix: (Units=1/GPa)
#
#
# Indices 1 2 3 4 5 6 
#
# 1 0.008134 -0.000586 -0.002572 0.000110 -0.002497 -0.001537
# 2 -0.000586 0.009003 -0.003046 0.003846 -0.003821 0.002402
# 3 -0.002572 -0.003046 0.010357 -0.005024 -0.000316 -0.002171
# 4 0.000110 0.003846 -0.005024 0.033831 -0.010660 0.007155
# 5 -0.002497 -0.003821 -0.000316 -0.010660 0.027099 -0.001779
# 6 -0.001537 0.002402 -0.002171 0.007155 -0.001779 0.025631
#
#
# Mechanical properties :
#
#
# Convention : Reuss Voigt Hill
#
# Bulk Modulus (GPa) = 66.29103 77.31983 71.80543
# Shear Modulus (GPa) = 38.02502 45.73328 41.87915
#
# Velocity S-wave (km/s) = 4.08694 4.48208 4.28906
# Velocity P-wave (km/s) = 7.16869 7.79418 7.48797
#
# Compressibility (1/GPa) = 0.01508500
#
# Stress axis : x y z
#
# Youngs Moduli (GPa) = 122.94347 111.07233 96.55258
#
# Poissons Ratio (x) = 0.06511 0.24832
# Poissons Ratio (y) = 0.07207 0.29414
# Poissons Ratio (z) = 0.31620 0.33837
#
# Static dielectric constant tensor:
#      x y z
#    x 1.990140 -0.114870 -0.052310 
#    y -0.114870 1.851000 0.031930 
#    z -0.052310 0.031930 1.836000 
# 
# From -- ./inp_files/502450.got.cif
#   From: 2010.05.17/outbox.cif.g08.bks.cpg/sg2_252_cif.got.tgz:502450.got - 2010.06.03 11:33:40.
