data_PCOD9066190
_publ_section_title
;
Structure prediction by ZEFSAII (Michael W. Deem and Ramdas Pophale) SiO2 
 PCOD9066190
Probable space group: P -1
;
_chemical_formula_sum "Si O2"
_cell_formula_units_Z 12
_cell_length_a 8.091870
_cell_length_b 6.935219
_cell_length_c 9.609977
_cell_angle_alpha 58.152923
_cell_angle_beta 106.903990
_cell_angle_gamma 95.323383
_cell_volume 437.098894
_symmetry_space_group_name_H-M "P -1"
_symmetry_group_IT_number 2
_symmetry_cell_setting 'triclinic'
loop_
_space_group_symop_operation_xyz
x,y,z
-x,-y,-z
loop_
_atom_site_type_symbol
_atom_site_label
_atom_site_fract_x
_atom_site_fract_y
_atom_site_fract_z
Si Si1 0.860330 0.171028 0.324729
Si Si2 0.767923 0.361589 0.654899
Si Si3 0.584823 0.830222 0.429544
Si Si4 0.339933 0.426486 0.182709
Si Si5 0.691860 0.642314 0.116598
Si Si6 0.072307 0.030301 0.853209
O O1 0.679830 0.051070 0.330573
O O2 0.918138 0.169882 0.178850
O O3 0.000000 0.000000 0.500000
O O4 0.822110 0.424400 0.272495
O O5 0.700999 0.606914 0.483153
O O6 0.607135 0.205295 0.655320
O O7 0.785686 0.424076 0.799600
O O8 0.935718 0.228918 0.685176
O O9 0.600435 0.778966 0.618778
O O10 0.501246 0.576157 0.132946
O O11 0.713888 0.657835 0.948604
O O12 0.744211 0.867710 0.117274
O O13 0.000000 0.000000 0.000000
#
# Coordination Sequence:
#
# PCOD9066190 Si02
#       6
#     2   2   2   2   2   2
#     4  12  28  43  70 106 135 181 226 277 342 406
#     4   9  20  41  70  96 136 174 226 278 329 400
#     4   9  21  42  69  98 133 176 229 274 337 391
#     4   9  21  43  71  96 133 187 217 286 331 395
#     4  11  25  45  70  98 142 173 234 276 335 407
#     4  12  28  44  69 102 141 182 219 281 347 401
#
# _framework density 27.453741000000001
#
# number of rings (size 3 to 8) (size 9 to 14) (size 15 to 20)
#    1.000    0.667    0.000    3.000    4.667    6.000 
#    0.000    5.833    0.000    0.000    0.000    0.000 
#    0.000    0.000    0.000    0.000    0.000    0.000 
#
# Total GULP energy -67268.618310 kJ/mol
# GULP energy per Si atom -5605.718192 kJ/mol
# Density = 2.739125 g / cm^3
# Si number density = 27.453741 Si / 1000 Ang^3
#
#
#
# Elastic Constant Matrix: (Units=GPa)
#
#
# Indices 1 2 3 4 5 6 
#
# 1 68.8313 15.6950 -7.8807 3.1995 -9.4969 -5.1370
# 2 15.6950 74.3111 8.0231 5.1570 -1.9102 -11.5502
# 3 -7.8807 8.0231 111.5898 13.8917 -14.9425 -2.6076
# 4 3.1995 5.1570 13.8917 36.0389 -4.9584 -5.4178
# 5 -9.4969 -1.9102 -14.9425 -4.9584 45.4718 2.2467
# 6 -5.1370 -11.5502 -2.6076 -5.4178 2.2467 46.4525
#
#
#
# Elastic Compliance Matrix: (Units=1/GPa)
#
#
# Indices 1 2 3 4 5 6 
#
# 1 0.016148 -0.003339 0.002038 -0.001112 0.003743 0.000759
# 2 -0.003339 0.014835 -0.001204 -0.000986 -0.000734 0.003172
# 3 0.002038 -0.001204 0.010062 -0.003442 0.003310 -0.000071
# 4 -0.001112 -0.000986 -0.003442 0.029980 0.001723 0.002852
# 5 0.003743 -0.000734 0.003310 0.001723 0.024045 -0.000545
# 6 0.000759 0.003172 -0.000071 0.002852 -0.000545 0.022755
#
#
# Mechanical properties :
#
#
# Convention : Reuss Voigt Hill
#
# Bulk Modulus (GPa) = 27.75125 31.82302 29.78713
# Shear Modulus (GPa) = 37.07918 41.51897 39.29907
#
# Velocity S-wave (km/s) = 3.67905 3.89308 3.78758
# Velocity P-wave (km/s) = 5.30825 5.64134 5.47733
#
# Compressibility (1/GPa) = 0.03603441
#
# Stress axis : x y z
#
# Youngs Moduli (GPa) = 61.92798 67.40908 99.38448
#
# Poissons Ratio (x) = 0.22509 -0.20253
# Poissons Ratio (y) = 0.20679 0.11964
# Poissons Ratio (z) = -0.12620 0.08115
#
# Static dielectric constant tensor:
#      x y z
#    x 2.157450 -0.057900 0.070660 
#    y -0.057900 2.102580 -0.042580 
#    z 0.070660 -0.042580 2.242350 
# 
# From -- ./inp_files/171240.got.cif
#   From: 2010.05.17/outbox.cif.g08.bks.cpg/sg2_86_cif.got.tgz:171240.got - 2010.06.03 11:33:40.
