data_PCOD9066510
_publ_section_title
;
Structure prediction by ZEFSAII (Michael W. Deem and Ramdas Pophale) SiO2 
 PCOD9066510
Probable space group: P -1
;
_chemical_formula_sum "Si O2"
_cell_formula_units_Z 16
_cell_length_a 9.441877
_cell_length_b 15.398206
_cell_length_c 5.179043
_cell_angle_alpha 92.726239
_cell_angle_beta 76.622028
_cell_angle_gamma 79.599481
_cell_volume 717.356091
_symmetry_space_group_name_H-M "P -1"
_symmetry_group_IT_number 2
_symmetry_cell_setting 'triclinic'
loop_
_space_group_symop_operation_xyz
x,y,z
-x,-y,-z
loop_
_atom_site_type_symbol
_atom_site_label
_atom_site_fract_x
_atom_site_fract_y
_atom_site_fract_z
Si Si1 0.482980 0.350968 0.008964
Si Si2 0.634021 0.487920 0.246781
Si Si3 0.998543 0.938886 0.240131
Si Si4 0.454641 0.908231 0.584732
Si Si5 0.769254 0.814591 0.257621
Si Si6 0.794783 0.711812 0.714383
Si Si7 0.322061 0.844948 0.146630
Si Si8 0.037728 0.551327 0.740917
O O1 0.594388 0.414248 0.058755
O O2 0.354059 0.329505 0.248806
O O3 0.587360 0.256313 0.889181
O O4 0.379431 0.414414 0.856025
O O5 0.500000 0.500000 0.500000
O O6 0.788379 0.450887 0.313104
O O7 0.855492 0.894217 0.273469
O O8 0.147282 0.861923 0.162614
O O9 0.000000 0.000000 0.500000
O O10 0.000000 0.000000 0.000000
O O11 0.604541 0.838627 0.447515
O O12 0.398181 0.894566 0.894865
O O13 0.500000 0.000000 0.500000
O O14 0.336275 0.889044 0.423883
O O15 0.842292 0.738062 0.415402
O O16 0.761023 0.789539 0.956918
O O17 0.932005 0.645908 0.774841
O O18 0.000000 0.500000 0.500000
O O19 0.000000 0.500000 0.000000
#
# Coordination Sequence:
#
# PCOD9066510 Si02
#       8
#     2   2   2   2   2   2   2   2
#     4  11  25  46  70 106 145 185 249 298 365 416
#     4  11  27  45  75 104 147 194 244 305 360 430
#     4  12  27  50  71 103 149 187 231 295 361 430
#     4  12  24  44  72 106 135 183 236 290 351 432
#     4  12  25  45  71 104 138 186 233 295 357 419
#     4  12  25  45  71 105 143 183 240 299 350 430
#     4  12  26  44  75 103 141 189 233 292 357 423
#     4  12  26  46  73 102 143 192 235 290 364 423
#
# _framework density 22.304123000000001
#
# number of rings (size 3 to 8) (size 9 to 14) (size 15 to 20)
#    0.000    0.250    3.750    4.875    7.000    1.000 
#    0.000    0.000    0.000    0.000    0.000    0.000 
#    0.000    0.000    0.000    0.000    0.000    0.000 
#
# Total GULP energy -89464.146169 kJ/mol
# GULP energy per Si atom -5591.509136 kJ/mol
# Density = 2.225336 g / cm^3
# Si number density = 22.304123 Si / 1000 Ang^3
#
#
#
# Elastic Constant Matrix: (Units=GPa)
#
#
# Indices 1 2 3 4 5 6 
#
# 1 130.1932 10.1076 9.9031 4.6597 -1.3794 -11.2275
# 2 10.1076 90.6349 18.1684 -10.8211 8.0503 -7.8995
# 3 9.9031 18.1684 84.7937 -9.3167 15.2288 14.4557
# 4 4.6597 -10.8211 -9.3167 33.2293 -3.3518 -6.7531
# 5 -1.3794 8.0503 15.2288 -3.3518 38.8635 2.0207
# 6 -11.2275 -7.8995 14.4557 -6.7531 2.0207 35.7033
#
#
#
# Elastic Compliance Matrix: (Units=1/GPa)
#
#
# Indices 1 2 3 4 5 6 
#
# 1 0.008134 -0.000547 -0.001575 -0.001109 0.000777 0.002821
# 2 -0.000547 0.012675 -0.002711 0.004235 -0.001457 0.004614
# 3 -0.001575 -0.002711 0.014700 0.001665 -0.004775 -0.006462
# 4 -0.001109 0.004235 0.001665 0.033453 0.000995 0.006185
# 5 0.000777 -0.001457 -0.004775 0.000995 0.027994 0.000459
# 6 0.002821 0.004614 -0.006462 0.006185 0.000459 0.033677
#
#
# Mechanical properties :
#
#
# Convention : Reuss Voigt Hill
#
# Bulk Modulus (GPa) = 38.69567 42.44223 40.56895
# Shear Modulus (GPa) = 33.57643 39.38873 36.48258
#
# Velocity S-wave (km/s) = 3.88415 4.20692 4.04875
# Velocity P-wave (km/s) = 6.12391 6.53206 6.33127
#
# Compressibility (1/GPa) = 0.02584268
#
# Stress axis : x y z
#
# Youngs Moduli (GPa) = 122.93532 78.89586 68.02524
#
# Poissons Ratio (x) = 0.04315 0.10715
# Poissons Ratio (y) = 0.06723 0.18445
# Poissons Ratio (z) = 0.19364 0.21393
#
# Static dielectric constant tensor:
#      x y z
#    x 1.816260 -0.014700 0.047830 
#    y -0.014700 1.907840 0.005170 
#    z 0.047830 0.005170 1.776110 
# 
# From -- ./inp_files/38458.got.cif
#   From: 2010.05.17/outbox.cif.g08.bks.cpg/sg2_20_cif.got.tgz:38458.got - 2010.06.03 11:33:40.
