data_PCOD9066067
_publ_section_title
;
Structure prediction by ZEFSAII (Michael W. Deem and Ramdas Pophale) SiO2 
 PCOD9066067
Probable space group: P -1
;
_chemical_formula_sum "Si O2"
_cell_formula_units_Z 12
_cell_length_a 10.706449
_cell_length_b 9.488257
_cell_length_c 9.331344
_cell_angle_alpha 89.809285
_cell_angle_beta 51.963920
_cell_angle_gamma 127.169193
_cell_volume 476.647662
_symmetry_space_group_name_H-M "P -1"
_symmetry_group_IT_number 2
_symmetry_cell_setting 'triclinic'
loop_
_space_group_symop_operation_xyz
x,y,z
-x,-y,-z
loop_
_atom_site_type_symbol
_atom_site_label
_atom_site_fract_x
_atom_site_fract_y
_atom_site_fract_z
Si Si1 0.233273 0.990114 0.548908
Si Si2 0.705897 0.779494 0.714341
Si Si3 0.393552 0.899318 0.234587
Si Si4 0.121235 0.739885 0.912033
Si Si5 0.759307 0.743497 0.263117
Si Si6 0.491290 0.663088 0.179067
O O1 0.426852 0.216672 0.313278
O O2 0.175957 0.848766 0.452630
O O3 0.140072 0.067276 0.699645
O O4 0.207973 0.858055 0.694127
O O5 0.648009 0.579308 0.725319
O O6 0.617470 0.758821 0.934151
O O7 0.000000 0.000000 0.500000
O O8 0.629612 0.087737 0.170755
O O9 0.330286 0.692942 0.304772
O O10 0.500000 0.000000 0.000000
O O11 0.000000 0.500000 0.000000
O O12 0.934535 0.730096 0.107966
O O13 0.500000 0.500000 0.500000
O O14 0.680608 0.776615 0.176647
#
# Coordination Sequence:
#
# PCOD9066067 Si02
#       6
#     2   2   2   2   2   2
#     4  12  25  45  73 105 149 194 251 305 374 446
#     4  11  25  44  73 109 145 198 251 308 379 451
#     4  12  27  49  72 110 154 197 245 314 381 445
#     4  12  29  46  76 113 151 194 254 312 378 449
#     4  12  25  46  76 107 142 198 255 305 373 445
#     4  11  25  46  74 104 154 192 252 310 375 444
#
# _framework density 25.175829
#
# number of rings (size 3 to 8) (size 9 to 14) (size 15 to 20)
#    0.000    0.333    5.000    3.000    4.667    1.333 
#    0.000    1.667    0.000    0.000    0.000    0.000 
#    0.000    0.000    0.000    0.000    0.000    0.000 
#
# Total GULP energy -66854.100148 kJ/mol
# GULP energy per Si atom -5571.175012 kJ/mol
# Density = 2.511853 g / cm^3
# Si number density = 25.175829 Si / 1000 Ang^3
#
#
#
# Elastic Constant Matrix: (Units=GPa)
#
#
# Indices 1 2 3 4 5 6 
#
# 1 112.7702 46.3628 67.9266 11.2455 17.7670 -33.7034
# 2 46.3628 144.6583 70.6930 28.6371 3.9122 -51.5731
# 3 67.9266 70.6930 137.4713 8.1653 34.1681 -13.3438
# 4 11.2455 28.6371 8.1653 55.4415 -9.6612 -0.4171
# 5 17.7670 3.9122 34.1681 -9.6612 59.8120 2.9709
# 6 -33.7034 -51.5731 -13.3438 -0.4171 2.9709 55.2626
#
#
#
# Elastic Compliance Matrix: (Units=1/GPa)
#
#
# Indices 1 2 3 4 5 6 
#
# 1 0.016483 0.003849 -0.008317 -0.004311 -0.001674 0.011694
# 2 0.003849 0.017591 -0.009032 -0.008290 0.000708 0.016483
# 3 -0.008317 -0.009032 0.016268 0.002964 -0.005293 -0.009266
# 4 -0.004311 -0.008290 0.002964 0.023450 0.004400 -0.009709
# 5 -0.001674 0.000708 -0.005293 0.004400 0.021040 -0.002737
# 6 0.011694 0.016483 -0.009266 -0.009709 -0.002737 0.038446
#
#
# Mechanical properties :
#
#
# Convention : Reuss Voigt Hill
#
# Bulk Modulus (GPa) = 42.83670 84.98497 63.91084
# Shear Modulus (GPa) = 29.75132 48.09772 38.92452
#
# Velocity S-wave (km/s) = 3.44138 4.37564 3.93632
# Velocity P-wave (km/s) = 5.73086 7.70442 6.78973
#
# Compressibility (1/GPa) = 0.02334447
#
# Stress axis : x y z
#
# Youngs Moduli (GPa) = 60.66723 56.84686 61.46925
#
# Poissons Ratio (x) = -0.21882 0.51123
# Poissons Ratio (y) = -0.23353 0.55517
# Poissons Ratio (z) = 0.50456 0.51342
#
# Static dielectric constant tensor:
#      x y z
#    x 2.311240 -0.043180 -0.058070 
#    y -0.043180 2.053920 0.040730 
#    z -0.058070 0.040730 2.046700 
# 
# From -- ./inp_files/160037.got.cif
#   From: 2010.05.17/outbox.cif.g08.bks.cpg/sg2_81_cif.got.tgz:160037.got - 2010.06.03 11:33:40.
