data_PCOD9066286
_publ_section_title
;
Structure prediction by ZEFSAII (Michael W. Deem and Ramdas Pophale) SiO2 
 PCOD9066286
Probable space group: P -1
;
_chemical_formula_sum "Si O2"
_cell_formula_units_Z 16
_cell_length_a 11.835782
_cell_length_b 5.714444
_cell_length_c 12.608831
_cell_angle_alpha 123.062701
_cell_angle_beta 99.558869
_cell_angle_gamma 87.344764
_cell_volume 703.771965
_symmetry_space_group_name_H-M "P -1"
_symmetry_group_IT_number 2
_symmetry_cell_setting 'triclinic'
loop_
_space_group_symop_operation_xyz
x,y,z
-x,-y,-z
loop_
_atom_site_type_symbol
_atom_site_label
_atom_site_fract_x
_atom_site_fract_y
_atom_site_fract_z
Si Si1 0.452991 0.574342 0.894845
Si Si2 0.982919 0.749029 0.231096
Si Si3 0.374113 0.842515 0.446596
Si Si4 0.663926 0.879061 0.921138
Si Si5 0.107271 0.310881 0.458207
Si Si6 0.917168 0.760488 0.975679
Si Si7 0.696181 0.783209 0.670662
Si Si8 0.247486 0.240589 0.665597
O O1 0.566100 0.633562 0.857262
O O2 0.360763 0.367006 0.773061
O O3 0.500000 0.500000 0.000000
O O4 0.386228 0.857350 0.964907
O O5 0.859434 0.736581 0.266268
O O6 0.062354 0.488459 0.165966
O O7 0.955146 0.765764 0.105602
O O8 0.052580 0.995113 0.365265
O O9 0.378651 0.510256 0.391308
O O10 0.500000 0.000000 0.500000
O O11 0.325366 0.985321 0.366464
O O12 0.292061 0.952710 0.554649
O O13 0.783153 0.803374 0.969422
O O14 0.689560 0.945019 0.819529
O O15 0.180398 0.329879 0.367077
O O16 0.196745 0.377243 0.584364
O O17 0.000000 0.500000 0.500000
O O18 0.000000 0.000000 0.000000
#
# Coordination Sequence:
#
# PCOD9066286 Si02
#       8
#     2   2   2   2   2   2   2   2
#     4  11  26  48  70 106 142 196 248 314 372 451
#     4  11  25  45  73 107 144 194 245 315 380 451
#     4  11  25  47  72 108 144 198 250 312 365 451
#     4  11  26  43  75 102 147 193 249 311 376 446
#     4  11  26  44  72 107 148 194 246 311 380 455
#     4  11  25  45  73 108 146 190 251 310 381 456
#     4  11  26  45  73 106 147 193 248 305 378 442
#     4  11  25  45  74 103 147 191 254 301 384 447
#
# _framework density 22.734636999999999
#
# number of rings (size 3 to 8) (size 9 to 14) (size 15 to 20)
#    0.000    1.000    0.000    4.500   12.250    3.000 
#    4.500    0.000    0.000    0.000    0.000    0.000 
#    0.000    0.000    0.000    0.000    0.000    0.000 
#
# Total GULP energy -89203.630048 kJ/mol
# GULP energy per Si atom -5575.226878 kJ/mol
# Density = 2.268289 g / cm^3
# Si number density = 22.734637 Si / 1000 Ang^3
#
#
#
# Elastic Constant Matrix: (Units=GPa)
#
#
# Indices 1 2 3 4 5 6 
#
# 1 119.4995 12.7469 17.7232 -5.2873 3.2229 1.7647
# 2 12.7469 56.7732 28.0545 4.5040 7.9823 -0.3586
# 3 17.7232 28.0545 96.5043 -18.5900 3.4975 -1.8968
# 4 -5.2873 4.5040 -18.5900 35.0733 3.1101 -10.4200
# 5 3.2229 7.9823 3.4975 3.1101 52.4219 -4.2498
# 6 1.7647 -0.3586 -1.8968 -10.4200 -4.2498 31.4078
#
#
#
# Elastic Compliance Matrix: (Units=1/GPa)
#
#
# Indices 1 2 3 4 5 6 
#
# 1 0.008728 -0.001505 -0.000981 0.000928 -0.000322 -0.000303
# 2 -0.001505 0.022832 -0.007875 -0.008036 -0.002638 -0.003153
# 3 -0.000981 -0.007875 0.014832 0.009962 0.000017 0.004168
# 4 0.000928 -0.008036 0.009962 0.038977 -0.000733 0.013290
# 5 -0.000322 -0.002638 0.000017 -0.000733 0.019736 0.002416
# 6 -0.000303 -0.003153 0.004168 0.013290 0.002416 0.036808
#
#
# Mechanical properties :
#
#
# Convention : Reuss Voigt Hill
#
# Bulk Modulus (GPa) = 38.95710 43.31404 41.13557
# Shear Modulus (GPa) = 29.20681 38.06408 33.63545
#
# Velocity S-wave (km/s) = 3.58814 4.09623 3.85057
# Velocity P-wave (km/s) = 5.85995 6.43937 6.15648
#
# Compressibility (1/GPa) = 0.02566926
#
# Stress axis : x y z
#
# Youngs Moduli (GPa) = 114.56738 43.79819 67.42118
#
# Poissons Ratio (x) = 0.06593 0.06614
# Poissons Ratio (y) = 0.17246 0.53097
# Poissons Ratio (z) = 0.11239 0.34493
#
# Static dielectric constant tensor:
#      x y z
#    x 1.886110 -0.039650 0.059400 
#    y -0.039650 1.942460 -0.016090 
#    z 0.059400 -0.016090 1.844490 
# 
# From -- ./inp_files/68429.got.cif
#   From: 2010.05.17/outbox.cif.g08.bks.cpg/sg2_35_cif.got.tgz:68429.got - 2010.06.03 11:33:40.
