data_PCOD9066557
_publ_section_title
;
Structure prediction by ZEFSAII (Michael W. Deem and Ramdas Pophale) SiO2 
 PCOD9066557
Probable space group: P -1
;
_chemical_formula_sum "Si O2"
_cell_formula_units_Z 16
_cell_length_a 9.103183
_cell_length_b 15.253019
_cell_length_c 14.165218
_cell_angle_alpha 28.686403
_cell_angle_beta 84.619412
_cell_angle_gamma 66.769586
_cell_volume 711.718107
_symmetry_space_group_name_H-M "P -1"
_symmetry_group_IT_number 2
_symmetry_cell_setting 'triclinic'
loop_
_space_group_symop_operation_xyz
x,y,z
-x,-y,-z
loop_
_atom_site_type_symbol
_atom_site_label
_atom_site_fract_x
_atom_site_fract_y
_atom_site_fract_z
Si Si1 0.678957 0.810997 0.059363
Si Si2 0.439616 0.343261 0.625213
Si Si3 0.533955 0.771486 0.755513
Si Si4 0.046901 0.679303 0.782479
Si Si5 0.261252 0.857266 0.535730
Si Si6 0.373612 0.473357 0.296105
Si Si7 0.646830 0.086697 0.158729
Si Si8 0.075855 0.426678 0.295368
O O1 0.689024 0.651399 0.292344
O O2 0.876921 0.658398 0.133683
O O3 0.504571 0.884517 0.931453
O O4 0.619060 0.055508 0.874559
O O5 0.500000 0.500000 0.500000
O O6 0.344216 0.436057 0.440526
O O7 0.414078 0.734572 0.729213
O O8 0.447528 0.834419 0.806191
O O9 0.500000 0.000000 0.500000
O O10 0.758417 0.544375 0.968367
O O11 0.118889 0.800772 0.606198
O O12 0.967212 0.616667 0.764120
O O13 0.881842 0.860310 0.698177
O O14 0.400582 0.741829 0.545682
O O15 0.237991 0.453416 0.260497
O O16 0.324836 0.725886 0.048781
O O17 0.836657 0.808588 0.423556
#
# Coordination Sequence:
#
# PCOD9066557 Si02
#       8
#     2   2   2   2   2   2   2   2
#     4  11  25  50  81 106 154 190 246 308 371 452
#     4  11  25  49  81 112 141 198 245 310 381 434
#     4  12  25  45  71 105 150 196 246 301 363 436
#     4  11  25  47  73 103 148 200 247 297 366 437
#     4  11  25  46  71 106 146 197 248 303 355 440
#     4  12  26  47  77 107 154 194 250 312 371 435
#     4  12  24  50  73 108 154 194 243 313 361 440
#     4  12  26  48  75 115 145 198 245 301 378 445
#
# _framework density 22.480810999999999
#
# number of rings (size 3 to 8) (size 9 to 14) (size 15 to 20)
#    0.000    0.500    6.250    1.125    0.000    2.000 
#    6.750    1.250    0.000    0.000    0.000    0.000 
#    0.000    0.000    0.000    0.000    0.000    0.000 
#
# Total GULP energy -89619.347492 kJ/mol
# GULP energy per Si atom -5601.209218 kJ/mol
# Density = 2.242964 g / cm^3
# Si number density = 22.480811 Si / 1000 Ang^3
#
#
#
# Elastic Constant Matrix: (Units=GPa)
#
#
# Indices 1 2 3 4 5 6 
#
# 1 105.4271 14.9222 29.8119 -12.7419 -16.0366 18.9834
# 2 14.9222 60.7872 -0.1572 4.7819 -8.1006 11.2872
# 3 29.8119 -0.1572 107.5472 -9.8713 -2.7874 0.6292
# 4 -12.7419 4.7819 -9.8713 45.6402 -2.9933 0.8938
# 5 -16.0366 -8.1006 -2.7874 -2.9933 44.4711 3.7956
# 6 18.9834 11.2872 0.6292 0.8938 3.7956 30.9418
#
#
#
# Elastic Compliance Matrix: (Units=1/GPa)
#
#
# Indices 1 2 3 4 5 6 
#
# 1 0.013338 -0.001300 -0.003173 0.003689 0.005340 -0.008406
# 2 -0.001300 0.018540 0.000338 -0.001889 0.003342 -0.006328
# 3 -0.003173 0.000338 0.010269 0.001235 -0.000496 0.001640
# 4 0.003689 -0.001889 0.001235 0.023646 0.002880 -0.002635
# 5 0.005340 0.003342 -0.000496 0.002880 0.025844 -0.007739
# 6 -0.008406 -0.006328 0.001640 -0.002635 -0.007739 0.040776
#
#
# Mechanical properties :
#
#
# Convention : Reuss Voigt Hill
#
# Bulk Modulus (GPa) = 29.51927 40.32392 34.92159
# Shear Modulus (GPa) = 32.89979 39.48960 36.19469
#
# Velocity S-wave (km/s) = 3.82967 4.19572 4.01687
# Velocity P-wave (km/s) = 5.71966 6.43802 6.08944
#
# Compressibility (1/GPa) = 0.03387618
#
# Stress axis : x y z
#
# Youngs Moduli (GPa) = 74.97295 53.93785 97.37827
#
# Poissons Ratio (x) = 0.07013 0.30899
# Poissons Ratio (y) = 0.09748 -0.03289
# Poissons Ratio (z) = 0.23789 -0.01822
#
# Static dielectric constant tensor:
#      x y z
#    x 1.828490 0.002270 -0.047400 
#    y 0.002270 1.840240 -0.016710 
#    z -0.047400 -0.016710 1.865580 
# 
# From -- ./inp_files/504999.got.cif
#   From: 2010.05.17/outbox.cif.g08.bks.cpg/sg2_253_cif.got.tgz:504999.got - 2010.06.03 11:33:40.
