data_PCOD9066641
_publ_section_title
;
Structure prediction by ZEFSAII (Michael W. Deem and Ramdas Pophale) SiO2 
 PCOD9066641
Probable space group: P -1
;
_chemical_formula_sum "Si O2"
_cell_formula_units_Z 16
_cell_length_a 9.417190
_cell_length_b 13.860106
_cell_length_c 7.983713
_cell_angle_alpha 108.719306
_cell_angle_beta 65.008842
_cell_angle_gamma 133.626073
_cell_volume 682.991567
_symmetry_space_group_name_H-M "P -1"
_symmetry_group_IT_number 2
_symmetry_cell_setting 'triclinic'
loop_
_space_group_symop_operation_xyz
x,y,z
-x,-y,-z
loop_
_atom_site_type_symbol
_atom_site_label
_atom_site_fract_x
_atom_site_fract_y
_atom_site_fract_z
Si Si1 0.990456 0.880349 0.881130
Si Si2 0.644982 0.110786 0.210152
Si Si3 0.450535 0.364133 0.915146
Si Si4 0.134094 0.608951 0.636414
Si Si5 0.075978 0.143437 0.491990
Si Si6 0.768537 0.172824 0.799586
Si Si7 0.174032 0.573709 0.095675
Si Si8 0.517660 0.391596 0.500370
O O1 0.974990 0.859630 0.678102
O O2 0.196351 0.912641 0.853525
O O3 0.786980 0.753409 0.999081
O O4 0.000000 0.000000 0.000000
O O5 0.711797 0.231886 0.364735
O O6 0.417352 0.971134 0.267429
O O7 0.688376 0.161437 0.023113
O O8 0.588678 0.357771 0.974713
O O9 0.507498 0.371900 0.696085
O O10 0.500000 0.500000 0.000000
O O11 0.272378 0.577894 0.633994
O O12 0.000000 0.500000 0.500000
O O13 0.938064 0.561731 0.815446
O O14 0.319377 0.251680 0.451030
O O15 0.966361 0.183751 0.683361
O O16 0.000000 0.000000 0.500000
O O17 0.816900 0.305039 0.776779
O O18 0.000000 0.500000 0.000000
O O19 0.500000 0.500000 0.500000
#
# Coordination Sequence:
#
# PCOD9066641 Si02
#       8
#     2   2   2   2   2   2   2   2
#     4  12  27  46  73 103 145 188 239 297 363 432
#     4  11  25  46  73 102 143 188 236 299 359 432
#     4  12  27  45  71 105 147 188 241 295 359 426
#     4  12  26  46  71 105 148 188 243 294 357 428
#     4  12  27  46  72 104 142 190 240 297 360 431
#     4  11  25  46  73 104 140 187 242 291 364 432
#     4  12  26  44  73 107 144 192 238 296 361 430
#     4  12  27  45  72 105 146 190 239 298 355 426
#
# _framework density 23.426352999999999
#
# number of rings (size 3 to 8) (size 9 to 14) (size 15 to 20)
#    0.000    0.250    2.500    6.000    8.750    2.500 
#    0.000    0.000    0.000    0.000    0.000    0.000 
#    0.000    0.000    0.000    0.000    0.000    0.000 
#
# Total GULP energy -89348.793954 kJ/mol
# GULP energy per Si atom -5584.299622 kJ/mol
# Density = 2.337303 g / cm^3
# Si number density = 23.426353 Si / 1000 Ang^3
#
#
#
# Elastic Constant Matrix: (Units=GPa)
#
#
# Indices 1 2 3 4 5 6 
#
# 1 123.0150 28.4944 -1.4682 6.2753 -16.1208 6.7852
# 2 28.4944 155.7408 13.8424 15.1730 -1.4477 1.2053
# 3 -1.4682 13.8424 55.8359 -2.3750 3.5908 2.5168
# 4 6.2753 15.1730 -2.3750 43.5361 1.8173 -7.1654
# 5 -16.1208 -1.4477 3.5908 1.8173 38.2404 9.9488
# 6 6.7852 1.2053 2.5168 -7.1654 9.9488 45.1582
#
#
#
# Elastic Compliance Matrix: (Units=1/GPa)
#
#
# Indices 1 2 3 4 5 6 
#
# 1 0.009305 -0.001537 0.000390 -0.001404 0.004573 -0.002609
# 2 -0.001537 0.007105 -0.001892 -0.002394 -0.000029 -0.000227
# 3 0.000390 -0.001892 0.018581 0.001613 -0.001617 -0.000432
# 4 -0.001404 -0.002394 0.001613 0.025035 -0.003294 0.004883
# 5 0.004573 -0.000029 -0.001617 -0.003294 0.030420 -0.007821
# 6 -0.002609 -0.000227 -0.000432 0.004883 -0.007821 0.025064
#
#
# Mechanical properties :
#
#
# Convention : Reuss Voigt Hill
#
# Bulk Modulus (GPa) = 34.58812 46.25874 40.42343
# Shear Modulus (GPa) = 38.10191 44.96848 41.53519
#
# Velocity S-wave (km/s) = 4.03731 4.38604 4.21528
# Velocity P-wave (km/s) = 6.04399 6.74085 6.40191
#
# Compressibility (1/GPa) = 0.02891166
#
# Stress axis : x y z
#
# Youngs Moduli (GPa) = 107.47188 140.74461 53.81881
#
# Poissons Ratio (x) = 0.21639 -0.02097
# Poissons Ratio (y) = 0.16524 0.10180
# Poissons Ratio (z) = -0.04187 0.26624
#
# Static dielectric constant tensor:
#      x y z
#    x 1.837530 -0.021970 0.054940 
#    y -0.021970 1.788230 0.015870 
#    z 0.054940 0.015870 1.963910 
# 
# From -- ./inp_files/208245.got.cif
#   From: 2010.05.17/outbox.cif.g08.bks.cpg/sg2_105_cif.got.tgz:208245.got - 2010.06.03 11:33:40.
