data_PCOD9066223
_publ_section_title
;
Structure prediction by ZEFSAII (Michael W. Deem and Ramdas Pophale) SiO2 
 PCOD9066223
Probable space group: P -1
;
_chemical_formula_sum "Si O2"
_cell_formula_units_Z 13
_cell_length_a 20.059552
_cell_length_b 8.190980
_cell_length_c 8.553052
_cell_angle_alpha 52.401270
_cell_angle_beta 153.150422
_cell_angle_gamma 123.863171
_cell_volume 502.563322
_symmetry_space_group_name_H-M "P -1"
_symmetry_group_IT_number 2
_symmetry_cell_setting 'triclinic'
loop_
_space_group_symop_operation_xyz
x,y,z
-x,-y,-z
loop_
_atom_site_type_symbol
_atom_site_label
_atom_site_fract_x
_atom_site_fract_y
_atom_site_fract_z
Si Si1 0.676059 0.740286 0.482728
Si Si2 0.965971 0.031871 0.230924
Si Si3 0.637440 0.894013 0.640286
Si Si4 0.748195 0.144211 0.223695
Si Si5 0.565933 0.293766 0.452922
Si Si6 0.000000 0.500000 0.000000
Si Si7 0.986706 0.399252 0.701766
O O1 0.592901 0.775730 0.453905
O O2 0.609949 0.533316 0.378802
O O3 0.662486 0.949507 0.234231
O O4 0.853546 0.710493 0.883828
O O5 0.960314 0.260849 0.016980
O O6 0.000000 0.000000 0.500000
O O7 0.098006 0.935293 0.471600
O O8 0.807925 0.925262 0.943709
O O9 0.596489 0.752530 0.787907
O O10 0.593088 0.124991 0.472947
O O11 0.817159 0.304089 0.399037
O O12 0.662476 0.231901 0.844693
O O13 0.003794 0.442733 0.227949
O O14 0.000000 0.500000 0.500000
#
# Coordination Sequence:
#
# PCOD9066223 Si02
#       7
#     2   2   2   2   2   1   2
#     4  12  24  45  70 100 141 183 239 294 358 429
#     4  12  23  42  71 102 137 182 234 299 356 422
#     4  11  25  45  71  98 144 186 237 293 354 432
#     4  12  24  43  71 102 139 178 239 293 357 429
#     4  11  26  48  67 100 142 190 235 292 356 431
#     4  12  26  40  68 112 140 180 236 300 362 426
#     4  12  23  42  69 106 144 183 233 304 363 417
#
# _framework density 25.867386
#
# number of rings (size 3 to 8) (size 9 to 14) (size 15 to 20)
#    0.000    0.308    6.154    3.692    0.000    0.615 
#    0.000    4.615    0.000    0.000    0.000    0.000 
#    0.000    0.000    0.000    0.000    0.000    0.000 
#
# Total GULP energy -72412.162287 kJ/mol
# GULP energy per Si atom -5570.166330 kJ/mol
# Density = 2.580851 g / cm^3
# Si number density = 25.867386 Si / 1000 Ang^3
#
#
#
# Elastic Constant Matrix: (Units=GPa)
#
#
# Indices 1 2 3 4 5 6 
#
# 1 101.6918 23.8738 -8.1319 27.8098 -19.7363 -8.3551
# 2 23.8738 122.4366 9.2111 -14.7715 11.9491 4.0427
# 3 -8.1319 9.2111 46.5271 -6.3219 -4.3427 -6.7197
# 4 27.8098 -14.7715 -6.3219 3.9217 27.2808 -22.2088
# 5 -19.7363 11.9491 -4.3427 27.2808 5.9143 22.4695
# 6 -8.3551 4.0427 -6.7197 -22.2088 22.4695 43.5558
#
#
#
# Elastic Compliance Matrix: (Units=1/GPa)
#
#
# Indices 1 2 3 4 5 6 
#
# 1 0.009085 -0.001339 0.002799 0.003345 -0.004619 0.006387
# 2 -0.001339 0.008226 -0.002507 -0.002327 0.002437 -0.003851
# 3 0.002799 -0.002507 0.023799 0.002880 0.004015 0.003838
# 4 0.003345 -0.002327 0.002880 0.005627 0.024817 -0.008632
# 5 -0.004619 0.002437 0.004015 0.024817 0.009360 0.007333
# 6 0.006387 -0.003851 0.003838 -0.008632 0.007333 0.016950
#
#
# Mechanical properties :
#
#
# Convention : Reuss Voigt Hill
#
# Bulk Modulus (GPa) = 25.63086 35.61794 30.62440
# Shear Modulus (GPa) = 56.72400 27.05853 41.89127
#
# Velocity S-wave (km/s) = 4.68790 3.23778 4.02862
# Velocity P-wave (km/s) = 6.26354 5.27038 5.78830
#
# Compressibility (1/GPa) = 0.03901547
#
# Stress axis : x y z
#
# Youngs Moduli (GPa) = 110.06820 121.57023 42.01894
#
# Poissons Ratio (x) = 0.16274 -0.11760
# Poissons Ratio (y) = 0.14734 0.10535
# Poissons Ratio (z) = -0.30806 0.30481
#
# Static dielectric constant tensor:
#      x y z
#    x 2.047530 -0.060340 -0.020970 
#    y -0.060340 2.139160 0.132690 
#    z -0.020970 0.132690 1.969530 
# 
# From -- ./inp_files/180945.got.cif
#   From: 2010.05.17/outbox.cif.g08.bks.cpg/sg2_91_cif.got.tgz:180945.got - 2010.06.03 11:33:40.
