data_PCOD9066318
_publ_section_title
;
Structure prediction by ZEFSAII (Michael W. Deem and Ramdas Pophale) SiO2 
 PCOD9066318
Probable space group: P -1
;
_chemical_formula_sum "Si O2"
_cell_formula_units_Z 14
_cell_length_a 15.034015
_cell_length_b 6.901749
_cell_length_c 24.402485
_cell_angle_alpha 124.467699
_cell_angle_beta 161.248075
_cell_angle_gamma 55.435824
_cell_volume 666.342048
_symmetry_space_group_name_H-M "P -1"
_symmetry_group_IT_number 2
_symmetry_cell_setting 'triclinic'
loop_
_space_group_symop_operation_xyz
x,y,z
-x,-y,-z
loop_
_atom_site_type_symbol
_atom_site_label
_atom_site_fract_x
_atom_site_fract_y
_atom_site_fract_z
Si Si1 0.181388 0.557011 0.340864
Si Si2 0.051700 0.471160 0.683249
Si Si3 0.204565 0.610917 0.595644
Si Si4 0.507660 0.948118 0.138074
Si Si5 0.052694 0.833724 0.928787
Si Si6 0.817502 0.334968 0.901925
Si Si7 0.208485 0.998956 0.862154
O O1 0.500000 0.500000 0.500000
O O2 0.146886 0.559569 0.386348
O O3 0.025315 0.346179 0.191298
O O4 0.022693 0.799316 0.262875
O O5 0.928670 0.386006 0.541485
O O6 0.107977 0.742212 0.755440
O O7 0.338426 0.301034 0.832537
O O8 0.271692 0.866529 0.696019
O O9 0.502763 0.453379 0.741221
O O10 0.000000 0.500000 0.500000
O O11 0.282182 0.040909 0.975412
O O12 0.350434 0.911322 0.097198
O O13 0.066609 0.708630 0.975799
O O14 0.844100 0.074240 0.849074
O O15 0.000000 0.500000 0.000000
O O16 0.500000 0.000000 0.000000
#
# Coordination Sequence:
#
# PCOD9066318 Si02
#       7
#     2   2   2   2   2   2   2
#     4  12  29  44  71 108 148 190 238 303 369 424
#     4  12  27  45  72 108 146 182 241 306 360 428
#     4  12  27  45  74 107 147 187 240 305 376 420
#     4  12  23  48  75 104 141 191 247 298 359 437
#     4  11  25  45  74 102 140 191 248 294 354 441
#     4  11  25  47  72 103 141 193 243 296 359 442
#     4  12  24  47  74  99 141 190 240 288 356 432
#
# _framework density 21.01023
#
# number of rings (size 3 to 8) (size 9 to 14) (size 15 to 20)
#    0.000    0.286    4.286    4.286    4.000    0.571 
#    0.000    0.000    0.000    0.000    0.000    0.000 
#    0.000    0.000    0.000    0.000    0.000    0.000 
#
# Total GULP energy -78402.636192 kJ/mol
# GULP energy per Si atom -5600.188299 kJ/mol
# Density = 2.096241 g / cm^3
# Si number density = 21.010230 Si / 1000 Ang^3
#
#
#
# Elastic Constant Matrix: (Units=GPa)
#
#
# Indices 1 2 3 4 5 6 
#
# 1 128.5337 48.2386 27.7591 -8.2451 21.5500 18.1024
# 2 48.2386 137.5618 52.2390 -5.3085 16.6088 8.9021
# 3 27.7591 52.2390 79.2142 -2.8397 17.4605 10.3299
# 4 -8.2451 -5.3085 -2.8397 42.6436 -12.7759 2.4911
# 5 21.5500 16.6088 17.4605 -12.7759 47.3336 -0.1388
# 6 18.1024 8.9021 10.3299 2.4911 -0.1388 35.7656
#
#
#
# Elastic Compliance Matrix: (Units=1/GPa)
#
#
# Indices 1 2 3 4 5 6 
#
# 1 0.010099 -0.002652 -0.000465 0.000867 -0.003275 -0.004390
# 2 -0.002652 0.010478 -0.005989 0.000315 -0.000174 0.000441
# 3 -0.000465 -0.005989 0.018181 -0.000805 -0.004621 -0.003487
# 4 0.000867 0.000315 -0.000805 0.025741 0.006734 -0.002051
# 5 -0.003275 -0.000174 -0.004621 0.006734 0.026209 0.002668
# 6 -0.004390 0.000441 -0.003487 -0.002051 0.002668 0.031232
#
#
# Mechanical properties :
#
#
# Convention : Reuss Voigt Hill
#
# Bulk Modulus (GPa) = 48.66877 66.86479 57.76678
# Shear Modulus (GPa) = 34.01406 39.62011 36.81708
#
# Velocity S-wave (km/s) = 4.02796 4.34724 4.19064
# Velocity P-wave (km/s) = 6.69680 7.55592 7.13930
#
# Compressibility (1/GPa) = 0.02054706
#
# Stress axis : x y z
#
# Youngs Moduli (GPa) = 99.02366 95.43663 55.00378
#
# Poissons Ratio (x) = 0.25309 0.02556
# Poissons Ratio (y) = 0.26260 0.32940
# Poissons Ratio (z) = 0.04601 0.57153
#
# Static dielectric constant tensor:
#      x y z
#    x 1.758360 -0.000380 -0.002880 
#    y -0.000380 1.756730 -0.014730 
#    z -0.002880 -0.014730 1.743750 
# 
# From -- ./inp_files/101312.got.cif
#   From: 2010.05.17/outbox.cif.g08.bks.cpg/sg2_51_cif.got.tgz:101312.got - 2010.06.03 11:33:40.
