data_PCOD9066097
_publ_section_title
;
Structure prediction by ZEFSAII (Michael W. Deem and Ramdas Pophale) SiO2 
 PCOD9066097
Probable space group: P -1
;
_chemical_formula_sum "Si O2"
_cell_formula_units_Z 16
_cell_length_a 7.562397
_cell_length_b 9.390351
_cell_length_c 18.843309
_cell_angle_alpha 70.749190
_cell_angle_beta 114.214437
_cell_angle_gamma 148.345848
_cell_volume 639.925194
_symmetry_space_group_name_H-M "P -1"
_symmetry_group_IT_number 2
_symmetry_cell_setting 'triclinic'
loop_
_space_group_symop_operation_xyz
x,y,z
-x,-y,-z
loop_
_atom_site_type_symbol
_atom_site_label
_atom_site_fract_x
_atom_site_fract_y
_atom_site_fract_z
Si Si1 0.260775 0.420509 0.720408
Si Si2 0.122168 0.734844 0.448810
Si Si3 0.244377 0.129536 0.862677
Si Si4 0.381893 0.924001 0.116317
Si Si5 0.868616 0.692921 0.671032
Si Si6 0.788410 0.649147 0.963383
Si Si7 0.763335 0.805433 0.426213
Si Si8 0.191161 0.598079 0.800800
O O1 0.149553 0.195947 0.779213
O O2 0.587920 0.583003 0.698036
O O3 0.358406 0.607303 0.764657
O O4 0.953689 0.297190 0.642353
O O5 0.000000 0.500000 0.500000
O O6 0.904369 0.734359 0.440426
O O7 0.500000 0.000000 0.500000
O O8 0.352728 0.040340 0.860970
O O9 0.586095 0.415950 0.911587
O O10 0.949706 0.898829 0.909422
O O11 0.131126 0.709197 0.173933
O O12 0.579717 0.202535 0.127002
O O13 0.124126 0.787042 0.030878
O O14 0.650585 0.489078 0.599950
O O15 0.056452 0.670091 0.737395
O O16 0.135125 0.996827 0.644317
O O17 0.500000 0.500000 0.000000
O O18 0.000000 0.000000 0.500000
#
# Coordination Sequence:
#
# PCOD9066097 Si02
#       8
#     2   2   2   2   2   2   2   2
#     4  11  28  48  78 110 151 200 256 313 390 449
#     4  11  26  46  70 108 146 191 247 313 375 450
#     4  12  26  49  80 110 158 205 251 322 380 453
#     4  12  26  51  74 117 152 201 260 308 383 460
#     4  11  25  48  71 110 149 195 251 323 370 466
#     4  12  27  48  78 118 156 201 258 310 384 459
#     4  11  25  44  76 102 147 193 252 309 397 450
#     4  12  27  46  79 107 155 200 257 312 380 454
#
# _framework density 25.002924
#
# number of rings (size 3 to 8) (size 9 to 14) (size 15 to 20)
#    0.000    0.500    1.250    6.000    5.250    7.000 
#    0.000    0.000    0.000    0.000    0.000    0.000 
#    0.000    0.000    0.000    0.000    0.000    0.000 
#
# Total GULP energy -89687.065135 kJ/mol
# GULP energy per Si atom -5605.441571 kJ/mol
# Density = 2.494602 g / cm^3
# Si number density = 25.002924 Si / 1000 Ang^3
#
#
#
# Elastic Constant Matrix: (Units=GPa)
#
#
# Indices 1 2 3 4 5 6 
#
# 1 69.5737 6.4865 13.0555 7.4854 12.8792 -9.6400
# 2 6.4865 130.8180 27.6709 9.3076 5.0669 4.2830
# 3 13.0555 27.6709 122.6431 10.2020 26.3538 2.2386
# 4 7.4854 9.3076 10.2020 44.6504 -2.9424 -3.6731
# 5 12.8792 5.0669 26.3538 -2.9424 41.2238 0.4097
# 6 -9.6400 4.2830 2.2386 -3.6731 0.4097 31.2181
#
#
#
# Elastic Compliance Matrix: (Units=1/GPa)
#
#
# Indices 1 2 3 4 5 6 
#
# 1 0.016377 -0.000512 -0.000439 -0.002462 -0.004998 0.004935
# 2 -0.000512 0.008157 -0.001684 -0.001328 0.000152 -0.001315
# 3 -0.000439 -0.001684 0.010148 -0.002378 -0.006305 -0.000829
# 4 -0.002462 -0.001328 -0.002378 0.024098 0.004149 0.002373
# 5 -0.004998 0.000152 -0.006305 0.004149 0.030137 -0.001019
# 6 0.004935 -0.001315 -0.000829 0.002373 -0.001019 0.034089
#
#
# Mechanical properties :
#
#
# Convention : Reuss Voigt Hill
#
# Bulk Modulus (GPa) = 33.99983 46.38451 40.19217
# Shear Modulus (GPa) = 36.21041 41.80659 39.00850
#
# Velocity S-wave (km/s) = 3.80971 4.09353 3.95417
# Velocity P-wave (km/s) = 5.74280 6.39801 6.07924
#
# Compressibility (1/GPa) = 0.02941191
#
# Stress axis : x y z
#
# Youngs Moduli (GPa) = 61.06057 122.58692 98.53932
#
# Poissons Ratio (x) = 0.06276 0.04328
# Poissons Ratio (y) = 0.03126 0.16597
# Poissons Ratio (z) = 0.02682 0.20647
#
# Static dielectric constant tensor:
#      x y z
#    x 1.954230 0.021310 -0.052140 
#    y 0.021310 1.920600 0.085570 
#    z -0.052140 0.085570 2.109930 
# 
# From -- ./inp_files/587324.got.cif
#   From: 2010.05.17/outbox.cif.g08.bks.cpg/sg2_294_cif.got.tgz:587324.got - 2010.06.03 11:33:40.
