data_PCOD9066700
_publ_section_title
;
Structure prediction by ZEFSAII (Michael W. Deem and Ramdas Pophale) SiO2 
 PCOD9066700
Probable space group: P -1
;
_chemical_formula_sum "Si O2"
_cell_formula_units_Z 14
_cell_length_a 17.133750
_cell_length_b 8.967532
_cell_length_c 9.394176
_cell_angle_alpha 103.454733
_cell_angle_beta 151.829048
_cell_angle_gamma 68.579401
_cell_volume 621.135722
_symmetry_space_group_name_H-M "P -1"
_symmetry_group_IT_number 2
_symmetry_cell_setting 'triclinic'
loop_
_space_group_symop_operation_xyz
x,y,z
-x,-y,-z
loop_
_atom_site_type_symbol
_atom_site_label
_atom_site_fract_x
_atom_site_fract_y
_atom_site_fract_z
Si Si1 0.749919 0.771481 0.327809
Si Si2 0.056887 0.502288 0.929840
Si Si3 0.133449 0.189224 0.796249
Si Si4 0.667460 0.345987 0.689527
Si Si5 0.763444 0.172914 0.096356
Si Si6 0.421584 0.694647 0.896729
Si Si7 0.801621 0.081978 0.631406
O O1 0.788756 0.783233 0.225534
O O2 0.896709 0.614641 0.599655
O O3 0.760969 0.930849 0.461952
O O4 0.565309 0.750747 0.059466
O O5 0.128466 0.326314 0.931376
O O6 0.205898 0.582938 0.177885
O O7 0.000000 0.500000 0.000000
O O8 0.938809 0.184989 0.452532
O O9 0.230842 0.007826 0.969449
O O10 0.500000 0.500000 0.500000
O O11 0.670721 0.188593 0.567527
O O12 0.748674 0.273757 0.953493
O O13 0.610641 0.240893 0.980568
O O14 0.240762 0.783726 0.536138
O O15 0.500000 0.500000 0.000000
O O16 0.000000 0.000000 0.000000
#
# Coordination Sequence:
#
# PCOD9066700 Si02
#       7
#     2   2   2   2   2   2   2
#     4  12  26  49  77 112 146 204 255 316 379 457
#     4  12  29  45  72 109 152 197 253 314 388 455
#     4  11  25  47  75 104 144 192 254 309 376 458
#     4  12  29  48  72 110 158 200 248 320 388 447
#     4  11  25  46  74 107 143 198 248 306 378 452
#     4  12  28  46  79 112 153 195 263 314 378 457
#     4  12  26  50  78 111 158 204 253 319 387 458
#
# _framework density 22.539356999999999
#
# number of rings (size 3 to 8) (size 9 to 14) (size 15 to 20)
#    0.000    0.286    4.286    2.571   14.000    0.000 
#    0.000    1.429    0.000    0.000    0.000    0.000 
#    0.000    0.000    0.000    0.000    0.000    0.000 
#
# Total GULP energy -78297.057525 kJ/mol
# GULP energy per Si atom -5592.646966 kJ/mol
# Density = 2.248806 g / cm^3
# Si number density = 22.539357 Si / 1000 Ang^3
#
#
#
# Elastic Constant Matrix: (Units=GPa)
#
#
# Indices 1 2 3 4 5 6 
#
# 1 177.7839 58.0472 41.0237 5.5397 6.8860 -0.8200
# 2 58.0472 183.1476 54.8090 -9.6119 -10.0752 -19.1626
# 3 41.0237 54.8090 57.0462 1.5377 -4.6595 5.1210
# 4 5.5397 -9.6119 1.5377 29.7382 0.6354 -8.0781
# 5 6.8860 -10.0752 -4.6595 0.6354 27.6038 0.3927
# 6 -0.8200 -19.1626 5.1210 -8.0781 0.3927 44.6895
#
#
#
# Elastic Compliance Matrix: (Units=1/GPa)
#
#
# Indices 1 2 3 4 5 6 
#
# 1 0.007150 -0.001319 -0.004051 -0.001547 -0.002910 -0.000224
# 2 -0.001319 0.009504 -0.008692 0.005350 0.002122 0.005996
# 3 -0.004051 -0.008692 0.029959 -0.005936 0.003150 -0.008335
# 4 -0.001547 0.005350 -0.005936 0.038642 0.000306 0.009928
# 5 -0.002910 0.002122 0.003150 0.000306 0.038249 0.000215
# 6 -0.000224 0.005996 -0.008335 0.009928 0.000215 0.027691
#
#
# Mechanical properties :
#
#
# Convention : Reuss Voigt Hill
#
# Bulk Modulus (GPa) = 54.08182 80.63749 67.35965
# Shear Modulus (GPa) = 26.95682 38.01283 32.48482
#
# Velocity S-wave (km/s) = 3.46206 4.11117 3.80050
# Velocity P-wave (km/s) = 6.32674 7.64131 7.01488
#
# Compressibility (1/GPa) = 0.01849050
#
# Stress axis : x y z
#
# Youngs Moduli (GPa) = 139.86159 105.21756 33.37848
#
# Poissons Ratio (x) = 0.13875 0.13520
# Poissons Ratio (y) = 0.18443 0.29013
# Poissons Ratio (z) = 0.56653 0.91457
#
# Static dielectric constant tensor:
#      x y z
#    x 1.800840 -0.040320 0.028000 
#    y -0.040320 1.886300 -0.036990 
#    z 0.028000 -0.036990 1.895250 
# 
# From -- ./inp_files/152903.got.cif
#   From: 2010.05.17/outbox.cif.g08.bks.cpg/sg2_77_cif.got.tgz:152903.got - 2010.06.03 11:33:40.
