data_PCOD9066417
_publ_section_title
;
Structure prediction by ZEFSAII (Michael W. Deem and Ramdas Pophale) SiO2 
 PCOD9066417
Probable space group: P -1
;
_chemical_formula_sum "Si O2"
_cell_formula_units_Z 14
_cell_length_a 8.953847
_cell_length_b 11.981272
_cell_length_c 12.456779
_cell_angle_alpha 57.680582
_cell_angle_beta 97.237308
_cell_angle_gamma 49.314331
_cell_volume 575.542653
_symmetry_space_group_name_H-M "P -1"
_symmetry_group_IT_number 2
_symmetry_cell_setting 'triclinic'
loop_
_space_group_symop_operation_xyz
x,y,z
-x,-y,-z
loop_
_atom_site_type_symbol
_atom_site_label
_atom_site_fract_x
_atom_site_fract_y
_atom_site_fract_z
Si Si1 0.714851 0.337237 0.206008
Si Si2 0.835575 0.253847 0.902746
Si Si3 0.381332 0.231715 0.978292
Si Si4 0.269304 0.559093 0.423478
Si Si5 0.169245 0.211543 0.386947
Si Si6 0.767411 0.017836 0.294335
Si Si7 0.565670 0.110981 0.815051
O O1 0.477143 0.535980 0.178256
O O2 0.830433 0.100001 0.327068
O O3 0.986986 0.233538 0.295532
O O4 0.500000 0.500000 0.000000
O O5 0.775741 0.405059 0.725772
O O6 0.000000 0.000000 0.000000
O O7 0.096459 0.115683 0.070123
O O8 0.513811 0.179630 0.902610
O O9 0.036106 0.506384 0.787830
O O10 0.461611 0.251074 0.083376
O O11 0.487255 0.004981 0.131049
O O12 0.500000 0.500000 0.500000
O O13 0.367531 0.350963 0.597554
O O14 0.981222 0.835211 0.308643
O O15 0.500000 0.000000 0.500000
O O16 0.186059 0.141284 0.543781
#
# Coordination Sequence:
#
# PCOD9066417 Si02
#       7
#     2   2   2   2   2   2   2
#     4  12  27  51  82 112 157 209 262 322 405 465
#     4  12  24  46  78 110 150 200 264 323 391 467
#     4  11  25  50  75 109 162 207 258 332 393 469
#     4  12  24  43  78 111 149 196 265 327 384 463
#     4  12  28  50  75 112 159 207 261 324 394 474
#     4  12  26  50  78 111 158 204 263 326 395 469
#     4  11  25  45  77 113 152 206 264 326 398 460
#
# _framework density 24.324869
#
# number of rings (size 3 to 8) (size 9 to 14) (size 15 to 20)
#    0.000    0.286    5.714    3.000    2.000    3.429 
#    0.000    0.000    0.000    0.000    0.000    0.000 
#    0.000    0.000    0.000    0.000    0.000    0.000 
#
# Total GULP energy -78250.532127 kJ/mol
# GULP energy per Si atom -5589.323723 kJ/mol
# Density = 2.426950 g / cm^3
# Si number density = 24.324869 Si / 1000 Ang^3
#
#
#
# Elastic Constant Matrix: (Units=GPa)
#
#
# Indices 1 2 3 4 5 6 
#
# 1 99.1891 60.0562 42.4516 -10.1291 -2.0295 3.9135
# 2 60.0562 76.8754 39.0365 0.2653 2.3186 8.4185
# 3 42.4516 39.0365 160.0423 -0.0571 -15.0044 0.1926
# 4 -10.1291 0.2653 -0.0571 37.1020 -3.5517 4.9940
# 5 -2.0295 2.3186 -15.0044 -3.5517 56.2703 -12.5521
# 6 3.9135 8.4185 0.1926 4.9940 -12.5521 30.5584
#
#
#
# Elastic Compliance Matrix: (Units=1/GPa)
#
#
# Indices 1 2 3 4 5 6 
#
# 1 0.020815 -0.015708 -0.001533 0.005762 0.001668 0.001415
# 2 -0.015708 0.027661 -0.002971 -0.003998 -0.004241 -0.006679
# 3 -0.001533 -0.002971 0.007615 -0.000423 0.002534 0.002077
# 4 0.005762 -0.003998 -0.000423 0.029197 0.001233 -0.003899
# 5 0.001668 -0.004241 0.002534 0.001233 0.020833 0.009294
# 6 0.001415 -0.006679 0.002077 -0.003899 0.009294 0.038825
#
#
# Mechanical properties :
#
#
# Convention : Reuss Voigt Hill
#
# Bulk Modulus (GPa) = 63.83080 68.79948 66.31514
# Shear Modulus (GPa) = 26.23399 37.75696 31.99548
#
# Velocity S-wave (km/s) = 3.28759 3.94407 3.63070
# Velocity P-wave (km/s) = 6.38036 7.00613 6.70055
#
# Compressibility (1/GPa) = 0.01566642
#
# Stress axis : x y z
#
# Youngs Moduli (GPa) = 48.04155 36.15182 131.32458
#
# Poissons Ratio (x) = 0.56787 0.20134
# Poissons Ratio (y) = 0.75463 0.39021
# Poissons Ratio (z) = 0.07366 0.10742
#
# Static dielectric constant tensor:
#      x y z
#    x 1.963310 0.047110 0.044410 
#    y 0.047110 1.989750 -0.077440 
#    z 0.044410 -0.077440 2.123160 
# 
# From -- ./inp_files/389432.got.cif
#   From: 2010.05.17/outbox.cif.g08.bks.cpg/sg2_195_cif.got.tgz:389432.got - 2010.06.03 11:33:40.
