data_PCOD9066196
_publ_section_title
;
Structure prediction by ZEFSAII (Michael W. Deem and Ramdas Pophale) SiO2 
 PCOD9066196
Probable space group: P -1
;
_chemical_formula_sum "Si O2"
_cell_formula_units_Z 12
_cell_length_a 7.043956
_cell_length_b 17.217180
_cell_length_c 4.895568
_cell_angle_alpha 112.653335
_cell_angle_beta 76.164805
_cell_angle_gamma 96.224957
_cell_volume 531.931097
_symmetry_space_group_name_H-M "P -1"
_symmetry_group_IT_number 2
_symmetry_cell_setting 'triclinic'
loop_
_space_group_symop_operation_xyz
x,y,z
-x,-y,-z
loop_
_atom_site_type_symbol
_atom_site_label
_atom_site_fract_x
_atom_site_fract_y
_atom_site_fract_z
Si Si1 0.638336 0.449484 0.595430
Si Si2 0.516311 0.935434 0.656514
Si Si3 0.048293 0.095291 0.528353
Si Si4 0.261487 0.395801 0.844773
Si Si5 0.990149 0.648705 0.651801
Si Si6 0.140393 0.831884 0.802428
O O1 0.500000 0.500000 0.500000
O O2 0.485932 0.378862 0.665378
O O3 0.835795 0.408239 0.367699
O O4 0.163650 0.338521 0.033873
O O5 0.722491 0.890734 0.491284
O O6 0.349412 0.865562 0.674957
O O7 0.500000 0.000000 0.500000
O O8 0.500000 0.000000 0.000000
O O9 0.005346 0.112116 0.250622
O O10 0.000000 0.000000 0.500000
O O11 0.908028 0.150397 0.840809
O O12 0.713077 0.513099 0.892928
O O13 0.126765 0.392772 0.618558
O O14 0.088243 0.735194 0.636104
#
# Coordination Sequence:
#
# PCOD9066196 Si02
#       6
#     2   2   2   2   2   2
#     4  11  25  45  76 104 133 185 240 275 335 415
#     4  12  23  41  71  98 127 174 230 280 330 403
#     4  12  23  44  73  94 133 176 233 278 332 413
#     4  11  25  45  71 103 133 186 233 272 344 409
#     4  12  27  43  69 100 150 176 226 289 351 402
#     4  12  26  44  64 105 135 181 222 286 349 391
#
# _framework density 22.559313
#
# number of rings (size 3 to 8) (size 9 to 14) (size 15 to 20)
#    0.000    0.333    5.000    3.500    4.667    2.667 
#    0.000    0.000    0.000    0.000    0.000    0.000 
#    0.000    0.000    0.000    0.000    0.000    0.000 
#
# Total GULP energy -67074.396887 kJ/mol
# GULP energy per Si atom -5589.533074 kJ/mol
# Density = 2.250797 g / cm^3
# Si number density = 22.559313 Si / 1000 Ang^3
#
#
#
# Elastic Constant Matrix: (Units=GPa)
#
#
# Indices 1 2 3 4 5 6 
#
# 1 110.2721 55.4060 28.8189 -11.4046 -2.5764 34.4829
# 2 55.4060 126.2235 20.2350 -18.0052 -1.3043 34.3982
# 3 28.8189 20.2350 74.5890 -24.1383 11.6843 10.9820
# 4 -11.4046 -18.0052 -24.1383 40.2204 3.9722 -4.8362
# 5 -2.5764 -1.3043 11.6843 3.9722 40.1509 -17.8766
# 6 34.4829 34.3982 10.9820 -4.8362 -17.8766 40.1083
#
#
#
# Elastic Compliance Matrix: (Units=1/GPa)
#
#
# Indices 1 2 3 4 5 6 
#
# 1 0.014551 -0.003122 -0.002720 0.000142 -0.003030 -0.010421
# 2 -0.003122 0.012487 0.001846 0.005107 -0.005441 -0.010340
# 3 -0.002720 0.001846 0.021146 0.012839 -0.011342 -0.008542
# 4 0.000142 0.005107 0.012839 0.034928 -0.010868 -0.008649
# 5 -0.003030 -0.005441 -0.011342 -0.010868 0.041104 0.027386
# 6 -0.010421 -0.010340 -0.008542 -0.008649 0.027386 0.056261
#
#
# Mechanical properties :
#
#
# Convention : Reuss Voigt Hill
#
# Bulk Modulus (GPa) = 24.88112 57.77826 41.32969
# Shear Modulus (GPa) = 24.76884 37.87089 31.31986
#
# Velocity S-wave (km/s) = 3.31712 4.10167 3.73008
# Velocity P-wave (km/s) = 5.07190 6.93534 6.07549
#
# Compressibility (1/GPa) = 0.04019111
#
# Stress axis : x y z
#
# Youngs Moduli (GPa) = 68.72579 80.08353 47.29002
#
# Poissons Ratio (x) = 0.25004 0.12863
# Poissons Ratio (y) = 0.21458 -0.08730
# Poissons Ratio (z) = 0.18694 -0.14783
#
# Static dielectric constant tensor:
#      x y z
#    x 1.828080 0.027930 -0.012130 
#    y 0.027930 1.844470 -0.023700 
#    z -0.012130 -0.023700 1.838150 
# 
# From -- ./inp_files/10086.got.cif
#   From: 2010.05.17/outbox.cif.g08.bks.cpg/sg2_6_cif.got.tgz:10086.got - 2010.06.03 11:33:40.
