data_PCOD9066871
_publ_section_title
;
Structure prediction by ZEFSAII (Michael W. Deem and Ramdas Pophale) SiO2 
 PCOD9066871
Probable space group: P -1
;
_chemical_formula_sum "Si O2"
_cell_formula_units_Z 14
_cell_length_a 9.208921
_cell_length_b 18.928808
_cell_length_c 5.945923
_cell_angle_alpha 103.028622
_cell_angle_beta 74.602523
_cell_angle_gamma 142.915826
_cell_volume 602.373285
_symmetry_space_group_name_H-M "P -1"
_symmetry_group_IT_number 2
_symmetry_cell_setting 'triclinic'
loop_
_space_group_symop_operation_xyz
x,y,z
-x,-y,-z
loop_
_atom_site_type_symbol
_atom_site_label
_atom_site_fract_x
_atom_site_fract_y
_atom_site_fract_z
Si Si1 0.247072 0.379012 0.410544
Si Si2 0.105094 0.471248 0.299764
Si Si3 0.821222 0.863445 0.469183
Si Si4 0.896256 0.143668 0.467177
Si Si5 0.390746 0.739418 0.836078
Si Si6 0.617240 0.704393 0.037945
Si Si7 0.544105 0.077149 0.214620
O O1 0.500000 0.500000 0.500000
O O2 0.117636 0.401638 0.385618
O O3 0.068646 0.272261 0.588330
O O4 0.303181 0.336668 0.171083
O O5 0.377392 0.586499 0.185640
O O6 0.000000 0.500000 0.500000
O O7 0.897013 0.381857 0.133810
O O8 0.539609 0.774249 0.571943
O O9 0.817297 0.813297 0.208442
O O10 0.916275 0.851230 0.629922
O O11 0.000000 0.000000 0.500000
O O12 0.776544 0.141285 0.309558
O O13 0.682845 0.020360 0.594541
O O14 0.437119 0.842451 0.877083
O O15 0.511208 0.734560 0.970022
O O16 0.500000 0.000000 0.000000
#
# Coordination Sequence:
#
# PCOD9066871 Si02
#       7
#     2   2   2   2   2   2   2
#     4  12  26  48  77 110 147 194 249 306 372 442
#     4  12  25  48  74 104 150 192 250 306 365 444
#     4  12  26  46  75 106 150 193 247 297 367 442
#     4  11  25  47  71 103 149 185 239 309 355 437
#     4  12  25  46  71 110 141 193 247 304 365 441
#     4  12  28  47  77 108 148 200 244 305 379 432
#     4  11  27  44  73 107 144 196 244 297 375 431
#
# _framework density 23.241403999999999
#
# number of rings (size 3 to 8) (size 9 to 14) (size 15 to 20)
#    0.000    0.286    5.714    2.571    4.000    2.857 
#    0.000    0.000    0.000    0.000    0.000    0.000 
#    0.000    0.000    0.000    0.000    0.000    0.000 
#
# Total GULP energy -78050.911624 kJ/mol
# GULP energy per Si atom -5575.065116 kJ/mol
# Density = 2.318851 g / cm^3
# Si number density = 23.241404 Si / 1000 Ang^3
#
#
#
# Elastic Constant Matrix: (Units=GPa)
#
#
# Indices 1 2 3 4 5 6 
#
# 1 150.0830 51.2786 16.7613 8.5587 2.7367 -29.2870
# 2 51.2786 159.0614 22.1104 10.6483 6.6142 -16.0249
# 3 16.7613 22.1104 38.9707 23.6754 -10.0737 -14.5724
# 4 8.5587 10.6483 23.6754 30.9221 -6.7647 5.3610
# 5 2.7367 6.6142 -10.0737 -6.7647 33.3494 -3.3773
# 6 -29.2870 -16.0249 -14.5724 5.3610 -3.3773 62.2032
#
#
#
# Elastic Compliance Matrix: (Units=1/GPa)
#
#
# Indices 1 2 3 4 5 6 
#
# 1 0.008211 -0.002179 0.000696 -0.002742 -0.000213 0.003692
# 2 -0.002179 0.007670 -0.005169 0.001428 -0.002668 -0.000529
# 3 0.000696 -0.005169 0.074103 -0.055837 0.014248 0.021942
# 4 -0.002742 0.001428 -0.055837 0.078293 -0.003162 -0.020923
# 5 -0.000213 -0.002668 0.014248 -0.003162 0.034671 0.004705
# 6 0.003692 -0.000529 0.021942 -0.020923 0.004705 0.024878
#
#
# Mechanical properties :
#
#
# Convention : Reuss Voigt Hill
#
# Bulk Modulus (GPa) = 13.04126 58.71287 35.87706
# Shear Modulus (GPa) = 18.74836 42.49261 30.62048
#
# Velocity S-wave (km/s) = 2.84329 4.28052 3.63367
# Velocity P-wave (km/s) = 4.05000 7.05319 5.75109
#
# Compressibility (1/GPa) = 0.07667971
#
# Stress axis : x y z
#
# Youngs Moduli (GPa) = 121.79431 130.37725 13.49468
#
# Poissons Ratio (x) = 0.28413 -0.00940
# Poissons Ratio (y) = 0.26543 0.06976
# Poissons Ratio (z) = -0.08482 0.67394
#
# Static dielectric constant tensor:
#      x y z
#    x 1.822740 0.001550 -0.006360 
#    y 0.001550 1.876870 -0.029500 
#    z -0.006360 -0.029500 1.947790 
# 
# From -- ./inp_files/47383.got.cif
#   From: 2010.05.17/outbox.cif.g08.bks.cpg/sg2_24_cif.got.tgz:47383.got - 2010.06.03 11:33:40.
