data_PCOD9066568
_publ_section_title
;
Structure prediction by ZEFSAII (Michael W. Deem and Ramdas Pophale) SiO2 
 PCOD9066568
Probable space group: P -1
;
_chemical_formula_sum "Si O2"
_cell_formula_units_Z 15
_cell_length_a 6.459852
_cell_length_b 24.304009
_cell_length_c 15.862831
_cell_angle_alpha 160.704753
_cell_angle_beta 54.451184
_cell_angle_gamma 121.526965
_cell_volume 666.462127
_symmetry_space_group_name_H-M "P -1"
_symmetry_group_IT_number 2
_symmetry_cell_setting 'triclinic'
loop_
_space_group_symop_operation_xyz
x,y,z
-x,-y,-z
loop_
_atom_site_type_symbol
_atom_site_label
_atom_site_fract_x
_atom_site_fract_y
_atom_site_fract_z
Si Si1 0.516818 0.684336 0.636688
Si Si2 0.487110 0.578391 0.023106
Si Si3 0.090717 0.906916 0.599977
Si Si4 0.000000 0.500000 0.500000
Si Si5 0.439618 0.245175 0.460664
Si Si6 0.892604 0.056838 0.697023
Si Si7 0.378552 0.009958 0.826287
Si Si8 0.022015 0.572198 0.796071
O O1 0.483017 0.763874 0.667352
O O2 0.774390 0.559764 0.398504
O O3 0.272168 0.586793 0.574252
O O4 0.569619 0.829055 0.899511
O O5 0.393326 0.435885 0.778110
O O6 0.766696 0.605877 0.961239
O O7 0.500000 0.500000 0.000000
O O8 0.297164 0.746584 0.312931
O O9 0.818353 0.842462 0.590854
O O10 0.076769 0.003878 0.655193
O O11 0.156504 0.026796 0.834500
O O12 0.048842 0.487901 0.367306
O O13 0.645237 0.143983 0.327326
O O14 0.633882 0.974228 0.658237
O O15 0.000000 0.000000 0.500000
O O16 0.849004 0.255590 0.992675
#
# Coordination Sequence:
#
# PCOD9066568 Si02
#       8
#     2   2   2   1   2   2   2   2
#     4  12  27  47  77 104 146 189 242 300 361 433
#     4  12  24  47  77 106 146 185 245 299 364 432
#     4  11  26  46  74 104 148 194 232 306 359 425
#     4  12  26  50  70 106 144 190 244 294 356 438
#     4  11  25  46  71 111 141 187 244 297 363 433
#     4  11  27  45  69 106 145 184 248 292 360 434
#     4  11  25  47  70 106 142 187 242 298 361 431
#     4  12  28  46  74 107 142 194 239 304 359 431
#
# _framework density 22.506905
#
# number of rings (size 3 to 8) (size 9 to 14) (size 15 to 20)
#    0.000    0.533    4.000    2.800    5.600    2.667 
#    0.000    0.000    0.000    0.000    0.000    0.000 
#    0.000    0.000    0.000    0.000    0.000    0.000 
#
# Total GULP energy -83746.359615 kJ/mol
# GULP energy per Si atom -5583.090641 kJ/mol
# Density = 2.245568 g / cm^3
# Si number density = 22.506905 Si / 1000 Ang^3
#
#
#
# Elastic Constant Matrix: (Units=GPa)
#
#
# Indices 1 2 3 4 5 6 
#
# 1 65.8343 24.0167 19.6291 -6.0543 17.1540 -11.0421
# 2 24.0167 112.8291 2.6974 -18.3331 -2.3881 -11.4216
# 3 19.6291 2.6974 61.9733 -0.6680 18.0755 -5.0437
# 4 -6.0543 -18.3331 -0.6680 28.8427 -3.8981 4.3402
# 5 17.1540 -2.3881 18.0755 -3.8981 50.7588 0.7944
# 6 -11.0421 -11.4216 -5.0437 4.3402 0.7944 35.4928
#
#
#
# Elastic Compliance Matrix: (Units=1/GPa)
#
#
# Indices 1 2 3 4 5 6 
#
# 1 0.020038 -0.003778 -0.004208 0.000285 -0.005500 0.004508
# 2 -0.003778 0.010866 0.000295 0.006174 0.002133 0.001561
# 3 -0.004208 0.000295 0.019200 -0.001268 -0.005527 0.001793
# 4 0.000285 0.006174 -0.001268 0.039586 0.003733 -0.003029
# 5 -0.005500 0.002133 -0.005527 0.003733 0.023959 -0.002803
# 6 0.004508 0.001561 0.001793 -0.003029 -0.002803 0.030767
#
#
# Mechanical properties :
#
#
# Convention : Reuss Voigt Hill
#
# Bulk Modulus (GPa) = 28.80001 37.03590 32.91795
# Shear Modulus (GPa) = 29.17602 35.97176 32.57389
#
# Velocity S-wave (km/s) = 3.60434 4.00215 3.80845
# Velocity P-wave (km/s) = 5.49050 6.15202 5.83065
#
# Compressibility (1/GPa) = 0.03472222
#
# Stress axis : x y z
#
# Youngs Moduli (GPa) = 49.90474 92.02607 52.08275
#
# Poissons Ratio (x) = 0.34771 0.21918
# Poissons Ratio (y) = 0.18856 -0.01538
# Poissons Ratio (z) = 0.21001 -0.02717
#
# Static dielectric constant tensor:
#      x y z
#    x 1.844650 -0.029150 0.002740 
#    y -0.029150 1.808650 -0.000170 
#    z 0.002740 -0.000170 1.843620 
# 
# From -- ./inp_files/363653.got.cif
#   From: 2010.05.17/outbox.cif.g08.bks.cpg/sg2_182_cif.got.tgz:363653.got - 2010.06.03 11:33:40.
