data_PCOD9066825
_publ_section_title
;
Structure prediction by ZEFSAII (Michael W. Deem and Ramdas Pophale) SiO2 
 PCOD9066825
Probable space group: P -1
;
_chemical_formula_sum "Si O2"
_cell_formula_units_Z 11
_cell_length_a 5.991590
_cell_length_b 5.198532
_cell_length_c 14.026427
_cell_angle_alpha 97.000422
_cell_angle_beta 90.555233
_cell_angle_gamma 83.423061
_cell_volume 430.773075
_symmetry_space_group_name_H-M "P -1"
_symmetry_group_IT_number 2
_symmetry_cell_setting 'triclinic'
loop_
_space_group_symop_operation_xyz
x,y,z
-x,-y,-z
loop_
_atom_site_type_symbol
_atom_site_label
_atom_site_fract_x
_atom_site_fract_y
_atom_site_fract_z
Si Si1 0.148139 0.977826 0.825712
Si Si2 0.000000 0.000000 0.500000
Si Si3 0.591970 0.076592 0.368087
Si Si4 0.736580 0.284929 0.744248
Si Si5 0.383646 0.492324 0.897486
Si Si6 0.153002 0.382237 0.404074
O O1 0.270453 0.871808 0.723803
O O2 0.266879 0.228102 0.871220
O O3 0.892486 0.084381 0.802744
O O4 0.200652 0.741002 0.888576
O O5 0.745355 0.998795 0.456024
O O6 0.922550 0.900768 0.599309
O O7 0.449424 0.849295 0.322032
O O8 0.420780 0.330944 0.405561
O O9 0.587087 0.485089 0.821388
O O10 0.890601 0.437385 0.679573
O O11 0.500000 0.500000 0.000000
O O12 0.000000 0.500000 0.500000
#
# Coordination Sequence:
#
# PCOD9066825 Si02
#       6
#     2   1   2   2   2   2
#     4  11  25  46  80 112 158 204 254 318 395 464
#     4  12  28  42  70 102 146 198 266 312 382 448
#     4  11  25  47  67 107 152 201 262 320 383 456
#     4  11  27  47  76 107 153 206 255 320 392 463
#     4  11  26  49  79 119 156 196 258 324 394 473
#     4  12  25  44  69 103 147 197 260 318 379 455
#
# _framework density 25.535485999999999
#
# number of rings (size 3 to 8) (size 9 to 14) (size 15 to 20)
#    0.000    0.727    1.818    4.364    5.091    4.364 
#    0.000    0.000    0.000    0.000    0.000    0.000 
#    0.000    0.000    0.000    0.000    0.000    0.000 
#
# Total GULP energy -61282.451153 kJ/mol
# GULP energy per Si atom -5571.131923 kJ/mol
# Density = 2.547737 g / cm^3
# Si number density = 25.535486 Si / 1000 Ang^3
#
#
#
# Elastic Constant Matrix: (Units=GPa)
#
#
# Indices 1 2 3 4 5 6 
#
# 1 102.1410 42.7986 50.3344 -1.8534 34.1982 -18.4239
# 2 42.7986 113.2353 58.1263 -30.5384 25.0100 -29.0653
# 3 50.3344 58.1263 150.9064 -15.1055 50.6626 -6.4651
# 4 -1.8534 -30.5384 -15.1055 32.7292 -7.4643 3.0758
# 5 34.1982 25.0100 50.6626 -7.4643 45.1343 -14.0745
# 6 -18.4239 -29.0653 -6.4651 3.0758 -14.0745 36.4101
#
#
#
# Elastic Compliance Matrix: (Units=1/GPa)
#
#
# Indices 1 2 3 4 5 6 
#
# 1 0.015149 -0.004765 -0.000925 -0.006043 -0.008513 0.000917
# 2 -0.004765 0.020173 -0.006060 0.015868 0.006112 0.013639
# 3 -0.000925 -0.006060 0.013354 -0.001924 -0.013774 -0.008096
# 4 -0.006043 0.015868 -0.001924 0.045169 0.008091 0.008580
# 5 -0.008513 0.006112 -0.013774 0.008091 0.046871 0.015560
# 6 0.000917 0.013639 -0.008096 0.008580 0.015560 0.042669
#
#
# Mechanical properties :
#
#
# Convention : Reuss Voigt Hill
#
# Bulk Modulus (GPa) = 39.72019 74.31127 57.01573
# Shear Modulus (GPa) = 23.22586 37.18960 30.20773
#
# Velocity S-wave (km/s) = 3.01915 3.82041 3.44317
# Velocity P-wave (km/s) = 5.26710 6.97316 6.17930
#
# Compressibility (1/GPa) = 0.02517612
#
# Stress axis : x y z
#
# Youngs Moduli (GPa) = 66.01173 49.57023 74.88271
#
# Poissons Ratio (x) = 0.23619 0.06928
# Poissons Ratio (y) = 0.31452 0.45381
# Poissons Ratio (z) = 0.06108 0.30041
#
# Static dielectric constant tensor:
#      x y z
#    x 2.234730 0.802640 0.091710 
#    y 0.802640 4.585480 0.299430 
#    z 0.091710 0.299430 1.969060 
# 
# From -- ./inp_files/478072.got.cif
#   From: 2010.05.17/outbox.cif.g08.bks.cpg/sg2_240_cif.got.tgz:478072.got - 2010.06.03 11:33:40.
