data_PCOD9066207
_publ_section_title
;
Structure prediction by ZEFSAII (Michael W. Deem and Ramdas Pophale) SiO2 
 PCOD9066207
Probable space group: P -1
;
_chemical_formula_sum "Si O2"
_cell_formula_units_Z 12
_cell_length_a 13.943433
_cell_length_b 5.378286
_cell_length_c 11.512793
_cell_angle_alpha 56.862838
_cell_angle_beta 137.711896
_cell_angle_gamma 105.377745
_cell_volume 471.362056
_symmetry_space_group_name_H-M "P -1"
_symmetry_group_IT_number 2
_symmetry_cell_setting 'triclinic'
loop_
_space_group_symop_operation_xyz
x,y,z
-x,-y,-z
loop_
_atom_site_type_symbol
_atom_site_label
_atom_site_fract_x
_atom_site_fract_y
_atom_site_fract_z
Si Si1 0.736175 0.748998 0.433071
Si Si2 0.629424 0.228429 0.577581
Si Si3 0.920247 0.849965 0.869363
Si Si4 0.027969 0.946135 0.384677
Si Si5 0.238052 0.307795 0.789087
Si Si6 0.476995 0.121352 0.244957
O O1 0.720270 0.480359 0.573872
O O2 0.688849 0.713197 0.267605
O O3 0.901911 0.790501 0.567233
O O4 0.622639 0.035199 0.317934
O O5 0.513961 0.284055 0.353312
O O6 0.750655 0.908649 0.740115
O O7 0.564486 0.176323 0.657370
O O8 0.926176 0.045292 0.709606
O O9 0.000000 0.500000 0.000000
O O10 0.000000 0.000000 0.000000
O O11 0.121222 0.634723 0.605225
O O12 0.857464 0.947928 0.231438
O O13 0.346749 0.273672 0.003171
#
# Coordination Sequence:
#
# PCOD9066207 Si02
#       6
#     2   2   2   2   2   2
#     4  12  22  46  73 102 148 195 243 315 368 445
#     4  11  25  47  72 106 149 186 254 313 363 453
#     4  12  25  46  78 109 148 197 252 313 383 445
#     4  11  25  46  70 105 148 188 253 311 368 444
#     4  11  25  45  71 105 147 193 249 304 383 446
#     4  11  25  46  72 106 144 199 243 305 382 450
#
# _framework density 25.45814
#
# number of rings (size 3 to 8) (size 9 to 14) (size 15 to 20)
#    0.000    0.667    3.333    3.500    0.000    4.000 
#    9.000    0.000    0.000    0.000    0.000    0.000 
#    0.000    0.000    0.000    0.000    0.000    0.000 
#
# Total GULP energy -67157.499559 kJ/mol
# GULP energy per Si atom -5596.458297 kJ/mol
# Density = 2.540020 g / cm^3
# Si number density = 25.458140 Si / 1000 Ang^3
#
#
#
# Elastic Constant Matrix: (Units=GPa)
#
#
# Indices 1 2 3 4 5 6 
#
# 1 133.5031 14.6902 33.4621 9.6078 -4.9046 1.9167
# 2 14.6902 105.6981 46.5275 9.5047 3.7131 10.1404
# 3 33.4621 46.5275 156.6297 37.7723 -11.2784 -3.8728
# 4 9.6078 9.5047 37.7723 33.5402 -5.8388 -11.3706
# 5 -4.9046 3.7131 -11.2784 -5.8388 34.2123 11.3771
# 6 1.9167 10.1404 -3.8728 -11.3706 11.3771 43.3905
#
#
#
# Elastic Compliance Matrix: (Units=1/GPa)
#
#
# Indices 1 2 3 4 5 6 
#
# 1 0.007973 -0.000394 -0.001359 -0.000764 0.000877 -0.000812
# 2 -0.000394 0.011343 -0.003342 -0.000513 -0.001596 -0.002648
# 3 -0.001359 -0.003342 0.010302 -0.010395 0.002312 -0.001570
# 4 -0.000764 -0.000513 -0.010395 0.045744 0.000654 0.011042
# 5 0.000877 -0.001596 0.002312 0.000654 0.033047 -0.007953
# 6 -0.000812 -0.002648 -0.001570 0.011042 -0.007953 0.028540
#
#
# Mechanical properties :
#
#
# Convention : Reuss Voigt Hill
#
# Bulk Modulus (GPa) = 51.47049 65.02117 58.24583
# Shear Modulus (GPa) = 32.54892 42.30533 37.42712
#
# Velocity S-wave (km/s) = 3.57953 4.08089 3.83840
# Velocity P-wave (km/s) = 6.11111 6.91381 6.52481
#
# Compressibility (1/GPa) = 0.01942861
#
# Stress axis : x y z
#
# Youngs Moduli (GPa) = 125.41806 88.15985 97.06753
#
# Poissons Ratio (x) = 0.03475 0.13190
# Poissons Ratio (y) = 0.04944 0.32439
# Poissons Ratio (z) = 0.17043 0.29462
#
# Static dielectric constant tensor:
#      x y z
#    x 2.002540 -0.013370 0.042430 
#    y -0.013370 2.167280 -0.050200 
#    z 0.042430 -0.050200 1.989590 
# 
# From -- ./inp_files/31398.got.cif
#   From: 2010.05.17/outbox.cif.g08.bks.cpg/sg2_16_cif.got.tgz:31398.got - 2010.06.03 11:33:40.
