data_PCOD9066274
_publ_section_title
;
Structure prediction by ZEFSAII (Michael W. Deem and Ramdas Pophale) SiO2 
 PCOD9066274
Probable space group: P -1
;
_chemical_formula_sum "Si O2"
_cell_formula_units_Z 14
_cell_length_a 5.772779
_cell_length_b 5.638286
_cell_length_c 18.066272
_cell_angle_alpha 80.247495
_cell_angle_beta 79.727146
_cell_angle_gamma 98.217806
_cell_volume 561.080546
_symmetry_space_group_name_H-M "P -1"
_symmetry_group_IT_number 2
_symmetry_cell_setting 'triclinic'
loop_
_space_group_symop_operation_xyz
x,y,z
-x,-y,-z
loop_
_atom_site_type_symbol
_atom_site_label
_atom_site_fract_x
_atom_site_fract_y
_atom_site_fract_z
Si Si1 0.567010 0.317863 0.855665
Si Si2 0.141037 0.513700 0.413399
Si Si3 0.953056 0.525791 0.087671
Si Si4 0.466504 0.212894 0.545578
Si Si5 0.071866 0.176762 0.683123
Si Si6 0.657156 0.733856 0.705685
Si Si7 0.292184 0.940648 0.798232
O O1 0.306212 0.379955 0.894416
O O2 0.650282 0.501394 0.772611
O O3 0.797226 0.337445 0.895843
O O4 0.491548 0.046255 0.841155
O O5 0.336522 0.755227 0.402863
O O6 0.284801 0.318466 0.380484
O O7 0.000000 0.500000 0.500000
O O8 0.980659 0.560388 0.350795
O O9 0.904307 0.257446 0.141753
O O10 0.000000 0.500000 0.000000
O O11 0.500000 0.500000 0.500000
O O12 0.500000 0.000000 0.500000
O O13 0.216734 0.131270 0.603656
O O14 0.205135 0.170154 0.752797
O O15 0.854355 0.954915 0.711602
O O16 0.403113 0.810773 0.731135
#
# Coordination Sequence:
#
# PCOD9066274 Si02
#       7
#     2   2   2   2   2   2   2
#     4  11  25  47  80 113 163 207 267 321 401 490
#     4  12  27  46  70 102 144 199 265 339 416 479
#     4  11  26  49  80 122 164 203 258 332 404 493
#     4  12  28  47  70 104 148 198 266 339 428 494
#     4  12  25  43  74  97 146 195 262 331 401 483
#     4  11  25  45  73 105 149 196 270 328 403 481
#     4  11  27  47  76 112 152 208 267 323 409 492
#
# _framework density 24.951855999999999
#
# number of rings (size 3 to 8) (size 9 to 14) (size 15 to 20)
#    0.000    0.571    2.857    3.857    8.000    2.286 
#    0.000    0.000    0.000    0.000    0.000    0.000 
#    0.000    0.000    0.000    0.000    0.000    0.000 
#
# Total GULP energy -78170.358392 kJ/mol
# GULP energy per Si atom -5583.597028 kJ/mol
# Density = 2.489506 g / cm^3
# Si number density = 24.951856 Si / 1000 Ang^3
#
#
#
# Elastic Constant Matrix: (Units=GPa)
#
#
# Indices 1 2 3 4 5 6 
#
# 1 120.1583 34.0364 65.2619 18.3411 -1.0522 8.3894
# 2 34.0364 83.1042 42.9525 17.8273 3.7265 12.4735
# 3 65.2619 42.9525 144.4246 20.1295 -22.3031 -14.0805
# 4 18.3411 17.8273 20.1295 29.6193 -0.0898 2.7879
# 5 -1.0522 3.7265 -22.3031 -0.0898 53.5917 9.9390
# 6 8.3894 12.4735 -14.0805 2.7879 9.9390 42.1707
#
#
#
# Elastic Compliance Matrix: (Units=1/GPa)
#
#
# Indices 1 2 3 4 5 6 
#
# 1 0.012181 -0.001038 -0.005304 -0.002998 -0.001273 -0.003389
# 2 -0.001038 0.017052 -0.004635 -0.005960 -0.002127 -0.005489
# 3 -0.005304 -0.004635 0.012309 -0.002816 0.004276 0.005715
# 4 -0.002998 -0.005960 -0.002816 0.041229 -0.000528 -0.001182
# 5 -0.001273 -0.002127 0.004276 -0.000528 0.021046 -0.002615
# 6 -0.003389 -0.005489 0.005715 -0.001182 -0.002615 0.028614
#
#
# Mechanical properties :
#
#
# Convention : Reuss Voigt Hill
#
# Bulk Modulus (GPa) = 51.05637 70.24319 60.64978
# Shear Modulus (GPa) = 31.07235 38.77210 34.92222
#
# Velocity S-wave (km/s) = 3.53270 3.94620 3.74516
# Velocity P-wave (km/s) = 6.09478 6.99828 6.56210
#
# Compressibility (1/GPa) = 0.01958619
#
# Stress axis : x y z
#
# Youngs Moduli (GPa) = 82.09838 58.64478 81.23810
#
# Poissons Ratio (x) = 0.06089 0.43092
# Poissons Ratio (y) = 0.08524 0.37654
# Poissons Ratio (z) = 0.43549 0.27182
#
# Static dielectric constant tensor:
#      x y z
#    x 2.254600 -0.135320 0.044930 
#    y -0.135320 2.034180 -0.027820 
#    z 0.044930 -0.027820 1.941330 
# 
# From -- ./inp_files/121503.got.cif
#   From: 2010.05.17/outbox.cif.g08.bks.cpg/sg2_61_cif.got.tgz:121503.got - 2010.06.03 11:33:40.
