data_PCOD9066027
_publ_section_title
;
Structure prediction by ZEFSAII (Michael W. Deem and Ramdas Pophale) SiO2 
 PCOD9066027
Probable space group: P -1
;
_chemical_formula_sum "Si O2"
_cell_formula_units_Z 14
_cell_length_a 5.170234
_cell_length_b 12.821171
_cell_length_c 23.787942
_cell_angle_alpha 28.772746
_cell_angle_beta 83.039168
_cell_angle_gamma 99.785324
_cell_volume 614.783705
_symmetry_space_group_name_H-M "P -1"
_symmetry_group_IT_number 2
_symmetry_cell_setting 'triclinic'
loop_
_space_group_symop_operation_xyz
x,y,z
-x,-y,-z
loop_
_atom_site_type_symbol
_atom_site_label
_atom_site_fract_x
_atom_site_fract_y
_atom_site_fract_z
Si Si1 0.730311 0.970930 0.357780
Si Si2 0.635313 0.745660 0.121598
Si Si3 0.266744 0.170025 0.048303
Si Si4 0.461868 0.762350 0.579437
Si Si5 0.012613 0.668040 0.472003
Si Si6 0.169221 0.656126 0.267532
Si Si7 0.088262 0.567503 0.031135
O O1 0.712036 0.886761 0.462912
O O2 0.905663 0.861805 0.371412
O O3 0.373331 0.834318 0.407967
O O4 0.916168 0.284604 0.199939
O O5 0.567779 0.721312 0.068540
O O6 0.549221 0.460585 0.278284
O O7 0.442593 0.797743 0.146793
O O8 0.000000 0.000000 0.000000
O O9 0.047086 0.269292 0.020235
O O10 0.538122 0.270676 0.040700
O O11 0.079490 0.853910 0.196362
O O12 0.119594 0.595370 0.637738
O O13 0.500000 0.000000 0.500000
O O14 0.771674 0.454501 0.626205
O O15 0.000000 0.500000 0.500000
O O16 0.000000 0.500000 0.000000
#
# Coordination Sequence:
#
# PCOD9066027 Si02
#       7
#     2   2   2   2   2   2   2
#     4  11  25  48  68 108 145 186 254 300 372 447
#     4  12  24  46  72 110 152 194 251 305 372 450
#     4  12  27  45  77 104 150 194 245 304 377 439
#     4  11  25  44  72 105 152 193 240 307 373 444
#     4  11  25  45  76 102 143 193 246 311 369 435
#     4  11  26  44  72 109 146 194 248 302 371 446
#     4  12  29  49  75 107 146 196 251 313 374 443
#
# _framework density 22.772238000000002
#
# number of rings (size 3 to 8) (size 9 to 14) (size 15 to 20)
#    0.000    0.571    2.857    3.857    8.000    1.714 
#    0.000    0.000    0.000    0.000    0.000    0.000 
#    0.000    0.000    0.000    0.000    0.000    0.000 
#
# Total GULP energy -78362.155905 kJ/mol
# GULP energy per Si atom -5597.296850 kJ/mol
# Density = 2.272041 g / cm^3
# Si number density = 22.772238 Si / 1000 Ang^3
#
#
#
# Elastic Constant Matrix: (Units=GPa)
#
#
# Indices 1 2 3 4 5 6 
#
# 1 88.3517 4.1776 20.6486 -17.4083 13.0015 -18.6135
# 2 4.1776 83.5496 31.1447 -12.2955 0.3740 -7.1382
# 3 20.6486 31.1447 114.8983 -26.1919 21.5788 -10.7431
# 4 -17.4083 -12.2955 -26.1919 40.4835 -2.5594 11.5856
# 5 13.0015 0.3740 21.5788 -2.5594 32.5893 -11.5406
# 6 -18.6135 -7.1382 -10.7431 11.5856 -11.5406 45.2688
#
#
#
# Elastic Compliance Matrix: (Units=1/GPa)
#
#
# Indices 1 2 3 4 5 6 
#
# 1 0.013539 0.000506 -0.000605 0.004362 -0.003419 0.003515
# 2 0.000506 0.013750 -0.003844 0.001574 0.002951 0.001813
# 3 -0.000605 -0.003844 0.012798 0.006807 -0.008242 -0.001661
# 4 0.004362 0.001574 0.006807 0.032878 -0.005901 -0.006262
# 5 -0.003419 0.002951 -0.008242 -0.005901 0.040142 0.008847
# 6 0.003515 0.001813 -0.001661 -0.006262 0.008847 0.027285
#
#
# Mechanical properties :
#
#
# Convention : Reuss Voigt Hill
#
# Bulk Modulus (GPa) = 31.05430 44.30459 37.67944
# Shear Modulus (GPa) = 31.44399 39.05690 35.25044
#
# Velocity S-wave (km/s) = 3.71995 4.14588 3.93868
# Velocity P-wave (km/s) = 5.66720 6.51272 6.10462
#
# Compressibility (1/GPa) = 0.03220166
#
# Stress axis : x y z
#
# Youngs Moduli (GPa) = 73.86032 72.72763 78.13474
#
# Poissons Ratio (x) = -0.03681 0.04728
# Poissons Ratio (y) = -0.03739 0.30034
# Poissons Ratio (z) = 0.04470 0.27956
#
# Static dielectric constant tensor:
#      x y z
#    x 1.873290 0.015390 0.009960 
#    y 0.015390 1.837310 0.054100 
#    z 0.009960 0.054100 1.861780 
# 
# From -- ./inp_files/48999.got.cif
#   From: 2010.05.17/outbox.cif.g08.bks.cpg/sg2_25_cif.got.tgz:48999.got - 2010.06.03 11:33:40.
