data_PCOD9066688
_publ_section_title
;
Structure prediction by ZEFSAII (Michael W. Deem and Ramdas Pophale) SiO2 
 PCOD9066688
Probable space group: P -1
;
_chemical_formula_sum "Si O2"
_cell_formula_units_Z 16
_cell_length_a 9.924413
_cell_length_b 7.128818
_cell_length_c 16.421309
_cell_angle_alpha 90.810008
_cell_angle_beta 82.240942
_cell_angle_gamma 43.737270
_cell_volume 785.209098
_symmetry_space_group_name_H-M "P -1"
_symmetry_group_IT_number 2
_symmetry_cell_setting 'triclinic'
loop_
_space_group_symop_operation_xyz
x,y,z
-x,-y,-z
loop_
_atom_site_type_symbol
_atom_site_label
_atom_site_fract_x
_atom_site_fract_y
_atom_site_fract_z
Si Si1 0.438235 0.169929 0.425387
Si Si2 0.693666 0.248963 0.344669
Si Si3 0.325974 0.658723 0.949388
Si Si4 0.998056 0.703061 0.044539
Si Si5 0.093321 0.729827 0.537968
Si Si6 0.595596 0.353755 0.771843
Si Si7 0.069415 0.675447 0.228794
Si Si8 0.795522 0.807445 0.678541
O O1 0.602359 0.161003 0.396011
O O2 0.225478 0.480971 0.462457
O O3 0.399316 0.079260 0.350038
O O4 0.500000 0.000000 0.500000
O O5 0.762576 0.332251 0.404653
O O6 0.520527 0.497138 0.301838
O O7 0.883989 0.987341 0.276417
O O8 0.431360 0.498271 0.855718
O O9 0.500000 0.500000 0.000000
O O10 0.170136 0.659443 0.991391
O O11 0.205888 0.974732 0.950942
O O12 0.035455 0.651425 0.137992
O O13 0.000000 0.500000 0.000000
O O14 0.931502 0.765990 0.597542
O O15 0.000000 0.000000 0.500000
O O16 0.734766 0.391702 0.780054
O O17 0.731682 0.033923 0.747630
O O18 0.096461 0.468700 0.283690
#
# Coordination Sequence:
#
# PCOD9066688 Si02
#       8
#     2   2   2   2   2   2   2   2
#     4  12  24  42  64 103 136 175 240 288 341 420
#     4  12  24  45  71  97 140 185 230 286 354 411
#     4  11  25  46  74 101 145 187 224 280 347 417
#     4  11  27  45  73 109 141 181 232 283 345 411
#     4  12  24  44  70 100 140 184 232 294 353 409
#     4  12  25  47  70 104 140 186 232 283 350 413
#     4  12  25  47  68 104 146 176 232 297 338 417
#     4  12  26  43  72 103 137 187 234 286 357 409
#
# _framework density 20.376740000000002
#
# number of rings (size 3 to 8) (size 9 to 14) (size 15 to 20)
#    0.000    0.250    5.000    4.500    1.750    3.500 
#    0.000    0.000    0.000    0.000    0.000    0.000 
#    0.000    0.000    0.000    0.000    0.000    0.000 
#
# Total GULP energy -89586.563062 kJ/mol
# GULP energy per Si atom -5599.160191 kJ/mol
# Density = 2.033036 g / cm^3
# Si number density = 20.376740 Si / 1000 Ang^3
#
#
#
# Elastic Constant Matrix: (Units=GPa)
#
#
# Indices 1 2 3 4 5 6 
#
# 1 62.7185 30.7268 6.5635 6.6729 10.7941 7.0446
# 2 30.7268 90.3774 30.2432 -13.9951 9.3454 -0.1640
# 3 6.5635 30.2432 70.9517 12.6395 2.3091 11.5202
# 4 6.6729 -13.9951 12.6395 32.7944 -7.5523 -0.7212
# 5 10.7941 9.3454 2.3091 -7.5523 46.7696 2.2618
# 6 7.0446 -0.1640 11.5202 -0.7212 2.2618 30.2910
#
#
#
# Elastic Compliance Matrix: (Units=1/GPa)
#
#
# Indices 1 2 3 4 5 6 
#
# 1 0.024819 -0.012577 0.007244 -0.014670 -0.005529 -0.008531
# 2 -0.012577 0.022187 -0.012793 0.017491 0.001528 0.008213
# 3 0.007244 -0.012793 0.023756 -0.016904 -0.002486 -0.011006
# 4 -0.014670 0.017491 -0.016904 0.049582 0.008224 0.010502
# 5 -0.005529 0.001528 -0.002486 0.008224 0.023771 0.000660
# 6 -0.008531 0.008213 -0.011006 0.010502 0.000660 0.039428
#
#
# Mechanical properties :
#
#
# Convention : Reuss Voigt Hill
#
# Bulk Modulus (GPa) = 28.97804 39.90164 34.43984
# Shear Modulus (GPa) = 21.61703 32.40527 27.01115
#
# Velocity S-wave (km/s) = 3.26063 3.99219 3.64481
# Velocity P-wave (km/s) = 5.33176 6.39332 5.88652
#
# Compressibility (1/GPa) = 0.03450889
#
# Stress axis : x y z
#
# Youngs Moduli (GPa) = 40.29214 45.07123 42.09446
#
# Poissons Ratio (x) = 0.56688 -0.30492
# Poissons Ratio (y) = 0.50677 0.53851
# Poissons Ratio (z) = -0.29187 0.57659
#
# Static dielectric constant tensor:
#      x y z
#    x 1.692250 0.005200 -0.011170 
#    y 0.005200 1.743660 -0.026190 
#    z -0.011170 -0.026190 1.687710 
# 
# From -- ./inp_files/48048.got.cif
#   From: 2010.05.17/outbox.cif.g08.bks.cpg/sg2_25_cif.got.tgz:48048.got - 2010.06.03 11:33:40.
