data_PCOD9066872
_publ_section_title
;
Structure prediction by ZEFSAII (Michael W. Deem and Ramdas Pophale) SiO2 
 PCOD9066872
Probable space group: P -1
;
_chemical_formula_sum "Si O2"
_cell_formula_units_Z 13
_cell_length_a 9.441427
_cell_length_b 15.626584
_cell_length_c 11.873093
_cell_angle_alpha 148.451357
_cell_angle_beta 143.010477
_cell_angle_gamma 47.198992
_cell_volume 551.449882
_symmetry_space_group_name_H-M "P -1"
_symmetry_group_IT_number 2
_symmetry_cell_setting 'triclinic'
loop_
_space_group_symop_operation_xyz
x,y,z
-x,-y,-z
loop_
_atom_site_type_symbol
_atom_site_label
_atom_site_fract_x
_atom_site_fract_y
_atom_site_fract_z
Si Si1 0.539755 0.803988 0.279669
Si Si2 0.311419 0.807108 0.570872
Si Si3 0.000000 0.000000 0.000000
Si Si4 0.229814 0.723661 0.180939
Si Si5 0.184173 0.086164 0.979286
Si Si6 0.007599 0.621799 0.333301
Si Si7 0.130493 0.650999 0.691563
O O1 0.468135 0.716767 0.252936
O O2 0.804528 0.761611 0.366599
O O3 0.500000 0.000000 0.500000
O O4 0.362224 0.726441 0.986383
O O5 0.249962 0.824556 0.421034
O O6 0.592132 0.794839 0.739868
O O7 0.176189 0.658185 0.376872
O O8 0.236873 0.963133 0.772104
O O9 0.850751 0.016321 0.043784
O O10 0.958029 0.805156 0.760761
O O11 0.135778 0.546249 0.953300
O O12 0.048863 0.813711 0.084314
O O13 0.155702 0.611572 0.531661
O O14 0.000000 0.500000 0.500000
#
# Coordination Sequence:
#
# PCOD9066872 Si02
#       7
#     2   2   1   2   2   2   2
#     4  12  27  44  76 109 142 191 249 311 367 434
#     4  11  27  44  70  99 149 191 238 299 367 446
#     4  12  22  46  78 104 142 186 252 306 360 430
#     4  12  26  44  70 106 141 191 243 302 369 436
#     4  11  25  47  71 104 140 190 245 301 361 441
#     4  12  26  47  70 106 146 190 245 305 369 440
#     4  12  25  45  75 108 144 190 242 309 364 431
#
# _framework density 23.574218999999999
#
# number of rings (size 3 to 8) (size 9 to 14) (size 15 to 20)
#    0.000    0.308    4.615    3.231    4.308    3.077 
#    0.000    0.000    0.000    0.000    0.000    0.000 
#    0.000    0.000    0.000    0.000    0.000    0.000 
#
# Total GULP energy -72503.130820 kJ/mol
# GULP energy per Si atom -5577.163909 kJ/mol
# Density = 2.352056 g / cm^3
# Si number density = 23.574219 Si / 1000 Ang^3
#
#
#
# Elastic Constant Matrix: (Units=GPa)
#
#
# Indices 1 2 3 4 5 6 
#
# 1 126.6105 22.6580 39.4711 -33.8917 1.3516 12.8370
# 2 22.6580 52.4903 37.1375 -2.5477 6.3996 5.7059
# 3 39.4711 37.1375 123.0652 -8.3507 19.9884 5.2317
# 4 -33.8917 -2.5477 -8.3507 49.8007 3.2964 -6.3172
# 5 1.3516 6.3996 19.9884 3.2964 39.8215 -3.1616
# 6 12.8370 5.7059 5.2317 -6.3172 -3.1616 22.2884
#
#
#
# Elastic Compliance Matrix: (Units=1/GPa)
#
#
# Indices 1 2 3 4 5 6 
#
# 1 0.011181 -0.002579 -0.002275 0.006652 0.000363 -0.003309
# 2 -0.002579 0.025313 -0.006644 -0.002045 -0.000804 -0.004129
# 3 -0.002275 -0.006644 0.011671 0.000345 -0.004766 -0.000306
# 4 0.006652 -0.002045 0.000345 0.025124 -0.001875 0.003466
# 5 0.000363 -0.000804 -0.004766 -0.001875 0.028140 0.004575
# 6 -0.003309 -0.004129 -0.000306 0.003466 0.004575 0.049532
#
#
# Mechanical properties :
#
#
# Convention : Reuss Voigt Hill
#
# Bulk Modulus (GPa) = 39.73110 55.63325 47.68218
# Shear Modulus (GPa) = 27.42026 35.90875 31.66451
#
# Velocity S-wave (km/s) = 3.41419 3.90708 3.66892
# Velocity P-wave (km/s) = 5.69495 6.63356 6.18210
#
# Compressibility (1/GPa) = 0.02516920
#
# Stress axis : x y z
#
# Youngs Moduli (GPa) = 89.43557 39.50588 85.68183
#
# Poissons Ratio (x) = 0.10187 0.19493
# Poissons Ratio (y) = 0.23063 0.56929
# Poissons Ratio (z) = 0.20347 0.26249
#
# Static dielectric constant tensor:
#      x y z
#    x 1.692440 -0.134890 0.212350 
#    y -0.134890 1.846860 0.184070 
#    z 0.212350 0.184070 1.539310 
# 
# From -- ./inp_files/400209.got.cif
#   From: 2010.05.17/outbox.cif.g08.bks.cpg/sg2_201_cif.got.tgz:400209.got - 2010.06.03 11:33:40.
