data_PCOD9066946
_publ_section_title
;
Structure prediction by ZEFSAII (Michael W. Deem and Ramdas Pophale) SiO2 
 PCOD9066946
Probable space group: P -1
;
_chemical_formula_sum "Si O2"
_cell_formula_units_Z 16
_cell_length_a 14.983499
_cell_length_b 9.238770
_cell_length_c 5.478481
_cell_angle_alpha 77.760756
_cell_angle_beta 85.645433
_cell_angle_gamma 109.917611
_cell_volume 687.693788
_symmetry_space_group_name_H-M "P -1"
_symmetry_group_IT_number 2
_symmetry_cell_setting 'triclinic'
loop_
_space_group_symop_operation_xyz
x,y,z
-x,-y,-z
loop_
_atom_site_type_symbol
_atom_site_label
_atom_site_fract_x
_atom_site_fract_y
_atom_site_fract_z
Si Si1 0.747083 0.268037 0.034091
Si Si2 0.448420 0.018693 0.752591
Si Si3 0.538143 0.636900 0.247327
Si Si4 0.834581 0.834988 0.620954
Si Si5 0.117218 0.824445 0.300605
Si Si6 0.079344 0.564316 0.749756
Si Si7 0.074329 0.226374 0.866281
Si Si8 0.337996 0.460348 0.099381
O O1 0.826038 0.303151 0.211832
O O2 0.653803 0.120954 0.172866
O O3 0.798050 0.224259 0.807905
O O4 0.722283 0.425939 0.954902
O O5 0.441526 0.191329 0.707237
O O6 0.500000 0.000000 0.500000
O O7 0.500000 0.000000 0.000000
O O8 0.500000 0.500000 0.500000
O O9 0.443397 0.585311 0.113207
O O10 0.631417 0.621929 0.107634
O O11 0.887061 0.841380 0.350076
O O12 0.729443 0.693260 0.678642
O O13 0.839438 0.011687 0.620555
O O14 0.887421 0.794698 0.864982
O O15 0.050912 0.666040 0.516705
O O16 0.042119 0.842672 0.107858
O O17 0.108267 0.414826 0.737997
O O18 0.000000 0.500000 0.000000
#
# Coordination Sequence:
#
# PCOD9066946 Si02
#       8
#     2   2   2   2   2   2   2   2
#     4  12  26  47  80 107 154 202 255 312 382 453
#     4  12  28  50  78 114 153 194 252 314 380 448
#     4  11  26  47  78 104 152 193 250 313 385 448
#     4  12  28  47  76 108 154 196 255 305 380 451
#     4  12  28  45  74 112 153 197 258 313 376 443
#     4  12  26  47  75 109 151 201 257 311 374 449
#     4  12  26  48  74 106 152 202 245 310 372 447
#     4  11  25  47  73 110 143 199 249 311 379 455
#
# _framework density 23.266168
#
# number of rings (size 3 to 8) (size 9 to 14) (size 15 to 20)
#    0.000    0.250    3.750    4.125    7.000    3.000 
#    0.000    0.000    0.000    0.000    0.000    0.000 
#    0.000    0.000    0.000    0.000    0.000    0.000 
#
# Total GULP energy -89480.643401 kJ/mol
# GULP energy per Si atom -5592.540213 kJ/mol
# Density = 2.321321 g / cm^3
# Si number density = 23.266168 Si / 1000 Ang^3
#
#
#
# Elastic Constant Matrix: (Units=GPa)
#
#
# Indices 1 2 3 4 5 6 
#
# 1 91.7275 40.8754 47.8574 6.4205 -27.9589 -7.0455
# 2 40.8754 197.8756 43.0788 -4.5807 -19.2614 -17.7719
# 3 47.8574 43.0788 127.0832 1.0423 -18.7572 -17.3023
# 4 6.4205 -4.5807 1.0423 46.0405 -1.5785 -8.8548
# 5 -27.9589 -19.2614 -18.7572 -1.5785 39.2586 1.0866
# 6 -7.0455 -17.7719 -17.3023 -8.8548 1.0866 55.2202
#
#
#
# Elastic Compliance Matrix: (Units=1/GPa)
#
#
# Indices 1 2 3 4 5 6 
#
# 1 0.016854 -0.001717 -0.004471 -0.002176 0.008945 -0.000328
# 2 -0.001717 0.005905 -0.000976 0.001187 0.001213 0.001542
# 3 -0.004471 -0.000976 0.010402 0.000811 0.001271 0.002480
# 4 -0.002176 0.001187 0.000811 0.022906 0.000230 0.004027
# 5 0.008945 0.001213 0.001271 0.000230 0.033018 0.001317
# 6 -0.000328 0.001542 0.002480 0.004027 0.001317 0.019961
#
#
# Mechanical properties :
#
#
# Convention : Reuss Voigt Hill
#
# Bulk Modulus (GPa) = 53.10049 75.58994 64.34521
# Shear Modulus (GPa) = 38.56530 47.09551 42.83041
#
# Velocity S-wave (km/s) = 4.07574 4.50400 4.29521
# Velocity P-wave (km/s) = 6.70981 7.72061 7.23288
#
# Compressibility (1/GPa) = 0.01883222
#
# Stress axis : x y z
#
# Youngs Moduli (GPa) = 59.33471 169.35137 96.13586
#
# Poissons Ratio (x) = 0.29080 0.42984
# Poissons Ratio (y) = 0.10189 0.09380
# Poissons Ratio (z) = 0.26530 0.16524
#
# Static dielectric constant tensor:
#      x y z
#    x 1.690890 -0.019070 0.197100 
#    y -0.019070 1.850320 0.048360 
#    z 0.197100 0.048360 2.055880 
# 
# From -- ./inp_files/90074.got.cif
#   From: 2010.05.17/outbox.cif.g08.bks.cpg/sg2_46_cif.got.tgz:90074.got - 2010.06.03 11:33:40.
