data_PCOD9066402
_publ_section_title
;
Structure prediction by ZEFSAII (Michael W. Deem and Ramdas Pophale) SiO2 
 PCOD9066402
Probable space group: P -1
;
_chemical_formula_sum "Si O2"
_cell_formula_units_Z 16
_cell_length_a 13.430466
_cell_length_b 18.131955
_cell_length_c 9.378535
_cell_angle_alpha 38.020491
_cell_angle_beta 149.822299
_cell_angle_gamma 144.848157
_cell_volume 634.593444
_symmetry_space_group_name_H-M "P -1"
_symmetry_group_IT_number 2
_symmetry_cell_setting 'triclinic'
loop_
_space_group_symop_operation_xyz
x,y,z
-x,-y,-z
loop_
_atom_site_type_symbol
_atom_site_label
_atom_site_fract_x
_atom_site_fract_y
_atom_site_fract_z
Si Si1 0.769972 0.504308 0.738665
Si Si2 0.061801 0.105775 0.236042
Si Si3 0.633106 0.919107 0.123464
Si Si4 0.410885 0.304640 0.799673
Si Si5 0.032852 0.724989 0.359339
Si Si6 0.351581 0.548846 0.645873
Si Si7 0.526989 0.222992 0.342640
Si Si8 0.783908 0.064157 0.487708
O O1 0.637376 0.418561 0.840297
O O2 0.776755 0.649691 0.544672
O O3 0.623762 0.447571 0.499916
O O4 0.000000 0.500000 0.000000
O O5 0.267015 0.138571 0.543604
O O6 0.054077 0.978368 0.333921
O O7 0.836853 0.060154 0.117426
O O8 0.093116 0.219278 0.989572
O O9 0.599558 0.826831 0.085348
O O10 0.398025 0.917143 0.863048
O O11 0.412191 0.287343 0.996566
O O12 0.260056 0.758954 0.509456
O O13 0.094799 0.812784 0.445249
O O14 0.894198 0.568985 0.452868
O O15 0.392252 0.690138 0.546964
O O16 0.500000 0.500000 0.000000
O O17 0.366669 0.069158 0.405735
#
# Coordination Sequence:
#
# PCOD9066402 Si02
#       8
#     2   2   2   2   2   2   2   2
#     4  11  27  48  70 107 139 194 241 294 360 440
#     4  11  26  42  69 110 143 189 241 304 359 431
#     4  11  25  46  70 105 149 190 240 300 367 427
#     4  11  25  45  76  99 148 190 236 300 364 424
#     4  12  25  45  75 106 141 192 247 297 364 434
#     4  12  27  46  74 106 147 188 248 301 361 430
#     4  12  24  47  76 108 146 193 243 302 362 429
#     4  12  25  47  77 106 145 193 247 296 361 433
#
# _framework density 25.212993000000001
#
# number of rings (size 3 to 8) (size 9 to 14) (size 15 to 20)
#    0.000    0.500    3.750    3.750    5.250    1.000 
#    0.000    0.000    0.000    0.000    0.000    0.000 
#    0.000    0.000    0.000    0.000    0.000    0.000 
#
# Total GULP energy -89683.901675 kJ/mol
# GULP energy per Si atom -5605.243855 kJ/mol
# Density = 2.515561 g / cm^3
# Si number density = 25.212993 Si / 1000 Ang^3
#
#
#
# Elastic Constant Matrix: (Units=GPa)
#
#
# Indices 1 2 3 4 5 6 
#
# 1 80.0797 13.6208 7.3991 10.9545 10.5512 11.5004
# 2 13.6208 80.4180 3.2632 3.0518 -8.4197 13.4338
# 3 7.3991 3.2632 119.7152 9.7649 -2.9367 15.3994
# 4 10.9545 3.0518 9.7649 22.8298 -9.4504 -2.7416
# 5 10.5512 -8.4197 -2.9367 -9.4504 51.2257 6.2053
# 6 11.5004 13.4338 15.3994 -2.7416 6.2053 43.0642
#
#
#
# Elastic Compliance Matrix: (Units=1/GPa)
#
#
# Indices 1 2 3 4 5 6 
#
# 1 0.015265 -0.002174 0.000210 -0.009533 -0.004838 -0.003383
# 2 -0.002174 0.013863 0.000412 -0.000166 0.003249 -0.004370
# 3 0.000210 0.000412 0.009184 -0.004461 0.000186 -0.003779
# 4 -0.009533 -0.000166 -0.004461 0.055683 0.011212 0.006122
# 5 -0.004838 0.003249 0.000186 0.011212 0.023428 -0.002450
# 6 -0.003383 -0.004370 -0.003779 0.006122 -0.002450 0.027582
#
#
# Mechanical properties :
#
#
# Convention : Reuss Voigt Hill
#
# Bulk Modulus (GPa) = 28.40269 36.53101 32.46685
# Shear Modulus (GPa) = 31.28034 40.48592 35.88313
#
# Velocity S-wave (km/s) = 3.52610 4.01154 3.77662
# Velocity P-wave (km/s) = 5.27896 5.99808 5.64997
#
# Compressibility (1/GPa) = 0.03520793
#
# Stress axis : x y z
#
# Youngs Moduli (GPa) = 65.50777 72.13482 108.89086
#
# Poissons Ratio (x) = 0.15680 -0.02285
# Poissons Ratio (y) = 0.14239 -0.04485
# Poissons Ratio (z) = -0.01375 -0.02971
#
# Static dielectric constant tensor:
#      x y z
#    x 1.983590 -0.009290 0.012530 
#    y -0.009290 1.987290 0.003700 
#    z 0.012530 0.003700 2.048260 
# 
# From -- ./inp_files/317999.got.cif
#   From: 2010.05.17/outbox.cif.g08.bks.cpg/sg2_159_cif.got.tgz:317999.got - 2010.06.03 11:33:40.
