data_PCOD9066006
_publ_section_title
;
Structure prediction by ZEFSAII (Michael W. Deem and Ramdas Pophale) SiO2 
 PCOD9066006
Probable space group: P -1
;
_chemical_formula_sum "Si O2"
_cell_formula_units_Z 14
_cell_length_a 8.929879
_cell_length_b 26.061155
_cell_length_c 5.381187
_cell_angle_alpha 78.529789
_cell_angle_beta 80.203364
_cell_angle_gamma 29.399998
_cell_volume 602.480829
_symmetry_space_group_name_H-M "P -1"
_symmetry_group_IT_number 2
_symmetry_cell_setting 'triclinic'
loop_
_space_group_symop_operation_xyz
x,y,z
-x,-y,-z
loop_
_atom_site_type_symbol
_atom_site_label
_atom_site_fract_x
_atom_site_fract_y
_atom_site_fract_z
Si Si1 0.471306 0.595387 0.058150
Si Si2 0.211146 0.568241 0.253745
Si Si3 0.373541 0.011143 0.277477
Si Si4 0.945745 0.561229 0.657064
Si Si5 0.423054 0.228443 0.979798
Si Si6 0.294904 0.758581 0.886731
Si Si7 0.636489 0.107075 0.536943
O O1 0.347499 0.583862 0.265432
O O2 0.796693 0.521076 0.125020
O O3 0.540468 0.545321 0.826792
O O4 0.248965 0.711443 0.015978
O O5 0.034303 0.590896 0.493557
O O6 0.941901 0.657092 0.042663
O O7 0.008329 0.127807 0.255926
O O8 0.500000 0.000000 0.500000
O O9 0.453078 0.926353 0.359447
O O10 0.500000 0.000000 0.000000
O O11 0.591769 0.667593 0.716691
O O12 0.000000 0.500000 0.500000
O O13 0.588953 0.235427 0.943693
O O14 0.502672 0.172412 0.260222
O O15 0.538726 0.166515 0.756293
O O16 0.000000 0.000000 0.500000
#
# Coordination Sequence:
#
# PCOD9066006 Si02
#       7
#     2   2   2   2   2   2   2
#     4  11  25  45  68 111 150 191 244 313 374 458
#     4  11  25  44  71 104 156 189 248 302 384 447
#     4  12  31  53  78 114 157 198 256 328 390 448
#     4  12  23  46  73 107 150 203 249 311 368 468
#     4  12  26  47  81 110 146 204 255 310 380 453
#     4  12  26  49  76 109 148 202 260 308 388 454
#     4  12  27  51  79 110 148 195 263 319 377 455
#
# _framework density 23.237251000000001
#
# number of rings (size 3 to 8) (size 9 to 14) (size 15 to 20)
#    0.000    0.286    4.286    3.857    6.000    1.143 
#    0.000    0.000    0.000    0.000    0.000    0.000 
#    0.000    0.000    0.000    0.000    0.000    0.000 
#
# Total GULP energy -78374.463555 kJ/mol
# GULP energy per Si atom -5598.175968 kJ/mol
# Density = 2.318436 g / cm^3
# Si number density = 23.237251 Si / 1000 Ang^3
#
#
#
# Elastic Constant Matrix: (Units=GPa)
#
#
# Indices 1 2 3 4 5 6 
#
# 1 150.9733 37.2607 35.9223 4.3447 5.5570 28.3261
# 2 37.2607 112.0931 40.0813 1.4553 18.8528 17.0342
# 3 35.9223 40.0813 122.0102 5.8823 4.2020 17.4919
# 4 4.3447 1.4553 5.8823 40.7162 8.1862 4.6982
# 5 5.5570 18.8528 4.2020 8.1862 51.7159 -2.5505
# 6 28.3261 17.0342 17.4919 4.6982 -2.5505 58.7020
#
#
#
# Elastic Compliance Matrix: (Units=1/GPa)
#
#
# Indices 1 2 3 4 5 6 
#
# 1 0.007919 -0.001661 -0.001347 -0.000203 -0.000249 -0.002933
# 2 -0.001661 0.011479 -0.002924 0.001228 -0.004058 -0.001933
# 3 -0.001347 -0.002924 0.009776 -0.001120 0.000530 -0.001302
# 4 -0.000203 0.001228 -0.001120 0.025865 -0.004537 -0.002192
# 5 -0.000249 -0.004058 0.000530 -0.004537 0.021638 0.002443
# 6 -0.002933 -0.001933 -0.001302 -0.002192 0.002443 0.019681
#
#
# Mechanical properties :
#
#
# Convention : Reuss Voigt Hill
#
# Bulk Modulus (GPa) = 57.77123 67.95611 62.86367
# Shear Modulus (GPa) = 43.86242 48.34765 46.10503
#
# Velocity S-wave (km/s) = 4.34935 4.56632 4.45916
# Velocity P-wave (km/s) = 7.08082 7.55709 7.32283
#
# Compressibility (1/GPa) = 0.01730965
#
# Stress axis : x y z
#
# Youngs Moduli (GPa) = 126.27351 87.11397 102.29361
#
# Poissons Ratio (x) = 0.14466 0.13782
# Poissons Ratio (y) = 0.20969 0.29915
# Poissons Ratio (z) = 0.17013 0.25476
#
# Static dielectric constant tensor:
#      x y z
#    x 2.048630 0.042120 0.272760 
#    y 0.042120 1.885680 0.010440 
#    z 0.272760 0.010440 2.503370 
# 
# From -- ./inp_files/55447.got.cif
#   From: 2010.05.17/outbox.cif.g08.bks.cpg/sg2_28_cif.got.tgz:55447.got - 2010.06.03 11:33:40.
