data_PCOD9066061
_publ_section_title
;
Structure prediction by ZEFSAII (Michael W. Deem and Ramdas Pophale) SiO2 
 PCOD9066061
Probable space group: P -1
;
_chemical_formula_sum "Si O2"
_cell_formula_units_Z 14
_cell_length_a 9.613683
_cell_length_b 11.747879
_cell_length_c 17.349476
_cell_angle_alpha 160.381657
_cell_angle_beta 66.034754
_cell_angle_gamma 114.597065
_cell_volume 597.555397
_symmetry_space_group_name_H-M "P -1"
_symmetry_group_IT_number 2
_symmetry_cell_setting 'triclinic'
loop_
_space_group_symop_operation_xyz
x,y,z
-x,-y,-z
loop_
_atom_site_type_symbol
_atom_site_label
_atom_site_fract_x
_atom_site_fract_y
_atom_site_fract_z
Si Si1 0.281497 0.894613 0.689798
Si Si2 0.494220 0.259964 0.098222
Si Si3 0.161114 0.211671 0.075814
Si Si4 0.013263 0.188360 0.857528
Si Si5 0.606933 0.887678 0.574463
Si Si6 0.902333 0.305988 0.714157
Si Si7 0.308988 0.212186 0.339390
O O1 0.449310 0.048471 0.724797
O O2 0.310139 0.511685 0.466395
O O3 0.160661 0.982246 0.707600
O O4 0.222287 0.046482 0.878873
O O5 0.313109 0.259996 0.123740
O O6 0.577330 0.620691 0.340131
O O7 0.500000 0.000000 0.000000
O O8 0.587161 0.085414 0.898744
O O9 0.125019 0.584105 0.295948
O O10 0.000000 0.000000 0.000000
O O11 0.003013 0.379516 0.063525
O O12 0.867238 0.930067 0.708859
O O13 0.000000 0.500000 0.000000
O O14 0.643085 0.694928 0.523756
O O15 0.744042 0.179274 0.711627
O O16 0.000000 0.000000 0.500000
#
# Coordination Sequence:
#
# PCOD9066061 Si02
#       7
#     2   2   2   2   2   2   2
#     4  11  25  44  73 107 139 192 245 297 364 423
#     4  12  26  44  74 110 142 191 243 297 369 425
#     4  11  28  47  74 107 149 189 245 303 359 439
#     4  11  25  45  70 101 140 192 238 294 364 426
#     4  12  25  46  78 106 149 190 245 298 364 436
#     4  11  27  47  71 106 147 193 240 305 365 426
#     4  12  24  47  75 107 147 188 242 308 353 432
#
# _framework density 23.428792000000001
#
# number of rings (size 3 to 8) (size 9 to 14) (size 15 to 20)
#    0.000    0.571    4.286    2.571    8.000    6.286 
#    0.000    0.000    0.000    0.000    0.000    0.000 
#    0.000    0.000    0.000    0.000    0.000    0.000 
#
# Total GULP energy -78205.639817 kJ/mol
# GULP energy per Si atom -5586.117130 kJ/mol
# Density = 2.337547 g / cm^3
# Si number density = 23.428792 Si / 1000 Ang^3
#
#
#
# Elastic Constant Matrix: (Units=GPa)
#
#
# Indices 1 2 3 4 5 6 
#
# 1 228.1839 57.0725 44.7401 16.7306 -19.9514 -12.2122
# 2 57.0725 80.0143 13.8072 9.5603 -13.2627 -3.4532
# 3 44.7401 13.8072 76.8591 -7.1492 -7.2945 -8.8628
# 4 16.7306 9.5603 -7.1492 34.0015 -13.1432 -7.5626
# 5 -19.9514 -13.2627 -7.2945 -13.1432 36.6038 -2.4374
# 6 -12.2122 -3.4532 -8.8628 -7.5626 -2.4374 50.8508
#
#
#
# Elastic Compliance Matrix: (Units=1/GPa)
#
#
# Indices 1 2 3 4 5 6 
#
# 1 0.006079 -0.003408 -0.003036 -0.002330 0.000663 0.000385
# 2 -0.003408 0.015770 -0.000710 -0.001700 0.003106 0.000025
# 3 -0.003036 -0.000710 0.016412 0.007567 0.004303 0.003415
# 4 -0.002330 -0.001700 0.007567 0.039805 0.014398 0.007254
# 5 0.000663 0.003106 0.004303 0.014398 0.035163 0.004947
# 6 0.000385 0.000025 0.003415 0.007254 0.004947 0.021670
#
#
# Mechanical properties :
#
#
# Convention : Reuss Voigt Hill
#
# Bulk Modulus (GPa) = 41.74697 68.47744 55.11221
# Shear Modulus (GPa) = 31.80844 42.25373 37.03109
#
# Velocity S-wave (km/s) = 3.68865 4.25137 3.97996
# Velocity P-wave (km/s) = 5.99990 7.30686 6.68539
#
# Compressibility (1/GPa) = 0.02395383
#
# Stress axis : x y z
#
# Youngs Moduli (GPa) = 164.49038 63.41202 60.93211
#
# Poissons Ratio (x) = 0.21608 0.18500
# Poissons Ratio (y) = 0.56050 0.04326
# Poissons Ratio (z) = 0.49941 0.04502
#
# Static dielectric constant tensor:
#      x y z
#    x 1.768980 -0.069360 -0.042450 
#    y -0.069360 1.916090 -0.018310 
#    z -0.042450 -0.018310 1.973100 
# 
# From -- ./inp_files/398550.got.cif
#   From: 2010.05.17/outbox.cif.g08.bks.cpg/sg2_200_cif.got.tgz:398550.got - 2010.06.03 11:33:40.
