data_PCOD9066630
_publ_section_title
;
Structure prediction by ZEFSAII (Michael W. Deem and Ramdas Pophale) SiO2 
 PCOD9066630
Probable space group: P -1
;
_chemical_formula_sum "Si O2"
_cell_formula_units_Z 12
_cell_length_a 9.034497
_cell_length_b 15.551395
_cell_length_c 11.594657
_cell_angle_alpha 30.143872
_cell_angle_beta 49.521394
_cell_angle_gamma 38.297036
_cell_volume 504.697904
_symmetry_space_group_name_H-M "P -1"
_symmetry_group_IT_number 2
_symmetry_cell_setting 'triclinic'
loop_
_space_group_symop_operation_xyz
x,y,z
-x,-y,-z
loop_
_atom_site_type_symbol
_atom_site_label
_atom_site_fract_x
_atom_site_fract_y
_atom_site_fract_z
Si Si1 0.681077 0.869056 0.780308
Si Si2 0.776423 0.326522 0.546128
Si Si3 0.462740 0.349573 0.274262
Si Si4 0.903250 0.546154 0.847701
Si Si5 0.313735 0.990896 0.027957
Si Si6 0.874898 0.381256 0.688389
O O1 0.707727 0.720356 0.833994
O O2 0.630257 0.092673 0.505713
O O3 0.462048 0.918656 0.915510
O O4 0.937074 0.701444 0.910995
O O5 0.500000 0.500000 0.500000
O O6 0.878668 0.294577 0.661338
O O7 0.904900 0.399643 0.319817
O O8 0.759891 0.146479 0.714609
O O9 0.226491 0.399629 0.271258
O O10 0.388902 0.459058 0.310103
O O11 0.500000 0.500000 0.000000
O O12 0.049301 0.190176 0.904660
O O13 0.500000 0.000000 0.000000
O O14 0.000000 0.500000 0.500000
#
# Coordination Sequence:
#
# PCOD9066630 Si02
#       6
#     2   2   2   2   2   2
#     4  11  25  46  72  98 145 186 235 295 355 426
#     4  12  25  44  74 104 141 188 240 297 360 426
#     4  12  28  45  71 105 147 188 238 295 362 427
#     4  11  25  49  69 106 143 188 241 294 358 431
#     4  12  25  46  73 105 140 189 240 301 359 428
#     4  12  24  45  70 104 143 185 242 295 358 428
#
# _framework density 23.776599999999998
#
# number of rings (size 3 to 8) (size 9 to 14) (size 15 to 20)
#    0.000    0.333    5.000    3.000    4.667    0.667 
#    0.000    0.000    0.000    0.000    0.000    0.000 
#    0.000    0.000    0.000    0.000    0.000    0.000 
#
# Total GULP energy -66879.218336 kJ/mol
# GULP energy per Si atom -5573.268195 kJ/mol
# Density = 2.372248 g / cm^3
# Si number density = 23.776600 Si / 1000 Ang^3
#
#
#
# Elastic Constant Matrix: (Units=GPa)
#
#
# Indices 1 2 3 4 5 6 
#
# 1 93.8601 -1.1243 25.7782 -4.5567 5.7803 -2.2078
# 2 -1.1243 100.6930 34.1848 -5.9224 5.4026 7.1904
# 3 25.7782 34.1848 155.6230 -13.7194 3.7849 -24.3604
# 4 -4.5567 -5.9224 -13.7194 43.8403 -19.9944 12.4584
# 5 5.7803 5.4026 3.7849 -19.9944 40.8621 4.5647
# 6 -2.2078 7.1904 -24.3604 12.4584 4.5647 26.9829
#
#
#
# Elastic Compliance Matrix: (Units=1/GPa)
#
#
# Indices 1 2 3 4 5 6 
#
# 1 0.011353 0.001096 -0.002278 0.000523 -0.001120 -0.001472
# 2 0.001096 0.011991 -0.003855 0.003497 0.001268 -0.008415
# 3 -0.002278 -0.003855 0.009149 -0.001711 -0.001995 0.010228
# 4 0.000523 0.003497 -0.001711 0.039669 0.021762 -0.024431
# 5 -0.001120 0.001268 -0.001995 0.021762 0.037375 -0.018601
# 6 -0.001472 -0.008415 0.010228 -0.024431 -0.018601 0.062844
#
#
# Mechanical properties :
#
#
# Convention : Reuss Voigt Hill
#
# Bulk Modulus (GPa) = 44.60859 51.98374 48.29616
# Shear Modulus (GPa) = 26.32577 41.75954 34.04266
#
# Velocity S-wave (km/s) = 3.33109 4.19540 3.78798
# Velocity P-wave (km/s) = 5.79631 6.73643 6.28397
#
# Compressibility (1/GPa) = 0.02241721
#
# Stress axis : x y z
#
# Youngs Moduli (GPa) = 88.08435 83.39644 109.30325
#
# Poissons Ratio (x) = -0.09142 0.24904
# Poissons Ratio (y) = -0.09656 0.42141
# Poissons Ratio (z) = 0.20070 0.32153
#
# Static dielectric constant tensor:
#      x y z
#    x 1.791320 -0.047520 0.121330 
#    y -0.047520 1.862010 0.122850 
#    z 0.121330 0.122850 1.760850 
# 
# From -- ./inp_files/177050.got.cif
#   From: 2010.05.17/outbox.cif.g08.bks.cpg/sg2_89_cif.got.tgz:177050.got - 2010.06.03 11:33:40.
