data_PCOD9066887
_publ_section_title
;
Structure prediction by ZEFSAII (Michael W. Deem and Ramdas Pophale) SiO2 
 PCOD9066887
Probable space group: P -1
;
_chemical_formula_sum "Si O2"
_cell_formula_units_Z 11
_cell_length_a 12.047601
_cell_length_b 9.148665
_cell_length_c 5.479257
_cell_angle_alpha 71.631007
_cell_angle_beta 127.725589
_cell_angle_gamma 80.883443
_cell_volume 400.633958
_symmetry_space_group_name_H-M "P -1"
_symmetry_group_IT_number 2
_symmetry_cell_setting 'triclinic'
loop_
_space_group_symop_operation_xyz
x,y,z
-x,-y,-z
loop_
_atom_site_type_symbol
_atom_site_label
_atom_site_fract_x
_atom_site_fract_y
_atom_site_fract_z
Si Si1 0.574318 0.134429 0.545002
Si Si2 0.868464 0.249205 0.435804
Si Si3 0.099690 0.337586 0.386841
Si Si4 0.137395 0.074817 0.248402
Si Si5 0.351653 0.437253 0.798762
Si Si6 0.500000 0.500000 0.500000
O O1 0.533550 0.286879 0.607972
O O2 0.500000 0.000000 0.500000
O O3 0.759987 0.015906 0.803720
O O4 0.503730 0.258206 0.148929
O O5 0.691804 0.416493 0.119254
O O6 0.979260 0.287937 0.387454
O O7 0.862601 0.070546 0.496464
O O8 0.961974 0.209388 0.844396
O O9 0.207670 0.180359 0.436309
O O10 0.207861 0.391804 0.663500
O O11 0.000000 0.500000 0.000000
O O12 0.369699 0.521333 0.531369
#
# Coordination Sequence:
#
# PCOD9066887 Si02
#       6
#     2   2   2   2   2   1
#     4  12  28  49  76 109 151 190 250 302 359 443
#     4  11  25  47  72 105 147 186 246 302 360 436
#     4  12  26  43  77 107 143 194 240 301 375 422
#     4  11  25  47  71 109 141 191 246 302 359 439
#     4  12  27  48  74 107 147 193 244 303 361 439
#     4  12  28  50  78 104 154 198 238 298 382 424
#
# _framework density 27.456486999999999
#
# number of rings (size 3 to 8) (size 9 to 14) (size 15 to 20)
#    0.000    0.364    3.636    3.818    5.091    4.364 
#    0.000    0.000    0.000    0.000    0.000    0.000 
#    0.000    0.000    0.000    0.000    0.000    0.000 
#
# Total GULP energy -61365.222444 kJ/mol
# GULP energy per Si atom -5578.656586 kJ/mol
# Density = 2.739399 g / cm^3
# Si number density = 27.456487 Si / 1000 Ang^3
#
#
#
# Elastic Constant Matrix: (Units=GPa)
#
#
# Indices 1 2 3 4 5 6 
#
# 1 133.2559 54.6498 25.0700 -21.1466 -11.6800 -1.4401
# 2 54.6498 219.8746 16.6918 -22.1569 -9.2959 6.9128
# 3 25.0700 16.6918 71.1858 -36.1037 -13.1631 9.5387
# 4 -21.1466 -22.1569 -36.1037 36.8051 0.7893 0.4746
# 5 -11.6800 -9.2959 -13.1631 0.7893 49.6086 -4.8037
# 6 -1.4401 6.9128 9.5387 0.4746 -4.8037 52.2870
#
#
#
# Elastic Compliance Matrix: (Units=1/GPa)
#
#
# Indices 1 2 3 4 5 6 
#
# 1 0.009079 -0.001830 -0.001043 0.003048 0.001547 0.000797
# 2 -0.001830 0.005320 0.001532 0.003649 0.000819 -0.000991
# 3 -0.001043 0.001532 0.032544 0.032158 0.007607 -0.005761
# 4 0.003048 0.003649 0.032158 0.062563 0.008352 -0.006066
# 5 0.001547 0.000819 0.007607 0.008352 0.022614 0.000548
# 6 0.000797 -0.000991 -0.005761 -0.006066 0.000548 0.020435
#
#
# Mechanical properties :
#
#
# Convention : Reuss Voigt Hill
#
# Bulk Modulus (GPa) = 22.59314 68.57105 45.58210
# Shear Modulus (GPa) = 29.41335 49.60047 39.50691
#
# Velocity S-wave (km/s) = 3.27658 4.25492 3.79739
# Velocity P-wave (km/s) = 4.74986 7.01197 5.98870
#
# Compressibility (1/GPa) = 0.04426122
#
# Stress axis : x y z
#
# Youngs Moduli (GPa) = 110.14512 187.96706 30.72722
#
# Poissons Ratio (x) = 0.34396 0.03206
# Poissons Ratio (y) = 0.20155 -0.04708
# Poissons Ratio (z) = 0.11491 -0.28797
#
# Static dielectric constant tensor:
#      x y z
#    x 2.063550 0.007810 0.029010 
#    y 0.007810 2.089340 0.000630 
#    z 0.029010 0.000630 1.958320 
# 
# From -- ./inp_files/17200.got.cif
#   From: 2010.05.17/outbox.cif.g08.bks.cpg/sg2_9_cif.got.tgz:17200.got - 2010.06.03 11:33:40.
