data_PCOD9066699
_publ_section_title
;
Structure prediction by ZEFSAII (Michael W. Deem and Ramdas Pophale) SiO2 
 PCOD9066699
Probable space group: P -1
;
_chemical_formula_sum "Si O2"
_cell_formula_units_Z 16
_cell_length_a 12.048116
_cell_length_b 11.192760
_cell_length_c 11.344903
_cell_angle_alpha 86.973292
_cell_angle_beta 133.035007
_cell_angle_gamma 58.479958
_cell_volume 718.371069
_symmetry_space_group_name_H-M "P -1"
_symmetry_group_IT_number 2
_symmetry_cell_setting 'triclinic'
loop_
_space_group_symop_operation_xyz
x,y,z
-x,-y,-z
loop_
_atom_site_type_symbol
_atom_site_label
_atom_site_fract_x
_atom_site_fract_y
_atom_site_fract_z
Si Si1 0.887225 0.723947 0.969207
Si Si2 0.632248 0.532288 0.537862
Si Si3 0.096654 0.737173 0.472516
Si Si4 0.616662 0.121551 0.996175
Si Si5 0.141509 0.311769 0.545948
Si Si6 0.510526 0.379422 0.099645
Si Si7 0.935525 0.461678 0.135795
Si Si8 0.760226 0.077788 0.858618
O O1 0.154700 0.571356 0.215691
O O2 0.802704 0.667234 0.996266
O O3 0.901222 0.671073 0.848704
O O4 0.784462 0.919424 0.888472
O O5 0.500000 0.500000 0.500000
O O6 0.744498 0.433041 0.496493
O O7 0.448043 0.750720 0.383799
O O8 0.263630 0.739803 0.645749
O O9 0.992894 0.725855 0.507980
O O10 0.862568 0.914338 0.222755
O O11 0.528046 0.254008 0.033799
O O12 0.408231 0.160565 0.796026
O O13 0.685058 0.161246 0.931541
O O14 0.000000 0.500000 0.500000
O O15 0.097942 0.364511 0.374668
O O16 0.500000 0.500000 0.000000
O O17 0.271446 0.509034 0.993650
O O18 0.000000 0.000000 0.000000
#
# Coordination Sequence:
#
# PCOD9066699 Si02
#       8
#     2   2   2   2   2   2   2   2
#     4  11  25  47  72 107 153 190 259 297 376 447
#     4  12  23  46  74 106 149 195 247 306 371 441
#     4  12  25  44  72 108 149 193 245 309 374 439
#     4  12  26  43  70 111 148 188 248 304 376 446
#     4  12  23  45  74 104 144 194 245 300 372 443
#     4  12  24  44  71 104 148 193 249 303 376 437
#     4  11  25  46  74 106 150 202 242 316 369 441
#     4  12  25  43  75 109 144 196 249 304 369 446
#
# _framework density 22.272611000000001
#
# number of rings (size 3 to 8) (size 9 to 14) (size 15 to 20)
#    0.000    0.250    5.000    4.500    1.750    1.000 
#    0.000    6.875    0.000    0.000    0.000    0.000 
#    0.000    0.000    0.000    0.000    0.000    0.000 
#
# Total GULP energy -89483.312302 kJ/mol
# GULP energy per Si atom -5592.707019 kJ/mol
# Density = 2.222192 g / cm^3
# Si number density = 22.272611 Si / 1000 Ang^3
#
#
#
# Elastic Constant Matrix: (Units=GPa)
#
#
# Indices 1 2 3 4 5 6 
#
# 1 105.6679 12.3280 45.2655 12.5342 4.3961 10.6558
# 2 12.3280 72.8237 49.9096 6.5392 -10.6767 0.9029
# 3 45.2655 49.9096 158.8680 -0.3453 -9.4457 3.5263
# 4 12.5342 6.5392 -0.3453 47.1413 3.7070 -11.8695
# 5 4.3961 -10.6767 -9.4457 3.7070 44.0784 1.0358
# 6 10.6558 0.9029 3.5263 -11.8695 1.0358 35.2903
#
#
#
# Elastic Compliance Matrix: (Units=1/GPa)
#
#
# Indices 1 2 3 4 5 6 
#
# 1 0.011983 0.000713 -0.003622 -0.004395 -0.001318 -0.004714
# 2 0.000713 0.018381 -0.005749 -0.003395 0.003467 -0.001355
# 3 -0.003622 -0.005749 0.009159 0.002017 0.000739 0.000982
# 4 -0.004395 -0.003395 0.002017 0.025535 -0.002331 0.009869
# 5 -0.001318 0.003467 0.000739 -0.002331 0.024042 -0.001254
# 6 -0.004714 -0.001355 0.000982 0.009869 -0.001254 0.033053
#
#
# Mechanical properties :
#
#
# Convention : Reuss Voigt Hill
#
# Bulk Modulus (GPa) = 45.02728 61.37397 53.20062
# Shear Modulus (GPa) = 34.04346 40.62576 37.33461
#
# Velocity S-wave (km/s) = 3.91383 4.27549 4.09865
# Velocity P-wave (km/s) = 6.37843 7.21032 6.80710
#
# Compressibility (1/GPa) = 0.02220876
#
# Stress axis : x y z
#
# Youngs Moduli (GPa) = 83.44863 54.40403 109.18134
#
# Poissons Ratio (x) = -0.03881 0.39543
# Poissons Ratio (y) = -0.05953 0.62768
# Poissons Ratio (z) = 0.30223 0.31277
#
# Static dielectric constant tensor:
#      x y z
#    x 1.806270 -0.016120 -0.086170 
#    y -0.016120 1.821550 -0.043180 
#    z -0.086170 -0.043180 1.793800 
# 
# From -- ./inp_files/428237.got.cif
#   From: 2010.05.17/outbox.cif.g08.bks.cpg/sg2_215_cif.got.tgz:428237.got - 2010.06.03 11:33:40.
