data_PCOD9066464
_publ_section_title
;
Structure prediction by ZEFSAII (Michael W. Deem and Ramdas Pophale) SiO2 
 PCOD9066464
Probable space group: P -1
;
_chemical_formula_sum "Si O2"
_cell_formula_units_Z 16
_cell_length_a 17.894551
_cell_length_b 9.097251
_cell_length_c 14.071440
_cell_angle_alpha 141.725221
_cell_angle_beta 151.983290
_cell_angle_gamma 40.897970
_cell_volume 650.794388
_symmetry_space_group_name_H-M "P -1"
_symmetry_group_IT_number 2
_symmetry_cell_setting 'triclinic'
loop_
_space_group_symop_operation_xyz
x,y,z
-x,-y,-z
loop_
_atom_site_type_symbol
_atom_site_label
_atom_site_fract_x
_atom_site_fract_y
_atom_site_fract_z
Si Si1 0.365979 0.417675 0.417189
Si Si2 0.217968 0.747517 0.591488
Si Si3 0.231923 0.556854 0.805571
Si Si4 0.819046 0.342283 0.834084
Si Si5 0.867216 0.687222 0.236651
Si Si6 0.682832 0.073184 0.679575
Si Si7 0.592919 0.625055 0.262680
Si Si8 0.149646 0.056920 0.996898
O O1 0.257983 0.583526 0.459829
O O2 0.331160 0.586670 0.370889
O O3 0.537103 0.302050 0.602672
O O4 0.286895 0.192201 0.181404
O O5 0.356532 0.638033 0.766364
O O6 0.055116 0.693839 0.429498
O O7 0.214060 0.027053 0.708993
O O8 0.176904 0.440089 0.780296
O O9 0.281882 0.368661 0.680125
O O10 0.403416 0.647826 0.044245
O O11 0.112842 0.818171 0.783015
O O12 0.814299 0.096504 0.760134
O O13 0.817794 0.543441 0.016820
O O14 0.989458 0.268724 0.933534
O O15 0.614684 0.834218 0.465214
O O16 0.777161 0.044594 0.869906
#
# Coordination Sequence:
#
# PCOD9066464 Si02
#       8
#     2   2   2   2   2   2   2   2
#     4  12  25  45  69 102 141 182 225 284 346 401
#     4  11  26  44  68  98 142 180 224 282 345 409
#     4  11  26  44  70  99 134 180 232 283 339 407
#     4  12  27  42  71 106 138 180 230 281 343 410
#     4  11  26  46  65 100 140 180 225 281 347 407
#     4  12  24  46  71 101 136 179 235 286 335 405
#     4  11  25  46  68 100 134 181 231 284 340 404
#     4  12  23  44  73  99 134 182 234 284 335 404
#
# _framework density 24.585336999999999
#
# number of rings (size 3 to 8) (size 9 to 14) (size 15 to 20)
#    0.000    0.500    5.000    2.250    5.250    2.000 
#    0.000    0.000    0.000    0.000    0.000    0.000 
#    0.000    0.000    0.000    0.000    0.000    0.000 
#
# Total GULP energy -89356.459737 kJ/mol
# GULP energy per Si atom -5584.778734 kJ/mol
# Density = 2.452938 g / cm^3
# Si number density = 24.585337 Si / 1000 Ang^3
#
#
#
# Elastic Constant Matrix: (Units=GPa)
#
#
# Indices 1 2 3 4 5 6 
#
# 1 113.8704 39.6307 4.9489 8.5832 -15.1373 0.3381
# 2 39.6307 106.3842 20.3994 11.4366 -10.4448 -13.5236
# 3 4.9489 20.3994 58.6428 6.4604 -6.2282 -9.5899
# 4 8.5832 11.4366 6.4604 38.2591 6.6515 1.1010
# 5 -15.1373 -10.4448 -6.2282 6.6515 28.7764 2.6145
# 6 0.3381 -13.5236 -9.5899 1.1010 2.6145 37.7813
#
#
#
# Elastic Compliance Matrix: (Units=1/GPa)
#
#
# Indices 1 2 3 4 5 6 
#
# 1 0.010900 -0.003649 0.000936 -0.002392 0.005298 -0.001463
# 2 -0.003649 0.012295 -0.002814 -0.002881 0.002269 0.003646
# 3 0.000936 -0.002814 0.019381 -0.003466 0.004129 0.003719
# 4 -0.002392 -0.002881 -0.003466 0.029879 -0.009771 -0.002084
# 5 0.005298 0.002269 0.004129 -0.009771 0.041584 -0.000780
# 6 -0.001463 0.003646 0.003719 -0.002084 -0.000780 0.028845
#
#
# Mechanical properties :
#
#
# Convention : Reuss Voigt Hill
#
# Bulk Modulus (GPa) = 31.72385 45.42838 38.57611
# Shear Modulus (GPa) = 30.40534 35.22459 32.81497
#
# Velocity S-wave (km/s) = 3.52053 3.78927 3.65737
# Velocity P-wave (km/s) = 5.42744 6.13700 5.79309
#
# Compressibility (1/GPa) = 0.03152203
#
# Stress axis : x y z
#
# Youngs Moduli (GPa) = 91.74334 81.33577 51.59707
#
# Poissons Ratio (x) = 0.29677 -0.04831
# Poissons Ratio (y) = 0.33475 0.14521
# Poissons Ratio (z) = -0.08590 0.22891
#
# Static dielectric constant tensor:
#      x y z
#    x 2.041380 -0.052350 -0.000570 
#    y -0.052350 1.939300 -0.016920 
#    z -0.000570 -0.016920 1.991450 
# 
# From -- ./inp_files/328804.got.cif
#   From: 2010.05.17/outbox.cif.g08.bks.cpg/sg2_165_cif.got.tgz:328804.got - 2010.06.03 11:33:40.
