data_PCOD9066811
_publ_section_title
;
Structure prediction by ZEFSAII (Michael W. Deem and Ramdas Pophale) SiO2 
 PCOD9066811
Probable space group: P -1
;
_chemical_formula_sum "Si O2"
_cell_formula_units_Z 14
_cell_length_a 18.545123
_cell_length_b 5.850600
_cell_length_c 6.694440
_cell_angle_alpha 72.561903
_cell_angle_beta 93.292232
_cell_angle_gamma 57.653935
_cell_volume 563.667096
_symmetry_space_group_name_H-M "P -1"
_symmetry_group_IT_number 2
_symmetry_cell_setting 'triclinic'
loop_
_space_group_symop_operation_xyz
x,y,z
-x,-y,-z
loop_
_atom_site_type_symbol
_atom_site_label
_atom_site_fract_x
_atom_site_fract_y
_atom_site_fract_z
Si Si1 0.733528 0.415612 0.989167
Si Si2 0.422897 0.979919 0.397320
Si Si3 0.883949 0.001882 0.817536
Si Si4 0.536453 0.202978 0.954057
Si Si5 0.000531 0.483568 0.741673
Si Si6 0.309014 0.983724 0.724501
Si Si7 0.142216 0.581135 0.658587
O O1 0.802445 0.401664 0.159309
O O2 0.690284 0.292512 0.147793
O O3 0.652788 0.710810 0.798352
O O4 0.791613 0.200918 0.868078
O O5 0.365228 0.939095 0.552794
O O6 0.500000 0.000000 0.500000
O O7 0.462823 0.739314 0.292724
O O8 0.906220 0.721741 0.763714
O O9 0.888255 0.194682 0.592467
O O10 0.954019 0.827283 0.058135
O O11 0.500000 0.500000 0.000000
O O12 0.500000 0.000000 0.000000
O O13 0.636755 0.986111 0.102650
O O14 0.064010 0.592287 0.755406
O O15 0.000000 0.500000 0.500000
O O16 0.208945 0.265540 0.646762
#
# Coordination Sequence:
#
# PCOD9066811 Si02
#       7
#     2   2   2   2   2   2   2
#     4  12  27  49  75 116 158 207 273 331 409 486
#     4  12  27  52  83 118 159 219 276 339 424 488
#     4  11  25  46  78 109 152 208 257 326 400 483
#     4  12  27  53  80 117 161 212 280 349 416 501
#     4  11  26  49  75 117 155 203 268 324 409 480
#     4  12  27  48  76 111 158 206 267 337 404 494
#     4  12  26  47  77 110 157 207 261 329 402 484
#
# _framework density 24.837358999999999
#
# number of rings (size 3 to 8) (size 9 to 14) (size 15 to 20)
#    0.000    0.286    5.714    2.143    0.000    6.286 
#    2.571    0.000    0.000    0.000    0.000    0.000 
#    0.000    0.000    0.000    0.000    0.000    0.000 
#
# Total GULP energy -78206.019742 kJ/mol
# GULP energy per Si atom -5586.144267 kJ/mol
# Density = 2.478083 g / cm^3
# Si number density = 24.837359 Si / 1000 Ang^3
#
#
#
# Elastic Constant Matrix: (Units=GPa)
#
#
# Indices 1 2 3 4 5 6 
#
# 1 119.6375 41.1629 57.4262 4.1405 -3.7793 16.0690
# 2 41.1629 134.4239 82.0131 0.3774 -3.3492 -24.8777
# 3 57.4262 82.0131 215.4511 -7.2191 -14.1369 -2.0123
# 4 4.1405 0.3774 -7.2191 68.4940 -0.9633 -5.6823
# 5 -3.7793 -3.3492 -14.1369 -0.9633 51.8584 2.1287
# 6 16.0690 -24.8777 -2.0123 -5.6823 2.1287 37.7942
#
#
#
# Elastic Compliance Matrix: (Units=1/GPa)
#
#
# Indices 1 2 3 4 5 6 
#
# 1 0.011677 -0.004002 -0.001686 -0.001514 0.000431 -0.007941
# 2 -0.004002 0.012787 -0.003745 0.000599 -0.000889 0.010059
# 3 -0.001686 -0.003745 0.006627 0.000729 0.001512 -0.001371
# 4 -0.001514 0.000599 0.000729 0.015044 0.000270 0.003323
# 5 0.000431 -0.000889 0.001512 0.000270 0.019747 -0.001759
# 6 -0.007941 0.010059 -0.001371 0.003323 -0.001759 0.036982
#
#
# Mechanical properties :
#
#
# Convention : Reuss Voigt Hill
#
# Bulk Modulus (GPa) = 81.79211 92.30187 87.04699
# Shear Modulus (GPa) = 39.74361 50.89002 45.31682
#
# Velocity S-wave (km/s) = 4.00453 4.53142 4.27610
# Velocity P-wave (km/s) = 7.37457 8.03875 7.71381
#
# Compressibility (1/GPa) = 0.01222612
#
# Stress axis : x y z
#
# Youngs Moduli (GPa) = 85.63704 78.20146 150.89334
#
# Poissons Ratio (x) = 0.31295 0.25436
# Poissons Ratio (y) = 0.34271 0.56514
# Poissons Ratio (z) = 0.14436 0.29289
#
# Static dielectric constant tensor:
#      x y z
#    x 1.965900 -0.003480 0.050750 
#    y -0.003480 2.049960 -0.021660 
#    z 0.050750 -0.021660 2.026290 
# 
# From -- ./inp_files/114515.got.cif
#   From: 2010.05.17/outbox.cif.g08.bks.cpg/sg2_58_cif.got.tgz:114515.got - 2010.06.03 11:33:40.
