data_PCOD9066849
_publ_section_title
;
Structure prediction by ZEFSAII (Michael W. Deem and Ramdas Pophale) SiO2 
 PCOD9066849
Probable space group: P -1
;
_chemical_formula_sum "Si O2"
_cell_formula_units_Z 16
_cell_length_a 22.458912
_cell_length_b 16.728527
_cell_length_c 11.979902
_cell_angle_alpha 41.111713
_cell_angle_beta 149.991957
_cell_angle_gamma 159.033693
_cell_volume 766.185132
_symmetry_space_group_name_H-M "P -1"
_symmetry_group_IT_number 2
_symmetry_cell_setting 'triclinic'
loop_
_space_group_symop_operation_xyz
x,y,z
-x,-y,-z
loop_
_atom_site_type_symbol
_atom_site_label
_atom_site_fract_x
_atom_site_fract_y
_atom_site_fract_z
Si Si1 0.087504 0.404682 0.832796
Si Si2 0.156297 0.248025 0.455694
Si Si3 0.473469 0.380550 0.680962
Si Si4 0.656251 0.130588 0.817882
Si Si5 0.230046 0.954600 0.104456
Si Si6 0.247634 0.808623 0.665120
Si Si7 0.180594 0.884293 0.692004
Si Si8 0.706940 0.437767 0.466964
O O1 0.197669 0.628609 0.812054
O O2 0.892676 0.204915 0.816998
O O3 0.976558 0.331049 0.609905
O O4 0.285591 0.478123 0.066428
O O5 0.382954 0.384230 0.630110
O O6 0.237447 0.410847 0.511162
O O7 0.000000 0.000000 0.500000
O O8 0.983990 0.166788 0.176563
O O9 0.500000 0.500000 0.500000
O O10 0.281854 0.107217 0.639620
O O11 0.666231 0.052742 0.807293
O O12 0.729970 0.326610 0.683645
O O13 0.425046 0.954994 0.696920
O O14 0.784704 0.165878 0.086614
O O15 0.453181 0.223309 0.226834
O O16 0.307695 0.939343 0.733166
O O17 0.907158 0.632860 0.495584
#
# Coordination Sequence:
#
# PCOD9066849 Si02
#       8
#     2   2   2   2   2   2   2   2
#     4  11  25  47  69 106 146 190 233 311 359 429
#     4  12  27  51  69 104 147 193 249 297 355 433
#     4  12  26  46  73  96 143 199 240 299 355 426
#     4  12  24  45  74 112 146 185 236 308 371 433
#     4  12  26  47  76 106 148 185 245 301 366 431
#     4  11  26  42  72 107 147 183 240 297 376 430
#     4  12  26  45  68 108 144 190 241 296 367 432
#     4  12  27  45  77 107 144 195 240 299 374 432
#
# _framework density 20.882683
#
# number of rings (size 3 to 8) (size 9 to 14) (size 15 to 20)
#    0.000    0.250    6.250    1.875    7.000    0.500 
#    2.250    1.250    0.000    0.000    0.000    0.000 
#    0.000    0.000    0.000    0.000    0.000    0.000 
#
# Total GULP energy -89318.681450 kJ/mol
# GULP energy per Si atom -5582.417591 kJ/mol
# Density = 2.083515 g / cm^3
# Si number density = 20.882683 Si / 1000 Ang^3
#
#
#
# Elastic Constant Matrix: (Units=GPa)
#
#
# Indices 1 2 3 4 5 6 
#
# 1 130.7734 23.8377 47.8823 27.6765 13.3197 -4.5427
# 2 23.8377 44.3278 13.2013 63.3286 21.4540 -1.7735
# 3 47.8823 13.2013 88.5292 28.3768 17.2576 -9.6804
# 4 27.6765 63.3286 28.3768 -6.8129 -11.0999 6.1055
# 5 13.3197 21.4540 17.2576 -11.0999 23.9460 9.6690
# 6 -4.5427 -1.7735 -9.6804 6.1055 9.6690 38.8386
#
#
#
# Elastic Compliance Matrix: (Units=1/GPa)
#
#
# Indices 1 2 3 4 5 6 
#
# 1 0.010055 -0.002497 -0.004669 -0.000900 -0.000472 0.000157
# 2 -0.002497 0.006079 -0.004909 0.011162 0.006518 -0.004615
# 3 -0.004669 -0.004909 0.014429 0.003324 -0.003106 0.003077
# 4 -0.000900 0.011162 0.003324 -0.002791 -0.015413 0.005509
# 5 -0.000472 0.006518 -0.003106 -0.015413 0.033924 -0.006554
# 6 0.000157 -0.004615 0.003077 0.005509 -0.006554 0.027088
#
#
# Mechanical properties :
#
#
# Convention : Reuss Voigt Hill
#
# Bulk Modulus (GPa) = 155.89629 48.16364 102.02997
# Shear Modulus (GPa) = 43.45119 23.10829 33.27974
#
# Velocity S-wave (km/s) = 4.56645 3.33013 3.99639
# Velocity P-wave (km/s) = 10.13009 6.15633 8.38210
#
# Compressibility (1/GPa) = 0.00641452
#
# Stress axis : x y z
#
# Youngs Moduli (GPa) = 99.44981 164.50192 69.30319
#
# Poissons Ratio (x) = 0.41078 0.32355
# Poissons Ratio (y) = 0.24834 0.34019
# Poissons Ratio (z) = 0.46430 0.80750
#
# Static dielectric constant tensor:
#      x y z
#    x 1.717590 -0.024020 -0.037270 
#    y -0.024020 1.713400 -0.002370 
#    z -0.037270 -0.002370 1.819460 
# 
# From -- ./inp_files/475360.got.cif
#   From: 2010.05.17/outbox.cif.g08.bks.cpg/sg2_238_cif.got.tgz:475360.got - 2010.06.03 11:33:40.
