data_PCOD9066401
_publ_section_title
;
Structure prediction by ZEFSAII (Michael W. Deem and Ramdas Pophale) SiO2 
 PCOD9066401
Probable space group: P -1
;
_chemical_formula_sum "Si O2"
_cell_formula_units_Z 15
_cell_length_a 12.115344
_cell_length_b 9.578129
_cell_length_c 7.961840
_cell_angle_alpha 123.021788
_cell_angle_beta 60.335240
_cell_angle_gamma 132.960504
_cell_volume 555.309497
_symmetry_space_group_name_H-M "P -1"
_symmetry_group_IT_number 2
_symmetry_cell_setting 'triclinic'
loop_
_space_group_symop_operation_xyz
x,y,z
-x,-y,-z
loop_
_atom_site_type_symbol
_atom_site_label
_atom_site_fract_x
_atom_site_fract_y
_atom_site_fract_z
Si Si1 0.021305 0.211600 0.583637
Si Si2 0.838342 0.949513 0.036895
Si Si3 0.136535 0.718415 0.973857
Si Si4 0.661623 0.651517 0.656698
Si Si5 0.579218 0.811798 0.379111
Si Si6 0.000000 0.500000 0.500000
Si Si7 0.338803 0.778940 0.291780
Si Si8 0.576871 0.234862 0.130850
O O1 0.208564 0.335758 0.550619
O O2 0.880841 0.170946 0.783366
O O3 0.007568 0.330020 0.512943
O O4 0.000000 0.000000 0.500000
O O5 0.734315 0.853681 0.215587
O O6 0.752711 0.791690 0.844089
O O7 0.876250 0.170568 0.103725
O O8 0.000000 0.000000 0.000000
O O9 0.285648 0.720708 0.823252
O O10 0.000000 0.500000 0.000000
O O11 0.539754 0.417243 0.632471
O O12 0.550294 0.718364 0.722818
O O13 0.493817 0.830689 0.296950
O O14 0.627914 0.997952 0.586483
O O15 0.816333 0.375411 0.592899
O O16 0.330622 0.673029 0.054087
O O17 0.500000 0.000000 0.000000
#
# Coordination Sequence:
#
# PCOD9066401 Si02
#       8
#     2   2   2   2   2   1   2   2
#     4  12  26  51  79 118 154 207 271 325 402 484
#     4  12  28  46  77 112 154 202 266 330 399 475
#     4  12  29  49  77 113 159 205 265 332 404 479
#     4  12  26  49  79 113 157 210 260 338 400 481
#     4  11  26  45  73 113 154 196 273 325 388 484
#     4  12  26  46  86 110 158 212 258 332 410 464
#     4  11  25  45  76 113 149 207 267 318 399 479
#     4  12  24  50  77 105 159 208 252 330 401 472
#
# _framework density 27.011960999999999
#
# number of rings (size 3 to 8) (size 9 to 14) (size 15 to 20)
#    0.000    0.267    6.667    0.400    5.600    1.067 
#    0.000    1.333    0.000    0.000    0.000    0.000 
#    0.000    0.000    0.000    0.000    0.000    0.000 
#
# Total GULP energy -83503.952368 kJ/mol
# GULP energy per Si atom -5566.930158 kJ/mol
# Density = 2.695048 g / cm^3
# Si number density = 27.011961 Si / 1000 Ang^3
#
#
#
# Elastic Constant Matrix: (Units=GPa)
#
#
# Indices 1 2 3 4 5 6 
#
# 1 182.0334 43.7485 51.2986 -2.9109 -39.2322 1.9911
# 2 43.7485 194.5130 10.6863 -11.0802 -21.7232 -7.8885
# 3 51.2986 10.6863 76.1445 -3.0177 -17.0814 -6.5395
# 4 -2.9109 -11.0802 -3.0177 41.2502 -0.5193 -16.7548
# 5 -39.2322 -21.7232 -17.0814 -0.5193 42.9317 -17.3521
# 6 1.9911 -7.8885 -6.5395 -16.7548 -17.3521 51.0364
#
#
#
# Elastic Compliance Matrix: (Units=1/GPa)
#
#
# Indices 1 2 3 4 5 6 
#
# 1 0.008055 -0.000847 -0.003838 0.000663 0.005939 0.001300
# 2 -0.000847 0.006068 0.001099 0.003159 0.004220 0.003584
# 3 -0.003838 0.001099 0.017730 0.003891 0.006624 0.006121
# 4 0.000663 0.003159 0.003891 0.031539 0.010094 0.014747
# 5 0.005939 0.004220 0.006624 0.010094 0.041115 0.018562
# 6 0.001300 0.003584 0.006121 0.014747 0.018562 0.032034
#
#
# Mechanical properties :
#
#
# Convention : Reuss Voigt Hill
#
# Bulk Modulus (GPa) = 40.51735 73.79529 57.15632
# Shear Modulus (GPa) = 32.90784 50.17418 41.54101
#
# Velocity S-wave (km/s) = 3.49416 4.31452 3.92583
# Velocity P-wave (km/s) = 5.59564 7.22488 6.46182
#
# Compressibility (1/GPa) = 0.02468079
#
# Stress axis : x y z
#
# Youngs Moduli (GPa) = 124.14934 164.80493 56.40151
#
# Poissons Ratio (x) = 0.13961 0.21644
# Poissons Ratio (y) = 0.10517 -0.06197
# Poissons Ratio (z) = 0.47643 -0.18108
#
# Static dielectric constant tensor:
#      x y z
#    x 2.200260 0.005160 0.147930 
#    y 0.005160 2.666970 0.253870 
#    z 0.147930 0.253870 2.465020 
# 
# From -- ./inp_files/245389.got.cif
#   From: 2010.05.17/outbox.cif.g08.bks.cpg/sg2_123_cif.got.tgz:245389.got - 2010.06.03 11:33:40.
