data_PCOD9066018
_publ_section_title
;
Structure prediction by ZEFSAII (Michael W. Deem and Ramdas Pophale) SiO2 
 PCOD9066018
Probable space group: P -1
;
_chemical_formula_sum "Si O2"
_cell_formula_units_Z 16
_cell_length_a 8.308326
_cell_length_b 21.533511
_cell_length_c 8.870924
_cell_angle_alpha 129.434060
_cell_angle_beta 146.510123
_cell_angle_gamma 51.121332
_cell_volume 658.275066
_symmetry_space_group_name_H-M "P -1"
_symmetry_group_IT_number 2
_symmetry_cell_setting 'triclinic'
loop_
_space_group_symop_operation_xyz
x,y,z
-x,-y,-z
loop_
_atom_site_type_symbol
_atom_site_label
_atom_site_fract_x
_atom_site_fract_y
_atom_site_fract_z
Si Si1 0.736001 0.555675 0.787243
Si Si2 0.280752 0.694671 0.148904
Si Si3 0.451001 0.929649 0.631818
Si Si4 0.238622 0.823837 0.557111
Si Si5 0.300682 0.218464 0.595699
Si Si6 0.155252 0.411129 0.418519
Si Si7 0.604233 0.265740 0.170669
Si Si8 0.068250 0.979623 0.845991
O O1 0.500000 0.500000 0.500000
O O2 0.838721 0.576925 0.736559
O O3 0.586831 0.643538 0.878894
O O4 0.000000 0.500000 0.000000
O O5 0.125641 0.765627 0.256768
O O6 0.493463 0.733305 0.265568
O O7 0.513081 0.622649 0.308452
O O8 0.042503 0.656432 0.814236
O O9 0.387299 0.881435 0.655334
O O10 0.684190 0.864582 0.613390
O O11 0.156524 0.958021 0.343308
O O12 0.599715 0.005722 0.896686
O O13 0.434416 0.758171 0.723233
O O14 0.050014 0.889490 0.630341
O O15 0.954812 0.262578 0.416186
O O16 0.475811 0.204279 0.868986
O O17 0.000000 0.500000 0.500000
O O18 0.000000 0.000000 0.000000
#
# Coordination Sequence:
#
# PCOD9066018 Si02
#       8
#     2   2   2   2   2   2   2   2
#     4  12  28  48  72 106 143 184 240 299 369 434
#     4  11  26  47  70 104 137 191 235 296 351 436
#     4  11  25  46  69 109 144 193 244 289 358 422
#     4  11  26  46  74 103 149 190 243 302 351 431
#     4  11  25  44  72 101 144 188 243 293 357 422
#     4  12  27  48  73 101 141 181 241 286 370 428
#     4  12  26  46  72 105 143 190 241 298 367 426
#     4  12  25  45  73 108 147 191 240 296 361 421
#
# _framework density 24.305951
#
# number of rings (size 3 to 8) (size 9 to 14) (size 15 to 20)
#    0.000    0.500    1.250    6.000    7.000    6.000 
#    0.000    0.000    0.000    0.000    0.000    0.000 
#    0.000    0.000    0.000    0.000    0.000    0.000 
#
# Total GULP energy -89604.226860 kJ/mol
# GULP energy per Si atom -5600.264179 kJ/mol
# Density = 2.425063 g / cm^3
# Si number density = 24.305951 Si / 1000 Ang^3
#
#
#
# Elastic Constant Matrix: (Units=GPa)
#
#
# Indices 1 2 3 4 5 6 
#
# 1 96.1557 26.8277 45.1901 6.6426 -11.5428 -0.9702
# 2 26.8277 93.2192 22.1217 11.6753 -5.7688 -4.6448
# 3 45.1901 22.1217 126.2824 2.6099 9.0846 -0.9842
# 4 6.6426 11.6753 2.6099 52.6271 -1.3948 -10.3858
# 5 -11.5428 -5.7688 9.0846 -1.3948 36.6361 5.3994
# 6 -0.9702 -4.6448 -0.9842 -10.3858 5.3994 43.5524
#
#
#
# Elastic Compliance Matrix: (Units=1/GPa)
#
#
# Indices 1 2 3 4 5 6 
#
# 1 0.014155 -0.002468 -0.005009 -0.001041 0.005418 -0.000981
# 2 -0.002468 0.012121 -0.001284 -0.002175 0.001288 0.000530
# 3 -0.005009 -0.001284 0.010249 0.000416 -0.004398 0.000628
# 4 -0.001041 -0.002175 0.000416 0.020510 -0.000690 0.004731
# 5 0.005418 0.001288 -0.004398 -0.000690 0.030834 -0.003828
# 6 -0.000981 0.000530 0.000628 0.004731 -0.003828 0.024613
#
#
# Mechanical properties :
#
#
# Convention : Reuss Voigt Hill
#
# Bulk Modulus (GPa) = 52.62311 55.99293 54.30802
# Shear Modulus (GPa) = 36.67385 41.33096 39.00241
#
# Velocity S-wave (km/s) = 3.88860 4.12812 4.01015
# Velocity P-wave (km/s) = 6.46984 6.76820 6.62070
#
# Compressibility (1/GPa) = 0.01900306
#
# Stress axis : x y z
#
# Youngs Moduli (GPa) = 70.64730 82.50200 97.57310
#
# Poissons Ratio (x) = 0.20364 0.48873
# Poissons Ratio (y) = 0.17438 0.12525
# Poissons Ratio (z) = 0.35386 0.10590
#
# Static dielectric constant tensor:
#      x y z
#    x 1.934470 -0.074860 -0.117050 
#    y -0.074860 1.926020 -0.004720 
#    z -0.117050 -0.004720 1.881680 
# 
# From -- ./inp_files/226576.got.cif
#   From: 2010.05.17/outbox.cif.g08.bks.cpg/sg2_114_cif.got.tgz:226576.got - 2010.06.03 11:33:40.
