data_PCOD9066348
_publ_section_title
;
Structure prediction by ZEFSAII (Michael W. Deem and Ramdas Pophale) SiO2 
 PCOD9066348
Probable space group: P -1
;
_chemical_formula_sum "Si O2"
_cell_formula_units_Z 13
_cell_length_a 6.513196
_cell_length_b 15.356278
_cell_length_c 9.440130
_cell_angle_alpha 129.749505
_cell_angle_beta 79.980760
_cell_angle_gamma 128.028757
_cell_volume 532.777088
_symmetry_space_group_name_H-M "P -1"
_symmetry_group_IT_number 2
_symmetry_cell_setting 'triclinic'
loop_
_space_group_symop_operation_xyz
x,y,z
-x,-y,-z
loop_
_atom_site_type_symbol
_atom_site_label
_atom_site_fract_x
_atom_site_fract_y
_atom_site_fract_z
Si Si1 0.271964 0.900474 0.603293
Si Si2 0.703566 0.887920 0.993993
Si Si3 0.907786 0.092110 0.653065
Si Si4 0.768558 0.263669 0.309055
Si Si5 0.000000 0.500000 0.000000
Si Si6 0.419359 0.351128 0.051202
Si Si7 0.235820 0.518935 0.301659
O O1 0.114006 0.832956 0.403492
O O2 0.138837 0.789711 0.637141
O O3 0.590018 0.973079 0.623717
O O4 0.284907 0.036978 0.784230
O O5 0.479001 0.865566 0.896898
O O6 0.603215 0.726604 0.880754
O O7 0.000000 0.000000 0.000000
O O8 0.124109 0.222717 0.873575
O O9 0.000000 0.000000 0.500000
O O10 0.649194 0.328075 0.476914
O O11 0.017910 0.388627 0.305973
O O12 0.669259 0.394789 0.972625
O O13 0.923517 0.501572 0.842491
O O14 0.450499 0.496348 0.220030
#
# Coordination Sequence:
#
# PCOD9066348 Si02
#       7
#     2   2   2   2   1   2   2
#     4  11  25  45  75 110 147 188 235 308 370 430
#     4  12  24  45  75 108 146 188 232 305 375 431
#     4  11  25  45  74 113 143 189 242 301 368 432
#     4  11  25  48  73 107 147 185 247 295 369 436
#     4  12  28  50  70 104 148 206 242 298 350 432
#     4  12  26  48  75 106 150 190 250 294 364 434
#     4  11  27  49  72 104 143 198 243 303 349 433
#
# _framework density 24.400445999999999
#
# number of rings (size 3 to 8) (size 9 to 14) (size 15 to 20)
#    0.000    0.615    3.077    3.692    4.308    0.615 
#    2.769    0.000    0.000    0.000    0.000    0.000 
#    0.000    0.000    0.000    0.000    0.000    0.000 
#
# Total GULP energy -72615.458149 kJ/mol
# GULP energy per Si atom -5585.804473 kJ/mol
# Density = 2.434491 g / cm^3
# Si number density = 24.400446 Si / 1000 Ang^3
#
#
#
# Elastic Constant Matrix: (Units=GPa)
#
#
# Indices 1 2 3 4 5 6 
#
# 1 67.7657 28.7324 20.3647 -8.4217 7.8628 2.0166
# 2 28.7324 104.3583 17.1357 -31.6145 19.2576 -4.9862
# 3 20.3647 17.1357 55.6397 -17.3887 6.2035 -16.2479
# 4 -8.4217 -31.6145 -17.3887 32.6503 -12.7952 9.7731
# 5 7.8628 19.2576 6.2035 -12.7952 39.7064 -13.1757
# 6 2.0166 -4.9862 -16.2479 9.7731 -13.1757 42.6483
#
#
#
# Elastic Compliance Matrix: (Units=1/GPa)
#
#
# Indices 1 2 3 4 5 6 
#
# 1 0.019086 -0.004755 -0.007599 -0.003536 -0.002898 -0.004439
# 2 -0.004755 0.015233 0.001133 0.013491 -0.002778 -0.001512
# 3 -0.007599 0.001133 0.026327 0.011916 0.003640 0.008916
# 4 -0.003536 0.013491 0.011916 0.053421 0.008394 -0.003364
# 5 -0.002898 -0.002778 0.003640 0.008394 0.032314 0.009259
# 6 -0.004439 -0.001512 0.008916 -0.003364 0.009259 0.030509
#
#
# Mechanical properties :
#
#
# Convention : Reuss Voigt Hill
#
# Bulk Modulus (GPa) = 26.17580 40.02547 33.10064
# Shear Modulus (GPa) = 23.57769 33.76974 28.67372
#
# Velocity S-wave (km/s) = 3.11188 3.72422 3.43174
# Velocity P-wave (km/s) = 4.86442 5.91036 5.41271
#
# Compressibility (1/GPa) = 0.03820323
#
# Stress axis : x y z
#
# Youngs Moduli (GPa) = 52.39575 65.64827 37.98416
#
# Poissons Ratio (x) = 0.31218 0.28864
# Poissons Ratio (y) = 0.24916 -0.04305
# Poissons Ratio (z) = 0.39815 -0.07441
#
# Static dielectric constant tensor:
#      x y z
#    x 1.873700 0.054400 -0.096540 
#    y 0.054400 1.731650 0.095580 
#    z -0.096540 0.095580 1.887420 
# 
# From -- ./inp_files/20359.got.cif
#   From: 2010.05.17/outbox.cif.g08.bks.cpg/sg2_11_cif.got.tgz:20359.got - 2010.06.03 11:33:40.
