data_PCOD9066572
_publ_section_title
;
Structure prediction by ZEFSAII (Michael W. Deem and Ramdas Pophale) SiO2 
 PCOD9066572
Probable space group: P -1
;
_chemical_formula_sum "Si O2"
_cell_formula_units_Z 12
_cell_length_a 5.120891
_cell_length_b 9.380614
_cell_length_c 12.318273
_cell_angle_alpha 85.583203
_cell_angle_beta 59.690035
_cell_angle_gamma 104.010376
_cell_volume 481.432964
_symmetry_space_group_name_H-M "P -1"
_symmetry_group_IT_number 2
_symmetry_cell_setting 'triclinic'
loop_
_space_group_symop_operation_xyz
x,y,z
-x,-y,-z
loop_
_atom_site_type_symbol
_atom_site_label
_atom_site_fract_x
_atom_site_fract_y
_atom_site_fract_z
Si Si1 0.998789 0.622591 0.082885
Si Si2 0.663439 0.837271 0.029271
Si Si3 0.208824 0.577890 0.659119
Si Si4 0.842471 0.133077 0.421421
Si Si5 0.199888 0.975637 0.219842
Si Si6 0.929184 0.693543 0.419127
O O1 0.850345 0.744042 0.058733
O O2 0.801283 0.516880 0.225992
O O3 0.351821 0.715041 0.047277
O O4 0.000000 0.500000 0.000000
O O5 0.529944 0.941685 0.130745
O O6 0.844381 0.941476 0.885405
O O7 0.119757 0.729214 0.678111
O O8 0.565190 0.637482 0.535543
O O9 0.988345 0.452750 0.629493
O O10 0.126764 0.068703 0.331359
O O11 0.876625 0.212276 0.526832
O O12 0.500000 0.000000 0.500000
O O13 0.963937 0.807924 0.304787
#
# Coordination Sequence:
#
# PCOD9066572 Si02
#       6
#     2   2   2   2   2   2
#     4  12  27  50  79 113 154 206 264 320 391 470
#     4  11  28  49  77 114 152 210 256 328 388 466
#     4  11  26  47  74 112 154 207 253 327 393 469
#     4  12  26  45  79 116 155 203 263 325 395 465
#     4  11  25  49  74 113 153 202 263 322 389 465
#     4  11  25  46  71 113 154 205 254 325 394 463
#
# _framework density 24.925585999999999
#
# number of rings (size 3 to 8) (size 9 to 14) (size 15 to 20)
#    0.000    0.667    3.333    2.500    4.667    8.000 
#    0.000    0.000    0.000    0.000    0.000    0.000 
#    0.000    0.000    0.000    0.000    0.000    0.000 
#
# Total GULP energy -67179.235928 kJ/mol
# GULP energy per Si atom -5598.269661 kJ/mol
# Density = 2.486885 g / cm^3
# Si number density = 24.925586 Si / 1000 Ang^3
#
#
#
# Elastic Constant Matrix: (Units=GPa)
#
#
# Indices 1 2 3 4 5 6 
#
# 1 101.4136 61.8625 33.1302 -11.6834 15.1925 3.1758
# 2 61.8625 182.0918 60.2398 -9.3078 5.8654 -7.6681
# 3 33.1302 60.2398 160.2561 -35.1252 14.5907 1.2488
# 4 -11.6834 -9.3078 -35.1252 68.7352 -16.6040 4.4489
# 5 15.1925 5.8654 14.5907 -16.6040 15.7268 -11.4014
# 6 3.1758 -7.6681 1.2488 4.4489 -11.4014 48.4568
#
#
#
# Elastic Compliance Matrix: (Units=1/GPa)
#
#
# Indices 1 2 3 4 5 6 
#
# 1 0.016125 -0.005220 0.000036 -0.002661 -0.021294 -0.006650
# 2 -0.005220 0.008032 -0.002532 0.000455 0.007310 0.003357
# 3 0.000036 -0.002532 0.008296 0.002718 -0.005480 -0.002156
# 4 -0.002661 0.000455 0.002718 0.021457 0.025599 0.004230
# 5 -0.021294 0.007310 -0.005480 0.025599 0.137192 0.032623
# 6 -0.006650 0.003357 -0.002156 0.004230 0.032623 0.028947
#
#
# Mechanical properties :
#
#
# Convention : Reuss Voigt Hill
#
# Bulk Modulus (GPa) = 58.75333 83.80295 71.27814
# Shear Modulus (GPa) = 20.73361 45.81903 33.27632
#
# Velocity S-wave (km/s) = 2.88726 4.29211 3.65777
# Velocity P-wave (km/s) = 5.89387 7.63264 6.81890
#
# Compressibility (1/GPa) = 0.01702031
#
# Stress axis : x y z
#
# Youngs Moduli (GPa) = 62.01629 124.50236 120.54166
#
# Poissons Ratio (x) = 0.64992 -0.00434
# Poissons Ratio (y) = 0.32374 0.30521
# Poissons Ratio (z) = -0.00223 0.31524
#
# Static dielectric constant tensor:
#      x y z
#    x 2.165250 0.027950 0.158050 
#    y 0.027950 2.013650 0.058030 
#    z 0.158050 0.058030 2.079830 
# 
# From -- ./inp_files/229497.got.cif
#   From: 2010.05.17/outbox.cif.g08.bks.cpg/sg2_115_cif.got.tgz:229497.got - 2010.06.03 11:33:40.
