data_PCOD9066516
_publ_section_title
;
Structure prediction by ZEFSAII (Michael W. Deem and Ramdas Pophale) SiO2 
 PCOD9066516
Probable space group: P -1
;
_chemical_formula_sum "Si O2"
_cell_formula_units_Z 14
_cell_length_a 13.738800
_cell_length_b 21.882437
_cell_length_c 14.340518
_cell_angle_alpha 19.864815
_cell_angle_beta 148.244070
_cell_angle_gamma 158.139073
_cell_volume 536.749391
_symmetry_space_group_name_H-M "P -1"
_symmetry_group_IT_number 2
_symmetry_cell_setting 'triclinic'
loop_
_space_group_symop_operation_xyz
x,y,z
-x,-y,-z
loop_
_atom_site_type_symbol
_atom_site_label
_atom_site_fract_x
_atom_site_fract_y
_atom_site_fract_z
Si Si1 0.616228 0.009678 0.730346
Si Si2 0.052816 0.771237 0.948584
Si Si3 0.709381 0.665883 0.658125
Si Si4 0.224067 0.529975 0.487289
Si Si5 0.237097 0.007722 0.327958
Si Si6 0.261795 0.397548 0.887176
Si Si7 0.280950 0.488171 0.305503
O O1 0.455102 0.073179 0.479157
O O2 0.916326 0.266839 0.629957
O O3 0.650735 0.924885 0.782230
O O4 0.442705 0.781284 0.992144
O O5 0.810983 0.620400 0.894051
O O6 0.958639 0.694277 0.088934
O O7 0.190172 0.060127 0.638890
O O8 0.227336 0.713264 0.165744
O O9 0.398200 0.492053 0.638751
O O10 0.824779 0.655953 0.674231
O O11 0.338612 0.606199 0.577142
O O12 0.175549 0.162563 0.094150
O O13 0.973860 0.699407 0.565870
O O14 0.500000 0.500000 0.000000
O O15 0.500000 0.500000 0.500000
#
# Coordination Sequence:
#
# PCOD9066516 Si02
#       7
#     2   2   2   2   2   2   2
#     4  11  27  45  74 111 139 193 246 299 370 427
#     4  11  25  46  70 108 140 194 239 294 367 430
#     4  11  25  47  72 102 149 189 237 303 363 429
#     4  12  25  45  74 106 143 190 245 298 360 442
#     4  11  25  48  74 103 150 190 242 306 361 434
#     4  12  23  44  71 103 144 191 237 298 365 427
#     4  12  25  47  72 107 146 194 246 295 367 436
#
# _framework density 26.082934999999999
#
# number of rings (size 3 to 8) (size 9 to 14) (size 15 to 20)
#    0.000    0.571    2.857    4.714    4.000    1.714 
#    2.571    0.000    0.000    0.000    0.000    0.000 
#    0.000    0.000    0.000    0.000    0.000    0.000 
#
# Total GULP energy -78400.221336 kJ/mol
# GULP energy per Si atom -5600.015810 kJ/mol
# Density = 2.602357 g / cm^3
# Si number density = 26.082935 Si / 1000 Ang^3
#
#
#
# Elastic Constant Matrix: (Units=GPa)
#
#
# Indices 1 2 3 4 5 6 
#
# 1 69.6671 -9.8082 3.8478 2.7092 -4.5882 -1.5085
# 2 -9.8082 92.7119 24.9672 7.2185 5.5173 4.3346
# 3 3.8478 24.9672 140.3794 12.5444 5.6572 -5.3318
# 4 2.7092 7.2185 12.5444 55.0464 5.4493 -6.2705
# 5 -4.5882 5.5173 5.6572 5.4493 37.9050 0.7516
# 6 -1.5085 4.3346 -5.3318 -6.2705 0.7516 37.6048
#
#
#
# Elastic Compliance Matrix: (Units=1/GPa)
#
#
# Indices 1 2 3 4 5 6 
#
# 1 0.014790 0.001715 -0.000693 -0.000960 0.001780 0.000102
# 2 0.001715 0.011760 -0.002053 -0.001263 -0.000981 -0.001769
# 3 -0.000693 -0.002053 0.007692 -0.001247 -0.000776 0.001107
# 4 -0.000960 -0.001263 -0.001247 0.019283 -0.002582 0.003197
# 5 0.001780 -0.000981 -0.000776 -0.002582 0.027245 -0.000901
# 6 0.000102 -0.001769 0.001107 0.003197 -0.000901 0.027508
#
#
# Mechanical properties :
#
#
# Convention : Reuss Voigt Hill
#
# Bulk Modulus (GPa) = 31.07375 37.86355 34.46865
# Shear Modulus (GPa) = 41.29912 45.02802 43.16357
#
# Velocity S-wave (km/s) = 3.98348 4.15943 4.07241
# Velocity P-wave (km/s) = 5.75298 6.13318 5.94612
#
# Compressibility (1/GPa) = 0.03218150
#
# Stress axis : x y z
#
# Youngs Moduli (GPa) = 67.61112 85.03440 129.99731
#
# Poissons Ratio (x) = -0.14586 0.09003
# Poissons Ratio (y) = -0.11597 0.26693
# Poissons Ratio (z) = 0.04683 0.17461
#
# Static dielectric constant tensor:
#      x y z
#    x 2.064830 -0.018920 -0.027470 
#    y -0.018920 2.083980 -0.080520 
#    z -0.027470 -0.080520 2.069840 
# 
# From -- ./inp_files/418714.got.cif
#   From: 2010.05.17/outbox.cif.g08.bks.cpg/sg2_210_cif.got.tgz:418714.got - 2010.06.03 11:33:40.
