data_PCOD9066829
_publ_section_title
;
Structure prediction by ZEFSAII (Michael W. Deem and Ramdas Pophale) SiO2 
 PCOD9066829
Probable space group: P -1
;
_chemical_formula_sum "Si O2"
_cell_formula_units_Z 14
_cell_length_a 11.546926
_cell_length_b 8.593397
_cell_length_c 8.147542
_cell_angle_alpha 119.224689
_cell_angle_beta 46.186125
_cell_angle_gamma 108.493551
_cell_volume 508.842491
_symmetry_space_group_name_H-M "P -1"
_symmetry_group_IT_number 2
_symmetry_cell_setting 'triclinic'
loop_
_space_group_symop_operation_xyz
x,y,z
-x,-y,-z
loop_
_atom_site_type_symbol
_atom_site_label
_atom_site_fract_x
_atom_site_fract_y
_atom_site_fract_z
Si Si1 0.887578 0.538131 0.455246
Si Si2 0.656703 0.500940 0.964638
Si Si3 0.873167 0.770318 0.057763
Si Si4 0.928087 0.214405 0.805896
Si Si5 0.655658 0.097899 0.831683
Si Si6 0.333672 0.565934 0.620487
Si Si7 0.333383 0.914371 0.578503
O O1 0.802055 0.516758 0.699855
O O2 0.743972 0.583108 0.491250
O O3 0.981756 0.350357 0.223832
O O4 0.005831 0.694229 0.376247
O O5 0.713993 0.652400 0.116364
O O6 0.635122 0.312053 0.975252
O O7 0.500000 0.500000 0.000000
O O8 0.935023 0.809757 0.202386
O O9 0.185361 0.037458 0.856305
O O10 0.811424 0.362329 0.085825
O O11 0.812148 0.060641 0.775049
O O12 0.678633 0.080133 0.604256
O O13 0.500000 0.000000 0.000000
O O14 0.500000 0.500000 0.500000
O O15 0.349250 0.725869 0.555877
O O16 0.500000 0.000000 0.500000
#
# Coordination Sequence:
#
# PCOD9066829 Si02
#       7
#     2   2   2   2   2   2   2
#     4  11  25  46  80 124 158 223 282 348 419 487
#     4  12  27  49  86 121 164 229 289 341 414 519
#     4  11  26  50  82 121 168 219 289 346 424 496
#     4  11  27  47  83 118 167 225 283 352 421 500
#     4  12  28  53  78 121 171 217 288 344 427 504
#     4  11  26  48  82 121 165 222 285 343 422 512
#     4  12  28  50  79 121 169 223 276 356 427 494
#
# _framework density 27.513425999999999
#
# number of rings (size 3 to 8) (size 9 to 14) (size 15 to 20)
#    0.000    0.571    2.857    3.857    6.000    4.000 
#    0.000    0.714    0.000    0.000    0.000    0.000 
#    0.000    0.000    0.000    0.000    0.000    0.000 
#
# Total GULP energy -78268.398103 kJ/mol
# GULP energy per Si atom -5590.599864 kJ/mol
# Density = 2.745080 g / cm^3
# Si number density = 27.513426 Si / 1000 Ang^3
#
#
#
# Elastic Constant Matrix: (Units=GPa)
#
#
# Indices 1 2 3 4 5 6 
#
# 1 272.5043 74.5623 37.3074 1.5821 -10.7839 7.7956
# 2 74.5623 107.8054 60.5600 -25.0494 -13.4222 8.4675
# 3 37.3074 60.5600 116.1021 -24.9790 -20.5107 -11.2118
# 4 1.5821 -25.0494 -24.9790 50.3276 2.7290 -11.3556
# 5 -10.7839 -13.4222 -20.5107 2.7290 42.0301 1.5535
# 6 7.7956 8.4675 -11.2118 -11.3556 1.5535 53.6987
#
#
#
# Elastic Compliance Matrix: (Units=1/GPa)
#
#
# Indices 1 2 3 4 5 6 
#
# 1 0.004715 -0.003631 -0.000115 -0.002155 0.000156 -0.000596
# 2 -0.003631 0.016993 -0.006801 0.004548 0.000979 -0.002639
# 3 -0.000115 -0.006801 0.014455 0.004678 0.004365 0.004970
# 4 -0.002155 0.004548 0.004678 0.025805 0.001285 0.005992
# 5 0.000156 0.000979 0.004365 0.001285 0.026183 0.000249
# 6 -0.000596 -0.002639 0.004970 0.005992 0.000249 0.021423
#
#
# Mechanical properties :
#
#
# Convention : Reuss Voigt Hill
#
# Bulk Modulus (GPa) = 66.35529 93.47457 79.91493
# Shear Modulus (GPa) = 36.84881 50.81011 43.82946
#
# Velocity S-wave (km/s) = 3.66362 4.30203 3.99560
# Velocity P-wave (km/s) = 6.48582 7.66319 7.09896
#
# Compressibility (1/GPa) = 0.01507039
#
# Stress axis : x y z
#
# Youngs Moduli (GPa) = 212.10722 58.84622 69.18146
#
# Poissons Ratio (x) = 0.21366 0.00794
# Poissons Ratio (y) = 0.77013 0.47047
# Poissons Ratio (z) = 0.02434 0.40019
#
# Static dielectric constant tensor:
#      x y z
#    x 1.973960 0.150970 -0.390170 
#    y 0.150970 2.119000 0.231630 
#    z -0.390170 0.231630 1.620910 
# 
# From -- ./inp_files/239490.got.cif
#   From: 2010.05.17/outbox.cif.g08.bks.cpg/sg2_120_cif.got.tgz:239490.got - 2010.06.03 11:33:40.
