data_PCOD9066912
_publ_section_title
;
Structure prediction by ZEFSAII (Michael W. Deem and Ramdas Pophale) SiO2 
 PCOD9066912
Probable space group: P -1
;
_chemical_formula_sum "Si O2"
_cell_formula_units_Z 16
_cell_length_a 16.250519
_cell_length_b 5.097798
_cell_length_c 9.358416
_cell_angle_alpha 102.984305
_cell_angle_beta 109.805357
_cell_angle_gamma 95.088320
_cell_volume 699.180551
_symmetry_space_group_name_H-M "P -1"
_symmetry_group_IT_number 2
_symmetry_cell_setting 'triclinic'
loop_
_space_group_symop_operation_xyz
x,y,z
-x,-y,-z
loop_
_atom_site_type_symbol
_atom_site_label
_atom_site_fract_x
_atom_site_fract_y
_atom_site_fract_z
Si Si1 0.678418 0.443745 0.309155
Si Si2 0.480616 0.206894 0.139106
Si Si3 0.913316 0.351326 0.848569
Si Si4 0.051903 0.757840 0.472937
Si Si5 0.728377 0.531582 0.673815
Si Si6 0.232888 0.043419 0.758745
Si Si7 0.378300 0.697088 0.171941
Si Si8 0.220194 0.956830 0.062160
O O1 0.572466 0.412685 0.249404
O O2 0.718764 0.509912 0.497771
O O3 0.729882 0.676602 0.265075
O O4 0.693203 0.146518 0.231666
O O5 0.443742 0.978698 0.208188
O O6 0.587145 0.576758 0.896324
O O7 0.500000 0.000000 0.000000
O O8 0.943215 0.279523 0.699288
O O9 0.825485 0.481170 0.775379
O O10 0.870178 0.130949 0.914590
O O11 0.000000 0.500000 0.000000
O O12 0.000000 0.500000 0.500000
O O13 0.149732 0.864151 0.605887
O O14 0.000000 0.000000 0.500000
O O15 0.647253 0.336488 0.680442
O O16 0.723760 0.824385 0.772671
O O17 0.206817 0.070189 0.911572
O O18 0.282089 0.727176 0.052648
#
# Coordination Sequence:
#
# PCOD9066912 Si02
#       8
#     2   2   2   2   2   2   2   2
#     4  12  28  47  75 108 150 201 242 308 375 435
#     4  12  26  45  74 110 152 192 251 309 375 437
#     4  11  26  47  75 112 151 193 248 303 369 446
#     4  12  27  48  75 110 149 191 246 305 364 436
#     4  11  26  48  75 105 151 199 244 303 377 436
#     4  12  27  48  73 108 149 197 250 298 371 443
#     4  11  25  47  72 108 145 192 251 306 361 447
#     4  11  26  46  78 104 149 199 245 305 373 436
#
# _framework density 22.883932999999999
#
# number of rings (size 3 to 8) (size 9 to 14) (size 15 to 20)
#    0.000    0.500    2.500    4.125   10.500    1.500 
#    0.000    0.000    0.000    0.000    0.000    0.000 
#    0.000    0.000    0.000    0.000    0.000    0.000 
#
# Total GULP energy -89399.927688 kJ/mol
# GULP energy per Si atom -5587.495480 kJ/mol
# Density = 2.283185 g / cm^3
# Si number density = 22.883933 Si / 1000 Ang^3
#
#
#
# Elastic Constant Matrix: (Units=GPa)
#
#
# Indices 1 2 3 4 5 6 
#
# 1 116.1103 46.6538 44.9560 -3.8265 -13.9662 14.9834
# 2 46.6538 149.1211 56.0173 -17.8155 -16.0163 23.8251
# 3 44.9560 56.0173 161.1211 -17.3012 -23.1900 18.5830
# 4 -3.8265 -17.8155 -17.3012 34.1475 8.9897 -10.1870
# 5 -13.9662 -16.0163 -23.1900 8.9897 33.5997 10.3534
# 6 14.9834 23.8251 18.5830 -10.1870 10.3534 52.7862
#
#
#
# Elastic Compliance Matrix: (Units=1/GPa)
#
#
# Indices 1 2 3 4 5 6 
#
# 1 0.010893 -0.002240 -0.001669 -0.002634 0.003863 -0.002759
# 2 -0.002240 0.009003 -0.001554 0.002061 0.002662 -0.003005
# 3 -0.001669 -0.001554 0.008305 0.001243 0.004715 -0.002434
# 4 -0.002634 0.002061 0.001243 0.036353 -0.011656 0.008681
# 5 0.003863 0.002662 0.004715 -0.011656 0.043555 -0.014750
# 6 -0.002759 -0.003005 -0.002434 0.008681 -0.014750 0.026509
#
#
# Mechanical properties :
#
#
# Convention : Reuss Voigt Hill
#
# Bulk Modulus (GPa) = 57.88728 80.17853 69.03290
# Shear Modulus (GPa) = 33.04655 42.68836 37.86745
#
# Velocity S-wave (km/s) = 3.80425 4.32375 4.07229
# Velocity P-wave (km/s) = 6.68187 7.74852 7.23487
#
# Compressibility (1/GPa) = 0.01727495
#
# Stress axis : x y z
#
# Youngs Moduli (GPa) = 91.80521 111.07723 120.40557
#
# Poissons Ratio (x) = 0.24878 0.20097
# Poissons Ratio (y) = 0.20562 0.18711
# Poissons Ratio (z) = 0.15324 0.17261
#
# Static dielectric constant tensor:
#      x y z
#    x 1.873570 -0.033930 -0.229410 
#    y -0.033930 1.925020 -0.227780 
#    z -0.229410 -0.227780 1.246880 
# 
# From -- ./inp_files/289037.got.cif
#   From: 2010.05.17/outbox.cif.g08.bks.cpg/sg2_145_cif.got.tgz:289037.got - 2010.06.03 11:33:40.
