data_PCOD9066114
_publ_section_title
;
Structure prediction by ZEFSAII (Michael W. Deem and Ramdas Pophale) SiO2 
 PCOD9066114
Probable space group: P -1
;
_chemical_formula_sum "Si O2"
_cell_formula_units_Z 14
_cell_length_a 6.916537
_cell_length_b 11.791285
_cell_length_c 7.214064
_cell_angle_alpha 87.807241
_cell_angle_beta 99.694571
_cell_angle_gamma 84.382802
_cell_volume 576.255874
_symmetry_space_group_name_H-M "P -1"
_symmetry_group_IT_number 2
_symmetry_cell_setting 'triclinic'
loop_
_space_group_symop_operation_xyz
x,y,z
-x,-y,-z
loop_
_atom_site_type_symbol
_atom_site_label
_atom_site_fract_x
_atom_site_fract_y
_atom_site_fract_z
Si Si1 0.188418 0.563092 0.482928
Si Si2 0.189156 0.988111 0.341527
Si Si3 0.437692 0.160542 0.579081
Si Si4 0.830135 0.579503 0.856024
Si Si5 0.043802 0.791511 0.881607
Si Si6 0.564848 0.309900 0.235830
Si Si7 0.044942 0.210598 0.698463
O O1 0.257564 0.497039 0.311858
O O2 0.334065 0.582250 0.671778
O O3 0.102586 0.689625 0.412155
O O4 0.000000 0.500000 0.500000
O O5 0.319101 0.058296 0.491620
O O6 0.062742 0.085854 0.199601
O O7 0.364208 0.898297 0.287050
O O8 0.034145 0.903684 0.387714
O O9 0.497528 0.236193 0.407761
O O10 0.270019 0.224383 0.679199
O O11 0.631013 0.641943 0.911500
O O12 0.936351 0.686105 0.787722
O O13 0.000000 0.500000 0.000000
O O14 0.269388 0.766184 0.851887
O O15 0.997309 0.785290 0.091119
#
# Coordination Sequence:
#
# PCOD9066114 Si02
#       7
#     2   2   2   2   2   2   2
#     4  12  24  48  76 106 147 196 254 302 362 442
#     4  11  25  46  73 108 147 191 248 304 367 440
#     4  11  25  44  77 106 141 194 251 301 364 444
#     4  12  26  49  71 106 152 194 246 311 367 438
#     4  12  27  47  72 108 155 191 242 309 375 436
#     4  12  26  49  78 110 144 201 250 304 373 437
#     4  12  26  46  72 106 151 194 241 310 370 432
#
# _framework density 24.294764000000001
#
# number of rings (size 3 to 8) (size 9 to 14) (size 15 to 20)
#    0.000    0.286    5.714    3.000    4.000    2.286 
#    0.000    0.000    0.000    0.000    0.000    0.000 
#    0.000    0.000    0.000    0.000    0.000    0.000 
#
# Total GULP energy -78184.180061 kJ/mol
# GULP energy per Si atom -5584.584290 kJ/mol
# Density = 2.423947 g / cm^3
# Si number density = 24.294764 Si / 1000 Ang^3
#
#
#
# Elastic Constant Matrix: (Units=GPa)
#
#
# Indices 1 2 3 4 5 6 
#
# 1 186.4765 28.4665 28.1808 -5.6471 -16.7485 -37.5369
# 2 28.4665 92.8792 7.0993 -9.2674 1.0483 12.1064
# 3 28.1808 7.0993 50.4498 8.1556 -19.3171 -17.5030
# 4 -5.6471 -9.2674 8.1556 42.9357 -5.5014 5.7435
# 5 -16.7485 1.0483 -19.3171 -5.5014 32.5866 -2.5604
# 6 -37.5369 12.1064 -17.5030 5.7435 -2.5604 60.2502
#
#
#
# Elastic Compliance Matrix: (Units=1/GPa)
#
#
# Indices 1 2 3 4 5 6 
#
# 1 0.007268 -0.002898 -0.000337 0.000225 0.004073 0.005164
# 2 -0.002898 0.013287 -0.004877 0.003673 -0.004694 -0.006442
# 3 -0.000337 -0.004877 0.033402 -0.006524 0.019620 0.011929
# 4 0.000225 0.003673 -0.006524 0.026034 0.000135 -0.004969
# 5 0.004073 -0.004694 0.019620 0.000135 0.045457 0.011099
# 6 0.005164 -0.006442 0.011929 -0.004969 0.011099 0.025520
#
#
# Mechanical properties :
#
#
# Convention : Reuss Voigt Hill
#
# Bulk Modulus (GPa) = 26.50296 50.81094 38.65695
# Shear Modulus (GPa) = 27.81309 44.89178 36.35244
#
# Velocity S-wave (km/s) = 3.38719 4.30326 3.87241
# Velocity P-wave (km/s) = 5.12152 6.75652 5.99502
#
# Compressibility (1/GPa) = 0.03773163
#
# Stress axis : x y z
#
# Youngs Moduli (GPa) = 137.58567 75.26172 29.93827
#
# Poissons Ratio (x) = 0.21814 0.01010
# Poissons Ratio (y) = 0.39878 0.14601
# Poissons Ratio (z) = 0.04643 0.36704
#
# Static dielectric constant tensor:
#      x y z
#    x 1.999880 -0.028200 -0.039990 
#    y -0.028200 2.184030 0.112090 
#    z -0.039990 0.112090 2.036160 
# 
# From -- ./inp_files/131477.got.cif
#   From: 2010.05.17/outbox.cif.g08.bks.cpg/sg2_66_cif.got.tgz:131477.got - 2010.06.03 11:33:40.
