data_PCOD9066463
_publ_section_title
;
Structure prediction by ZEFSAII (Michael W. Deem and Ramdas Pophale) SiO2 
 PCOD9066463
Probable space group: P -1
;
_chemical_formula_sum "Si O2"
_cell_formula_units_Z 15
_cell_length_a 13.756991
_cell_length_b 12.501065
_cell_length_c 5.181896
_cell_angle_alpha 111.478279
_cell_angle_beta 81.650195
_cell_angle_gamma 139.292919
_cell_volume 527.834751
_symmetry_space_group_name_H-M "P -1"
_symmetry_group_IT_number 2
_symmetry_cell_setting 'triclinic'
loop_
_space_group_symop_operation_xyz
x,y,z
-x,-y,-z
loop_
_atom_site_type_symbol
_atom_site_label
_atom_site_fract_x
_atom_site_fract_y
_atom_site_fract_z
Si Si1 0.246715 0.052397 0.169445
Si Si2 0.537079 0.378542 0.057644
Si Si3 0.803562 0.785471 0.334708
Si Si4 0.932355 0.776624 0.780893
Si Si5 0.000000 0.500000 0.000000
Si Si6 0.198884 0.536681 0.733818
Si Si7 0.740526 0.220059 0.411462
Si Si8 0.445766 0.117182 0.511539
O O1 0.376987 0.242075 0.141816
O O2 0.197293 0.084095 0.463470
O O3 0.333594 0.021448 0.228673
O O4 0.104771 0.906183 0.909865
O O5 0.634372 0.579786 0.214361
O O6 0.646180 0.376253 0.138036
O O7 0.502329 0.294868 0.717854
O O8 0.894100 0.803997 0.549072
O O9 0.869514 0.803161 0.052721
O O10 0.846019 0.578923 0.595624
O O11 0.871498 0.357332 0.690363
O O12 0.062855 0.418330 0.885888
O O13 0.189995 0.667381 0.787062
O O14 0.595840 0.177005 0.458299
O O15 0.654492 0.025006 0.342753
#
# Coordination Sequence:
#
# PCOD9066463 Si02
#       8
#     2   2   2   2   1   2   2   2
#     4  12  27  46  78 113 148 199 256 314 379 456
#     4  11  25  46  74 107 153 197 247 312 386 454
#     4  11  27  51  79 112 154 202 251 316 383 457
#     4  11  28  49  81 112 157 196 254 316 383 452
#     4  12  26  44  74 100 142 200 256 296 376 448
#     4  11  25  48  73 106 149 200 252 311 378 454
#     4  11  25  46  67 105 144 199 247 318 371 451
#     4  11  26  44  72 104 151 190 250 311 384 440
#
# _framework density 28.417984000000001
#
# number of rings (size 3 to 8) (size 9 to 14) (size 15 to 20)
#    0.000    0.800    2.667    2.400   11.200    2.133 
#    0.000    0.000    0.000    0.000    0.000    0.000 
#    0.000    0.000    0.000    0.000    0.000    0.000 
#
# Total GULP energy -83934.673215 kJ/mol
# GULP energy per Si atom -5595.644881 kJ/mol
# Density = 2.835330 g / cm^3
# Si number density = 28.417984 Si / 1000 Ang^3
#
#
#
# Elastic Constant Matrix: (Units=GPa)
#
#
# Indices 1 2 3 4 5 6 
#
# 1 132.8706 34.6813 54.7964 11.2140 31.8532 31.2754
# 2 34.6813 81.6753 18.8079 20.0346 20.1897 14.3260
# 3 54.7964 18.8079 134.0429 7.9064 30.0814 8.1800
# 4 11.2140 20.0346 7.9064 56.2861 4.4127 1.4661
# 5 31.8532 20.1897 30.0814 4.4127 57.8827 8.1528
# 6 31.2754 14.3260 8.1800 1.4661 8.1528 44.7980
#
#
#
# Elastic Compliance Matrix: (Units=1/GPa)
#
#
# Indices 1 2 3 4 5 6 
#
# 1 0.011768 -0.002194 -0.003403 -0.000686 -0.002999 -0.006324
# 2 -0.002194 0.015703 -0.000077 -0.004798 -0.003486 -0.002684
# 3 -0.003403 -0.000077 0.009528 -0.000415 -0.003197 0.001256
# 4 -0.000686 -0.004798 -0.000415 0.019588 0.000584 0.001341
# 5 -0.002999 -0.003486 -0.003197 0.000584 0.021786 -0.000192
# 6 -0.006324 -0.002684 0.001256 0.001341 -0.000192 0.027358
#
#
# Mechanical properties :
#
#
# Convention : Reuss Voigt Hill
#
# Bulk Modulus (GPa) = 38.98945 62.79554 50.89249
# Shear Modulus (GPa) = 39.79951 47.81356 43.80654
#
# Velocity S-wave (km/s) = 3.74639 4.10629 3.93046
# Velocity P-wave (km/s) = 5.69769 6.68036 6.20850
#
# Compressibility (1/GPa) = 0.02564796
#
# Stress axis : x y z
#
# Youngs Moduli (GPa) = 84.97731 63.68409 104.95721
#
# Poissons Ratio (x) = 0.13975 0.35721
# Poissons Ratio (y) = 0.18648 0.00810
# Poissons Ratio (z) = 0.28921 0.00491
#
# Static dielectric constant tensor:
#      x y z
#    x 2.218100 -0.185740 -0.019770 
#    y -0.185740 1.654790 0.145390 
#    z -0.019770 0.145390 2.018990 
# 
# From -- ./inp_files/97350.got.cif
#   From: 2010.05.17/outbox.cif.g08.bks.cpg/sg2_49_cif.got.tgz:97350.got - 2010.06.03 11:33:40.
