data_PCOD9066202
_publ_section_title
;
Structure prediction by ZEFSAII (Michael W. Deem and Ramdas Pophale) SiO2 
 PCOD9066202
Probable space group: P -1
;
_chemical_formula_sum "Si O2"
_cell_formula_units_Z 16
_cell_length_a 17.593473
_cell_length_b 8.855690
_cell_length_c 11.617867
_cell_angle_alpha 34.576142
_cell_angle_beta 42.857747
_cell_angle_gamma 59.242861
_cell_volume 678.490207
_symmetry_space_group_name_H-M "P -1"
_symmetry_group_IT_number 2
_symmetry_cell_setting 'triclinic'
loop_
_space_group_symop_operation_xyz
x,y,z
-x,-y,-z
loop_
_atom_site_type_symbol
_atom_site_label
_atom_site_fract_x
_atom_site_fract_y
_atom_site_fract_z
Si Si1 0.380336 0.273427 0.256512
Si Si2 0.293568 0.730213 0.167738
Si Si3 0.771081 0.396972 0.440542
Si Si4 0.376203 0.305138 0.743921
Si Si5 0.218154 0.775036 0.873548
Si Si6 0.081533 0.795256 0.242595
Si Si7 0.713989 0.796891 0.833835
Si Si8 0.986918 0.297232 0.033762
O O1 0.292850 0.465987 0.259581
O O2 0.372687 0.196802 0.179093
O O3 0.331014 0.002744 0.559814
O O4 0.500000 0.500000 0.000000
O O5 0.313415 0.657243 0.322494
O O6 0.170899 0.800951 0.242745
O O7 0.380726 0.017479 0.858575
O O8 0.712618 0.552753 0.313046
O O9 0.891101 0.574353 0.244140
O O10 0.790237 0.108488 0.553570
O O11 0.500000 0.500000 0.500000
O O12 0.333929 0.234365 0.964622
O O13 0.160305 0.867682 0.994159
O O14 0.240681 0.476752 0.060293
O O15 0.123278 0.726642 0.907927
O O16 0.000000 0.500000 0.500000
O O17 0.000996 0.996652 0.234691
O O18 0.000000 0.500000 0.000000
#
# Coordination Sequence:
#
# PCOD9066202 Si02
#       8
#     2   2   2   2   2   2   2   2
#     4  12  28  46  74 107 146 192 246 302 365 435
#     4  11  25  45  71 105 139 190 238 300 359 440
#     4  11  25  47  71 106 144 183 247 296 371 434
#     4  11  26  45  74 102 145 189 243 301 365 432
#     4  12  27  48  71 106 151 191 244 303 370 434
#     4  12  25  47  72 108 151 197 238 297 378 440
#     4  11  26  46  72 106 145 188 241 307 365 435
#     4  12  25  43  77 101 142 191 243 302 359 439
#
# _framework density 23.581769000000001
#
# number of rings (size 3 to 8) (size 9 to 14) (size 15 to 20)
#    0.000    0.500    2.500    4.875    8.750    2.000 
#    0.000    0.000    0.000    0.000    0.000    0.000 
#    0.000    0.000    0.000    0.000    0.000    0.000 
#
# Total GULP energy -89406.689484 kJ/mol
# GULP energy per Si atom -5587.918093 kJ/mol
# Density = 2.352810 g / cm^3
# Si number density = 23.581769 Si / 1000 Ang^3
#
#
#
# Elastic Constant Matrix: (Units=GPa)
#
#
# Indices 1 2 3 4 5 6 
#
# 1 70.1282 -7.8317 43.9072 13.0202 -1.8715 18.4718
# 2 -7.8317 68.5527 24.3407 -16.7844 17.1805 15.8365
# 3 43.9072 24.3407 148.0857 -17.0221 -8.8675 2.9951
# 4 13.0202 -16.7844 -17.0221 47.1894 9.5166 1.1712
# 5 -1.8715 17.1805 -8.8675 9.5166 44.9460 4.2162
# 6 18.4718 15.8365 2.9951 1.1712 4.2162 31.6968
#
#
#
# Elastic Compliance Matrix: (Units=1/GPa)
#
#
# Indices 1 2 3 4 5 6 
#
# 1 0.028975 0.010478 -0.010830 -0.007372 -0.001439 -0.020634
# 2 0.010478 0.026732 -0.007027 0.006726 -0.010942 -0.017591
# 3 -0.010830 -0.007027 0.011573 0.003869 0.002930 0.008196
# 4 -0.007372 0.006726 0.003869 0.028660 -0.008240 0.000607
# 5 -0.001439 -0.010942 0.002930 -0.008240 0.028455 0.002548
# 6 -0.020634 -0.017591 0.008196 0.000607 0.002548 0.051227
#
#
# Mechanical properties :
#
#
# Convention : Reuss Voigt Hill
#
# Bulk Modulus (GPa) = 19.03929 45.28877 32.16403
# Shear Modulus (GPa) = 24.05145 39.85647 31.95396
#
# Velocity S-wave (km/s) = 3.19708 4.11559 3.68506
# Velocity P-wave (km/s) = 4.66044 6.46767 5.63695
#
# Compressibility (1/GPa) = 0.05252298
#
# Stress axis : x y z
#
# Youngs Moduli (GPa) = 34.51217 37.40824 86.40627
#
# Poissons Ratio (x) = -0.39195 0.93574
# Poissons Ratio (y) = -0.36160 0.60716
# Poissons Ratio (z) = 0.37375 0.26286
#
# Static dielectric constant tensor:
#      x y z
#    x 1.857500 -0.004380 -0.013640 
#    y -0.004380 1.964020 0.020550 
#    z -0.013640 0.020550 2.015450 
# 
# From -- ./inp_files/126804.got.cif
#   From: 2010.05.17/outbox.cif.g08.bks.cpg/sg2_64_cif.got.tgz:126804.got - 2010.06.03 11:33:40.
