data_PCOD9066160
_publ_section_title
;
Structure prediction by ZEFSAII (Michael W. Deem and Ramdas Pophale) SiO2 
 PCOD9066160
Probable space group: P -1
;
_chemical_formula_sum "Si O2"
_cell_formula_units_Z 14
_cell_length_a 13.944068
_cell_length_b 6.391775
_cell_length_c 14.724142
_cell_angle_alpha 119.225923
_cell_angle_beta 149.464980
_cell_angle_gamma 58.846381
_cell_volume 567.836090
_symmetry_space_group_name_H-M "P -1"
_symmetry_group_IT_number 2
_symmetry_cell_setting 'triclinic'
loop_
_space_group_symop_operation_xyz
x,y,z
-x,-y,-z
loop_
_atom_site_type_symbol
_atom_site_label
_atom_site_fract_x
_atom_site_fract_y
_atom_site_fract_z
Si Si1 0.461074 0.150390 0.860302
Si Si2 0.900608 0.024197 0.022046
Si Si3 0.232616 0.632068 0.293248
Si Si4 0.205192 0.047694 0.787756
Si Si5 0.087061 0.458779 0.313828
Si Si6 0.191821 0.530783 0.609603
Si Si7 0.471266 0.173794 0.313046
O O1 0.379926 0.395649 0.789986
O O2 0.340331 0.168962 0.858452
O O3 0.429986 0.928474 0.722525
O O4 0.681432 0.071588 0.055516
O O5 0.941970 0.275308 0.149317
O O6 0.027499 0.792583 0.130778
O O7 0.680153 0.999114 0.829664
O O8 0.000000 0.000000 0.000000
O O9 0.210997 0.453065 0.322127
O O10 0.341166 0.451817 0.265391
O O11 0.367978 0.809784 0.477250
O O12 0.168153 0.820740 0.652266
O O13 0.027733 0.259457 0.714592
O O14 0.198729 0.416401 0.491074
O O15 0.000000 0.500000 0.500000
#
# Coordination Sequence:
#
# PCOD9066160 Si02
#       7
#     2   2   2   2   2   2   2
#     4  11  25  45  69 106 143 187 238 304 358 437
#     4  12  27  48  75 112 147 192 245 303 365 440
#     4  11  26  49  72 110 147 196 244 302 366 439
#     4  11  26  45  72 102 146 191 241 294 369 426
#     4  12  26  46  79 104 147 199 243 298 370 432
#     4  12  26  44  71 106 142 187 243 298 354 435
#     4  11  25  47  75 103 151 191 241 302 365 432
#
# _framework density 24.655003000000001
#
# number of rings (size 3 to 8) (size 9 to 14) (size 15 to 20)
#    0.000    0.571    2.857    3.857    8.000    2.857 
#    5.143    0.000    0.000    0.000    0.000    0.000 
#    0.000    0.000    0.000    0.000    0.000    0.000 
#
# Total GULP energy -78403.138483 kJ/mol
# GULP energy per Si atom -5600.224177 kJ/mol
# Density = 2.459889 g / cm^3
# Si number density = 24.655003 Si / 1000 Ang^3
#
#
#
# Elastic Constant Matrix: (Units=GPa)
#
#
# Indices 1 2 3 4 5 6 
#
# 1 67.5907 7.6198 -1.0534 -9.3891 -9.7625 3.8268
# 2 7.6198 98.9107 28.5523 5.2391 -11.5774 -10.7399
# 3 -1.0534 28.5523 98.2932 6.1398 -4.3836 15.9839
# 4 -9.3891 5.2391 6.1398 47.0539 -1.8806 -3.7960
# 5 -9.7625 -11.5774 -4.3836 -1.8806 39.4966 3.6289
# 6 3.8268 -10.7399 15.9839 -3.7960 3.6289 41.4308
#
#
#
# Elastic Compliance Matrix: (Units=1/GPa)
#
#
# Indices 1 2 3 4 5 6 
#
# 1 0.016136 -0.001466 0.000949 0.003235 0.004029 -0.002293
# 2 -0.001466 0.012242 -0.004187 -0.000641 0.002302 0.004664
# 3 0.000949 -0.004187 0.012543 -0.001447 0.000902 -0.006224
# 4 0.003235 -0.000641 -0.001447 0.022375 0.001330 0.002027
# 5 0.004029 0.002302 0.000902 0.001330 0.027373 -0.002399
# 6 -0.002293 0.004664 -0.006224 0.002027 -0.002399 0.028354
#
#
# Mechanical properties :
#
#
# Convention : Reuss Voigt Hill
#
# Bulk Modulus (GPa) = 31.73339 37.22580 34.47959
# Shear Modulus (GPa) = 35.98804 40.90799 38.44801
#
# Velocity S-wave (km/s) = 3.82470 4.07777 3.95326
# Velocity P-wave (km/s) = 5.69240 6.10757 5.90363
#
# Compressibility (1/GPa) = 0.03151255
#
# Stress axis : x y z
#
# Youngs Moduli (GPa) = 61.97273 81.68841 79.72662
#
# Poissons Ratio (x) = 0.11974 -0.07568
# Poissons Ratio (y) = 0.09084 0.33385
# Poissons Ratio (z) = -0.05883 0.34206
#
# Static dielectric constant tensor:
#      x y z
#    x 1.969920 0.032610 -0.010690 
#    y 0.032610 1.939890 0.001040 
#    z -0.010690 0.001040 1.959780 
# 
# From -- ./inp_files/525471.got.cif
#   From: 2010.05.17/outbox.cif.g08.bks.cpg/sg2_263_cif.got.tgz:525471.got - 2010.06.03 11:33:40.
