data_PCOD9066850
_publ_section_title
;
Structure prediction by ZEFSAII (Michael W. Deem and Ramdas Pophale) SiO2 
 PCOD9066850
Probable space group: P -1
;
_chemical_formula_sum "Si O2"
_cell_formula_units_Z 16
_cell_length_a 17.510350
_cell_length_b 14.324066
_cell_length_c 23.318839
_cell_angle_alpha 20.246796
_cell_angle_beta 159.141097
_cell_angle_gamma 146.629098
_cell_volume 678.407009
_symmetry_space_group_name_H-M "P -1"
_symmetry_group_IT_number 2
_symmetry_cell_setting 'triclinic'
loop_
_space_group_symop_operation_xyz
x,y,z
-x,-y,-z
loop_
_atom_site_type_symbol
_atom_site_label
_atom_site_fract_x
_atom_site_fract_y
_atom_site_fract_z
Si Si1 0.358671 0.892917 0.357350
Si Si2 0.125569 0.174730 0.259331
Si Si3 0.850905 0.350033 0.369094
Si Si4 0.633634 0.694538 0.237583
Si Si5 0.495834 0.263323 0.007877
Si Si6 0.746002 0.201274 0.891122
Si Si7 0.284819 0.592531 0.376298
Si Si8 0.130137 0.528158 0.815302
O O1 0.620068 0.869047 0.555114
O O2 0.354855 0.603916 0.552348
O O3 0.250433 0.863435 0.236481
O O4 0.226246 0.222122 0.091990
O O5 0.135344 0.978486 0.434783
O O6 0.000000 0.500000 0.000000
O O7 0.976510 0.093523 0.151490
O O8 0.667447 0.483127 0.213069
O O9 0.798499 0.506655 0.181393
O O10 0.104025 0.335588 0.570473
O O11 0.531445 0.695499 0.102636
O O12 0.500000 0.000000 0.000000
O O13 0.751822 0.249321 0.208857
O O14 0.390739 0.016635 0.091099
O O15 0.556312 0.436726 0.659434
O O16 0.777103 0.329148 0.778161
O O17 0.140532 0.400614 0.409405
#
# Coordination Sequence:
#
# PCOD9066850 Si02
#       8
#     2   2   2   2   2   2   2   2
#     4  12  25  46  73 103 146 189 244 299 365 436
#     4  12  25  46  75 105 143 190 249 303 367 432
#     4  12  26  48  76 105 151 197 249 303 364 441
#     4  12  27  49  74 106 148 197 247 310 371 432
#     4  12  27  46  71 110 146 191 250 299 370 440
#     4  11  26  45  72 104 147 189 247 300 373 428
#     4  11  25  47  69 106 146 193 241 304 362 446
#     4  12  28  46  73 109 147 198 245 298 375 434
#
# _framework density 23.584664
#
# number of rings (size 3 to 8) (size 9 to 14) (size 15 to 20)
#    0.000    0.250    5.000    3.375    5.250    1.000 
#    0.000    0.000    0.000    0.000    0.000    0.000 
#    0.000    0.000    0.000    0.000    0.000    0.000 
#
# Total GULP energy -89429.414322 kJ/mol
# GULP energy per Si atom -5589.338395 kJ/mol
# Density = 2.353098 g / cm^3
# Si number density = 23.584664 Si / 1000 Ang^3
#
#
#
# Elastic Constant Matrix: (Units=GPa)
#
#
# Indices 1 2 3 4 5 6 
#
# 1 102.5519 32.7750 26.8584 4.5261 -5.2711 9.6479
# 2 32.7750 128.0604 20.6442 8.9854 1.0285 18.3674
# 3 26.8584 20.6442 68.7952 2.3358 0.6484 11.7970
# 4 4.5261 8.9854 2.3358 55.5459 13.3723 -7.2953
# 5 -5.2711 1.0285 0.6484 13.3723 22.7200 4.1245
# 6 9.6479 18.3674 11.7970 -7.2953 4.1245 38.7440
#
#
#
# Elastic Compliance Matrix: (Units=1/GPa)
#
#
# Indices 1 2 3 4 5 6 
#
# 1 0.011839 -0.002122 -0.003696 -0.001693 0.004233 -0.001586
# 2 -0.002122 0.009254 -0.001205 -0.002052 0.001055 -0.003990
# 3 -0.003696 -0.001205 0.017015 -0.000668 -0.000207 -0.003793
# 4 -0.001693 -0.002052 -0.000668 0.023182 -0.015304 0.007592
# 5 0.004233 0.001055 -0.000207 -0.015304 0.055834 -0.010317
# 6 -0.001586 -0.003990 -0.003793 0.007592 -0.010317 0.031780
#
#
# Mechanical properties :
#
#
# Convention : Reuss Voigt Hill
#
# Bulk Modulus (GPa) = 41.55602 51.10695 46.33148
# Shear Modulus (GPa) = 29.24494 38.01066 33.62780
#
# Velocity S-wave (km/s) = 3.52518 4.01891 3.78012
# Velocity P-wave (km/s) = 5.85042 6.57664 6.22413
#
# Compressibility (1/GPa) = 0.02406390
#
# Stress axis : x y z
#
# Youngs Moduli (GPa) = 84.46873 108.06302 58.77066
#
# Poissons Ratio (x) = 0.22929 0.21719
# Poissons Ratio (y) = 0.17923 0.07079
# Poissons Ratio (z) = 0.31216 0.13017
#
# Static dielectric constant tensor:
#      x y z
#    x 1.915680 -0.015650 0.032650 
#    y -0.015650 1.941930 -0.085020 
#    z 0.032650 -0.085020 1.968400 
# 
# From -- ./inp_files/613232.got.cif
#   From: 2010.05.17/outbox.cif.g08.bks.cpg/sg2_307_cif.got.tgz:613232.got - 2010.06.03 11:33:40.
