data_PCOD9066749
_publ_section_title
;
Structure prediction by ZEFSAII (Michael W. Deem and Ramdas Pophale) SiO2 
 PCOD9066749
Probable space group: P -1
;
_chemical_formula_sum "Si O2"
_cell_formula_units_Z 15
_cell_length_a 15.602988
_cell_length_b 8.388781
_cell_length_c 9.434589
_cell_angle_alpha 76.042179
_cell_angle_beta 146.432847
_cell_angle_gamma 115.674769
_cell_volume 597.328247
_symmetry_space_group_name_H-M "P -1"
_symmetry_group_IT_number 2
_symmetry_cell_setting 'triclinic'
loop_
_space_group_symop_operation_xyz
x,y,z
-x,-y,-z
loop_
_atom_site_type_symbol
_atom_site_label
_atom_site_fract_x
_atom_site_fract_y
_atom_site_fract_z
Si Si1 0.925204 0.270911 0.122827
Si Si2 0.079374 0.861218 0.164887
Si Si3 0.385307 0.182757 0.621617
Si Si4 0.000000 0.000000 0.500000
Si Si5 0.291617 0.637944 0.808276
Si Si6 0.945214 0.691051 0.278202
Si Si7 0.568565 0.213461 0.592424
Si Si8 0.305086 0.510434 0.550311
O O1 0.969982 0.161037 0.330834
O O2 0.100392 0.448383 0.293819
O O3 0.878531 0.183510 0.921276
O O4 0.748116 0.279261 0.912003
O O5 0.941181 0.700905 0.101089
O O6 0.246333 0.973767 0.466502
O O7 0.000000 0.000000 0.000000
O O8 0.436879 0.232926 0.518091
O O9 0.324025 0.325655 0.578022
O O10 0.550283 0.201609 0.933167
O O11 0.028344 0.118981 0.657626
O O12 0.116949 0.662352 0.549355
O O13 0.360691 0.594258 0.765047
O O14 0.225689 0.458450 0.854391
O O15 0.603035 0.339634 0.474874
O O16 0.500000 0.000000 0.500000
#
# Coordination Sequence:
#
# PCOD9066749 Si02
#       8
#     2   2   2   1   2   2   2   2
#     4  12  25  48  77 108 146 195 254 298 369 440
#     4  12  24  46  73 108 144 197 248 298 361 440
#     4  12  27  48  73 113 150 195 243 305 370 435
#     4  12  22  44  74 106 140 192 242 306 352 436
#     4  11  27  48  71 111 149 194 246 305 373 427
#     4  11  25  46  75 106 147 195 248 302 365 440
#     4  12  28  49  73 113 151 191 245 311 374 434
#     4  12  26  50  76 108 148 201 247 301 369 446
#
# _framework density 25.111820999999999
#
# number of rings (size 3 to 8) (size 9 to 14) (size 15 to 20)
#    0.000    0.267    5.333    2.800    3.733    2.667 
#    4.800    0.000    0.000    0.000    0.000    0.000 
#    0.000    0.000    0.000    0.000    0.000    0.000 
#
# Total GULP energy -83728.715873 kJ/mol
# GULP energy per Si atom -5581.914392 kJ/mol
# Density = 2.505467 g / cm^3
# Si number density = 25.111821 Si / 1000 Ang^3
#
#
#
# Elastic Constant Matrix: (Units=GPa)
#
#
# Indices 1 2 3 4 5 6 
#
# 1 132.6692 38.0622 13.3552 8.2816 -25.3380 11.4505
# 2 38.0622 70.8540 5.5434 1.9757 -11.0956 23.6792
# 3 13.3552 5.5434 83.0661 19.2090 -15.0980 19.5929
# 4 8.2816 1.9757 19.2090 31.2959 -2.4126 -10.4181
# 5 -25.3380 -11.0956 -15.0980 -2.4126 35.1820 0.4864
# 6 11.4505 23.6792 19.5929 -10.4181 0.4864 57.1632
#
#
#
# Elastic Compliance Matrix: (Units=1/GPa)
#
#
# Indices 1 2 3 4 5 6 
#
# 1 0.010061 -0.004064 0.000637 -0.002693 0.006068 -0.001092
# 2 -0.004064 0.020212 0.003769 -0.005431 0.004829 -0.009881
# 3 0.000637 0.003769 0.019598 -0.015495 0.009152 -0.011308
# 4 -0.002693 -0.005431 -0.015495 0.047561 -0.007272 0.016830
# 5 0.006068 0.004829 0.009152 -0.007272 0.037856 -0.008000
# 6 -0.001092 -0.009881 -0.011308 0.016830 -0.008000 0.028817
#
#
# Mechanical properties :
#
#
# Convention : Reuss Voigt Hill
#
# Bulk Modulus (GPa) = 19.78078 44.50120 32.14099
# Shear Modulus (GPa) = 27.73592 40.03679 33.88636
#
# Velocity S-wave (km/s) = 3.32700 3.99725 3.67743
# Velocity P-wave (km/s) = 4.75949 6.25010 5.55502
#
# Compressibility (1/GPa) = 0.05055413
#
# Stress axis : x y z
#
# Youngs Moduli (GPa) = 99.39803 49.47642 51.02457
#
# Poissons Ratio (x) = 0.20107 -0.03250
# Poissons Ratio (y) = 0.40395 -0.19230
# Poissons Ratio (z) = -0.06330 -0.18647
#
# Static dielectric constant tensor:
#      x y z
#    x 2.047050 -0.013510 -0.014560 
#    y -0.013510 2.016990 0.013920 
#    z -0.014560 0.013920 2.064950 
# 
# From -- ./inp_files/298460.got.cif
#   From: 2010.05.17/outbox.cif.g08.bks.cpg/sg2_150_cif.got.tgz:298460.got - 2010.06.03 11:33:40.
