data_PCOD9066436
_publ_section_title
;
Structure prediction by ZEFSAII (Michael W. Deem and Ramdas Pophale) SiO2 
 PCOD9066436
Probable space group: P -1
;
_chemical_formula_sum "Si O2"
_cell_formula_units_Z 13
_cell_length_a 5.050076
_cell_length_b 18.861367
_cell_length_c 5.422837
_cell_angle_alpha 73.539983
_cell_angle_beta 85.878937
_cell_angle_gamma 106.144320
_cell_volume 469.422744
_symmetry_space_group_name_H-M "P -1"
_symmetry_group_IT_number 2
_symmetry_cell_setting 'triclinic'
loop_
_space_group_symop_operation_xyz
x,y,z
-x,-y,-z
loop_
_atom_site_type_symbol
_atom_site_label
_atom_site_fract_x
_atom_site_fract_y
_atom_site_fract_z
Si Si1 0.137209 0.819796 0.362959
Si Si2 0.919134 0.324880 0.209021
Si Si3 0.500000 0.000000 0.000000
Si Si4 0.114833 0.930809 0.618959
Si Si5 0.872736 0.554645 0.288516
Si Si6 0.507100 0.403784 0.327740
Si Si7 0.326107 0.148767 0.941426
O O1 0.240541 0.908968 0.375097
O O2 0.349033 0.807177 0.158484
O O3 0.150465 0.765595 0.644129
O O4 0.842734 0.812074 0.269812
O O5 0.247709 0.360508 0.215488
O O6 0.718004 0.353778 0.373981
O O7 0.903040 0.370015 0.914804
O O8 0.672659 0.049362 0.189210
O O9 0.698588 0.939516 0.047136
O O10 0.000000 0.000000 0.500000
O O11 0.839363 0.860098 0.783176
O O12 0.704887 0.490671 0.162856
O O13 0.651134 0.584104 0.426069
O O14 0.000000 0.500000 0.500000
#
# Coordination Sequence:
#
# PCOD9066436 Si02
#       7
#     2   2   1   2   2   2   2
#     4  12  29  49  72 109 157 206 249 312 398 462
#     4  12  27  46  72 107 155 203 245 308 386 451
#     4  12  24  50  80 114 142 194 266 324 380 456
#     4  12  27  50  83 110 151 200 259 327 385 455
#     4  11  25  45  78 114 143 196 261 311 370 439
#     4  11  25  46  75 105 148 193 253 313 365 442
#     4  12  26  51  73 112 147 192 259 315 380 460
#
# _framework density 27.69359
#
# number of rings (size 3 to 8) (size 9 to 14) (size 15 to 20)
#    0.000    0.308    4.615    3.231    6.462    3.692 
#    0.000    0.000    0.000    0.000    0.000    0.000 
#    0.000    0.000    0.000    0.000    0.000    0.000 
#
# Total GULP energy -72608.863655 kJ/mol
# GULP energy per Si atom -5585.297204 kJ/mol
# Density = 2.763056 g / cm^3
# Si number density = 27.693590 Si / 1000 Ang^3
#
#
#
# Elastic Constant Matrix: (Units=GPa)
#
#
# Indices 1 2 3 4 5 6 
#
# 1 151.3636 27.0628 53.0319 -4.0494 9.5435 -29.5536
# 2 27.0628 73.8118 22.1351 -16.0048 -7.2908 -43.9843
# 3 53.0319 22.1351 110.1774 -9.0669 11.9516 -29.1783
# 4 -4.0494 -16.0048 -9.0669 49.4092 -7.3127 4.3227
# 5 9.5435 -7.2908 11.9516 -7.3127 49.6385 7.3097
# 6 -29.5536 -43.9843 -29.1783 4.3227 7.3097 47.3311
#
#
#
# Elastic Compliance Matrix: (Units=1/GPa)
#
#
# Indices 1 2 3 4 5 6 
#
# 1 0.008463 -0.000572 -0.002989 -0.000548 -0.001543 0.003199
# 2 -0.000572 0.033941 0.002459 0.008790 0.001127 0.031723
# 3 -0.002989 0.002459 0.012791 0.001674 -0.003170 0.008640
# 4 -0.000548 0.008790 0.001674 0.023329 0.003520 0.006184
# 5 -0.001543 0.001127 -0.003170 0.003520 0.022729 -0.005702
# 6 0.003199 0.031723 0.008640 0.006184 -0.005702 0.058247
#
#
# Mechanical properties :
#
#
# Convention : Reuss Voigt Hill
#
# Bulk Modulus (GPa) = 18.87131 59.97918 39.42525
# Shear Modulus (GPa) = 27.87541 44.81729 36.34635
#
# Velocity S-wave (km/s) = 3.17608 4.02721 3.62670
# Velocity P-wave (km/s) = 4.50324 6.58253 5.63954
#
# Compressibility (1/GPa) = 0.05299048
#
# Stress axis : x y z
#
# Youngs Moduli (GPa) = 118.15581 29.46262 78.18016
#
# Poissons Ratio (x) = 0.01685 0.23372
# Poissons Ratio (y) = 0.06757 -0.19223
# Poissons Ratio (z) = 0.35322 -0.07244
#
# Static dielectric constant tensor:
#      x y z
#    x 2.159860 0.068700 -0.012810 
#    y 0.068700 2.051370 0.060240 
#    z -0.012810 0.060240 2.124650 
# 
# From -- ./inp_files/10165.got.cif
#   From: 2010.05.17/outbox.cif.g08.bks.cpg/sg2_6_cif.got.tgz:10165.got - 2010.06.03 11:33:40.
