data_PCOD9066063
_publ_section_title
;
Structure prediction by ZEFSAII (Michael W. Deem and Ramdas Pophale) SiO2 
 PCOD9066063
Probable space group: P -1
;
_chemical_formula_sum "Si O2"
_cell_formula_units_Z 12
_cell_length_a 9.683903
_cell_length_b 12.164041
_cell_length_c 7.289224
_cell_angle_alpha 77.920468
_cell_angle_beta 97.826665
_cell_angle_gamma 143.624902
_cell_volume 497.181895
_symmetry_space_group_name_H-M "P -1"
_symmetry_group_IT_number 2
_symmetry_cell_setting 'triclinic'
loop_
_space_group_symop_operation_xyz
x,y,z
-x,-y,-z
loop_
_atom_site_type_symbol
_atom_site_label
_atom_site_fract_x
_atom_site_fract_y
_atom_site_fract_z
Si Si1 0.892350 0.121953 0.304076
Si Si2 0.311639 0.591626 0.667442
Si Si3 0.351376 0.991450 0.352159
Si Si4 0.408387 0.439453 0.211241
Si Si5 0.407958 0.692978 0.259346
Si Si6 0.850011 0.270064 0.931968
O O1 0.871572 0.129850 0.515007
O O2 0.138982 0.228919 0.256526
O O3 0.667419 0.903607 0.282462
O O4 0.127885 0.776382 0.853117
O O5 0.428815 0.546487 0.668233
O O6 0.257929 0.603816 0.451209
O O7 0.097812 0.443237 0.817054
O O8 0.505575 0.801194 0.710027
O O9 0.291298 0.899855 0.178185
O O10 0.500000 0.000000 0.500000
O O11 0.419345 0.573731 0.235721
O O12 0.500000 0.500000 0.000000
O O13 0.282807 0.698050 0.098653
#
# Coordination Sequence:
#
# PCOD9066063 Si02
#       6
#     2   2   2   2   2   2
#     4  11  26  45  72 105 141 183 234 288 345 416
#     4  11  25  46  71 102 142 185 232 287 346 421
#     4  11  25  44  73 108 138 177 232 287 357 406
#     4  12  27  46  66 104 142 189 234 278 348 418
#     4  11  26  43  73 102 137 184 236 288 351 406
#     4  12  24  45  76 105 140 180 232 297 347 407
#
# _framework density 24.136033999999999
#
# number of rings (size 3 to 8) (size 9 to 14) (size 15 to 20)
#    0.000    0.667    5.000    2.500    4.667    5.333 
#    0.000    0.000    0.000    0.000    0.000    0.000 
#    0.000    0.000    0.000    0.000    0.000    0.000 
#
# Total GULP energy -67308.952948 kJ/mol
# GULP energy per Si atom -5609.079412 kJ/mol
# Density = 2.408110 g / cm^3
# Si number density = 24.136034 Si / 1000 Ang^3
#
#
#
# Elastic Constant Matrix: (Units=GPa)
#
#
# Indices 1 2 3 4 5 6 
#
# 1 121.2555 55.6191 22.0123 -8.2309 -8.1826 -4.4233
# 2 55.6191 98.7660 18.6777 -25.9744 -7.0884 -12.8558
# 3 22.0123 18.6777 103.6472 -10.6914 -16.4951 -6.3748
# 4 -8.2309 -25.9744 -10.6914 38.8128 6.5118 -8.5531
# 5 -8.1826 -7.0884 -16.4951 6.5118 41.7474 -3.8635
# 6 -4.4233 -12.8558 -6.3748 -8.5531 -3.8635 48.3189
#
#
#
# Elastic Compliance Matrix: (Units=1/GPa)
#
#
# Indices 1 2 3 4 5 6 
#
# 1 0.011629 -0.007288 -0.001462 -0.003303 0.000833 -0.001585
# 2 -0.007288 0.018240 -0.000056 0.011979 0.000363 0.006328
# 3 -0.001462 -0.000056 0.010961 0.002478 0.003837 0.002043
# 4 -0.003303 0.011979 0.002478 0.036248 -0.002415 0.009435
# 5 0.000833 0.000363 0.003837 -0.002415 0.026289 0.002354
# 6 -0.001585 0.006328 0.002043 0.009435 0.002354 0.024362
#
#
# Mechanical properties :
#
#
# Convention : Reuss Voigt Hill
#
# Bulk Modulus (GPa) = 43.07177 57.36522 50.21850
# Shear Modulus (GPa) = 32.66256 40.93311 36.79784
#
# Velocity S-wave (km/s) = 3.68267 4.12264 3.90885
# Velocity P-wave (km/s) = 5.99724 6.81767 6.42057
#
# Compressibility (1/GPa) = 0.02321706
#
# Stress axis : x y z
#
# Youngs Moduli (GPa) = 85.98851 54.82577 91.23494
#
# Poissons Ratio (x) = 0.39955 0.13341
# Poissons Ratio (y) = 0.62665 0.00515
# Poissons Ratio (z) = 0.12573 0.00310
#
# Static dielectric constant tensor:
#      x y z
#    x 1.902400 0.009340 0.004380 
#    y 0.009340 1.947010 0.005680 
#    z 0.004380 0.005680 1.951390 
# 
# From -- ./inp_files/384617.got.cif
#   From: 2010.05.17/outbox.cif.g08.bks.cpg/sg2_193_cif.got.tgz:384617.got - 2010.06.03 11:33:40.
