data_PCOD9066465
_publ_section_title
;
Structure prediction by ZEFSAII (Michael W. Deem and Ramdas Pophale) SiO2 
 PCOD9066465
Probable space group: P -1
;
_chemical_formula_sum "Si O2"
_cell_formula_units_Z 14
_cell_length_a 15.195423
_cell_length_b 14.962387
_cell_length_c 9.887011
_cell_angle_alpha 128.947534
_cell_angle_beta 51.615093
_cell_angle_gamma 161.780072
_cell_volume 543.981134
_symmetry_space_group_name_H-M "P -1"
_symmetry_group_IT_number 2
_symmetry_cell_setting 'triclinic'
loop_
_space_group_symop_operation_xyz
x,y,z
-x,-y,-z
loop_
_atom_site_type_symbol
_atom_site_label
_atom_site_fract_x
_atom_site_fract_y
_atom_site_fract_z
Si Si1 0.106608 0.825186 0.298058
Si Si2 0.488478 0.410098 0.137003
Si Si3 0.382332 0.680061 0.892074
Si Si4 0.465310 0.054577 0.416093
Si Si5 0.949175 0.517536 0.740689
Si Si6 0.237314 0.462904 0.245906
Si Si7 0.066959 0.989021 0.683107
O O1 0.799186 0.491769 0.235246
O O2 0.075587 0.926273 0.476295
O O3 0.298216 0.992251 0.141287
O O4 0.269170 0.912956 0.345315
O O5 0.610740 0.439252 0.160783
O O6 0.158305 0.119302 0.199478
O O7 0.567179 0.429016 0.936290
O O8 0.632773 0.670322 0.255956
O O9 0.233791 0.624158 0.086384
O O10 0.575807 0.270760 0.594629
O O11 0.748247 0.250839 0.295393
O O12 0.249601 0.761691 0.413973
O O13 0.957219 0.642764 0.767946
O O14 0.045217 0.204092 0.279292
#
# Coordination Sequence:
#
# PCOD9066465 Si02
#       7
#     2   2   2   2   2   2   2
#     4  12  26  44  68  98 138 178 226 276 326 396
#     4  11  26  44  71 101 134 178 222 275 338 395
#     4  11  25  46  68 100 137 175 226 278 326 397
#     4  12  25  44  69 101 136 178 221 274 338 397
#     4  11  26  44  71 101 134 178 222 275 338 395
#     4  11  25  46  70 102 139 171 224 280 332 403
#     4  12  25  44  69 101 136 178 221 274 338 397
#
# _framework density 25.736187999999999
#
# number of rings (size 3 to 8) (size 9 to 14) (size 15 to 20)
#    0.000    0.571    0.000    7.714    0.000   14.857 
#    0.000    0.000    0.000    0.000    0.000    0.000 
#    0.000    0.000    0.000    0.000    0.000    0.000 
#
# Total GULP energy -78586.682067 kJ/mol
# GULP energy per Si atom -5613.334433 kJ/mol
# Density = 2.567761 g / cm^3
# Si number density = 25.736188 Si / 1000 Ang^3
#
#
#
# Elastic Constant Matrix: (Units=GPa)
#
#
# Indices 1 2 3 4 5 6 
#
# 1 90.7290 6.8655 10.0549 2.0583 -5.1901 7.7617
# 2 6.8655 88.5394 -15.3368 -8.1321 -8.0793 -0.2392
# 3 10.0549 -15.3368 102.8741 -21.2690 -10.4769 6.6504
# 4 2.0583 -8.1321 -21.2690 51.4207 5.4085 -10.2344
# 5 -5.1901 -8.0793 -10.4769 5.4085 33.0894 -2.3054
# 6 7.7617 -0.2392 6.6504 -10.2344 -2.3054 30.6495
#
#
#
# Elastic Compliance Matrix: (Units=1/GPa)
#
#
# Indices 1 2 3 4 5 6 
#
# 1 0.011662 -0.001234 -0.001410 -0.002015 0.001185 -0.003241
# 2 -0.001234 0.012481 0.002889 0.003078 0.003339 0.001062
# 3 -0.001410 0.002889 0.011668 0.004937 0.003354 -0.000251
# 4 -0.002015 0.003078 0.004937 0.023644 -0.001360 0.007256
# 5 0.001185 0.003339 0.003354 -0.001360 0.032576 0.000994
# 6 -0.003241 0.001062 -0.000251 0.007256 0.000994 0.036008
#
#
# Mechanical properties :
#
#
# Convention : Reuss Voigt Hill
#
# Bulk Modulus (GPa) = 27.54817 31.70109 29.62463
# Shear Modulus (GPa) = 35.80381 41.73585 38.76983
#
# Velocity S-wave (km/s) = 3.73391 4.03138 3.88549
# Velocity P-wave (km/s) = 5.41449 5.83213 5.62719
#
# Compressibility (1/GPa) = 0.03630005
#
# Stress axis : x y z
#
# Youngs Moduli (GPa) = 85.74668 80.12221 85.70700
#
# Poissons Ratio (x) = 0.09890 0.12087
# Poissons Ratio (y) = 0.10584 -0.24763
# Poissons Ratio (z) = 0.12093 -0.23149
#
# Static dielectric constant tensor:
#      x y z
#    x 2.030740 -0.018130 0.014470 
#    y -0.018130 1.927970 0.002680 
#    z 0.014470 0.002680 1.998800 
# 
# From -- ./inp_files/454942.got.cif
#   From: 2010.05.17/outbox.cif.g08.bks.cpg/sg2_228_cif.got.tgz:454942.got - 2010.06.03 11:33:40.
