data_PCOD9066762
_publ_section_title
;
Structure prediction by ZEFSAII (Michael W. Deem and Ramdas Pophale) SiO2 
 PCOD9066762
Probable space group: P -1
;
_chemical_formula_sum "Si O2"
_cell_formula_units_Z 10
_cell_length_a 7.359202
_cell_length_b 12.685930
_cell_length_c 5.611991
_cell_angle_alpha 84.676719
_cell_angle_beta 77.269767
_cell_angle_gamma 134.492717
_cell_volume 340.766286
_symmetry_space_group_name_H-M "P -1"
_symmetry_group_IT_number 2
_symmetry_cell_setting 'triclinic'
loop_
_space_group_symop_operation_xyz
x,y,z
-x,-y,-z
loop_
_atom_site_type_symbol
_atom_site_label
_atom_site_fract_x
_atom_site_fract_y
_atom_site_fract_z
Si Si1 0.238784 0.376475 0.434837
Si Si2 0.402878 0.178159 0.761691
Si Si3 0.086790 0.626368 0.767907
Si Si4 0.808325 0.125929 0.995916
Si Si5 0.124712 0.126050 0.219589
O O1 0.500000 0.500000 0.500000
O O2 0.252041 0.283177 0.272618
O O3 0.185328 0.461882 0.291212
O O4 0.968048 0.244012 0.698551
O O5 0.657084 0.295536 0.494376
O O6 0.392008 0.163760 0.052890
O O7 0.171499 0.173288 0.869595
O O8 0.217638 0.993939 0.775662
O O9 0.149543 0.765229 0.841813
O O10 0.000000 0.500000 0.000000
O O11 0.500000 0.000000 0.000000
O O12 0.000000 0.000000 0.500000
#
# Coordination Sequence:
#
# PCOD9066762 Si02
#       5
#     2   2   2   2   2
#     4  11  25  46  75 112 156 202 251 307 394 461
#     4   9  19  47  77 117 142 197 267 315 379 448
#     4  11  25  46  75 113 157 201 249 321 381 454
#     4   9  21  43  74 111 144 204 251 317 373 449
#     4   8  20  43  76 112 145 199 250 328 371 453
#
# _framework density 29.345627
#
# number of rings (size 3 to 8) (size 9 to 14) (size 15 to 20)
#    1.200    1.200    0.000    0.600    0.000    7.200 
#    0.000    6.000    4.400    0.000    0.000    0.000 
#    0.000    0.000    0.000    0.000    0.000    0.000 
#
# Total GULP energy -55736.036473 kJ/mol
# GULP energy per Si atom -5573.603647 kJ/mol
# Density = 2.927884 g / cm^3
# Si number density = 29.345627 Si / 1000 Ang^3
#
#
#
# Elastic Constant Matrix: (Units=GPa)
#
#
# Indices 1 2 3 4 5 6 
#
# 1 17.7014 24.7772 160.8201 -13.9331 163.0671 -3.7333
# 2 24.7772 186.6563 136.3198 10.0306 30.2600 -9.4063
# 3 160.8201 136.3198 289.1958 -21.2241 -45.4262 -9.4888
# 4 -13.9331 10.0306 -21.2241 70.6213 2.6253 -9.2089
# 5 163.0671 30.2600 -45.4262 2.6253 3.8782 10.9435
# 6 -3.7333 -9.4063 -9.4888 -9.2089 10.9435 67.8622
#
#
#
# Elastic Compliance Matrix: (Units=1/GPa)
#
#
# Indices 1 2 3 4 5 6 
#
# 1 0.000669 -0.001969 0.001361 0.000531 0.005044 -0.000787
# 2 -0.001969 0.007204 -0.002269 -0.002125 0.001177 0.000095
# 3 0.001361 -0.002269 0.003463 0.001873 -0.003036 0.000988
# 4 0.000531 -0.002125 0.001873 0.015414 -0.000217 0.002123
# 5 0.005044 0.001177 -0.003036 -0.000217 0.002241 -0.000375
# 6 -0.000787 0.000095 0.000988 0.002123 -0.000375 0.015192
#
#
# Mechanical properties :
#
#
# Convention : Reuss Voigt Hill
#
# Bulk Modulus (GPa) = 179.09459 126.37641 152.73550
# Shear Modulus (GPa) = 96.53069 39.91476 68.22272
#
# Velocity S-wave (km/s) = 5.74159 3.69204 4.82685
# Velocity P-wave (km/s) = 10.25262 7.83155 9.12276
#
# Compressibility (1/GPa) = 0.00558364
#
# Stress axis : x y z
#
# Youngs Moduli (GPa) = 1494.83735 138.81532 288.74803
#
# Poissons Ratio (x) = 0.27332 -0.39312
# Poissons Ratio (y) = 2.94326 0.65508
# Poissons Ratio (z) = -2.03517 0.31493
#
# Static dielectric constant tensor:
#      x y z
#    x 10.268370 1.914430 -2.723560 
#    y 1.914430 2.797510 -0.558600 
#    z -2.723560 -0.558600 3.500620 
# 
# From -- ./inp_files/29961.got.cif
#   From: 2010.05.17/outbox.cif.g08.bks.cpg/sg2_15_cif.got.tgz:29961.got - 2010.06.03 11:33:40.
