data_PCOD9066434
_publ_section_title
;
Structure prediction by ZEFSAII (Michael W. Deem and Ramdas Pophale) SiO2 
 PCOD9066434
Probable space group: P -1
;
_chemical_formula_sum "Si O2"
_cell_formula_units_Z 14
_cell_length_a 8.665778
_cell_length_b 8.674261
_cell_length_c 10.918816
_cell_angle_alpha 123.542749
_cell_angle_beta 122.025309
_cell_angle_gamma 82.287654
_cell_volume 565.134949
_symmetry_space_group_name_H-M "P -1"
_symmetry_group_IT_number 2
_symmetry_cell_setting 'triclinic'
loop_
_space_group_symop_operation_xyz
x,y,z
-x,-y,-z
loop_
_atom_site_type_symbol
_atom_site_label
_atom_site_fract_x
_atom_site_fract_y
_atom_site_fract_z
Si Si1 0.296018 0.862567 0.873911
Si Si2 0.649544 0.540483 0.972440
Si Si3 0.409624 0.279617 0.568738
Si Si4 0.079273 0.674428 0.900308
Si Si5 0.935099 0.858855 0.142278
Si Si6 0.286902 0.913846 0.487435
Si Si7 0.782663 0.422982 0.494541
O O1 0.259527 0.817779 0.982110
O O2 0.269632 0.669198 0.701348
O O3 0.106206 0.934519 0.795318
O O4 0.500000 0.000000 0.000000
O O5 0.559964 0.439954 0.769203
O O6 0.500000 0.500000 0.000000
O O7 0.830620 0.459370 0.036694
O O8 0.743092 0.756799 0.082230
O O9 0.515947 0.137766 0.483940
O O10 0.318764 0.397359 0.483340
O O11 0.306032 0.142144 0.576181
O O12 0.969671 0.541616 0.689395
O O13 0.955324 0.776208 0.979280
O O14 0.117391 0.845041 0.289497
O O15 0.243211 0.777782 0.528322
#
# Coordination Sequence:
#
# PCOD9066434 Si02
#       7
#     2   2   2   2   2   2   2
#     4  12  29  47  73 117 153 196 254 319 384 447
#     4  12  25  45  74 108 150 194 248 317 381 447
#     4  11  25  46  72 112 153 194 251 315 380 451
#     4  12  25  49  77 105 153 198 254 309 378 461
#     4  12  25  49  76 110 151 201 258 311 379 461
#     4  11  25  45  78 112 148 198 258 310 384 456
#     4  12  26  48  75 111 155 199 253 312 384 451
#
# _framework density 24.772845
#
# number of rings (size 3 to 8) (size 9 to 14) (size 15 to 20)
#    0.000    0.286    2.857    6.000    4.000    2.857 
#    0.000    0.000    0.000    0.000    0.000    0.000 
#    0.000    0.000    0.000    0.000    0.000    0.000 
#
# Total GULP energy -77937.544724 kJ/mol
# GULP energy per Si atom -5566.967480 kJ/mol
# Density = 2.471646 g / cm^3
# Si number density = 24.772845 Si / 1000 Ang^3
#
#
#
# Elastic Constant Matrix: (Units=GPa)
#
#
# Indices 1 2 3 4 5 6 
#
# 1 79.2887 14.6585 14.5539 13.9916 2.1335 4.3372
# 2 14.6585 121.7885 15.9124 -16.6551 12.1204 -16.3766
# 3 14.5539 15.9124 85.9771 -16.1173 18.1420 -4.9365
# 4 13.9916 -16.6551 -16.1173 21.7936 -7.0583 -0.3413
# 5 2.1335 12.1204 18.1420 -7.0583 18.8846 2.2309
# 6 4.3372 -16.3766 -4.9365 -0.3413 2.2309 39.6325
#
#
#
# Elastic Compliance Matrix: (Units=1/GPa)
#
#
# Indices 1 2 3 4 5 6 
#
# 1 0.018554 -0.004877 -0.006377 -0.020390 0.000132 -0.005023
# 2 -0.004877 0.011465 0.002435 0.012055 -0.005347 0.005979
# 3 -0.006377 0.002435 0.018169 0.015196 -0.013190 0.004841
# 4 -0.020390 0.012055 0.015196 0.082746 0.009801 0.009266
# 5 0.000132 -0.005347 -0.013190 0.009801 0.073640 -0.007928
# 6 -0.005023 0.005979 0.004841 0.009266 -0.007928 0.029381
#
#
# Mechanical properties :
#
#
# Convention : Reuss Voigt Hill
#
# Bulk Modulus (GPa) = 32.73266 41.92266 37.32766
# Shear Modulus (GPa) = 19.10031 32.19078 25.64555
#
# Velocity S-wave (km/s) = 2.77973 3.60868 3.22099
# Velocity P-wave (km/s) = 4.85225 5.85859 5.37901
#
# Compressibility (1/GPa) = 0.03055052
#
# Stress axis : x y z
#
# Youngs Moduli (GPa) = 53.89784 87.22560 55.03742
#
# Poissons Ratio (x) = 0.42540 0.35096
# Poissons Ratio (y) = 0.26286 -0.13403
# Poissons Ratio (z) = 0.34369 -0.21241
#
# Static dielectric constant tensor:
#      x y z
#    x 2.019860 0.038990 -0.011370 
#    y 0.038990 2.081840 0.002200 
#    z -0.011370 0.002200 1.856750 
# 
# From -- ./inp_files/190583.got.cif
#   From: 2010.05.17/outbox.cif.g08.bks.cpg/sg2_96_cif.got.tgz:190583.got - 2010.06.03 11:33:40.
