data_PCOD9066996
_publ_section_title
;
Structure prediction by ZEFSAII (Michael W. Deem and Ramdas Pophale) SiO2 
 PCOD9066996
Probable space group: P -1
;
_chemical_formula_sum "Si O2"
_cell_formula_units_Z 16
_cell_length_a 15.570862
_cell_length_b 9.209720
_cell_length_c 9.531067
_cell_angle_alpha 89.490972
_cell_angle_beta 38.094403
_cell_angle_gamma 80.099950
_cell_volume 812.523969
_symmetry_space_group_name_H-M "P -1"
_symmetry_group_IT_number 2
_symmetry_cell_setting 'triclinic'
loop_
_space_group_symop_operation_xyz
x,y,z
-x,-y,-z
loop_
_atom_site_type_symbol
_atom_site_label
_atom_site_fract_x
_atom_site_fract_y
_atom_site_fract_z
Si Si1 0.124920 0.061183 0.272577
Si Si2 0.837264 0.900885 0.281228
Si Si3 0.103929 0.394387 0.975355
Si Si4 0.834074 0.131193 0.051827
Si Si5 0.349956 0.525849 0.774066
Si Si6 0.627619 0.543649 0.920735
Si Si7 0.051788 0.600219 0.546007
Si Si8 0.652436 0.876904 0.792829
O O1 0.246048 0.067590 0.228270
O O2 0.041173 0.231056 0.348201
O O3 0.000000 0.000000 0.500000
O O4 0.183156 0.970135 0.058071
O O5 0.861027 0.772571 0.132250
O O6 0.725893 0.878415 0.544488
O O7 0.793279 0.059119 0.250158
O O8 0.994632 0.882014 0.150435
O O9 0.252627 0.429379 0.827221
O O10 0.000000 0.500000 0.000000
O O11 0.999444 0.441390 0.240790
O O12 0.743103 0.300509 0.131167
O O13 0.500000 0.500000 0.500000
O O14 0.378724 0.477727 0.901585
O O15 0.778516 0.427306 0.684004
O O16 0.638494 0.710923 0.858819
O O17 0.500000 0.500000 0.000000
O O18 0.000000 0.500000 0.500000
O O19 0.500000 0.000000 0.000000
#
# Coordination Sequence:
#
# PCOD9066996 Si02
#       8
#     2   2   2   2   2   2   2   2
#     4  12  24  44  76 105 139 191 238 301 366 429
#     4  11  25  47  74 111 145 188 244 300 367 444
#     4  12  24  44  76 105 139 191 238 301 366 429
#     4  11  25  47  74 111 145 188 244 300 367 444
#     4  12  29  48  72 107 152 192 244 303 373 443
#     4  12  30  48  73 104 146 197 252 309 365 432
#     4  12  24  48  74 102 141 188 255 304 355 444
#     4  12  29  48  72 107 152 192 244 303 373 443
#
# _framework density 19.691727
#
# number of rings (size 3 to 8) (size 9 to 14) (size 15 to 20)
#    0.000    0.250    6.250    1.500    8.750    0.000 
#    0.000    1.250    0.000    0.000    0.000    0.000 
#    0.000    0.000    0.000    0.000    0.000    0.000 
#
# Total GULP energy -89369.869116 kJ/mol
# GULP energy per Si atom -5585.616820 kJ/mol
# Density = 1.964691 g / cm^3
# Si number density = 19.691727 Si / 1000 Ang^3
#
#
#
# Elastic Constant Matrix: (Units=GPa)
#
#
# Indices 1 2 3 4 5 6 
#
# 1 148.7972 26.3743 51.8531 -16.5970 3.6470 9.8769
# 2 26.3743 61.5202 1.7574 -7.2275 24.8774 -7.8846
# 3 51.8531 1.7574 125.2383 -19.2154 16.1342 -6.6944
# 4 -16.5970 -7.2275 -19.2154 38.1966 -4.5422 5.1851
# 5 3.6470 24.8774 16.1342 -4.5422 40.3545 -2.3791
# 6 9.8769 -7.8846 -6.6944 5.1851 -2.3791 41.7833
#
#
#
# Elastic Compliance Matrix: (Units=1/GPa)
#
#
# Indices 1 2 3 4 5 6 
#
# 1 0.009786 -0.006309 -0.004507 0.001928 0.004777 -0.004193
# 2 -0.006309 0.026904 0.005123 0.002015 -0.017474 0.006144
# 3 -0.004507 0.005123 0.011344 0.003508 -0.006713 0.003032
# 4 0.001928 0.002015 0.003508 0.029634 0.000330 -0.003172
# 5 0.004777 -0.017474 -0.006713 0.000330 0.037642 -0.003400
# 6 -0.004193 0.006144 0.003032 -0.003172 -0.003400 0.026769
#
#
# Mechanical properties :
#
#
# Convention : Reuss Voigt Hill
#
# Bulk Modulus (GPa) = 27.28614 55.05836 41.17225
# Shear Modulus (GPa) = 30.17884 41.10495 35.64189
#
# Velocity S-wave (km/s) = 3.91905 4.57379 4.25902
# Velocity P-wave (km/s) = 5.86219 7.47754 6.71859
#
# Compressibility (1/GPa) = 0.03664864
#
# Stress axis : x y z
#
# Youngs Moduli (GPa) = 102.19060 37.16984 88.15280
#
# Poissons Ratio (x) = 0.23450 0.39728
# Poissons Ratio (y) = 0.64470 -0.45163
# Poissons Ratio (z) = 0.46054 -0.19043
#
# Static dielectric constant tensor:
#      x y z
#    x 1.650160 0.025490 0.021100 
#    y 0.025490 1.718630 -0.040170 
#    z 0.021100 -0.040170 1.646370 
# 
# From -- ./inp_files/298480.got.cif
#   From: 2010.05.17/outbox.cif.g08.bks.cpg/sg2_150_cif.got.tgz:298480.got - 2010.06.03 11:33:40.
