data_PCOD9066197
_publ_section_title
;
Structure prediction by ZEFSAII (Michael W. Deem and Ramdas Pophale) SiO2 
 PCOD9066197
Probable space group: P -1
;
_chemical_formula_sum "Si O2"
_cell_formula_units_Z 14
_cell_length_a 19.854899
_cell_length_b 14.419652
_cell_length_c 5.638549
_cell_angle_alpha 82.560674
_cell_angle_beta 98.466994
_cell_angle_gamma 161.193681
_cell_volume 514.488404
_symmetry_space_group_name_H-M "P -1"
_symmetry_group_IT_number 2
_symmetry_cell_setting 'triclinic'
loop_
_space_group_symop_operation_xyz
x,y,z
-x,-y,-z
loop_
_atom_site_type_symbol
_atom_site_label
_atom_site_fract_x
_atom_site_fract_y
_atom_site_fract_z
Si Si1 0.270062 0.406095 0.400557
Si Si2 0.680908 0.981531 0.130038
Si Si3 0.438850 0.335156 0.195303
Si Si4 0.378594 0.910834 0.204566
Si Si5 0.044868 0.451361 0.515444
Si Si6 0.939908 0.042075 0.724509
Si Si7 0.804953 0.488315 0.069410
O O1 0.469507 0.713936 0.272972
O O2 0.376379 0.471137 0.620577
O O3 0.102611 0.249928 0.516749
O O4 0.150710 0.179713 0.237567
O O5 0.633378 0.843197 0.952532
O O6 0.879604 0.205084 0.312834
O O7 0.730051 0.146290 0.983352
O O8 0.500000 0.500000 0.000000
O O9 0.260389 0.148891 0.333321
O O10 0.284869 0.772481 0.456575
O O11 0.610175 0.251888 0.221088
O O12 0.316785 0.730713 0.115581
O O13 0.041478 0.385395 0.766506
O O14 0.000000 0.500000 0.500000
O O15 0.065165 0.247707 0.948911
#
# Coordination Sequence:
#
# PCOD9066197 Si02
#       7
#     2   2   2   2   2   2   2
#     4  11  27  50  71 111 149 191 244 303 369 426
#     4  12  26  46  78 105 148 193 243 304 362 437
#     4  12  26  46  74 109 146 193 245 296 358 442
#     4  11  26  47  69 107 142 188 243 297 364 433
#     4  12  26  42  73 104 143 187 236 297 367 422
#     4  11  25  48  75 103 150 192 239 299 365 432
#     4  11  25  45  71 103 142 190 239 296 361 437
#
# _framework density 27.211499
#
# number of rings (size 3 to 8) (size 9 to 14) (size 15 to 20)
#    0.000    0.571    2.857    3.857    8.000    2.857 
#    5.143    0.000    0.000    0.000    0.000    0.000 
#    0.000    0.000    0.000    0.000    0.000    0.000 
#
# Total GULP energy -78310.423011 kJ/mol
# GULP energy per Si atom -5593.601644 kJ/mol
# Density = 2.714956 g / cm^3
# Si number density = 27.211499 Si / 1000 Ang^3
#
#
#
# Elastic Constant Matrix: (Units=GPa)
#
#
# Indices 1 2 3 4 5 6 
#
# 1 140.7090 45.8371 52.0288 1.5086 -6.7286 -11.6663
# 2 45.8371 124.0925 26.5833 3.6749 -5.6993 -8.4400
# 3 52.0288 26.5833 62.1762 1.8676 8.3291 -14.4012
# 4 1.5086 3.6749 1.8676 63.3721 -2.7359 -16.6430
# 5 -6.7286 -5.6993 8.3291 -2.7359 48.4014 -2.2284
# 6 -11.6663 -8.4400 -14.4012 -16.6430 -2.2284 68.4088
#
#
#
# Elastic Compliance Matrix: (Units=1/GPa)
#
#
# Indices 1 2 3 4 5 6 
#
# 1 0.011207 -0.002119 -0.008877 0.000222 0.002845 -0.000072
# 2 -0.002119 0.009428 -0.002348 -0.000303 0.001215 0.000273
# 3 -0.008877 -0.002348 0.026114 0.000264 -0.005825 0.003568
# 4 0.000222 -0.000303 0.000264 0.016938 0.001101 0.004213
# 5 0.002845 0.001215 -0.005825 0.001101 0.022282 0.000403
# 6 -0.000072 0.000273 0.003568 0.004213 0.000403 0.016429
#
#
# Mechanical properties :
#
#
# Convention : Reuss Voigt Hill
#
# Bulk Modulus (GPa) = 49.84645 63.98623 56.91634
# Shear Modulus (GPa) = 36.82645 49.53837 43.18241
#
# Velocity S-wave (km/s) = 3.68277 4.27135 3.98794
# Velocity P-wave (km/s) = 6.03669 6.92036 6.49358
#
# Compressibility (1/GPa) = 0.02006161
#
# Stress axis : x y z
#
# Youngs Moduli (GPa) = 89.22970 106.07235 38.29355
#
# Poissons Ratio (x) = 0.22475 0.33992
# Poissons Ratio (y) = 0.18907 0.08991
# Poissons Ratio (z) = 0.79206 0.24906
#
# Static dielectric constant tensor:
#      x y z
#    x -58.065730 -59.109600 -31.110420 
#    y -59.109600 -56.056720 -30.571950 
#    z -31.110420 -30.571950 -13.820130 
# 
# From -- ./inp_files/119441.got.cif
#   From: 2010.05.17/outbox.cif.g08.bks.cpg/sg2_60_cif.got.tgz:119441.got - 2010.06.03 11:33:40.
