data_PCOD9066428
_publ_section_title
;
Structure prediction by ZEFSAII (Michael W. Deem and Ramdas Pophale) SiO2 
 PCOD9066428
Probable space group: P -1
;
_chemical_formula_sum "Si O2"
_cell_formula_units_Z 12
_cell_length_a 11.165068
_cell_length_b 13.415277
_cell_length_c 13.038601
_cell_angle_alpha 21.047231
_cell_angle_beta 45.906071
_cell_angle_gamma 44.601944
_cell_volume 488.675207
_symmetry_space_group_name_H-M "P -1"
_symmetry_group_IT_number 2
_symmetry_cell_setting 'triclinic'
loop_
_space_group_symop_operation_xyz
x,y,z
-x,-y,-z
loop_
_atom_site_type_symbol
_atom_site_label
_atom_site_fract_x
_atom_site_fract_y
_atom_site_fract_z
Si Si1 0.110245 0.013551 0.524137
Si Si2 0.293486 0.935662 0.872047
Si Si3 0.961208 0.598036 0.123617
Si Si4 0.577189 0.697644 0.191954
Si Si5 0.512640 0.399167 0.312755
Si Si6 0.020879 0.712009 0.375708
O O1 0.300536 0.814171 0.600809
O O2 0.000000 0.000000 0.500000
O O3 0.103145 0.343946 0.229949
O O4 0.010923 0.894632 0.789425
O O5 0.386557 0.185684 0.606618
O O6 0.161349 0.054910 0.744112
O O7 0.427106 0.636005 0.051672
O O8 0.172059 0.858914 0.108819
O O9 0.781734 0.625557 0.146708
O O10 0.944266 0.484052 0.356675
O O11 0.500000 0.500000 0.500000
O O12 0.524716 0.617768 0.187873
O O13 0.500000 0.000000 0.000000
O O14 0.000000 0.500000 0.500000
#
# Coordination Sequence:
#
# PCOD9066428 Si02
#       6
#     2   2   2   2   2   2
#     4  12  27  50  73 104 152 204 243 299 361 444
#     4  11  25  45  78 107 146 192 246 303 380 431
#     4  12  28  47  74 108 145 200 251 290 376 445
#     4  12  26  41  70 111 148 179 241 309 374 436
#     4  12  25  45  75 107 148 196 246 308 364 435
#     4  11  26  49  77 107 153 194 241 311 383 433
#
# _framework density 24.556187000000001
#
# number of rings (size 3 to 8) (size 9 to 14) (size 15 to 20)
#    0.000    0.333    3.333    4.500    9.333    0.000 
#    0.000    5.000    0.000    0.000    0.000    0.000 
#    0.000    0.000    0.000    0.000    0.000    0.000 
#
# Total GULP energy -67190.186893 kJ/mol
# GULP energy per Si atom -5599.182241 kJ/mol
# Density = 2.450030 g / cm^3
# Si number density = 24.556187 Si / 1000 Ang^3
#
#
#
# Elastic Constant Matrix: (Units=GPa)
#
#
# Indices 1 2 3 4 5 6 
#
# 1 128.8954 34.4306 50.4295 8.4437 -6.6883 -30.2219
# 2 34.4306 71.7209 26.3429 -27.1393 -14.4909 -34.6037
# 3 50.4295 26.3429 160.0271 -9.8798 -12.0332 -9.2977
# 4 8.4437 -27.1393 -9.8798 53.4048 -4.7485 7.3783
# 5 -6.6883 -14.4909 -12.0332 -4.7485 36.0585 -3.0384
# 6 -30.2219 -34.6037 -9.2977 7.3783 -3.0384 52.7059
#
#
#
# Elastic Compliance Matrix: (Units=1/GPa)
#
#
# Indices 1 2 3 4 5 6 
#
# 1 0.011370 -0.005149 -0.002992 -0.005550 -0.001411 0.003307
# 2 -0.005149 0.036307 -0.000821 0.018000 0.017351 0.019220
# 3 -0.002992 -0.000821 0.007505 0.001749 0.001759 -0.001074
# 4 -0.005550 0.018000 0.001749 0.029304 0.011109 0.005482
# 5 -0.001411 0.017351 0.001759 0.011109 0.037463 0.011498
# 6 0.003307 0.019220 -0.001074 0.005482 0.011498 0.033194
#
#
# Mechanical properties :
#
#
# Convention : Reuss Voigt Hill
#
# Bulk Modulus (GPa) = 26.84092 64.78324 45.81208
# Shear Modulus (GPa) = 26.95621 45.06321 36.00971
#
# Velocity S-wave (km/s) = 3.31680 4.28846 3.83354
# Velocity P-wave (km/s) = 5.06186 7.13864 6.18799
#
# Compressibility (1/GPa) = 0.03725654
#
# Stress axis : x y z
#
# Youngs Moduli (GPa) = 87.95068 27.54307 133.24702
#
# Poissons Ratio (x) = 0.14183 0.39868
# Poissons Ratio (y) = 0.45288 0.10943
# Poissons Ratio (z) = 0.26315 0.02262
#
# Static dielectric constant tensor:
#      x y z
#    x 1.782820 -0.068860 0.056330 
#    y -0.068860 1.988470 -0.025070 
#    z 0.056330 -0.025070 1.899050 
# 
# From -- ./inp_files/444560.got.cif
#   From: 2010.05.17/outbox.cif.g08.bks.cpg/sg2_223_cif.got.tgz:444560.got - 2010.06.03 11:33:40.
