data_PCOD9066748
_publ_section_title
;
Structure prediction by ZEFSAII (Michael W. Deem and Ramdas Pophale) SiO2 
 PCOD9066748
Probable space group: P -1
;
_chemical_formula_sum "Si O2"
_cell_formula_units_Z 16
_cell_length_a 11.842568
_cell_length_b 12.905435
_cell_length_c 9.056830
_cell_angle_alpha 51.264766
_cell_angle_beta 58.451250
_cell_angle_gamma 93.340861
_cell_volume 749.449778
_symmetry_space_group_name_H-M "P -1"
_symmetry_group_IT_number 2
_symmetry_cell_setting 'triclinic'
loop_
_space_group_symop_operation_xyz
x,y,z
-x,-y,-z
loop_
_atom_site_type_symbol
_atom_site_label
_atom_site_fract_x
_atom_site_fract_y
_atom_site_fract_z
Si Si1 0.121148 0.727323 0.100796
Si Si2 0.483777 0.376474 0.238755
Si Si3 0.545953 0.599915 0.228687
Si Si4 0.841212 0.950964 0.242557
Si Si5 0.604161 0.171255 0.359044
Si Si6 0.825863 0.958594 0.609059
Si Si7 0.657764 0.134820 0.676466
Si Si8 0.772164 0.408222 0.592131
O O1 0.195599 0.675916 0.221104
O O2 0.929971 0.594872 0.328831
O O3 0.206563 0.737490 0.881366
O O4 0.178568 0.910535 0.924839
O O5 0.584235 0.493832 0.198504
O O6 0.300905 0.234195 0.536119
O O7 0.553067 0.278794 0.225706
O O8 0.500000 0.500000 0.000000
O O9 0.500000 0.500000 0.500000
O O10 0.387905 0.593035 0.291268
O O11 0.693963 0.786146 0.932936
O O12 0.831215 0.953891 0.428012
O O13 0.000000 0.000000 0.000000
O O14 0.581400 0.153186 0.564343
O O15 0.500000 0.000000 0.500000
O O16 0.769253 0.072952 0.603478
O O17 0.000000 0.000000 0.500000
O O18 0.753850 0.302095 0.555846
O O19 0.500000 0.000000 0.000000
#
# Coordination Sequence:
#
# PCOD9066748 Si02
#       8
#     2   2   2   2   2   2   2   2
#     4  11  25  46  75 106 147 193 256 323 371 458
#     4  12  25  44  75 108 144 193 253 307 379 453
#     4  12  27  47  72 107 154 199 246 313 382 459
#     4  12  27  48  75 106 149 200 248 316 389 450
#     4  12  24  44  74 104 145 195 248 307 376 452
#     4  12  29  48  72 113 156 197 259 320 378 465
#     4  12  25  46  76 106 147 201 248 307 389 459
#     4  11  26  46  74 109 148 195 262 312 385 456
#
# _framework density 21.348997000000001
#
# number of rings (size 3 to 8) (size 9 to 14) (size 15 to 20)
#    0.000    0.250    5.000    3.000    5.250    2.500 
#    0.000    0.000    0.000    0.000    0.000    0.000 
#    0.000    0.000    0.000    0.000    0.000    0.000 
#
# Total GULP energy -89266.813628 kJ/mol
# GULP energy per Si atom -5579.175852 kJ/mol
# Density = 2.130041 g / cm^3
# Si number density = 21.348997 Si / 1000 Ang^3
#
#
#
# Elastic Constant Matrix: (Units=GPa)
#
#
# Indices 1 2 3 4 5 6 
#
# 1 103.8294 17.4669 55.9865 -10.7611 -9.1601 -15.2459
# 2 17.4669 95.0051 22.4737 -14.3785 8.0871 -10.9556
# 3 55.9865 22.4737 144.4083 -14.0746 3.1619 -13.3132
# 4 -10.7611 -14.3785 -14.0746 45.9851 -2.7083 3.5979
# 5 -9.1601 8.0871 3.1619 -2.7083 41.2952 8.4797
# 6 -15.2459 -10.9556 -13.3132 3.5979 8.4797 42.9940
#
#
#
# Elastic Compliance Matrix: (Units=1/GPa)
#
#
# Indices 1 2 3 4 5 6 
#
# 1 0.013041 -0.001120 -0.004621 0.001299 0.003102 0.002188
# 2 -0.001120 0.011915 -0.000831 0.002827 -0.002890 0.002715
# 3 -0.004621 -0.000831 0.009117 0.001253 -0.001726 0.001208
# 4 0.001299 0.002827 0.001253 0.023446 0.001310 -0.000652
# 5 0.003102 -0.002890 -0.001726 0.001310 0.026832 -0.005573
# 6 0.002188 0.002715 0.001208 -0.000652 -0.005573 0.026255
#
#
# Mechanical properties :
#
#
# Convention : Reuss Voigt Hill
#
# Bulk Modulus (GPa) = 47.78057 59.45522 53.61790
# Shear Modulus (GPa) = 38.24789 42.54256 40.39522
#
# Velocity S-wave (km/s) = 4.23727 4.46883 4.35459
# Velocity P-wave (km/s) = 6.80945 7.38491 7.10301
#
# Compressibility (1/GPa) = 0.02092901
#
# Stress axis : x y z
#
# Youngs Moduli (GPa) = 76.68181 83.92684 109.68370
#
# Poissons Ratio (x) = 0.09397 0.50688
# Poissons Ratio (y) = 0.08586 0.09116
# Poissons Ratio (z) = 0.35437 0.06975
#
# Static dielectric constant tensor:
#      x y z
#    x 1.781610 -0.014970 -0.016080 
#    y -0.014970 1.797120 0.031390 
#    z -0.016080 0.031390 1.733990 
# 
# From -- ./inp_files/261539.got.cif
#   From: 2010.05.17/outbox.cif.g08.bks.cpg/sg2_131_cif.got.tgz:261539.got - 2010.06.03 11:33:40.
