data_PCOD9066614
_publ_section_title
;
Structure prediction by ZEFSAII (Michael W. Deem and Ramdas Pophale) SiO2 
 PCOD9066614
Probable space group: P -1
;
_chemical_formula_sum "Si O2"
_cell_formula_units_Z 16
_cell_length_a 19.906502
_cell_length_b 11.814252
_cell_length_c 8.215091
_cell_angle_alpha 72.859737
_cell_angle_beta 44.916473
_cell_angle_gamma 37.970734
_cell_volume 667.240436
_symmetry_space_group_name_H-M "P -1"
_symmetry_group_IT_number 2
_symmetry_cell_setting 'triclinic'
loop_
_space_group_symop_operation_xyz
x,y,z
-x,-y,-z
loop_
_atom_site_type_symbol
_atom_site_label
_atom_site_fract_x
_atom_site_fract_y
_atom_site_fract_z
Si Si1 0.181260 0.535825 0.654984
Si Si2 0.856770 0.389867 0.931105
Si Si3 0.258015 0.035817 0.423574
Si Si4 0.307832 0.673564 0.845330
Si Si5 0.579785 0.539754 0.911717
Si Si6 0.704166 0.765663 0.830994
Si Si7 0.545609 0.052526 0.274114
Si Si8 0.766813 0.981494 0.152714
O O1 0.263318 0.572083 0.428857
O O2 0.351075 0.273151 0.419172
O O3 0.183634 0.523657 0.852140
O O4 0.977694 0.712951 0.875192
O O5 0.077555 0.155031 0.634073
O O6 0.791108 0.325173 0.079411
O O7 0.768138 0.566597 0.863113
O O8 0.305362 0.968493 0.561875
O O9 0.187476 0.248464 0.446709
O O10 0.421323 0.807104 0.124506
O O11 0.500000 0.500000 0.500000
O O12 0.207837 0.904853 0.940554
O O13 0.333364 0.590003 0.012411
O O14 0.500000 0.500000 0.000000
O O15 0.697708 0.840601 0.982897
O O16 0.500000 0.000000 0.000000
O O17 0.500000 0.000000 0.500000
O O18 0.622722 0.084054 0.225534
#
# Coordination Sequence:
#
# PCOD9066614 Si02
#       8
#     2   2   2   2   2   2   2   2
#     4  11  26  46  71 109 144 190 248 299 364 430
#     4  11  26  47  72 105 142 193 247 297 366 434
#     4  11  25  46  72 108 142 190 246 304 360 437
#     4  12  25  45  75 101 146 191 239 300 363 439
#     4  12  25  43  69 105 146 192 242 296 367 430
#     4  12  25  46  73 105 146 191 244 300 365 438
#     4  12  24  46  75 103 148 191 240 303 366 433
#     4  11  27  48  74 109 144 195 248 296 370 433
#
# _framework density 23.979361000000001
#
# number of rings (size 3 to 8) (size 9 to 14) (size 15 to 20)
#    0.000    0.500    3.750    4.125    1.750    3.000 
#    2.250    0.000    0.000    0.000    0.000    0.000 
#    0.000    0.000    0.000    0.000    0.000    0.000 
#
# Total GULP energy -89281.223266 kJ/mol
# GULP energy per Si atom -5580.076454 kJ/mol
# Density = 2.392478 g / cm^3
# Si number density = 23.979361 Si / 1000 Ang^3
#
#
#
# Elastic Constant Matrix: (Units=GPa)
#
#
# Indices 1 2 3 4 5 6 
#
# 1 60.6676 0.1014 6.4018 12.6322 3.3356 8.3264
# 2 0.1014 67.8959 18.1068 -16.2046 19.9896 4.6611
# 3 6.4018 18.1068 94.2485 2.1151 -2.7659 -7.0718
# 4 12.6322 -16.2046 2.1151 41.5792 -1.6457 -1.4257
# 5 3.3356 19.9896 -2.7659 -1.6457 25.4498 -4.8296
# 6 8.3264 4.6611 -7.0718 -1.4257 -4.8296 36.6170
#
#
#
# Elastic Compliance Matrix: (Units=1/GPa)
#
#
# Indices 1 2 3 4 5 6 
#
# 1 0.018905 0.000951 -0.001907 -0.005663 -0.004870 -0.005651
# 2 0.000951 0.025323 -0.006294 0.008805 -0.021486 -0.007146
# 3 -0.001907 -0.006294 0.012550 -0.002068 0.007285 0.004539
# 4 -0.005663 0.008805 -0.002068 0.029142 -0.004455 0.000315
# 5 -0.004870 -0.021486 0.007285 -0.004455 0.059770 0.012959
# 6 -0.005651 -0.007146 0.004539 0.000315 0.012959 0.032102
#
#
# Mechanical properties :
#
#
# Convention : Reuss Voigt Hill
#
# Bulk Modulus (GPa) = 23.65285 30.22580 26.93932
# Shear Modulus (GPa) = 24.22644 33.94268 29.08456
#
# Velocity S-wave (km/s) = 3.18198 3.76639 3.48645
# Velocity P-wave (km/s) = 4.83583 5.61663 5.24079
#
# Compressibility (1/GPa) = 0.04227820
#
# Stress axis : x y z
#
# Youngs Moduli (GPa) = 52.89523 39.48926 79.68317
#
# Poissons Ratio (x) = -0.03753 0.15192
# Poissons Ratio (y) = -0.05028 0.50152
# Poissons Ratio (z) = 0.10085 0.24854
#
# Static dielectric constant tensor:
#      x y z
#    x 2.304970 0.132490 -0.100870 
#    y 0.132490 2.122350 -0.010150 
#    z -0.100870 -0.010150 1.981200 
# 
# From -- ./inp_files/346072.got.cif
#   From: 2010.05.17/outbox.cif.g08.bks.cpg/sg2_174_cif.got.tgz:346072.got - 2010.06.03 11:33:40.
