data_PCOD9066017
_publ_section_title
;
Structure prediction by ZEFSAII (Michael W. Deem and Ramdas Pophale) SiO2 
 PCOD9066017
Probable space group: P -1
;
_chemical_formula_sum "Si O2"
_cell_formula_units_Z 14
_cell_length_a 18.158579
_cell_length_b 17.993703
_cell_length_c 4.977357
_cell_angle_alpha 72.879940
_cell_angle_beta 61.850390
_cell_angle_gamma 21.631893
_cell_volume 473.764738
_symmetry_space_group_name_H-M "P -1"
_symmetry_group_IT_number 2
_symmetry_cell_setting 'triclinic'
loop_
_space_group_symop_operation_xyz
x,y,z
-x,-y,-z
loop_
_atom_site_type_symbol
_atom_site_label
_atom_site_fract_x
_atom_site_fract_y
_atom_site_fract_z
Si Si1 0.801408 0.532227 0.365861
Si Si2 0.893722 0.923146 0.307721
Si Si3 0.386011 0.395456 0.878769
Si Si4 0.323456 0.203944 0.403896
Si Si5 0.273700 0.629692 0.430341
Si Si6 0.143819 0.899507 0.135482
Si Si7 0.241972 0.130452 0.326260
O O1 0.698581 0.595455 0.196645
O O2 0.765486 0.650835 0.403045
O O3 0.084344 0.267681 0.181181
O O4 0.679069 0.583494 0.745463
O O5 0.859339 0.003985 0.012587
O O6 0.826069 0.892157 0.401868
O O7 0.118896 0.735952 0.327172
O O8 0.672009 0.151517 0.624897
O O9 0.269842 0.575311 0.754382
O O10 0.160847 0.278342 0.472462
O O11 0.500000 0.000000 0.500000
O O12 0.484779 0.097697 0.996968
O O13 0.561785 0.376041 0.143694
O O14 0.153475 0.823273 0.451967
O O15 0.000000 0.000000 0.000000
#
# Coordination Sequence:
#
# PCOD9066017 Si02
#       7
#     2   2   2   2   2   2   2
#     4  12  27  48  71 110 146 192 249 296 370 433
#     4  12  21  43  72  99 144 190 239 297 366 422
#     4  12  27  43  75 109 146 189 252 298 353 453
#     4  11  26  46  70 106 144 184 254 295 366 439
#     4   9  22  43  65 103 136 191 234 297 363 424
#     4   8  22  40  69  99 144 185 242 297 366 429
#     4  11  25  44  72 101 143 197 228 312 358 425
#
# _framework density 29.550530999999999
#
# number of rings (size 3 to 8) (size 9 to 14) (size 15 to 20)
#    0.857    0.286    2.857    2.571    6.000    2.286 
#    0.000    2.857    0.000    0.000    0.000    0.000 
#    0.000    0.000    0.000    0.000    0.000    0.000 
#
# Total GULP energy -78387.349555 kJ/mol
# GULP energy per Si atom -5599.096397 kJ/mol
# Density = 2.948327 g / cm^3
# Si number density = 29.550531 Si / 1000 Ang^3
#
#
#
# Elastic Constant Matrix: (Units=GPa)
#
#
# Indices 1 2 3 4 5 6 
#
# 1 147.3955 76.0882 56.7399 -6.6769 -3.5022 12.7815
# 2 76.0882 221.3010 28.8283 4.8454 -20.5540 16.9439
# 3 56.7399 28.8283 158.8602 -30.9465 -23.4731 -5.9794
# 4 -6.6769 4.8454 -30.9465 33.9566 1.4624 -6.4809
# 5 -3.5022 -20.5540 -23.4731 1.4624 48.7810 -5.1082
# 6 12.7815 16.9439 -5.9794 -6.4809 -5.1082 85.0869
#
#
#
# Elastic Compliance Matrix: (Units=1/GPa)
#
#
# Indices 1 2 3 4 5 6 
#
# 1 0.009683 -0.002965 -0.003520 -0.001034 -0.002356 -0.001332
# 2 -0.002965 0.005838 -0.000026 -0.001672 0.002210 -0.000714
# 3 -0.003520 -0.000026 0.009986 0.008631 0.004509 0.002164
# 4 -0.001034 -0.001672 0.008631 0.038028 0.002669 0.004151
# 5 -0.002356 0.002210 0.004509 0.002669 0.023545 0.001848
# 6 -0.001332 -0.000714 0.002164 0.004151 0.001848 0.012674
#
#
# Mechanical properties :
#
#
# Convention : Reuss Voigt Hill
#
# Bulk Modulus (GPa) = 80.10173 94.54105 87.32139
# Shear Modulus (GPa) = 42.75788 57.95826 50.35807
#
# Velocity S-wave (km/s) = 3.80799 4.43349 4.13259
# Velocity P-wave (km/s) = 6.81909 7.63350 7.23776
#
# Compressibility (1/GPa) = 0.01248412
#
# Stress axis : x y z
#
# Youngs Moduli (GPa) = 103.27758 171.29081 100.14048
#
# Poissons Ratio (x) = 0.50785 0.35249
# Poissons Ratio (y) = 0.30620 0.00265
# Poissons Ratio (z) = 0.36353 0.00453
#
# Static dielectric constant tensor:
#      x y z
#    x 2.286420 0.117440 -0.017280 
#    y 0.117440 2.334520 0.210080 
#    z -0.017280 0.210080 2.572380 
# 
# From -- ./inp_files/120274.got.cif
#   From: 2010.05.17/outbox.cif.g08.bks.cpg/sg2_61_cif.got.tgz:120274.got - 2010.06.03 11:33:40.
