data_PCOD9066578
_publ_section_title
;
Structure prediction by ZEFSAII (Michael W. Deem and Ramdas Pophale) SiO2 
 PCOD9066578
Probable space group: P -1
;
_chemical_formula_sum "Si O2"
_cell_formula_units_Z 16
_cell_length_a 15.041275
_cell_length_b 9.119867
_cell_length_c 11.715513
_cell_angle_alpha 101.867040
_cell_angle_beta 148.811076
_cell_angle_gamma 69.398129
_cell_volume 763.789191
_symmetry_space_group_name_H-M "P -1"
_symmetry_group_IT_number 2
_symmetry_cell_setting 'triclinic'
loop_
_space_group_symop_operation_xyz
x,y,z
-x,-y,-z
loop_
_atom_site_type_symbol
_atom_site_label
_atom_site_fract_x
_atom_site_fract_y
_atom_site_fract_z
Si Si1 0.594509 0.632622 0.635260
Si Si2 0.132174 0.320757 0.640099
Si Si3 0.916872 0.611211 0.142208
Si Si4 0.279666 0.971974 0.359151
Si Si5 0.721166 0.683787 0.532703
Si Si6 0.901691 0.111472 0.306332
Si Si7 0.491892 0.332780 0.921313
Si Si8 0.065249 0.087510 0.916356
O O1 0.500000 0.500000 0.500000
O O2 0.686808 0.641557 0.616993
O O3 0.455067 0.812091 0.533515
O O4 0.742347 0.584531 0.890745
O O5 0.129090 0.305135 0.771373
O O6 0.335615 0.291724 0.813574
O O7 0.000000 0.500000 0.500000
O O8 0.030588 0.216573 0.448262
O O9 0.964476 0.732945 0.127793
O O10 0.082601 0.443743 0.307324
O O11 0.293002 0.131552 0.456642
O O12 0.224276 0.021832 0.174685
O O13 0.115185 0.927683 0.227527
O O14 0.574143 0.658705 0.280624
O O15 0.891170 0.019619 0.165458
O O16 0.696615 0.210733 0.135697
O O17 0.000000 0.000000 0.500000
O O18 0.500000 0.500000 0.000000
#
# Coordination Sequence:
#
# PCOD9066578 Si02
#       8
#     2   2   2   2   2   2   2   2
#     4  12  28  43  70 110 143 184 239 295 361 428
#     4  12  25  49  72 106 145 191 244 297 362 430
#     4  12  26  46  72 101 145 185 236 302 355 431
#     4  11  26  45  73 103 140 188 235 294 359 434
#     4  12  25  46  73 102 143 187 241 292 362 427
#     4  12  26  46  73 107 144 187 241 305 359 425
#     4  12  27  45  76 104 141 195 243 292 362 433
#     4  11  25  46  72 100 145 183 238 293 365 422
#
# _framework density 20.948187999999998
#
# number of rings (size 3 to 8) (size 9 to 14) (size 15 to 20)
#    0.000    0.250    5.000    3.000    7.000    1.500 
#    0.000    0.000    0.000    0.000    0.000    0.000 
#    0.000    0.000    0.000    0.000    0.000    0.000 
#
# Total GULP energy -89557.347603 kJ/mol
# GULP energy per Si atom -5597.334225 kJ/mol
# Density = 2.090051 g / cm^3
# Si number density = 20.948188 Si / 1000 Ang^3
#
#
#
# Elastic Constant Matrix: (Units=GPa)
#
#
# Indices 1 2 3 4 5 6 
#
# 1 80.1855 21.0738 27.5989 -6.9301 8.7557 -7.3531
# 2 21.0738 132.2211 60.0164 12.6210 7.1937 -8.7059
# 3 27.5989 60.0164 149.8867 -6.5247 6.3882 -17.6168
# 4 -6.9301 12.6210 -6.5247 44.4361 -2.9446 6.0812
# 5 8.7557 7.1937 6.3882 -2.9446 42.6205 0.8442
# 6 -7.3531 -8.7059 -17.6168 6.0812 0.8442 38.8301
#
#
#
# Elastic Compliance Matrix: (Units=1/GPa)
#
#
# Indices 1 2 3 4 5 6 
#
# 1 0.013964 -0.001462 -0.001649 0.002023 -0.002261 0.001301
# 2 -0.001462 0.009975 -0.003740 -0.003804 -0.001103 0.000883
# 3 -0.001649 -0.003740 0.008867 0.001731 -0.000291 0.002607
# 4 0.002023 -0.003804 0.001731 0.024763 0.001749 -0.003601
# 5 -0.002261 -0.001103 -0.000291 0.001749 0.024310 -0.001610
# 6 0.001301 0.000883 0.002607 -0.003601 -0.001610 0.027979
#
#
# Mechanical properties :
#
#
# Convention : Reuss Voigt Hill
#
# Bulk Modulus (GPa) = 52.34127 64.40796 58.37462
# Shear Modulus (GPa) = 38.48342 42.08427 40.28385
#
# Velocity S-wave (km/s) = 4.29076 4.48702 4.38999
# Velocity P-wave (km/s) = 7.04186 7.59325 7.32275
#
# Compressibility (1/GPa) = 0.01910538
#
# Stress axis : x y z
#
# Youngs Moduli (GPa) = 71.61456 100.25262 112.77893
#
# Poissons Ratio (x) = 0.14654 0.18592
# Poissons Ratio (y) = 0.10468 0.42176
# Poissons Ratio (z) = 0.11806 0.37492
#
# Static dielectric constant tensor:
#      x y z
#    x 1.753750 0.012990 -0.000890 
#    y 0.012990 1.756890 0.005200 
#    z -0.000890 0.005200 1.705320 
# 
# From -- ./inp_files/447699.got.cif
#   From: 2010.05.17/outbox.cif.g08.bks.cpg/sg2_224_cif.got.tgz:447699.got - 2010.06.03 11:33:40.
