data_PCOD9066617
_publ_section_title
;
Structure prediction by ZEFSAII (Michael W. Deem and Ramdas Pophale) SiO2 
 PCOD9066617
Probable space group: P -1
;
_chemical_formula_sum "Si O2"
_cell_formula_units_Z 13
_cell_length_a 15.217599
_cell_length_b 19.481716
_cell_length_c 12.096161
_cell_angle_alpha 151.194952
_cell_angle_beta 29.659014
_cell_angle_gamma 161.756211
_cell_volume 524.617736
_symmetry_space_group_name_H-M "P -1"
_symmetry_group_IT_number 2
_symmetry_cell_setting 'triclinic'
loop_
_space_group_symop_operation_xyz
x,y,z
-x,-y,-z
loop_
_atom_site_type_symbol
_atom_site_label
_atom_site_fract_x
_atom_site_fract_y
_atom_site_fract_z
Si Si1 0.000000 0.500000 0.500000
Si Si2 0.318538 0.738553 0.030838
Si Si3 0.782387 0.745176 0.769811
Si Si4 0.771823 0.580095 0.775284
Si Si5 0.635206 0.904104 0.516079
Si Si6 0.660556 0.765757 0.526919
Si Si7 0.575417 0.205916 0.748186
O O1 0.967410 0.288801 0.245383
O O2 0.154275 0.582536 0.324173
O O3 0.382453 0.942956 0.223516
O O4 0.337424 0.734575 0.135348
O O5 0.525186 0.768053 0.777873
O O6 0.000000 0.500000 0.000000
O O7 0.846157 0.686982 0.725184
O O8 0.509814 0.492829 0.653335
O O9 0.067818 0.934986 0.648945
O O10 0.671683 0.829595 0.046881
O O11 0.646792 0.333809 0.578309
O O12 0.500000 0.500000 0.000000
O O13 0.610809 0.800021 0.507824
O O14 0.000000 0.000000 0.500000
O O15 0.500000 0.000000 0.500000
#
# Coordination Sequence:
#
# PCOD9066617 Si02
#       7
#     1   2   2   2   2   2   2
#     4  12  26  48  74 106 154 198 262 314 388 456
#     4  12  26  49  76 114 156 203 261 322 393 469
#     4  11  25  48  75 112 153 199 259 325 389 470
#     4  11  25  46  72 109 147 205 257 319 382 462
#     4  11  25  46  74 105 153 196 252 322 390 455
#     4  11  26  46  77 110 146 199 255 321 388 462
#     4  12  29  47  76 112 154 206 260 319 396 470
#
# _framework density 24.779947
#
# number of rings (size 3 to 8) (size 9 to 14) (size 15 to 20)
#    0.000    0.615    3.077    3.231    6.462    4.308 
#    0.000    0.000    0.000    0.000    0.000    0.000 
#    0.000    0.000    0.000    0.000    0.000    0.000 
#
# Total GULP energy -72669.009802 kJ/mol
# GULP energy per Si atom -5589.923831 kJ/mol
# Density = 2.472355 g / cm^3
# Si number density = 24.779947 Si / 1000 Ang^3
#
#
#
# Elastic Constant Matrix: (Units=GPa)
#
#
# Indices 1 2 3 4 5 6 
#
# 1 145.1636 70.9865 51.5522 -4.2334 5.1698 -15.0344
# 2 70.9865 158.7583 90.0325 4.3261 34.8148 7.3872
# 3 51.5522 90.0325 190.5859 -4.3244 -2.0989 -2.6436
# 4 -4.2334 4.3261 -4.3244 57.2994 -14.4246 3.3229
# 5 5.1698 34.8148 -2.0989 -14.4246 43.6823 -6.1596
# 6 -15.0344 7.3872 -2.6436 3.3229 -6.1596 49.0207
#
#
#
# Elastic Compliance Matrix: (Units=1/GPa)
#
#
# Indices 1 2 3 4 5 6 
#
# 1 0.010096 -0.006051 0.000296 0.002226 0.005012 0.004503
# 2 -0.006051 0.016641 -0.006615 -0.005780 -0.015661 -0.006297
# 3 0.000296 -0.006615 0.008461 0.002760 0.006869 0.002220
# 4 0.002226 -0.005780 0.002760 0.021103 0.011690 0.001741
# 5 0.005012 -0.015661 0.006869 0.011690 0.040174 0.008523
# 6 0.004503 -0.006297 0.002220 0.001741 0.008523 0.023802
#
#
# Mechanical properties :
#
#
# Convention : Reuss Voigt Hill
#
# Bulk Modulus (GPa) = 95.63476 102.18336 98.90906
# Shear Modulus (GPa) = 33.66917 48.79626 41.23271
#
# Velocity S-wave (km/s) = 3.69009 4.44236 4.08359
# Velocity P-wave (km/s) = 7.53877 8.22427 7.88897
#
# Compressibility (1/GPa) = 0.01045645
#
# Stress axis : x y z
#
# Youngs Moduli (GPa) = 99.05312 60.09182 118.18807
#
# Poissons Ratio (x) = 0.36363 -0.03498
# Poissons Ratio (y) = 0.59940 0.78186
# Poissons Ratio (z) = -0.02932 0.39753
#
# Static dielectric constant tensor:
#      x y z
#    x 2.247930 0.234380 -0.058720 
#    y 0.234380 2.150410 0.075750 
#    z -0.058720 0.075750 2.058680 
# 
# From -- ./inp_files/71061.got.cif
#   From: 2010.05.17/outbox.cif.g08.bks.cpg/sg2_36_cif.got.tgz:71061.got - 2010.06.03 11:33:40.
