data_PCOD9066103
_publ_section_title
;
Structure prediction by ZEFSAII (Michael W. Deem and Ramdas Pophale) SiO2 
 PCOD9066103
Probable space group: P -1
;
_chemical_formula_sum "Si O2"
_cell_formula_units_Z 16
_cell_length_a 11.968822
_cell_length_b 8.187932
_cell_length_c 13.248141
_cell_angle_alpha 128.755146
_cell_angle_beta 131.682626
_cell_angle_gamma 85.749074
_cell_volume 611.894020
_symmetry_space_group_name_H-M "P -1"
_symmetry_group_IT_number 2
_symmetry_cell_setting 'triclinic'
loop_
_space_group_symop_operation_xyz
x,y,z
-x,-y,-z
loop_
_atom_site_type_symbol
_atom_site_label
_atom_site_fract_x
_atom_site_fract_y
_atom_site_fract_z
Si Si1 0.231877 0.090208 0.485112
Si Si2 0.727639 0.403333 0.356041
Si Si3 0.286212 0.035623 0.921791
Si Si4 0.218751 0.695564 0.218379
Si Si5 0.772710 0.972060 0.893643
Si Si6 0.124508 0.218423 0.739852
Si Si7 0.186492 0.445265 0.306087
Si Si8 0.407439 0.759333 0.150130
O O1 0.210364 0.316952 0.537182
O O2 0.391237 0.175037 0.695765
O O3 0.278716 0.988200 0.376196
O O4 0.038741 0.834457 0.306787
O O5 0.784567 0.431969 0.518862
O O6 0.786573 0.253444 0.265832
O O7 0.505212 0.215950 0.141524
O O8 0.243060 0.152150 0.848932
O O9 0.198699 0.047056 0.977323
O O10 0.266084 0.633059 0.330641
O O11 0.321775 0.674799 0.178799
O O12 0.000000 0.500000 0.000000
O O13 0.616332 0.020223 0.810065
O O14 0.734685 0.725914 0.718491
O O15 0.965920 0.230977 0.073619
O O16 0.265482 0.509951 0.900010
O O17 0.000000 0.000000 0.500000
#
# Coordination Sequence:
#
# PCOD9066103 Si02
#       8
#     2   2   2   2   2   2   2   2
#     4  12  27  47  76 105 146 197 242 300 372 435
#     4  11  27  48  73 109 146 196 248 300 368 446
#     4  11  27  49  73 106 154 189 245 310 364 438
#     4  12  24  46  75 109 151 191 244 307 365 439
#     4  11  25  45  73 108 145 192 243 302 367 437
#     4  12  28  48  76 106 146 195 248 303 364 439
#     4  11  25  44  76 107 143 193 248 295 369 439
#     4  12  26  49  73 111 148 192 248 304 368 439
#
# _framework density 26.148316000000001
#
# number of rings (size 3 to 8) (size 9 to 14) (size 15 to 20)
#    0.000    0.500    3.750    2.625    8.750    3.000 
#    0.000    0.000    0.000    0.000    0.000    0.000 
#    0.000    0.000    0.000    0.000    0.000    0.000 
#
# Total GULP energy -89747.591232 kJ/mol
# GULP energy per Si atom -5609.224452 kJ/mol
# Density = 2.608880 g / cm^3
# Si number density = 26.148316 Si / 1000 Ang^3
#
#
#
# Elastic Constant Matrix: (Units=GPa)
#
#
# Indices 1 2 3 4 5 6 
#
# 1 48.9107 -3.0661 5.8616 6.0735 -17.9380 -2.8766
# 2 -3.0661 82.2344 -2.5791 -9.8451 -6.0992 -8.4368
# 3 5.8616 -2.5791 116.6477 -0.9307 -5.0236 -7.8219
# 4 6.0735 -9.8451 -0.9307 40.1813 -3.8892 -10.1572
# 5 -17.9380 -6.0992 -5.0236 -3.8892 51.2944 -1.4884
# 6 -2.8766 -8.4368 -7.8219 -10.1572 -1.4884 38.3817
#
#
#
# Elastic Compliance Matrix: (Units=1/GPa)
#
#
# Indices 1 2 3 4 5 6 
#
# 1 0.024063 0.001434 -0.000714 -0.002043 0.008412 0.001759
# 2 0.001434 0.013426 0.000675 0.004477 0.002634 0.004483
# 3 -0.000714 0.000675 0.008818 0.001120 0.000844 0.002221
# 4 -0.002043 0.004477 0.001120 0.028763 0.002362 0.008762
# 5 0.008412 0.002634 0.000844 0.002362 0.023096 0.002902
# 6 0.001759 0.004483 0.002221 0.008762 0.002902 0.030055
#
#
# Mechanical properties :
#
#
# Convention : Reuss Voigt Hill
#
# Bulk Modulus (GPa) = 20.36744 27.58062 23.97403
# Shear Modulus (GPa) = 35.26187 42.47656 38.86922
#
# Velocity S-wave (km/s) = 3.67622 4.03482 3.85969
# Velocity P-wave (km/s) = 5.08189 5.68128 5.38992
#
# Compressibility (1/GPa) = 0.04909796
#
# Stress axis : x y z
#
# Youngs Moduli (GPa) = 41.55749 74.48115 113.40695
#
# Poissons Ratio (x) = -0.10684 0.08092
# Poissons Ratio (y) = -0.05961 -0.07650
# Poissons Ratio (z) = 0.02965 -0.05024
#
# Static dielectric constant tensor:
#      x y z
#    x 2.107450 0.004070 -0.025290 
#    y 0.004070 2.075560 0.009970 
#    z -0.025290 0.009970 2.041500 
# 
# From -- ./inp_files/528984.got.cif
#   From: 2010.05.17/outbox.cif.g08.bks.cpg/sg2_265_cif.got.tgz:528984.got - 2010.06.03 11:33:40.
