data_PCOD9066458
_publ_section_title
;
Structure prediction by ZEFSAII (Michael W. Deem and Ramdas Pophale) SiO2 
 PCOD9066458
Probable space group: P -1
;
_chemical_formula_sum "Si O2"
_cell_formula_units_Z 13
_cell_length_a 5.182038
_cell_length_b 9.582550
_cell_length_c 13.744594
_cell_angle_alpha 128.008226
_cell_angle_beta 70.952159
_cell_angle_gamma 105.304663
_cell_volume 506.504473
_symmetry_space_group_name_H-M "P -1"
_symmetry_group_IT_number 2
_symmetry_cell_setting 'triclinic'
loop_
_space_group_symop_operation_xyz
x,y,z
-x,-y,-z
loop_
_atom_site_type_symbol
_atom_site_label
_atom_site_fract_x
_atom_site_fract_y
_atom_site_fract_z
Si Si1 0.311701 0.994642 0.926176
Si Si2 0.745512 0.095491 0.612949
Si Si3 0.273400 0.336050 0.954753
Si Si4 0.532195 0.777406 0.639641
Si Si5 0.619105 0.367859 0.602895
Si Si6 0.000000 0.500000 0.500000
Si Si7 0.895797 0.588843 0.199992
O O1 0.375746 0.833346 0.778036
O O2 0.370642 0.171957 0.930328
O O3 0.500000 0.000000 0.000000
O O4 0.000000 0.000000 0.000000
O O5 0.601481 0.177190 0.572937
O O6 0.865047 0.277339 0.728278
O O7 0.601645 0.956811 0.646001
O O8 0.000000 0.000000 0.500000
O O9 0.009143 0.409697 0.070135
O O10 0.500000 0.500000 0.000000
O O11 0.206379 0.306076 0.836906
O O12 0.350331 0.651745 0.529114
O O13 0.803527 0.680577 0.586670
O O14 0.355487 0.446927 0.710668
O O15 0.902121 0.484396 0.624031
#
# Coordination Sequence:
#
# PCOD9066458 Si02
#       7
#     2   2   2   2   2   1   2
#     4  12  33  53  80 114 162 217 269 335 407 482
#     4  12  24  45  76 113 149 193 250 326 394 470
#     4  11  27  51  80 112 153 211 270 327 390 491
#     4  12  28  48  76 108 155 201 265 320 401 473
#     4  12  25  46  72 112 148 200 248 328 393 473
#     4  12  28  44  70 108 156 200 252 320 396 468
#     4  11  25  45  83 113 149 193 267 323 400 463
#
# _framework density 25.666111999999998
#
# number of rings (size 3 to 8) (size 9 to 14) (size 15 to 20)
#    0.000    0.308    3.077    3.692   12.923    2.462 
#    0.000    0.000    0.000    0.000    0.000    0.000 
#    0.000    0.000    0.000    0.000    0.000    0.000 
#
# Total GULP energy -72668.796467 kJ/mol
# GULP energy per Si atom -5589.907421 kJ/mol
# Density = 2.560770 g / cm^3
# Si number density = 25.666112 Si / 1000 Ang^3
#
#
#
# Elastic Constant Matrix: (Units=GPa)
#
#
# Indices 1 2 3 4 5 6 
#
# 1 119.3448 41.0643 77.9913 -19.6191 -30.3492 -20.5737
# 2 41.0643 200.2399 49.0007 -9.6104 -8.0511 -15.6158
# 3 77.9913 49.0007 184.0362 -25.6154 -24.6019 -5.8986
# 4 -19.6191 -9.6104 -25.6154 25.2863 -0.0988 -5.2640
# 5 -30.3492 -8.0511 -24.6019 -0.0988 51.3032 -7.4922
# 6 -20.5737 -15.6158 -5.8986 -5.2640 -7.4922 54.1227
#
#
#
# Elastic Compliance Matrix: (Units=1/GPa)
#
#
# Indices 1 2 3 4 5 6 
#
# 1 0.016554 -0.000985 -0.003890 0.010190 0.008933 0.007812
# 2 -0.000985 0.005548 -0.000928 0.000652 0.000018 0.001191
# 3 -0.003890 -0.000928 0.008204 0.004910 0.001472 -0.000171
# 4 0.010190 0.000652 0.004910 0.055082 0.010251 0.011373
# 5 0.008933 0.000018 0.001472 0.010251 0.026710 0.008256
# 6 0.007812 0.001191 -0.000171 0.011373 0.008256 0.024020
#
#
# Mechanical properties :
#
#
# Convention : Reuss Voigt Hill
#
# Bulk Modulus (GPa) = 53.48092 93.30374 73.39233
# Shear Modulus (GPa) = 32.47630 48.51342 40.49486
#
# Velocity S-wave (km/s) = 3.56102 4.35233 3.97641
# Velocity P-wave (km/s) = 6.14737 7.85422 7.05263
#
# Compressibility (1/GPa) = 0.01869826
#
# Stress axis : x y z
#
# Youngs Moduli (GPa) = 60.40984 180.24084 121.89076
#
# Poissons Ratio (x) = 0.17761 0.47415
# Poissons Ratio (y) = 0.05953 0.11316
# Poissons Ratio (z) = 0.23499 0.16734
#
# Static dielectric constant tensor:
#      x y z
#    x 2.390950 0.144520 0.100020 
#    y 0.144520 2.111890 -0.030270 
#    z 0.100020 -0.030270 2.066170 
# 
# From -- ./inp_files/130625.got.cif
#   From: 2010.05.17/outbox.cif.g08.bks.cpg/sg2_66_cif.got.tgz:130625.got - 2010.06.03 11:33:40.
