data_PCOD9066090
_publ_section_title
;
Structure prediction by ZEFSAII (Michael W. Deem and Ramdas Pophale) SiO2 
 PCOD9066090
Probable space group: P -1
;
_chemical_formula_sum "Si O2"
_cell_formula_units_Z 15
_cell_length_a 12.553323
_cell_length_b 21.614569
_cell_length_c 9.063279
_cell_angle_alpha 141.482868
_cell_angle_beta 40.396117
_cell_angle_gamma 153.097352
_cell_volume 674.928504
_symmetry_space_group_name_H-M "P -1"
_symmetry_group_IT_number 2
_symmetry_cell_setting 'triclinic'
loop_
_space_group_symop_operation_xyz
x,y,z
-x,-y,-z
loop_
_atom_site_type_symbol
_atom_site_label
_atom_site_fract_x
_atom_site_fract_y
_atom_site_fract_z
Si Si1 0.588808 0.140922 0.596964
Si Si2 0.841658 0.693317 0.358805
Si Si3 0.272252 0.268483 0.909838
Si Si4 0.252292 0.168850 0.064634
Si Si5 0.092979 0.440043 0.722190
Si Si6 0.657233 0.011264 0.734316
Si Si7 0.000000 0.000000 0.500000
Si Si8 0.413520 0.546428 0.323548
O O1 0.870364 0.280759 0.589800
O O2 0.500000 0.000000 0.500000
O O3 0.507249 0.097606 0.432293
O O4 0.454700 0.174609 0.878391
O O5 0.781236 0.767224 0.650536
O O6 0.798298 0.581944 0.305748
O O7 0.660680 0.614965 0.265870
O O8 0.120593 0.823453 0.256604
O O9 0.504354 0.354821 0.719563
O O10 0.053230 0.115348 0.777151
O O11 0.302686 0.247471 0.005303
O O12 0.256715 0.381153 0.138557
O O13 0.000000 0.000000 0.000000
O O14 0.278819 0.544421 0.590306
O O15 0.000000 0.500000 0.000000
O O16 0.793534 0.976133 0.590998
O O17 0.500000 0.000000 0.000000
#
# Coordination Sequence:
#
# PCOD9066090 Si02
#       8
#     2   2   2   2   2   2   1   2
#     4  12  26  48  71 112 150 188 252 316 382 437
#     4  12  24  49  71 106 143 196 253 300 375 456
#     4  11  25  44  75 107 139 187 255 305 364 442
#     4  12  23  45  77 105 139 193 250 306 369 446
#     4  12  27  45  71 108 149 195 242 310 379 447
#     4  12  28  45  75 111 149 193 243 321 373 444
#     4  12  24  50  76 108 148 196 258 300 384 440
#     4  11  26  47  75 104 145 199 243 306 374 457
#
# _framework density 22.224575000000002
#
# number of rings (size 3 to 8) (size 9 to 14) (size 15 to 20)
#    0.000    0.267    6.667    1.200    3.733    2.133 
#    0.000    0.667    0.000    0.000    0.000    0.000 
#    0.000    0.000    0.000    0.000    0.000    0.000 
#
# Total GULP energy -83710.613656 kJ/mol
# GULP energy per Si atom -5580.707577 kJ/mol
# Density = 2.217399 g / cm^3
# Si number density = 22.224575 Si / 1000 Ang^3
#
#
#
# Elastic Constant Matrix: (Units=GPa)
#
#
# Indices 1 2 3 4 5 6 
#
# 1 102.3114 23.4295 37.5071 1.5310 7.8880 3.2264
# 2 23.4295 70.6447 22.6319 -15.4912 17.5932 -8.9702
# 3 37.5071 22.6319 127.9622 -7.3950 21.9946 -15.3881
# 4 1.5310 -15.4912 -7.3950 49.0211 0.6295 12.8995
# 5 7.8880 17.5932 21.9946 0.6295 27.2956 10.1128
# 6 3.2264 -8.9702 -15.3881 12.8995 10.1128 37.6601
#
#
#
# Elastic Compliance Matrix: (Units=1/GPa)
#
#
# Indices 1 2 3 4 5 6 
#
# 1 0.012204 -0.004763 -0.004180 -0.001344 0.004677 -0.004683
# 2 -0.004763 0.021909 0.002078 0.005095 -0.018088 0.009587
# 3 -0.004180 0.002078 0.012093 0.000349 -0.013310 0.009249
# 4 -0.001344 0.005095 0.000349 0.023780 -0.001390 -0.006301
# 5 0.004677 -0.018088 -0.013310 -0.001390 0.068054 -0.027946
# 6 -0.004683 0.009587 0.009249 -0.006301 -0.027946 0.042679
#
#
# Mechanical properties :
#
#
# Convention : Reuss Voigt Hill
#
# Bulk Modulus (GPa) = 30.79202 52.00615 41.39909
# Shear Modulus (GPa) = 24.35778 37.28537 30.82157
#
# Velocity S-wave (km/s) = 3.31416 4.10037 3.72805
# Velocity P-wave (km/s) = 5.34134 6.77263 6.09911
#
# Compressibility (1/GPa) = 0.03247594
#
# Stress axis : x y z
#
# Youngs Moduli (GPa) = 81.93886 45.64407 82.69564
#
# Poissons Ratio (x) = 0.21739 0.34563
# Poissons Ratio (y) = 0.39026 -0.17181
# Poissons Ratio (z) = 0.34247 -0.09483
#
# Static dielectric constant tensor:
#      x y z
#    x 1.801840 -0.006850 0.006830 
#    y -0.006850 1.864780 -0.007340 
#    z 0.006830 -0.007340 1.814000 
# 
# From -- ./inp_files/282425.got.cif
#   From: 2010.05.17/outbox.cif.g08.bks.cpg/sg2_142_cif.got.tgz:282425.got - 2010.06.03 11:33:40.
