data_PCOD9066764
_publ_section_title
;
Structure prediction by ZEFSAII (Michael W. Deem and Ramdas Pophale) SiO2 
 PCOD9066764
Probable space group: P -1
;
_chemical_formula_sum "Si O2"
_cell_formula_units_Z 16
_cell_length_a 11.992917
_cell_length_b 8.619665
_cell_length_c 9.006153
_cell_angle_alpha 65.605203
_cell_angle_beta 128.268367
_cell_angle_gamma 101.461019
_cell_volume 663.568580
_symmetry_space_group_name_H-M "P -1"
_symmetry_group_IT_number 2
_symmetry_cell_setting 'triclinic'
loop_
_space_group_symop_operation_xyz
x,y,z
-x,-y,-z
loop_
_atom_site_type_symbol
_atom_site_label
_atom_site_fract_x
_atom_site_fract_y
_atom_site_fract_z
Si Si1 0.652339 0.765854 0.167040
Si Si2 0.698659 0.093686 0.609210
Si Si3 0.666747 0.122096 0.218430
Si Si4 0.207860 0.395221 0.401498
Si Si5 0.747767 0.734213 0.934104
Si Si6 0.052141 0.831537 0.702338
Si Si7 0.553827 0.643041 0.596181
Si Si8 0.934283 0.243297 0.920975
O O1 0.932833 0.698322 0.642303
O O2 0.676418 0.939408 0.210717
O O3 0.487298 0.785620 0.979659
O O4 0.744343 0.748905 0.101302
O O5 0.685214 0.096717 0.419874
O O6 0.580637 0.228351 0.529643
O O7 0.855092 0.140376 0.771781
O O8 0.678318 0.915074 0.742621
O O9 0.794776 0.222704 0.219404
O O10 0.500000 0.500000 0.500000
O O11 0.298553 0.396047 0.626587
O O12 0.316094 0.292326 0.419948
O O13 0.158217 0.575306 0.217109
O O14 0.640677 0.600080 0.836354
O O15 0.907579 0.715851 0.011112
O O16 0.066805 0.851278 0.884320
O O17 0.000000 0.000000 0.500000
#
# Coordination Sequence:
#
# PCOD9066764 Si02
#       8
#     2   2   2   2   2   2   2   2
#     4  11  26  46  75 112 157 203 263 329 387 453
#     4  12  26  48  81 116 153 207 269 323 388 471
#     4  11  25  46  75 115 153 204 265 329 382 455
#     4  12  27  49  76 111 164 209 254 324 405 464
#     4  12  26  48  80 115 153 205 270 323 383 474
#     4  12  25  47  77 114 154 208 263 321 384 468
#     4  12  26  50  78 112 159 206 259 326 396 469
#     4  12  28  50  77 115 159 208 260 324 398 472
#
# _framework density 24.112053
#
# number of rings (size 3 to 8) (size 9 to 14) (size 15 to 20)
#    0.000    0.250    5.000    3.375    7.000    0.500 
#    0.000    1.250    0.000    0.000    0.000    0.000 
#    0.000    0.000    0.000    0.000    0.000    0.000 
#
# Total GULP energy -89602.371132 kJ/mol
# GULP energy per Si atom -5600.148196 kJ/mol
# Density = 2.405717 g / cm^3
# Si number density = 24.112053 Si / 1000 Ang^3
#
#
#
# Elastic Constant Matrix: (Units=GPa)
#
#
# Indices 1 2 3 4 5 6 
#
# 1 136.6567 26.5345 58.8547 -8.5534 -7.2896 -22.0317
# 2 26.5345 75.0398 48.8039 2.8619 -9.4186 -6.7290
# 3 58.8547 48.8039 182.8005 8.9043 -11.0738 -11.5121
# 4 -8.5534 2.8619 8.9043 34.1187 2.0551 0.7068
# 5 -7.2896 -9.4186 -11.0738 2.0551 51.6832 12.2699
# 6 -22.0317 -6.7290 -11.5121 0.7068 12.2699 37.3763
#
#
#
# Elastic Compliance Matrix: (Units=1/GPa)
#
#
# Indices 1 2 3 4 5 6 
#
# 1 0.009667 -0.001505 -0.002607 0.003175 -0.000737 0.004806
# 2 -0.001505 0.016620 -0.003769 -0.000913 0.001971 0.000314
# 3 -0.002607 -0.003769 0.007464 -0.002323 0.000658 -0.000089
# 4 0.003175 -0.000913 -0.002323 0.030869 -0.001671 0.000956
# 5 -0.000737 0.001971 0.000658 -0.001671 0.021446 -0.006885
# 6 0.004806 0.000314 -0.000089 0.000956 -0.006885 0.031859
#
#
# Mechanical properties :
#
#
# Convention : Reuss Voigt Hill
#
# Bulk Modulus (GPa) = 55.59287 73.65368 64.62328
# Shear Modulus (GPa) = 35.79515 41.98921 38.89218
#
# Velocity S-wave (km/s) = 3.85714 4.17756 4.02055
# Velocity P-wave (km/s) = 6.55308 7.34044 6.95791
#
# Compressibility (1/GPa) = 0.01798792
#
# Stress axis : x y z
#
# Youngs Moduli (GPa) = 103.44518 60.16808 133.98531
#
# Poissons Ratio (x) = 0.09057 0.34932
# Poissons Ratio (y) = 0.15571 0.50498
# Poissons Ratio (z) = 0.26969 0.22677
#
# Static dielectric constant tensor:
#      x y z
#    x 1.884840 0.029000 0.009390 
#    y 0.029000 2.012140 0.039270 
#    z 0.009390 0.039270 1.954510 
# 
# From -- ./inp_files/253245.got.cif
#   From: 2010.05.17/outbox.cif.g08.bks.cpg/sg2_127_cif.got.tgz:253245.got - 2010.06.03 11:33:40.
