data_PCOD9066624
_publ_section_title
;
Structure prediction by ZEFSAII (Michael W. Deem and Ramdas Pophale) SiO2 
 PCOD9066624
Probable space group: P -1
;
_chemical_formula_sum "Si O2"
_cell_formula_units_Z 14
_cell_length_a 5.849406
_cell_length_b 11.522438
_cell_length_c 11.743765
_cell_angle_alpha 54.598367
_cell_angle_beta 77.067159
_cell_angle_gamma 64.539721
_cell_volume 582.179441
_symmetry_space_group_name_H-M "P -1"
_symmetry_group_IT_number 2
_symmetry_cell_setting 'triclinic'
loop_
_space_group_symop_operation_xyz
x,y,z
-x,-y,-z
loop_
_atom_site_type_symbol
_atom_site_label
_atom_site_fract_x
_atom_site_fract_y
_atom_site_fract_z
Si Si1 0.054924 0.450888 0.151843
Si Si2 0.355678 0.992213 0.135450
Si Si3 0.456742 0.810791 0.835166
Si Si4 0.739464 0.303265 0.674760
Si Si5 0.711648 0.078728 0.438368
Si Si6 0.680195 0.368966 0.397261
Si Si7 0.897871 0.248695 0.930513
O O1 0.326265 0.315226 0.190657
O O2 0.049389 0.600982 0.131975
O O3 0.856576 0.393249 0.266294
O O4 0.000000 0.500000 0.000000
O O5 0.440184 0.069881 0.186612
O O6 0.396056 0.817877 0.255434
O O7 0.076592 0.101820 0.063707
O O8 0.500000 0.000000 0.000000
O O9 0.251462 0.888551 0.716902
O O10 0.372846 0.731448 0.995946
O O11 0.829638 0.323011 0.527339
O O12 0.551667 0.470762 0.643286
O O13 0.921557 0.230481 0.802639
O O14 0.598918 0.233194 0.439063
O O15 0.500000 0.000000 0.500000
O O16 0.000000 0.000000 0.500000
#
# Coordination Sequence:
#
# PCOD9066624 Si02
#       7
#     2   2   2   2   2   2   2
#     4  12  23  46  77 113 155 201 262 324 392 470
#     4  12  25  46  72 111 151 197 259 315 392 465
#     4  12  26  45  76 111 149 197 261 325 395 461
#     4  11  25  46  72 110 154 202 255 316 387 475
#     4  12  28  49  79 112 158 205 259 325 399 470
#     4  11  26  48  76 109 160 200 254 320 396 468
#     4  12  25  44  78 109 147 200 262 324 388 461
#
# _framework density 24.047566
#
# number of rings (size 3 to 8) (size 9 to 14) (size 15 to 20)
#    0.000    0.286    2.857    6.000    4.000    0.571 
#    0.000    2.857    0.000    0.000    0.000    0.000 
#    0.000    0.000    0.000    0.000    0.000    0.000 
#
# Total GULP energy -78333.337784 kJ/mol
# GULP energy per Si atom -5595.238413 kJ/mol
# Density = 2.399283 g / cm^3
# Si number density = 24.047566 Si / 1000 Ang^3
#
#
#
# Elastic Constant Matrix: (Units=GPa)
#
#
# Indices 1 2 3 4 5 6 
#
# 1 82.0266 38.1715 51.4162 1.8303 8.5450 14.2118
# 2 38.1715 110.7609 50.9774 -15.8561 0.8177 18.9258
# 3 51.4162 50.9774 150.4820 30.1050 14.9279 16.2915
# 4 1.8303 -15.8561 30.1050 51.8918 11.7185 -4.5318
# 5 8.5450 0.8177 14.9279 11.7185 55.2271 7.1947
# 6 14.2118 18.9258 16.2915 -4.5318 7.1947 39.7589
#
#
#
# Elastic Compliance Matrix: (Units=1/GPa)
#
#
# Indices 1 2 3 4 5 6 
#
# 1 0.017077 -0.003184 -0.004614 0.001191 -0.001298 -0.002327
# 2 -0.003184 0.013670 -0.004609 0.006604 0.000502 -0.002819
# 3 -0.004614 -0.004609 0.011626 -0.008049 -0.000423 -0.001762
# 4 0.001191 0.006604 -0.008049 0.027215 -0.004353 0.003618
# 5 -0.001298 0.000502 -0.000423 -0.004353 0.019818 -0.003684
# 6 -0.002327 -0.002819 -0.001762 0.003618 -0.003684 0.029126
#
#
# Mechanical properties :
#
#
# Convention : Reuss Voigt Hill
#
# Bulk Modulus (GPa) = 56.94811 69.37772 63.16292
# Shear Modulus (GPa) = 33.51242 42.88917 38.20079
#
# Velocity S-wave (km/s) = 3.73713 4.22775 3.98999
# Velocity P-wave (km/s) = 6.50802 7.26255 6.89562
#
# Compressibility (1/GPa) = 0.01755984
#
# Stress axis : x y z
#
# Youngs Moduli (GPa) = 58.55958 73.15183 86.01497
#
# Poissons Ratio (x) = 0.23290 0.39685
# Poissons Ratio (y) = 0.18644 0.39643
# Poissons Ratio (z) = 0.27018 0.33714
#
# Static dielectric constant tensor:
#      x y z
#    x 2.051870 -0.019640 -0.079970 
#    y -0.019640 1.421000 0.731660 
#    z -0.079970 0.731660 0.985420 
# 
# From -- ./inp_files/362705.got.cif
#   From: 2010.05.17/outbox.cif.g08.bks.cpg/sg2_182_cif.got.tgz:362705.got - 2010.06.03 11:33:40.
