data_PCOD9066638
_publ_section_title
;
Structure prediction by ZEFSAII (Michael W. Deem and Ramdas Pophale) SiO2 
 PCOD9066638
Probable space group: P -1
;
_chemical_formula_sum "Si O2"
_cell_formula_units_Z 13
_cell_length_a 10.403465
_cell_length_b 11.718755
_cell_length_c 11.819488
_cell_angle_alpha 137.233707
_cell_angle_beta 59.776002
_cell_angle_gamma 140.551379
_cell_volume 614.914231
_symmetry_space_group_name_H-M "P -1"
_symmetry_group_IT_number 2
_symmetry_cell_setting 'triclinic'
loop_
_space_group_symop_operation_xyz
x,y,z
-x,-y,-z
loop_
_atom_site_type_symbol
_atom_site_label
_atom_site_fract_x
_atom_site_fract_y
_atom_site_fract_z
Si Si1 0.022576 0.654530 0.504103
Si Si2 0.480526 0.387772 0.807457
Si Si3 0.315112 0.647812 0.755757
Si Si4 0.125891 0.227798 0.687074
Si Si5 0.500000 0.000000 0.500000
Si Si6 0.762533 0.066968 0.873948
Si Si7 0.858967 0.845483 0.843901
O O1 0.248889 0.819218 0.474656
O O2 0.000000 0.500000 0.500000
O O3 0.848636 0.479544 0.363279
O O4 0.974184 0.799339 0.682067
O O5 0.266276 0.257537 0.744165
O O6 0.655989 0.600212 0.803411
O O7 0.512258 0.213845 0.679397
O O8 0.500000 0.500000 0.000000
O O9 0.273447 0.450633 0.704172
O O10 0.547796 0.841077 0.749908
O O11 0.274139 0.777499 0.946733
O O12 0.000000 0.000000 0.500000
O O13 0.951916 0.206840 0.807214
O O14 0.806663 0.970062 0.885186
O O15 0.000000 0.000000 0.000000
#
# Coordination Sequence:
#
# PCOD9066638 Si02
#       7
#     2   2   2   2   1   2   2
#     4  12  26  45  74 104 145 189 242 301 364 435
#     4  12  27  48  77 107 151 195 246 309 373 442
#     4  11  26  46  71 107 139 192 238 297 364 434
#     4  12  26  47  72 107 144 191 241 301 369 439
#     4  12  26  48  70 114 144 188 248 302 368 432
#     4  11  25  46  73 101 146 185 240 298 360 438
#     4  12  24  47  72 106 143 192 244 304 371 438
#
# _framework density 21.141159999999999
#
# number of rings (size 3 to 8) (size 9 to 14) (size 15 to 20)
#    0.000    0.308    3.077    6.000    4.308    2.462 
#    2.769    0.000    0.000    0.000    0.000    0.000 
#    0.000    0.000    0.000    0.000    0.000    0.000 
#
# Total GULP energy -72525.270873 kJ/mol
# GULP energy per Si atom -5578.866990 kJ/mol
# Density = 2.109304 g / cm^3
# Si number density = 21.141160 Si / 1000 Ang^3
#
#
#
# Elastic Constant Matrix: (Units=GPa)
#
#
# Indices 1 2 3 4 5 6 
#
# 1 84.4866 25.7989 41.9769 14.4686 13.8251 16.0255
# 2 25.7989 72.3629 22.0694 14.5456 16.1768 31.5336
# 3 41.9769 22.0694 107.4875 26.0372 10.0309 11.9012
# 4 14.4686 14.5456 26.0372 32.0491 2.0563 -4.5115
# 5 13.8251 16.1768 10.0309 2.0563 47.1001 12.0207
# 6 16.0255 31.5336 11.9012 -4.5115 12.0207 51.6527
#
#
#
# Elastic Compliance Matrix: (Units=1/GPa)
#
#
# Indices 1 2 3 4 5 6 
#
# 1 0.016126 -0.002344 -0.004757 -0.002513 -0.002251 -0.002172
# 2 -0.002344 0.023875 0.000906 -0.012303 -0.003515 -0.014314
# 3 -0.004757 0.000906 0.013735 -0.009794 -0.000661 -0.002944
# 4 -0.002513 -0.012303 -0.009794 0.047827 0.001279 0.014427
# 5 -0.002251 -0.003515 -0.000661 0.001279 0.023805 -0.002432
# 6 -0.002172 -0.014314 -0.002944 0.014427 -0.002432 0.031277
#
#
# Mechanical properties :
#
#
# Convention : Reuss Voigt Hill
#
# Bulk Modulus (GPa) = 24.18529 49.33637 36.76083
# Shear Modulus (GPa) = 27.34997 37.79317 32.57157
#
# Velocity S-wave (km/s) = 3.60068 4.23266 3.92940
# Velocity P-wave (km/s) = 5.36202 6.87564 6.16546
#
# Compressibility (1/GPa) = 0.04134745
#
# Stress axis : x y z
#
# Youngs Moduli (GPa) = 62.01093 41.88545 72.80487
#
# Poissons Ratio (x) = 0.09816 0.34635
# Poissons Ratio (y) = 0.14533 -0.06599
# Poissons Ratio (z) = 0.29500 -0.03797
#
# Static dielectric constant tensor:
#      x y z
#    x 1.775230 -0.026740 0.006900 
#    y -0.026740 1.775270 -0.009330 
#    z 0.006900 -0.009330 1.720060 
# 
# From -- ./inp_files/173748.got.cif
#   From: 2010.05.17/outbox.cif.g08.bks.cpg/sg2_87_cif.got.tgz:173748.got - 2010.06.03 11:33:40.
