data_PCOD9066616
_publ_section_title
;
Structure prediction by ZEFSAII (Michael W. Deem and Ramdas Pophale) SiO2 
 PCOD9066616
Probable space group: P -1
;
_chemical_formula_sum "Si O2"
_cell_formula_units_Z 14
_cell_length_a 5.174667
_cell_length_b 17.734618
_cell_length_c 7.273251
_cell_angle_alpha 51.971138
_cell_angle_beta 106.459803
_cell_angle_gamma 102.999129
_cell_volume 503.098543
_symmetry_space_group_name_H-M "P -1"
_symmetry_group_IT_number 2
_symmetry_cell_setting 'triclinic'
loop_
_space_group_symop_operation_xyz
x,y,z
-x,-y,-z
loop_
_atom_site_type_symbol
_atom_site_label
_atom_site_fract_x
_atom_site_fract_y
_atom_site_fract_z
Si Si1 0.871930 0.265920 0.604562
Si Si2 0.041151 0.122896 0.365990
Si Si3 0.622746 0.073418 0.677186
Si Si4 0.482388 0.541666 0.229252
Si Si5 0.830096 0.475614 0.135723
Si Si6 0.254824 0.729055 0.013247
Si Si7 0.733743 0.868544 0.997708
O O1 0.687565 0.170684 0.657993
O O2 0.831245 0.360381 0.338024
O O3 0.821198 0.298007 0.754394
O O4 0.159629 0.217694 0.729619
O O5 0.315261 0.079384 0.548790
O O6 0.059862 0.115603 0.157078
O O7 0.816582 0.080235 0.526654
O O8 0.001764 0.237505 0.201664
O O9 0.689253 0.970344 0.928859
O O10 0.500000 0.500000 0.500000
O O11 0.788252 0.529776 0.239351
O O12 0.426735 0.652391 0.067286
O O13 0.168657 0.504548 0.133386
O O14 0.500000 0.500000 0.000000
O O15 0.453633 0.824998 0.925243
#
# Coordination Sequence:
#
# PCOD9066616 Si02
#       7
#     2   2   2   2   2   2   2
#     4  11  27  46  70 113 156 202 261 324 392 470
#     4  11  25  46  72 108 153 201 264 320 387 460
#     4  12  26  46  76 110 156 204 261 326 384 466
#     4  11  25  50  76 109 152 196 263 325 395 472
#     4  11  27  49  79 114 152 203 261 328 402 470
#     4  11  25  47  73 111 152 211 257 320 396 468
#     4  11  26  44  76 108 155 205 260 315 395 468
#
# _framework density 27.827546000000002
#
# number of rings (size 3 to 8) (size 9 to 14) (size 15 to 20)
#    0.000    0.857    2.857    2.143    8.000    4.571 
#    2.571    0.000    0.000    0.000    0.000    0.000 
#    0.000    0.000    0.000    0.000    0.000    0.000 
#
# Total GULP energy -78182.981855 kJ/mol
# GULP energy per Si atom -5584.498704 kJ/mol
# Density = 2.776421 g / cm^3
# Si number density = 27.827546 Si / 1000 Ang^3
#
#
#
# Elastic Constant Matrix: (Units=GPa)
#
#
# Indices 1 2 3 4 5 6 
#
# 1 239.6459 51.5081 71.7428 -5.2939 8.4758 -47.5743
# 2 51.5081 135.2241 50.2896 -30.3294 14.3000 -15.3938
# 3 71.7428 50.2896 167.3213 -15.3385 29.7018 -13.2599
# 4 -5.2939 -30.3294 -15.3385 50.9375 -7.5145 16.5009
# 5 8.4758 14.3000 29.7018 -7.5145 43.0902 -6.5269
# 6 -47.5743 -15.3938 -13.2599 16.5009 -6.5269 49.5012
#
#
#
# Elastic Compliance Matrix: (Units=1/GPa)
#
#
# Indices 1 2 3 4 5 6 
#
# 1 0.006269 -0.001636 -0.002194 -0.002745 0.001254 0.006009
# 2 -0.001636 0.009836 -0.001657 0.005319 -0.001003 -0.000863
# 3 -0.002194 -0.001657 0.008239 0.001015 -0.004729 -0.001379
# 4 -0.002745 0.005319 0.001015 0.025983 0.001211 -0.009214
# 5 0.001254 -0.001003 -0.004729 0.001211 0.027190 0.002808
# 6 0.006009 -0.000863 -0.001379 -0.009214 0.002808 0.028780
#
#
# Mechanical properties :
#
#
# Convention : Reuss Voigt Hill
#
# Bulk Modulus (GPa) = 74.80655 98.80806 86.80730
# Shear Modulus (GPa) = 41.07522 53.28249 47.17886
#
# Velocity S-wave (km/s) = 3.84613 4.38052 4.12199
# Velocity P-wave (km/s) = 6.83111 7.82110 7.34281
#
# Compressibility (1/GPa) = 0.01336781
#
# Stress axis : x y z
#
# Youngs Moduli (GPa) = 159.50616 101.67242 121.37702
#
# Poissons Ratio (x) = 0.16636 0.26635
# Poissons Ratio (y) = 0.26098 0.20116
# Poissons Ratio (z) = 0.35002 0.16851
#
# Static dielectric constant tensor:
#      x y z
#    x 2.147850 0.228130 0.125320 
#    y 0.228130 2.318120 0.057350 
#    z 0.125320 0.057350 2.166280 
# 
# From -- ./inp_files/138626.got.cif
#   From: 2010.05.17/outbox.cif.g08.bks.cpg/sg2_70_cif.got.tgz:138626.got - 2010.06.03 11:33:40.
