data_PCOD9066154
_publ_section_title
;
Structure prediction by ZEFSAII (Michael W. Deem and Ramdas Pophale) SiO2 
 PCOD9066154
Probable space group: P -1
;
_chemical_formula_sum "Si O2"
_cell_formula_units_Z 9
_cell_length_a 10.838109
_cell_length_b 7.069020
_cell_length_c 5.496581
_cell_angle_alpha 78.093569
_cell_angle_beta 116.588538
_cell_angle_gamma 71.385269
_cell_volume 325.180679
_symmetry_space_group_name_H-M "P -1"
_symmetry_group_IT_number 2
_symmetry_cell_setting 'triclinic'
loop_
_space_group_symop_operation_xyz
x,y,z
-x,-y,-z
loop_
_atom_site_type_symbol
_atom_site_label
_atom_site_fract_x
_atom_site_fract_y
_atom_site_fract_z
Si Si1 0.019038 0.162764 0.657900
Si Si2 0.688611 0.203977 0.858757
Si Si3 0.500000 0.000000 0.000000
Si Si4 0.861967 0.582872 0.655016
Si Si5 0.397553 0.323160 0.263773
O O1 0.095585 0.284613 0.537190
O O2 0.874151 0.362456 0.605091
O O3 0.146596 0.000844 0.003907
O O4 0.000000 0.000000 0.500000
O O5 0.431170 0.725464 0.489455
O O6 0.700994 0.414983 0.912636
O O7 0.603360 0.131675 0.006062
O O8 0.597645 0.822605 0.915214
O O9 0.688496 0.730260 0.570582
O O10 0.000000 0.500000 0.000000
#
# Coordination Sequence:
#
# PCOD9066154 Si02
#       5
#     2   2   1   2   2
#     4  11  26  46  72 102 139 183 231 285 348 414
#     4  11  25  45  69 102 139 182 232 287 345 409
#     4  12  24  44  70 100 138 182 230 282 340 406
#     4  11  25  47  71 103 140 181 231 287 348 414
#     4  11  26  45  71 103 140 183 232 285 344 411
#
# _framework density 27.676919999999999
#
# number of rings (size 3 to 8) (size 9 to 14) (size 15 to 20)
#    0.000    0.889    0.000    5.333    0.000   16.000 
#    0.000    0.000    0.000    0.000    0.000    0.000 
#    0.000    0.000    0.000    0.000    0.000    0.000 
#
# Total GULP energy -50330.514890 kJ/mol
# GULP energy per Si atom -5592.279432 kJ/mol
# Density = 2.761393 g / cm^3
# Si number density = 27.676920 Si / 1000 Ang^3
#
#
#
# Elastic Constant Matrix: (Units=GPa)
#
#
# Indices 1 2 3 4 5 6 
#
# 1 100.1205 51.0967 5.9529 10.6953 -8.9934 -15.9970
# 2 51.0967 252.6040 45.7704 14.9467 -15.8263 -10.9528
# 3 5.9529 45.7704 55.7582 2.0943 8.8695 -7.6870
# 4 10.6953 14.9467 2.0943 56.3128 2.7651 -6.2210
# 5 -8.9934 -15.8263 8.8695 2.7651 63.6687 -4.3269
# 6 -15.9970 -10.9528 -7.6870 -6.2210 -4.3269 47.8757
#
#
#
# Elastic Compliance Matrix: (Units=1/GPa)
#
#
# Indices 1 2 3 4 5 6 
#
# 1 0.011917 -0.002261 0.000919 -0.001369 0.001294 0.003551
# 2 -0.002261 0.005367 -0.004422 -0.000935 0.001657 -0.000209
# 3 0.000919 -0.004422 0.022431 0.000649 -0.003944 0.002625
# 4 -0.001369 -0.000935 0.000649 0.018492 -0.001202 0.001727
# 5 0.001294 0.001657 -0.003944 -0.001202 0.017009 0.001559
# 6 0.003551 -0.000209 0.002625 0.001727 0.001559 0.022813
#
#
# Mechanical properties :
#
#
# Convention : Reuss Voigt Hill
#
# Bulk Modulus (GPa) = 35.47668 68.23588 51.85628
# Shear Modulus (GPa) = 42.03332 53.94896 47.99114
#
# Velocity S-wave (km/s) = 3.90130 4.41981 4.16862
# Velocity P-wave (km/s) = 5.75669 7.12420 6.47664
#
# Compressibility (1/GPa) = 0.02818753
#
# Stress axis : x y z
#
# Youngs Moduli (GPa) = 83.91286 186.30795 44.58078
#
# Poissons Ratio (x) = 0.42125 -0.04096
# Poissons Ratio (y) = 0.18973 0.19713
# Poissons Ratio (z) = -0.07711 0.82384
#
# Static dielectric constant tensor:
#      x y z
#    x 2.054350 0.037530 -0.372640 
#    y 0.037530 2.013050 0.272960 
#    z -0.372640 0.272960 -0.656300 
# 
# From -- ./inp_files/57097.got.cif
#   From: 2010.05.17/outbox.cif.g08.bks.cpg/sg2_29_cif.got.tgz:57097.got - 2010.06.03 11:33:40.
