data_PCOD9066221
_publ_section_title
;
Structure prediction by ZEFSAII (Michael W. Deem and Ramdas Pophale) SiO2 
 PCOD9066221
Probable space group: P -1
;
_chemical_formula_sum "Si O2"
_cell_formula_units_Z 14
_cell_length_a 9.158937
_cell_length_b 12.607665
_cell_length_c 11.329682
_cell_angle_alpha 144.977073
_cell_angle_beta 111.407581
_cell_angle_gamma 53.345375
_cell_volume 580.129787
_symmetry_space_group_name_H-M "P -1"
_symmetry_group_IT_number 2
_symmetry_cell_setting 'triclinic'
loop_
_space_group_symop_operation_xyz
x,y,z
-x,-y,-z
loop_
_atom_site_type_symbol
_atom_site_label
_atom_site_fract_x
_atom_site_fract_y
_atom_site_fract_z
Si Si1 0.489909 0.221101 0.161676
Si Si2 0.695551 0.286156 0.825986
Si Si3 0.578439 0.905158 0.207298
Si Si4 0.209548 0.687134 0.607788
Si Si5 0.827238 0.828363 0.582184
Si Si6 0.812026 0.108847 0.461936
Si Si7 0.872717 0.545536 0.121077
O O1 0.353950 0.421863 0.393550
O O2 0.682658 0.213289 0.209167
O O3 0.415743 0.254376 0.036738
O O4 0.500000 0.000000 0.000000
O O5 0.667214 0.273923 0.667591
O O6 0.756989 0.058498 0.701438
O O7 0.500000 0.500000 0.000000
O O8 0.852899 0.340332 0.945329
O O9 0.668420 0.761859 0.221105
O O10 0.363848 0.110509 0.353282
O O11 0.722824 0.972125 0.275268
O O12 0.174195 0.778222 0.545909
O O13 0.002465 0.765415 0.661215
O O14 0.911182 0.627347 0.328286
O O15 0.000000 0.000000 0.500000
O O16 0.000000 0.500000 0.000000
#
# Coordination Sequence:
#
# PCOD9066221 Si02
#       7
#     2   2   2   2   2   2   2
#     4  11  25  48  73  95 126 183 238 281 328 399
#     4  12  23  38  62  98 141 182 209 266 350 402
#     4  12  23  42  67  94 140 176 220 286 334 396
#     4  11  25  45  71  97 133 174 235 281 328 403
#     4  12  25  43  63 105 144 171 224 285 340 412
#     4  12  22  41  69 102 134 176 220 276 332 407
#     4  12  24  39  66 100 137 183 224 269 337 405
#
# _framework density 24.132529999999999
#
# number of rings (size 3 to 8) (size 9 to 14) (size 15 to 20)
#    0.000    0.286    5.714    4.714    0.000    1.714 
#    0.000    0.714    0.000    0.000    0.000    0.000 
#    0.000    0.000    0.000    0.000    0.000    0.000 
#
# Total GULP energy -78290.047028 kJ/mol
# GULP energy per Si atom -5592.146216 kJ/mol
# Density = 2.407760 g / cm^3
# Si number density = 24.132530 Si / 1000 Ang^3
#
#
#
# Elastic Constant Matrix: (Units=GPa)
#
#
# Indices 1 2 3 4 5 6 
#
# 1 111.3581 18.9655 29.6307 5.0190 18.6569 -40.7004
# 2 18.9655 46.5170 7.5864 -2.9971 19.8629 -20.2939
# 3 29.6307 7.5864 110.3750 -4.4191 25.4403 -21.1253
# 4 5.0190 -2.9971 -4.4191 34.4741 -6.4095 7.6648
# 5 18.6569 19.8629 25.4403 -6.4095 49.0946 3.1694
# 6 -40.7004 -20.2939 -21.1253 7.6648 3.1694 46.9066
#
#
#
# Elastic Compliance Matrix: (Units=1/GPa)
#
#
# Indices 1 2 3 4 5 6 
#
# 1 0.017767 0.006644 0.001411 -0.008913 -0.012706 0.021241
# 2 0.006644 0.040887 0.006575 -0.007830 -0.025395 0.029411
# 3 0.001411 0.006575 0.012714 -0.002442 -0.010808 0.010924
# 4 -0.008913 -0.007830 -0.002442 0.036106 0.013765 -0.019051
# 5 -0.012706 -0.025395 -0.010808 0.013765 0.044946 -0.032166
# 6 0.021241 0.029411 0.010924 -0.019051 -0.032166 0.062680
#
#
# Mechanical properties :
#
#
# Convention : Reuss Voigt Hill
#
# Bulk Modulus (GPa) = 9.93768 42.29058 26.11413
# Shear Modulus (GPa) = 22.79128 40.23291 31.51210
#
# Velocity S-wave (km/s) = 3.07648 4.08752 3.61750
# Velocity P-wave (km/s) = 4.09225 6.31185 5.31912
#
# Compressibility (1/GPa) = 0.10062712
#
# Stress axis : x y z
#
# Youngs Moduli (GPa) = 56.28425 24.45788 78.65591
#
# Poissons Ratio (x) = -0.16250 -0.11097
# Poissons Ratio (y) = -0.37396 -0.51716
# Poissons Ratio (z) = -0.07941 -0.16081
#
# Static dielectric constant tensor:
#      x y z
#    x 2.038200 -0.028120 0.018690 
#    y -0.028120 1.952670 0.034750 
#    z 0.018690 0.034750 1.977660 
# 
# From -- ./inp_files/400161.got.cif
#   From: 2010.05.17/outbox.cif.g08.bks.cpg/sg2_201_cif.got.tgz:400161.got - 2010.06.03 11:33:40.
