data_PCOD9066609
_publ_section_title
;
Structure prediction by ZEFSAII (Michael W. Deem and Ramdas Pophale) SiO2 
 PCOD9066609
Probable space group: P -1
;
_chemical_formula_sum "Si O2"
_cell_formula_units_Z 16
_cell_length_a 9.198038
_cell_length_b 9.348859
_cell_length_c 15.172903
_cell_angle_alpha 71.847229
_cell_angle_beta 32.465311
_cell_angle_gamma 80.385172
_cell_volume 653.657013
_symmetry_space_group_name_H-M "P -1"
_symmetry_group_IT_number 2
_symmetry_cell_setting 'triclinic'
loop_
_space_group_symop_operation_xyz
x,y,z
-x,-y,-z
loop_
_atom_site_type_symbol
_atom_site_label
_atom_site_fract_x
_atom_site_fract_y
_atom_site_fract_z
Si Si1 0.139088 0.271143 0.867573
Si Si2 0.959587 0.630245 0.300841
Si Si3 0.086926 0.968426 0.188856
Si Si4 0.683457 0.121325 0.604561
Si Si5 0.498012 0.565615 0.682028
Si Si6 0.418589 0.105848 0.150379
Si Si7 0.767496 0.624937 0.723500
Si Si8 0.671529 0.120873 0.268450
O O1 0.085420 0.331921 0.785392
O O2 0.396454 0.183210 0.746709
O O3 0.253161 0.419911 0.840200
O O4 0.875115 0.170466 0.070575
O O5 0.685785 0.543449 0.506398
O O6 0.023160 0.793472 0.288192
O O7 0.191370 0.529131 0.219058
O O8 0.248485 0.090046 0.150351
O O9 0.298317 0.948223 0.006519
O O10 0.828712 0.027246 0.271407
O O11 0.940621 0.257731 0.437771
O O12 0.733990 0.023491 0.682073
O O13 0.611575 0.990597 0.592122
O O14 0.675835 0.585411 0.677426
O O15 0.385424 0.721115 0.694974
O O16 0.438500 0.272889 0.149578
#
# Coordination Sequence:
#
# PCOD9066609 Si02
#       8
#     2   2   2   2   2   2   2   2
#     4  12  26  48  74 103 145 191 237 299 359 423
#     4  12  27  45  69 109 147 185 238 294 362 421
#     4  11  26  45  74 105 144 186 241 299 358 419
#     4  12  23  46  76  98 142 189 240 297 350 423
#     4  12  28  47  73 106 147 192 237 293 359 430
#     4  11  25  46  72 107 141 188 243 296 352 429
#     4  12  28  46  72 106 147 193 236 292 364 424
#     4  12  26  48  75 105 140 189 245 296 358 419
#
# _framework density 24.477668000000001
#
# number of rings (size 3 to 8) (size 9 to 14) (size 15 to 20)
#    0.000    0.250    5.000    3.375    5.250    1.000 
#    0.000    0.000    0.000    0.000    0.000    0.000 
#    0.000    0.000    0.000    0.000    0.000    0.000 
#
# Total GULP energy -89632.401291 kJ/mol
# GULP energy per Si atom -5602.025081 kJ/mol
# Density = 2.442196 g / cm^3
# Si number density = 24.477668 Si / 1000 Ang^3
#
#
#
# Elastic Constant Matrix: (Units=GPa)
#
#
# Indices 1 2 3 4 5 6 
#
# 1 92.3210 65.2878 26.0380 -9.5021 -0.3931 -2.1697
# 2 65.2878 134.0564 11.9750 -2.4949 4.3481 -15.1706
# 3 26.0380 11.9750 87.9532 -5.7877 3.1148 -1.0846
# 4 -9.5021 -2.4949 -5.7877 40.4201 3.3553 -9.6655
# 5 -0.3931 4.3481 3.1148 3.3553 33.2154 -6.1870
# 6 -2.1697 -15.1706 -1.0846 -9.6655 -6.1870 47.6529
#
#
#
# Elastic Compliance Matrix: (Units=1/GPa)
#
#
# Indices 1 2 3 4 5 6 
#
# 1 0.018453 -0.008753 -0.004147 0.002787 0.001226 -0.001316
# 2 -0.008753 0.012031 0.001014 -0.000299 -0.001139 0.003246
# 3 -0.004147 0.001014 0.012588 0.001117 -0.001388 0.000467
# 4 0.002787 -0.000299 0.001117 0.026950 -0.001769 0.005294
# 5 0.001226 -0.001139 -0.001388 -0.001769 0.031204 0.003354
# 6 -0.001316 0.003246 0.000467 0.005294 0.003354 0.023478
#
#
# Mechanical properties :
#
#
# Convention : Reuss Voigt Hill
#
# Bulk Modulus (GPa) = 51.81830 57.88134 54.84982
# Shear Modulus (GPa) = 32.27709 38.32634 35.30172
#
# Velocity S-wave (km/s) = 3.63524 3.96127 3.80175
# Velocity P-wave (km/s) = 6.23182 6.67983 6.45971
#
# Compressibility (1/GPa) = 0.01929820
#
# Stress axis : x y z
#
# Youngs Moduli (GPa) = 54.19248 83.12110 79.44182
#
# Poissons Ratio (x) = 0.72758 0.32947
# Poissons Ratio (y) = 0.47436 -0.08055
# Poissons Ratio (z) = 0.22475 -0.08429
#
# Static dielectric constant tensor:
#      x y z
#    x 1.910940 0.033950 -0.022090 
#    y 0.033950 1.923050 0.018520 
#    z -0.022090 0.018520 2.038480 
# 
# From -- ./inp_files/298442.got.cif
#   From: 2010.05.17/outbox.cif.g08.bks.cpg/sg2_150_cif.got.tgz:298442.got - 2010.06.03 11:33:40.
