data_PCOD9066511
_publ_section_title
;
Structure prediction by ZEFSAII (Michael W. Deem and Ramdas Pophale) SiO2 
 PCOD9066511
Probable space group: P -1
;
_chemical_formula_sum "Si O2"
_cell_formula_units_Z 15
_cell_length_a 16.574104
_cell_length_b 5.098578
_cell_length_c 9.023542
_cell_angle_alpha 52.913793
_cell_angle_beta 106.701792
_cell_angle_gamma 98.492961
_cell_volume 582.302194
_symmetry_space_group_name_H-M "P -1"
_symmetry_group_IT_number 2
_symmetry_cell_setting 'triclinic'
loop_
_space_group_symop_operation_xyz
x,y,z
-x,-y,-z
loop_
_atom_site_type_symbol
_atom_site_label
_atom_site_fract_x
_atom_site_fract_y
_atom_site_fract_z
Si Si1 0.568537 0.268703 0.399037
Si Si2 0.719941 0.814385 0.626420
Si Si3 0.000000 0.000000 0.000000
Si Si4 0.965752 0.871602 0.365391
Si Si5 0.507902 0.985399 0.185947
Si Si6 0.177116 0.274488 0.020686
Si Si7 0.771136 0.012049 0.265831
Si Si8 0.325968 0.880736 0.103099
O O1 0.547062 0.614222 0.347761
O O2 0.500000 0.000000 0.500000
O O3 0.663632 0.139549 0.523340
O O4 0.557956 0.245184 0.221100
O O5 0.803754 0.734110 0.791983
O O6 0.663311 0.510261 0.745942
O O7 0.745526 0.849334 0.459348
O O8 0.996282 0.046641 0.170936
O O9 0.081356 0.224664 0.954876
O O10 0.000000 0.500000 0.500000
O O11 0.863414 0.875707 0.312448
O O12 0.000000 0.000000 0.500000
O O13 0.409505 0.021715 0.166290
O O14 0.500000 0.000000 0.000000
O O15 0.238058 0.975699 0.102003
O O16 0.212706 0.597427 0.853621
O O17 0.694763 0.989519 0.116836
#
# Coordination Sequence:
#
# PCOD9066511 Si02
#       8
#     2   2   1   2   2   2   2   2
#     4  12  25  47  72 109 149 199 253 312 374 462
#     4  11  26  45  75 103 150 199 250 316 390 452
#     4  12  26  52  80 108 158 204 256 330 404 458
#     4  12  28  48  77 113 151 197 262 320 387 475
#     4  12  27  45  74 109 152 199 255 313 379 454
#     4  11  26  46  74 106 145 198 252 316 385 468
#     4  11  26  48  70 108 146 196 251 317 386 459
#     4  11  25  46  70 106 147 196 250 309 384 460
#
# _framework density 25.759822
#
# number of rings (size 3 to 8) (size 9 to 14) (size 15 to 20)
#    0.000    0.533    2.667    4.000    7.467    3.200 
#    0.000    0.000    0.000    0.000    0.000    0.000 
#    0.000    0.000    0.000    0.000    0.000    0.000 
#
# Total GULP energy -83723.180751 kJ/mol
# GULP energy per Si atom -5581.545383 kJ/mol
# Density = 2.570119 g / cm^3
# Si number density = 25.759822 Si / 1000 Ang^3
#
#
#
# Elastic Constant Matrix: (Units=GPa)
#
#
# Indices 1 2 3 4 5 6 
#
# 1 73.1013 18.5255 20.0051 -2.0308 -1.0967 -1.6889
# 2 18.5255 112.5543 41.3592 12.3416 17.9447 -8.1969
# 3 20.0051 41.3592 143.7979 26.4291 -14.0380 -3.9733
# 4 -2.0308 12.3416 26.4291 48.8996 -15.6618 13.7317
# 5 -1.0967 17.9447 -14.0380 -15.6618 45.1467 17.8408
# 6 -1.6889 -8.1969 -3.9733 13.7317 17.8408 47.7436
#
#
#
# Elastic Compliance Matrix: (Units=1/GPa)
#
#
# Indices 1 2 3 4 5 6 
#
# 1 0.015037 -0.003082 -0.001708 0.004236 0.003596 -0.002701
# 2 -0.003082 0.014574 -0.003117 -0.009504 -0.014146 0.010153
# 3 -0.001708 -0.003117 0.008958 -0.003206 0.002871 -0.000001
# 4 0.004236 -0.009504 -0.003206 0.039207 0.025380 -0.022509
# 5 0.003596 -0.014146 0.002871 0.025380 0.048405 -0.027450
# 6 -0.002701 0.010153 -0.000001 -0.022509 -0.027450 0.039324
#
#
# Mechanical properties :
#
#
# Convention : Reuss Voigt Hill
#
# Bulk Modulus (GPa) = 43.94419 54.35924 49.15171
# Shear Modulus (GPa) = 26.46868 44.99556 35.73212
#
# Velocity S-wave (km/s) = 3.20897 4.18393 3.72845
# Velocity P-wave (km/s) = 5.55214 6.66997 6.13656
#
# Compressibility (1/GPa) = 0.02275614
#
# Stress axis : x y z
#
# Youngs Moduli (GPa) = 66.50158 68.61549 111.63608
#
# Poissons Ratio (x) = 0.21148 0.19063
# Poissons Ratio (y) = 0.20496 0.34794
# Poissons Ratio (z) = 0.11356 0.21385
#
# Static dielectric constant tensor:
#      x y z
#    x 2.063900 -0.101720 -0.085850 
#    y -0.101720 2.108810 0.101560 
#    z -0.085850 0.101560 2.180880 
# 
# From -- ./inp_files/322133.got.cif
#   From: 2010.05.17/outbox.cif.g08.bks.cpg/sg2_162_cif.got.tgz:322133.got - 2010.06.03 11:33:40.
