data_PCOD9066418
_publ_section_title
;
Structure prediction by ZEFSAII (Michael W. Deem and Ramdas Pophale) SiO2 
 PCOD9066418
Probable space group: P -1
;
_chemical_formula_sum "Si O2"
_cell_formula_units_Z 14
_cell_length_a 11.752168
_cell_length_b 5.908899
_cell_length_c 11.614079
_cell_angle_alpha 65.231303
_cell_angle_beta 62.739577
_cell_angle_gamma 53.120009
_cell_volume 561.576195
_symmetry_space_group_name_H-M "P -1"
_symmetry_group_IT_number 2
_symmetry_cell_setting 'triclinic'
loop_
_space_group_symop_operation_xyz
x,y,z
-x,-y,-z
loop_
_atom_site_type_symbol
_atom_site_label
_atom_site_fract_x
_atom_site_fract_y
_atom_site_fract_z
Si Si1 0.379481 0.078571 0.792433
Si Si2 0.819473 0.276311 0.343141
Si Si3 0.984753 0.619485 0.612357
Si Si4 0.347668 0.756676 0.065382
Si Si5 0.346649 0.862358 0.312060
Si Si6 0.964444 0.139910 0.858865
Si Si7 0.434765 0.792183 0.602420
O O1 0.284434 0.401725 0.723415
O O2 0.547662 0.007317 0.737938
O O3 0.374688 0.866291 0.745084
O O4 0.321539 0.038625 0.948615
O O5 0.709654 0.144581 0.417126
O O6 0.893041 0.298035 0.422762
O O7 0.949336 0.103320 0.226988
O O8 0.002667 0.384308 0.750687
O O9 0.000000 0.500000 0.500000
O O10 0.821630 0.895176 0.639472
O O11 0.356947 0.795212 0.186551
O O12 0.210566 0.715233 0.109796
O O13 0.500000 0.500000 0.000000
O O14 0.433103 0.537809 0.395435
O O15 0.000000 0.000000 0.000000
O O16 0.500000 0.000000 0.500000
#
# Coordination Sequence:
#
# PCOD9066418 Si02
#       7
#     2   2   2   2   2   2   2
#     4  11  25  45  77 113 154 205 256 325 389 478
#     4  11  26  51  76 115 158 213 259 325 402 473
#     4  12  29  53  79 115 164 213 267 330 397 473
#     4  12  23  46  78 114 157 199 263 327 394 466
#     4  11  26  48  79 114 155 207 261 327 404 460
#     4  12  28  48  77 119 164 209 266 323 395 484
#     4  11  26  51  78 114 153 204 267 324 389 484
#
# _framework density 24.929831
#
# number of rings (size 3 to 8) (size 9 to 14) (size 15 to 20)
#    0.000    0.571    2.857    3.857    4.000    7.429 
#    2.571    2.857    0.000    0.000    0.000    0.000 
#    0.000    0.000    0.000    0.000    0.000    0.000 
#
# Total GULP energy -78504.577116 kJ/mol
# GULP energy per Si atom -5607.469794 kJ/mol
# Density = 2.487309 g / cm^3
# Si number density = 24.929831 Si / 1000 Ang^3
#
#
#
# Elastic Constant Matrix: (Units=GPa)
#
#
# Indices 1 2 3 4 5 6 
#
# 1 200.5326 45.4847 52.7048 10.8256 8.0591 -5.5039
# 2 45.4847 118.8989 47.1023 22.0000 4.3467 -16.7280
# 3 52.7048 47.1023 142.3152 -2.1780 16.9126 5.9441
# 4 10.8256 22.0000 -2.1780 54.4322 2.5649 -4.9786
# 5 8.0591 4.3467 16.9126 2.5649 49.0118 1.8702
# 6 -5.5039 -16.7280 5.9441 -4.9786 1.8702 39.3231
#
#
#
# Elastic Compliance Matrix: (Units=1/GPa)
#
#
# Indices 1 2 3 4 5 6 
#
# 1 0.005796 -0.001364 -0.001695 -0.000620 -0.000231 0.000420
# 2 -0.001364 0.011872 -0.003752 -0.004256 0.000503 0.004864
# 3 -0.001695 -0.003752 0.009359 0.002090 -0.002618 -0.002859
# 4 -0.000620 -0.004256 0.002090 0.020401 -0.001326 0.000433
# 5 -0.000231 0.000503 -0.002618 -0.001326 0.021393 -0.000608
# 6 0.000420 0.004864 -0.002859 0.000433 -0.000608 0.028074
#
#
# Mechanical properties :
#
#
# Convention : Reuss Voigt Hill
#
# Bulk Modulus (GPa) = 74.59776 83.59225 79.09500
# Shear Modulus (GPa) = 43.48439 49.65040 46.56739
#
# Velocity S-wave (km/s) = 4.18098 4.46758 4.32665
# Velocity P-wave (km/s) = 7.30038 7.75991 7.53365
#
# Compressibility (1/GPa) = 0.01340523
#
# Stress axis : x y z
#
# Youngs Moduli (GPa) = 172.54267 84.23081 106.85168
#
# Poissons Ratio (x) = 0.11485 0.18108
# Poissons Ratio (y) = 0.23527 0.40096
# Poissons Ratio (z) = 0.29240 0.31607
#
# Static dielectric constant tensor:
#      x y z
#    x 1.955560 0.035770 0.004270 
#    y 0.035770 1.959050 -0.017920 
#    z 0.004270 -0.017920 2.088840 
# 
# From -- ./inp_files/410006.got.cif
#   From: 2010.05.17/outbox.cif.g08.bks.cpg/sg2_206_cif.got.tgz:410006.got - 2010.06.03 11:33:40.
