data_PCOD9066257
_publ_section_title
;
Structure prediction by ZEFSAII (Michael W. Deem and Ramdas Pophale) SiO2 
 PCOD9066257
Probable space group: P -1
;
_chemical_formula_sum "Si O2"
_cell_formula_units_Z 10
_cell_length_a 5.598226
_cell_length_b 9.648428
_cell_length_c 12.783735
_cell_angle_alpha 54.280927
_cell_angle_beta 79.255630
_cell_angle_gamma 54.581275
_cell_volume 444.657223
_symmetry_space_group_name_H-M "P -1"
_symmetry_group_IT_number 2
_symmetry_cell_setting 'triclinic'
loop_
_space_group_symop_operation_xyz
x,y,z
-x,-y,-z
loop_
_atom_site_type_symbol
_atom_site_label
_atom_site_fract_x
_atom_site_fract_y
_atom_site_fract_z
Si Si1 0.659049 0.081927 0.517109
Si Si2 0.382474 0.430088 0.947067
Si Si3 0.251971 0.527866 0.424492
Si Si4 0.206510 0.848383 0.143357
Si Si5 0.736040 0.872044 0.821888
O O1 0.449841 0.333311 0.415536
O O2 0.500000 0.000000 0.500000
O O3 0.645234 0.015481 0.665048
O O4 0.000000 0.000000 0.500000
O O5 0.522259 0.353510 0.854141
O O6 0.048473 0.645304 0.867910
O O7 0.500000 0.500000 0.000000
O O8 0.442564 0.217361 0.083829
O O9 0.500000 0.500000 0.500000
O O10 0.100092 0.747839 0.278454
O O11 0.000000 0.500000 0.500000
O O12 0.265194 0.991500 0.144466
O O13 0.000000 0.000000 0.000000
#
# Coordination Sequence:
#
# PCOD9066257 Si02
#       5
#     2   2   2   2   2
#     4  12  28  48  79 108 154 203 256 314 389 453
#     4  11  25  45  72 109 147 190 256 311 379 456
#     4  12  28  50  76 114 156 199 259 316 383 465
#     4  12  26  46  79 109 150 201 251 315 385 453
#     4  11  26  46  74 107 148 198 252 317 377 456
#
# _framework density 22.489235000000001
#
# number of rings (size 3 to 8) (size 9 to 14) (size 15 to 20)
#    0.000    0.400    4.000    3.000    8.400    1.600 
#    0.000    0.000    0.000    0.000    0.000    0.000 
#    0.000    0.000    0.000    0.000    0.000    0.000 
#
# Total GULP energy -55800.055965 kJ/mol
# GULP energy per Si atom -5580.005596 kJ/mol
# Density = 2.243805 g / cm^3
# Si number density = 22.489235 Si / 1000 Ang^3
#
#
#
# Elastic Constant Matrix: (Units=GPa)
#
#
# Indices 1 2 3 4 5 6 
#
# 1 133.5089 69.4680 57.3660 6.0792 -22.1647 26.6874
# 2 69.4680 171.7130 38.6891 -1.4762 -12.0746 30.2091
# 3 57.3660 38.6891 172.0436 -9.6001 -19.1745 32.1376
# 4 6.0792 -1.4762 -9.6001 49.7184 7.4546 2.2435
# 5 -22.1647 -12.0746 -19.1745 7.4546 45.3003 -2.3473
# 6 26.6874 30.2091 32.1376 2.2435 -2.3473 63.0155
#
#
#
# Elastic Compliance Matrix: (Units=1/GPa)
#
#
# Indices 1 2 3 4 5 6 
#
# 1 0.011484 -0.003546 -0.002411 -0.002495 0.003976 -0.001697
# 2 -0.003546 0.007667 -0.000095 0.000734 0.000036 -0.002150
# 3 -0.002411 -0.000095 0.007404 0.001616 0.001523 -0.002710
# 4 -0.002495 0.000734 0.001616 0.021385 -0.003913 -0.001027
# 5 0.003976 0.000036 0.001523 -0.003913 0.025246 -0.001398
# 6 -0.001697 -0.002150 -0.002710 -0.001027 -0.001398 0.018985
#
#
# Mechanical properties :
#
#
# Convention : Reuss Voigt Hill
#
# Bulk Modulus (GPa) = 69.20115 89.81240 79.50677
# Shear Modulus (GPa) = 45.83304 52.38968 49.11136
#
# Velocity S-wave (km/s) = 4.51932 4.83177 4.67815
# Velocity P-wave (km/s) = 7.62036 8.43507 8.03805
#
# Compressibility (1/GPa) = 0.01445063
#
# Stress axis : x y z
#
# Youngs Moduli (GPa) = 87.07751 130.43317 135.06517
#
# Poissons Ratio (x) = 0.46252 0.32562
# Poissons Ratio (y) = 0.30878 0.01285
# Poissons Ratio (z) = 0.20993 0.01240
#
# Static dielectric constant tensor:
#      x y z
#    x 1.835880 -0.106220 0.035660 
#    y -0.106220 1.583410 -0.052400 
#    z 0.035660 -0.052400 1.922750 
# 
# From -- ./inp_files/16214.got.cif
#   From: 2010.05.17/outbox.cif.g08.bks.cpg/sg2_9_cif.got.tgz:16214.got - 2010.06.03 11:33:40.
