data_PCOD9066141
_publ_section_title
;
Structure prediction by ZEFSAII (Michael W. Deem and Ramdas Pophale) SiO2 
 PCOD9066141
Probable space group: P -1
;
_chemical_formula_sum "Si O2"
_cell_formula_units_Z 10
_cell_length_a 9.930807
_cell_length_b 8.140438
_cell_length_c 9.535185
_cell_angle_alpha 108.530701
_cell_angle_beta 134.707488
_cell_angle_gamma 97.230180
_cell_volume 444.139842
_symmetry_space_group_name_H-M "P -1"
_symmetry_group_IT_number 2
_symmetry_cell_setting 'triclinic'
loop_
_space_group_symop_operation_xyz
x,y,z
-x,-y,-z
loop_
_atom_site_type_symbol
_atom_site_label
_atom_site_fract_x
_atom_site_fract_y
_atom_site_fract_z
Si Si1 0.489022 0.912281 0.691404
Si Si2 0.941763 0.359069 0.554312
Si Si3 0.848173 0.024434 0.188639
Si Si4 0.639767 0.555328 0.973920
Si Si5 0.326656 0.168906 0.468978
O O1 0.289391 0.710122 0.560022
O O2 0.616626 0.861229 0.654656
O O3 0.382282 0.028195 0.568955
O O4 0.667083 0.049222 0.976762
O O5 0.000000 0.500000 0.500000
O O6 0.142754 0.455125 0.835964
O O7 0.910445 0.151073 0.411596
O O8 0.729327 0.786121 0.062796
O O9 0.073821 0.103524 0.289956
O O10 0.500000 0.500000 0.000000
O O11 0.488038 0.396155 0.702741
#
# Coordination Sequence:
#
# PCOD9066141 Si02
#       5
#     2   2   2   2   2
#     4  11  25  45  68 101 137 173 223 278 330 394
#     4  12  24  44  70 100 134 178 225 275 330 395
#     4  12  24  46  70  97 135 177 225 272 332 398
#     4  12  23  42  71  98 133 178 222 273 329 396
#     4  11  25  47  68  99 138 175 220 276 335 395
#
# _framework density 22.515431
#
# number of rings (size 3 to 8) (size 9 to 14) (size 15 to 20)
#    0.000    0.400    4.000    5.400    0.000    1.600 
#    3.600    0.000    0.000    0.000    0.000    0.000 
#    0.000    0.000    0.000    0.000    0.000    0.000 
#
# Total GULP energy -56043.639077 kJ/mol
# GULP energy per Si atom -5604.363908 kJ/mol
# Density = 2.246418 g / cm^3
# Si number density = 22.515431 Si / 1000 Ang^3
#
#
#
# Elastic Constant Matrix: (Units=GPa)
#
#
# Indices 1 2 3 4 5 6 
#
# 1 107.9048 0.8910 17.5506 7.7339 23.9494 25.6321
# 2 0.8910 80.5207 20.5599 19.5598 1.8925 19.2973
# 3 17.5506 20.5599 101.3528 11.2452 29.0033 11.2036
# 4 7.7339 19.5598 11.2452 42.5455 -8.7020 4.1292
# 5 23.9494 1.8925 29.0033 -8.7020 43.9699 6.5454
# 6 25.6321 19.2973 11.2036 4.1292 6.5454 24.7180
#
#
#
# Elastic Compliance Matrix: (Units=1/GPa)
#
#
# Indices 1 2 3 4 5 6 
#
# 1 0.015301 0.005240 0.001009 -0.005329 -0.007676 -0.017492
# 2 0.005240 0.018957 -0.001441 -0.007889 -0.001626 -0.017832
# 3 0.001009 -0.001441 0.013725 -0.004966 -0.010132 -0.002630
# 4 -0.005329 -0.007889 -0.004966 0.031304 0.011886 0.005560
# 5 -0.007676 -0.001626 -0.010132 0.011886 0.035674 0.002390
# 6 -0.017492 -0.017832 -0.002630 0.005560 0.002390 0.072148
#
#
# Mechanical properties :
#
#
# Convention : Reuss Voigt Hill
#
# Bulk Modulus (GPa) = 17.36128 40.86459 29.11293
# Shear Modulus (GPa) = 25.42041 38.96512 32.19277
#
# Velocity S-wave (km/s) = 3.36374 4.16456 3.78538
# Velocity P-wave (km/s) = 4.77639 6.42757 5.66249
#
# Compressibility (1/GPa) = 0.05759945
#
# Stress axis : x y z
#
# Youngs Moduli (GPa) = 65.35587 52.74987 72.85837
#
# Poissons Ratio (x) = -0.27642 -0.07351
# Poissons Ratio (y) = -0.34248 0.10500
# Poissons Ratio (z) = -0.06594 0.07602
#
# Static dielectric constant tensor:
#      x y z
#    x 1.791250 -0.021060 0.013240 
#    y -0.021060 1.881120 -0.027340 
#    z 0.013240 -0.027340 1.795060 
# 
# From -- ./inp_files/15398.got.cif
#   From: 2010.05.17/outbox.cif.g08.bks.cpg/sg2_8_cif.got.tgz:15398.got - 2010.06.03 11:33:40.
