data_PCOD9066583
_publ_section_title
;
Structure prediction by ZEFSAII (Michael W. Deem and Ramdas Pophale) SiO2 
 PCOD9066583
Probable space group: P -1
;
_chemical_formula_sum "Si O2"
_cell_formula_units_Z 16
_cell_length_a 18.976995
_cell_length_b 15.486611
_cell_length_c 5.415002
_cell_angle_alpha 68.100543
_cell_angle_beta 101.649387
_cell_angle_gamma 150.888425
_cell_volume 690.763236
_symmetry_space_group_name_H-M "P -1"
_symmetry_group_IT_number 2
_symmetry_cell_setting 'triclinic'
loop_
_space_group_symop_operation_xyz
x,y,z
-x,-y,-z
loop_
_atom_site_type_symbol
_atom_site_label
_atom_site_fract_x
_atom_site_fract_y
_atom_site_fract_z
Si Si1 0.007500 0.660879 0.729626
Si Si2 0.682171 0.240418 0.106127
Si Si3 0.418878 0.053971 0.925033
Si Si4 0.068424 0.838080 0.086171
Si Si5 0.622142 0.607046 0.776891
Si Si6 0.932448 0.879639 0.832996
Si Si7 0.616314 0.775271 0.286601
Si Si8 0.830116 0.293986 0.507464
O O1 0.836441 0.429447 0.861530
O O2 0.020372 0.745631 0.417482
O O3 0.132081 0.724459 0.688408
O O4 0.043502 0.741115 0.939590
O O5 0.597021 0.048563 0.171527
O O6 0.570857 0.199626 0.027264
O O7 0.743763 0.289193 0.371281
O O8 0.279078 0.883113 0.196149
O O9 0.417649 0.158578 0.717784
O O10 0.973344 0.818844 0.955068
O O11 0.246885 0.062621 0.984173
O O12 0.756841 0.703149 0.887442
O O13 0.677618 0.767192 0.527267
O O14 0.534908 0.442591 0.695636
O O15 0.500000 0.500000 0.000000
O O16 0.000000 0.000000 0.500000
O O17 0.000000 0.000000 0.000000
O O18 0.000000 0.500000 0.500000
#
# Coordination Sequence:
#
# PCOD9066583 Si02
#       8
#     2   2   2   2   2   2   2   2
#     4  12  26  44  76 107 151 192 257 305 368 441
#     4  11  26  44  68 108 150 195 247 316 366 444
#     4  11  25  46  72 102 149 195 251 302 384 437
#     4  12  26  46  76 113 147 198 253 307 371 456
#     4  11  27  47  75 107 149 193 244 313 377 451
#     4  12  26  49  79 110 151 193 247 315 378 442
#     4  11  25  46  72 105 146 192 250 302 379 449
#     4  12  23  44  71 102 145 201 251 310 367 442
#
# _framework density 23.162785
#
# number of rings (size 3 to 8) (size 9 to 14) (size 15 to 20)
#    0.000    0.500    3.750    3.750    5.250    2.000 
#    0.000    0.000    0.000    0.000    0.000    0.000 
#    0.000    0.000    0.000    0.000    0.000    0.000 
#
# Total GULP energy -89523.006373 kJ/mol
# GULP energy per Si atom -5595.187898 kJ/mol
# Density = 2.311007 g / cm^3
# Si number density = 23.162785 Si / 1000 Ang^3
#
#
#
# Elastic Constant Matrix: (Units=GPa)
#
#
# Indices 1 2 3 4 5 6 
#
# 1 120.2990 40.1709 9.5345 1.6835 25.9398 21.6047
# 2 40.1709 90.3153 18.2353 11.9673 11.1991 19.5199
# 3 9.5345 18.2353 106.0623 -4.4274 20.3135 -1.7567
# 4 1.6835 11.9673 -4.4274 36.3789 0.3807 3.4244
# 5 25.9398 11.1991 20.3135 0.3807 47.3909 8.2524
# 6 21.6047 19.5199 -1.7567 3.4244 8.2524 45.7408
#
#
#
# Elastic Compliance Matrix: (Units=1/GPa)
#
#
# Indices 1 2 3 4 5 6 
#
# 1 0.011154 -0.004050 0.000650 0.001202 -0.004964 -0.002709
# 2 -0.004050 0.014857 -0.002567 -0.004615 0.000590 -0.004287
# 3 0.000650 -0.002567 0.010835 0.002003 -0.004742 0.001910
# 4 0.001202 -0.004615 0.002003 0.029258 -0.000554 -0.000612
# 5 -0.004964 0.000590 -0.004742 -0.000554 0.026199 -0.002774
# 6 -0.002709 -0.004287 0.001910 -0.000612 -0.002774 0.025591
#
#
# Mechanical properties :
#
#
# Convention : Reuss Voigt Hill
#
# Bulk Modulus (GPa) = 40.14353 50.28423 45.21388
# Shear Modulus (GPa) = 36.19713 42.48450 39.34082
#
# Velocity S-wave (km/s) = 3.95742 4.28737 4.12570
# Velocity P-wave (km/s) = 6.18468 6.80183 6.50058
#
# Compressibility (1/GPa) = 0.02491061
#
# Stress axis : x y z
#
# Youngs Moduli (GPa) = 89.65512 67.30823 92.29533
#
# Poissons Ratio (x) = 0.27263 -0.05998
# Poissons Ratio (y) = 0.36315 0.23691
# Poissons Ratio (z) = -0.05826 0.17277
#
# Static dielectric constant tensor:
#      x y z
#    x 1.913990 -0.051350 0.006550 
#    y -0.051350 1.951020 0.012410 
#    z 0.006550 0.012410 1.911310 
# 
# From -- ./inp_files/39486.got.cif
#   From: 2010.05.17/outbox.cif.g08.bks.cpg/sg2_20_cif.got.tgz:39486.got - 2010.06.03 11:33:40.
