data_PCOD9066710
_publ_section_title
;
Structure prediction by ZEFSAII (Michael W. Deem and Ramdas Pophale) SiO2 
 PCOD9066710
Probable space group: P -1
;
_chemical_formula_sum "Si O2"
_cell_formula_units_Z 12
_cell_length_a 10.021250
_cell_length_b 8.792565
_cell_length_c 5.817205
_cell_angle_alpha 80.670551
_cell_angle_beta 88.641917
_cell_angle_gamma 73.258926
_cell_volume 484.207801
_symmetry_space_group_name_H-M "P -1"
_symmetry_group_IT_number 2
_symmetry_cell_setting 'triclinic'
loop_
_space_group_symop_operation_xyz
x,y,z
-x,-y,-z
loop_
_atom_site_type_symbol
_atom_site_label
_atom_site_fract_x
_atom_site_fract_y
_atom_site_fract_z
Si Si1 0.562223 0.356683 0.721402
Si Si2 0.094063 0.066757 0.799945
Si Si3 0.653432 0.028895 0.517954
Si Si4 0.290562 0.512259 0.920032
Si Si5 0.933828 0.360059 0.439603
Si Si6 0.163189 0.258691 0.125494
O O1 0.500000 0.500000 0.500000
O O2 0.620950 0.188118 0.635083
O O3 0.427485 0.368938 0.883091
O O4 0.667944 0.383393 0.906796
O O5 0.978616 0.199451 0.627699
O O6 0.226627 0.954869 0.678049
O O7 0.174882 0.175405 0.903021
O O8 0.000000 0.000000 0.000000
O O9 0.500000 0.000000 0.500000
O O10 0.737918 0.864535 0.677669
O O11 0.222767 0.576134 0.660152
O O12 0.190553 0.427662 0.070927
O O13 0.000000 0.500000 0.500000
O O14 0.008739 0.292870 0.214302
#
# Coordination Sequence:
#
# PCOD9066710 Si02
#       6
#     2   2   2   2   2   2
#     4  11  27  46  73 113 153 200 257 326 386 461
#     4  11  27  49  75 116 155 201 262 327 393 455
#     4  11  26  49  78 107 153 205 260 319 390 475
#     4  11  25  46  75 112 151 199 263 319 391 464
#     4  11  25  46  78 109 148 208 258 319 385 474
#     4  11  25  46  74 108 146 201 259 317 393 463
#
# _framework density 24.78275
#
# number of rings (size 3 to 8) (size 9 to 14) (size 15 to 20)
#    0.000    1.000    1.667    2.500    4.667   12.000 
#    0.000    2.500    0.000    0.000    0.000    0.000 
#    0.000    0.000    0.000    0.000    0.000    0.000 
#
# Total GULP energy -66962.161717 kJ/mol
# GULP energy per Si atom -5580.180143 kJ/mol
# Density = 2.472634 g / cm^3
# Si number density = 24.782750 Si / 1000 Ang^3
#
#
#
# Elastic Constant Matrix: (Units=GPa)
#
#
# Indices 1 2 3 4 5 6 
#
# 1 157.8005 61.8830 62.5720 5.0816 9.1888 -4.1136
# 2 61.8830 128.2211 57.2065 14.9508 -3.6147 -10.9910
# 3 62.5720 57.2065 105.3829 0.9362 -2.9198 5.6792
# 4 5.0816 14.9508 0.9362 56.8466 3.0525 -7.8111
# 5 9.1888 -3.6147 -2.9198 3.0525 41.0902 6.4462
# 6 -4.1136 -10.9910 5.6792 -7.8111 6.4462 27.1830
#
#
#
# Elastic Compliance Matrix: (Units=1/GPa)
#
#
# Indices 1 2 3 4 5 6 
#
# 1 0.009243 -0.002462 -0.004350 0.000341 -0.002949 0.002109
# 2 -0.002462 0.012041 -0.005296 -0.002234 0.000645 0.004807
# 3 -0.004350 -0.005296 0.015363 0.000500 0.002577 -0.006477
# 4 0.000341 -0.002234 0.000500 0.018968 -0.002442 0.005074
# 5 -0.002949 0.000645 0.002577 -0.002442 0.026632 -0.007741
# 6 0.002109 0.004807 -0.006477 0.005074 -0.007741 0.043697
#
#
# Mechanical properties :
#
#
# Convention : Reuss Voigt Hill
#
# Bulk Modulus (GPa) = 80.44468 83.85859 82.15163
# Shear Modulus (GPa) = 32.40353 39.00683 35.70518
#
# Velocity S-wave (km/s) = 3.61986 3.97161 3.79981
# Velocity P-wave (km/s) = 7.07118 7.41232 7.24376
#
# Compressibility (1/GPa) = 0.01243090
#
# Stress axis : x y z
#
# Youngs Moduli (GPa) = 108.18519 83.05094 65.09259
#
# Poissons Ratio (x) = 0.20451 0.28316
# Poissons Ratio (y) = 0.26640 0.34470
# Poissons Ratio (z) = 0.47061 0.43980
#
# Static dielectric constant tensor:
#      x y z
#    x 2.225810 -0.393040 0.022690 
#    y -0.393040 2.930560 -0.052490 
#    z 0.022690 -0.052490 2.034610 
# 
# From -- ./inp_files/17277.got.cif
#   From: 2010.05.17/outbox.cif.g08.bks.cpg/sg2_9_cif.got.tgz:17277.got - 2010.06.03 11:33:40.
