data_PCOD9066548
_publ_section_title
;
Structure prediction by ZEFSAII (Michael W. Deem and Ramdas Pophale) SiO2 
 PCOD9066548
Probable space group: P -1
;
_chemical_formula_sum "Si O2"
_cell_formula_units_Z 15
_cell_length_a 12.558065
_cell_length_b 11.923571
_cell_length_c 14.227128
_cell_angle_alpha 30.380969
_cell_angle_beta 48.660649
_cell_angle_gamma 37.181990
_cell_volume 648.622077
_symmetry_space_group_name_H-M "P -1"
_symmetry_group_IT_number 2
_symmetry_cell_setting 'triclinic'
loop_
_space_group_symop_operation_xyz
x,y,z
-x,-y,-z
loop_
_atom_site_type_symbol
_atom_site_label
_atom_site_fract_x
_atom_site_fract_y
_atom_site_fract_z
Si Si1 0.317561 0.808858 0.891625
Si Si2 0.605007 0.883329 0.120324
Si Si3 0.759747 0.099477 0.488860
Si Si4 0.010605 0.447294 0.143054
Si Si5 0.500000 0.500000 0.500000
Si Si6 0.279020 0.756963 0.154979
Si Si7 0.094175 0.841052 0.828746
Si Si8 0.474573 0.113655 0.537953
O O1 0.206122 0.871280 0.817673
O O2 0.362128 0.027208 0.715940
O O3 0.500000 0.500000 0.000000
O O4 0.222613 0.812832 0.038426
O O5 0.813936 0.644953 0.156305
O O6 0.522880 0.751966 0.317767
O O7 0.500000 0.000000 0.000000
O O8 0.599332 0.138527 0.980679
O O9 0.893765 0.863884 0.655008
O O10 0.629228 0.382280 0.417462
O O11 0.856049 0.139573 0.319627
O O12 0.655292 0.001062 0.566863
O O13 0.000000 0.500000 0.000000
O O14 0.121250 0.555343 0.036782
O O15 0.378769 0.439031 0.350418
O O16 0.113141 0.926745 0.198535
O O17 0.500000 0.000000 0.500000
#
# Coordination Sequence:
#
# PCOD9066548 Si02
#       8
#     2   2   2   2   1   2   2   2
#     4  12  23  43  71 103 147 196 247 302 361 436
#     4  11  25  46  71 105 142 186 245 305 365 441
#     4  12  26  46  73 108 147 191 249 305 368 447
#     4  11  26  46  71 104 145 191 240 306 372 438
#     4  12  26  44  76 104 140 192 244 298 374 432
#     4  11  26  45  71 108 150 194 251 304 368 444
#     4  11  26  46  70 105 148 194 244 304 374 435
#     4  12  24  45  74 111 149 199 246 302 369 435
#
# _framework density 23.125945999999999
#
# number of rings (size 3 to 8) (size 9 to 14) (size 15 to 20)
#    0.000    0.533    2.667    4.400    0.000   11.200 
#    0.000    0.000    0.000    0.000    0.000    0.000 
#    0.000    0.000    0.000    0.000    0.000    0.000 
#
# Total GULP energy -83766.993570 kJ/mol
# GULP energy per Si atom -5584.466238 kJ/mol
# Density = 2.307331 g / cm^3
# Si number density = 23.125946 Si / 1000 Ang^3
#
#
#
# Elastic Constant Matrix: (Units=GPa)
#
#
# Indices 1 2 3 4 5 6 
#
# 1 102.6114 16.6307 54.6728 -2.5118 -10.5375 3.0075
# 2 16.6307 101.0142 49.8134 19.6928 5.4575 21.1387
# 3 54.6728 49.8134 176.0034 10.3308 -18.0251 -2.8490
# 4 -2.5118 19.6928 10.3308 43.3579 6.3279 -2.8187
# 5 -10.5375 5.4575 -18.0251 6.3279 50.4678 6.2121
# 6 3.0075 21.1387 -2.8490 -2.8187 6.2121 28.1055
#
#
#
# Elastic Compliance Matrix: (Units=1/GPa)
#
#
# Indices 1 2 3 4 5 6 
#
# 1 0.011917 -0.000143 -0.003639 0.001332 0.001243 -0.001678
# 2 -0.000143 0.016322 -0.004462 -0.007092 -0.000871 -0.013232
# 3 -0.003639 -0.004462 0.008386 -0.000245 0.002247 0.004074
# 4 0.001332 -0.007092 -0.000245 0.027507 -0.003564 0.008713
# 5 0.001243 -0.000871 0.002247 -0.003564 0.021967 -0.004463
# 6 -0.001678 -0.013232 0.004074 0.008713 -0.004463 0.047985
#
#
# Mechanical properties :
#
#
# Convention : Reuss Voigt Hill
#
# Bulk Modulus (GPa) = 49.66322 69.09588 59.37955
# Shear Modulus (GPa) = 31.78927 41.62038 36.70482
#
# Velocity S-wave (km/s) = 3.71160 4.24692 3.98825
# Velocity P-wave (km/s) = 6.31583 7.34788 6.85132
#
# Compressibility (1/GPa) = 0.02013562
#
# Stress axis : x y z
#
# Youngs Moduli (GPa) = 83.91155 61.26618 119.25148
#
# Poissons Ratio (x) = 0.00876 0.43401
# Poissons Ratio (y) = 0.01200 0.53213
# Poissons Ratio (z) = 0.30539 0.27339
#
# Static dielectric constant tensor:
#      x y z
#    x 1.908510 0.009810 -0.038560 
#    y 0.009810 1.883030 -0.006650 
#    z -0.038560 -0.006650 1.869070 
# 
# From -- ./inp_files/518542.got.cif
#   From: 2010.05.17/outbox.cif.g08.bks.cpg/sg2_260_cif.got.tgz:518542.got - 2010.06.03 11:33:40.
