data_PCOD9066126
_publ_section_title
;
Structure prediction by ZEFSAII (Michael W. Deem and Ramdas Pophale) SiO2 
 PCOD9066126
Probable space group: P -1
;
_chemical_formula_sum "Si O2"
_cell_formula_units_Z 14
_cell_length_a 11.780633
_cell_length_b 13.384093
_cell_length_c 9.118054
_cell_angle_alpha 42.271637
_cell_angle_beta 45.483983
_cell_angle_gamma 34.900311
_cell_volume 536.454469
_symmetry_space_group_name_H-M "P -1"
_symmetry_group_IT_number 2
_symmetry_cell_setting 'triclinic'
loop_
_space_group_symop_operation_xyz
x,y,z
-x,-y,-z
loop_
_atom_site_type_symbol
_atom_site_label
_atom_site_fract_x
_atom_site_fract_y
_atom_site_fract_z
Si Si1 0.479796 0.846518 0.114500
Si Si2 0.145084 0.548241 0.868093
Si Si3 0.963391 0.378330 0.768483
Si Si4 0.090210 0.886436 0.382773
Si Si5 0.429552 0.047365 0.678589
Si Si6 0.676284 0.344923 0.864901
Si Si7 0.637666 0.228347 0.318924
O O1 0.644872 0.618853 0.226997
O O2 0.256012 0.907131 0.271840
O O3 0.500000 0.000000 0.000000
O O4 0.524440 0.860057 0.889049
O O5 0.081023 0.745554 0.645818
O O6 0.000000 0.500000 0.000000
O O7 0.116191 0.560863 0.058474
O O8 0.188398 0.174966 0.785600
O O9 0.000000 0.500000 0.500000
O O10 0.805676 0.375913 0.820047
O O11 0.188602 0.781115 0.254674
O O12 0.866894 0.079131 0.332297
O O13 0.508090 0.158732 0.551473
O O14 0.500000 0.000000 0.500000
O O15 0.481663 0.553684 0.761037
O O16 0.630829 0.240814 0.133714
#
# Coordination Sequence:
#
# PCOD9066126 Si02
#       7
#     2   2   2   2   2   2   2
#     4  12  29  51  79 115 161 213 274 335 409 490
#     4  12  28  51  80 120 164 220 269 335 414 492
#     4  12  24  46  77 117 162 204 266 333 402 480
#     4  12  27  54  81 116 167 214 275 337 415 489
#     4  12  24  45  78 114 155 208 268 329 401 476
#     4  11  25  46  81 119 159 209 274 337 415 475
#     4  11  25  44  79 118 159 205 271 337 407 477
#
# _framework density 26.097273999999999
#
# number of rings (size 3 to 8) (size 9 to 14) (size 15 to 20)
#    0.000    0.286    1.429    6.857    6.000    1.143 
#    0.000    4.286    0.000    0.000    0.000    0.000 
#    0.000    0.000    0.000    0.000    0.000    0.000 
#
# Total GULP energy -78460.711425 kJ/mol
# GULP energy per Si atom -5604.336530 kJ/mol
# Density = 2.603788 g / cm^3
# Si number density = 26.097274 Si / 1000 Ang^3
#
#
#
# Elastic Constant Matrix: (Units=GPa)
#
#
# Indices 1 2 3 4 5 6 
#
# 1 147.4039 84.5016 41.9638 3.2354 -20.2284 0.9626
# 2 84.5016 212.9300 55.0003 13.0266 14.5934 -26.2116
# 3 41.9638 55.0003 187.1891 -5.8481 4.6617 10.6908
# 4 3.2354 13.0266 -5.8481 51.6154 14.0604 12.5282
# 5 -20.2284 14.5934 4.6617 14.0604 47.1380 14.0493
# 6 0.9626 -26.2116 10.6908 12.5282 14.0493 52.1340
#
#
#
# Elastic Compliance Matrix: (Units=1/GPa)
#
#
# Indices 1 2 3 4 5 6 
#
# 1 0.011279 -0.005363 -0.000898 -0.000517 0.008174 -0.004799
# 2 -0.005363 0.008664 -0.001648 -0.002014 -0.006299 0.006974
# 3 -0.000898 -0.001648 0.006234 0.001860 -0.000316 -0.002452
# 4 -0.000517 -0.002014 0.001860 0.022814 -0.004937 -0.005536
# 5 0.008174 -0.006299 -0.000316 -0.004937 0.031306 -0.010503
# 6 -0.004799 0.006974 -0.002452 -0.005536 -0.010503 0.027440
#
#
# Mechanical properties :
#
#
# Convention : Reuss Voigt Hill
#
# Bulk Modulus (GPa) = 96.54492 101.16162 98.85327
# Shear Modulus (GPa) = 39.36759 54.58131 46.97445
#
# Velocity S-wave (km/s) = 3.88815 4.57821 4.24721
# Velocity P-wave (km/s) = 7.56515 8.17276 7.87482
#
# Compressibility (1/GPa) = 0.01035787
#
# Stress axis : x y z
#
# Youngs Moduli (GPa) = 88.66170 115.42176 160.41925
#
# Poissons Ratio (x) = 0.61905 0.14409
# Poissons Ratio (y) = 0.47553 0.26432
# Poissons Ratio (z) = 0.07964 0.19018
#
# Static dielectric constant tensor:
#      x y z
#    x 2.091900 -0.034440 0.046840 
#    y -0.034440 2.084250 -0.008570 
#    z 0.046840 -0.008570 2.136960 
# 
# From -- ./inp_files/314440.got.cif
#   From: 2010.05.17/outbox.cif.g08.bks.cpg/sg2_158_cif.got.tgz:314440.got - 2010.06.03 11:33:40.
