data_PCOD9066696
_publ_section_title
;
Structure prediction by ZEFSAII (Michael W. Deem and Ramdas Pophale) SiO2 
 PCOD9066696
Probable space group: P -1
;
_chemical_formula_sum "Si O2"
_cell_formula_units_Z 16
_cell_length_a 8.281752
_cell_length_b 11.388957
_cell_length_c 18.080304
_cell_angle_alpha 147.472812
_cell_angle_beta 57.450991
_cell_angle_gamma 127.825267
_cell_volume 723.412116
_symmetry_space_group_name_H-M "P -1"
_symmetry_group_IT_number 2
_symmetry_cell_setting 'triclinic'
loop_
_space_group_symop_operation_xyz
x,y,z
-x,-y,-z
loop_
_atom_site_type_symbol
_atom_site_label
_atom_site_fract_x
_atom_site_fract_y
_atom_site_fract_z
Si Si1 0.732128 0.625851 0.483513
Si Si2 0.225218 0.888240 0.324653
Si Si3 0.220538 0.710042 0.067798
Si Si4 0.998271 0.239095 0.369786
Si Si5 0.984777 0.416722 0.209934
Si Si6 0.424702 0.390329 0.135648
Si Si7 0.424799 0.097689 0.641309
Si Si8 0.804268 0.000776 0.914740
O O1 0.500000 0.500000 0.500000
O O2 0.840539 0.733023 0.590140
O O3 0.834264 0.448668 0.328117
O O4 0.765032 0.844585 0.535985
O O5 0.219678 0.825852 0.207438
O O6 0.047246 0.665799 0.284945
O O7 0.421144 0.880120 0.317066
O O8 0.239062 0.874389 0.080244
O O9 0.434819 0.662491 0.989524
O O10 0.000000 0.500000 0.000000
O O11 0.000000 0.500000 0.500000
O O12 0.045621 0.126796 0.223199
O O13 0.790225 0.067361 0.364287
O O14 0.198964 0.392263 0.171638
O O15 0.888767 0.196891 0.061836
O O16 0.566189 0.652681 0.257561
O O17 0.384456 0.207799 0.115130
O O18 0.500000 0.000000 0.500000
#
# Coordination Sequence:
#
# PCOD9066696 Si02
#       8
#     2   2   2   2   2   2   2   2
#     4  12  27  47  73 108 150 189 243 305 370 443
#     4  11  25  46  74 106 146 192 245 298 374 437
#     4  12  25  47  71 111 146 191 242 305 370 441
#     4  12  25  46  74 106 149 191 248 302 368 440
#     4  11  26  47  73 108 146 196 246 300 369 441
#     4  11  27  44  74 104 150 190 244 302 370 432
#     4  11  25  46  74 105 144 194 246 301 368 441
#     4  12  25  45  73 108 145 193 245 309 363 442
#
# _framework density 22.117408000000001
#
# number of rings (size 3 to 8) (size 9 to 14) (size 15 to 20)
#    0.000    0.500    2.500    5.625    3.500    3.000 
#    0.000    0.000    0.000    0.000    0.000    0.000 
#    0.000    0.000    0.000    0.000    0.000    0.000 
#
# Total GULP energy -89330.816202 kJ/mol
# GULP energy per Si atom -5583.176013 kJ/mol
# Density = 2.206707 g / cm^3
# Si number density = 22.117408 Si / 1000 Ang^3
#
#
#
# Elastic Constant Matrix: (Units=GPa)
#
#
# Indices 1 2 3 4 5 6 
#
# 1 74.2779 54.4428 45.1550 -4.1150 4.8598 8.1307
# 2 54.4428 174.8546 77.5518 13.8384 -5.1762 9.3240
# 3 45.1550 77.5518 145.3809 -17.5608 -4.3072 32.5425
# 4 -4.1150 13.8384 -17.5608 45.8126 1.6155 -7.9544
# 5 4.8598 -5.1762 -4.3072 1.6155 36.3996 -0.6653
# 6 8.1307 9.3240 32.5425 -7.9544 -0.6653 30.4159
#
#
#
# Elastic Compliance Matrix: (Units=1/GPa)
#
#
# Indices 1 2 3 4 5 6 
#
# 1 0.019384 -0.004831 -0.003389 0.002102 -0.003762 0.000393
# 2 -0.004831 0.009585 -0.004602 -0.004796 0.001714 0.002060
# 3 -0.003389 -0.004602 0.013358 0.004291 0.000990 -0.010832
# 4 0.002102 -0.004796 0.004291 0.025686 -0.001540 0.003001
# 5 -0.003762 0.001714 0.000990 -0.001540 0.028398 -0.000361
# 6 0.000393 0.002060 -0.010832 0.003001 -0.000361 0.044507
#
#
# Mechanical properties :
#
#
# Convention : Reuss Voigt Hill
#
# Bulk Modulus (GPa) = 59.94246 83.20141 71.57194
# Shear Modulus (GPa) = 29.04913 37.01654 33.03284
#
# Velocity S-wave (km/s) = 3.62803 4.09545 3.86880
# Velocity P-wave (km/s) = 6.68662 7.75006 7.23789
#
# Compressibility (1/GPa) = 0.01668266
#
# Stress axis : x y z
#
# Youngs Moduli (GPa) = 51.58989 104.33218 74.85984
#
# Poissons Ratio (x) = 0.50402 0.25370
# Poissons Ratio (y) = 0.24922 0.34452
# Poissons Ratio (z) = 0.17484 0.48015
#
# Static dielectric constant tensor:
#      x y z
#    x 0.171410 -2.638670 0.760530 
#    y -2.638670 -2.400730 1.290320 
#    z 0.760530 1.290320 1.324960 
# 
# From -- ./inp_files/560130.got.cif
#   From: 2010.05.17/outbox.cif.g08.bks.cpg/sg2_281_cif.got.tgz:560130.got - 2010.06.03 11:33:40.
