data_PCOD9066920
_publ_section_title
;
Structure prediction by ZEFSAII (Michael W. Deem and Ramdas Pophale) SiO2 
 PCOD9066920
Probable space group: P -1
;
_chemical_formula_sum "Si O2"
_cell_formula_units_Z 15
_cell_length_a 5.296226
_cell_length_b 12.975288
_cell_length_c 15.647808
_cell_angle_alpha 37.980580
_cell_angle_beta 60.703126
_cell_angle_gamma 69.933847
_cell_volume 575.284169
_symmetry_space_group_name_H-M "P -1"
_symmetry_group_IT_number 2
_symmetry_cell_setting 'triclinic'
loop_
_space_group_symop_operation_xyz
x,y,z
-x,-y,-z
loop_
_atom_site_type_symbol
_atom_site_label
_atom_site_fract_x
_atom_site_fract_y
_atom_site_fract_z
Si Si1 0.297538 0.413979 0.017651
Si Si2 0.500000 0.000000 0.500000
Si Si3 0.310397 0.730332 0.615556
Si Si4 0.156927 0.377347 0.491888
Si Si5 0.819483 0.975016 0.667435
Si Si6 0.149397 0.518208 0.215083
Si Si7 0.830610 0.852209 0.067708
Si Si8 0.706541 0.097288 0.782032
O O1 0.507454 0.436336 0.884979
O O2 0.500000 0.500000 0.000000
O O3 0.245853 0.220461 0.179882
O O4 0.000000 0.500000 0.000000
O O5 0.553940 0.213912 0.352998
O O6 0.835350 0.985053 0.412387
O O7 0.507403 0.647271 0.566920
O O8 0.013344 0.615881 0.735329
O O9 0.288830 0.933376 0.460808
O O10 0.075073 0.434983 0.373145
O O11 0.000000 0.500000 0.500000
O O12 0.015231 0.199836 0.663120
O O13 0.653404 0.054816 0.720579
O O14 0.012418 0.696966 0.118800
O O15 0.540990 0.798069 0.204858
O O16 0.727922 0.935357 0.943164
O O17 0.000000 0.000000 0.000000
#
# Coordination Sequence:
#
# PCOD9066920 Si02
#       8
#     2   1   2   2   2   2   2   2
#     4  12  33  53  83 118 167 219 282 349 425 500
#     4  12  26  48  78 110 148 206 274 340 408 494
#     4  12  27  48  79 114 161 207 275 341 418 495
#     4  12  27  46  78 115 162 207 270 336 417 500
#     4  12  28  48  80 108 158 208 275 330 420 494
#     4  12  28  50  78 122 159 216 273 349 415 506
#     4  11  26  46  77 110 162 208 272 333 420 495
#     4  11  25  47  72 115 148 210 264 332 409 497
#
# _framework density 26.074066999999999
#
# number of rings (size 3 to 8) (size 9 to 14) (size 15 to 20)
#    0.000    0.267    2.667    3.600   14.933    3.200 
#    0.000    0.000    0.000    0.000    0.000    0.000 
#    0.000    0.000    0.000    0.000    0.000    0.000 
#
# Total GULP energy -83804.886658 kJ/mol
# GULP energy per Si atom -5586.992444 kJ/mol
# Density = 2.601472 g / cm^3
# Si number density = 26.074067 Si / 1000 Ang^3
#
#
#
# Elastic Constant Matrix: (Units=GPa)
#
#
# Indices 1 2 3 4 5 6 
#
# 1 94.2573 29.1884 32.3394 -2.8749 -17.4790 -25.7836
# 2 29.1884 157.1890 46.9017 10.8677 -1.3322 -25.2910
# 3 32.3394 46.9017 106.1562 -2.8336 -18.9625 -10.5619
# 4 -2.8749 10.8677 -2.8336 58.8629 -2.0636 -2.3574
# 5 -17.4790 -1.3322 -18.9625 -2.0636 49.4449 4.0840
# 6 -25.7836 -25.2910 -10.5619 -2.3574 4.0840 50.9134
#
#
#
# Elastic Compliance Matrix: (Units=1/GPa)
#
#
# Indices 1 2 3 4 5 6 
#
# 1 0.014101 -0.000925 -0.002645 0.001091 0.003504 0.005902
# 2 -0.000925 0.008105 -0.003357 -0.001646 -0.001706 0.002922
# 3 -0.002645 -0.003357 0.012354 0.001191 0.003820 -0.000695
# 4 0.001091 -0.001646 0.001191 0.017482 0.001472 0.000674
# 5 0.003504 -0.001706 0.003820 0.001472 0.022948 -0.000053
# 6 0.005902 0.002922 -0.000695 0.000674 -0.000053 0.023973
#
#
# Mechanical properties :
#
#
# Convention : Reuss Voigt Hill
#
# Bulk Modulus (GPa) = 48.29678 63.82907 56.06292
# Shear Modulus (GPa) = 41.76525 48.45577 45.11051
#
# Velocity S-wave (km/s) = 4.00658 4.31558 4.16395
# Velocity P-wave (km/s) = 6.32192 7.02605 6.68327
#
# Compressibility (1/GPa) = 0.02070531
#
# Stress axis : x y z
#
# Youngs Moduli (GPa) = 70.91876 123.38626 80.94693
#
# Poissons Ratio (x) = 0.11418 0.21407
# Poissons Ratio (y) = 0.06563 0.27173
# Poissons Ratio (z) = 0.18755 0.41419
#
# Static dielectric constant tensor:
#      x y z
#    x 1.727120 0.040120 -0.031830 
#    y 0.040120 2.194720 -0.051120 
#    z -0.031830 -0.051120 2.036560 
# 
# From -- ./inp_files/549999.got.cif
#   From: 2010.05.17/outbox.cif.g08.bks.cpg/sg2_275_cif.got.tgz:549999.got - 2010.06.03 11:33:40.
