data_PCOD9066336
_publ_section_title
;
Structure prediction by ZEFSAII (Michael W. Deem and Ramdas Pophale) SiO2 
 PCOD9066336
Probable space group: P -1
;
_chemical_formula_sum "Si O2"
_cell_formula_units_Z 16
_cell_length_a 5.289481
_cell_length_b 8.901822
_cell_length_c 18.630972
_cell_angle_alpha 135.980706
_cell_angle_beta 99.004622
_cell_angle_gamma 86.318726
_cell_volume 600.598807
_symmetry_space_group_name_H-M "P -1"
_symmetry_group_IT_number 2
_symmetry_cell_setting 'triclinic'
loop_
_space_group_symop_operation_xyz
x,y,z
-x,-y,-z
loop_
_atom_site_type_symbol
_atom_site_label
_atom_site_fract_x
_atom_site_fract_y
_atom_site_fract_z
Si Si1 0.204808 0.338394 0.974225
Si Si2 0.113417 0.425681 0.202943
Si Si3 0.962892 0.051226 0.399871
Si Si4 0.192848 0.949644 0.080169
Si Si5 0.724888 0.222976 0.585028
Si Si6 0.662828 0.540880 0.445593
Si Si7 0.414667 0.593241 0.883922
Si Si8 0.374112 0.963285 0.756522
O O1 0.056256 0.216455 0.991499
O O2 0.226499 0.134422 0.854684
O O3 0.452223 0.480623 0.063085
O O4 0.000000 0.500000 0.000000
O O5 0.106652 0.552987 0.321206
O O6 0.392072 0.457827 0.188447
O O7 0.867281 0.502232 0.177404
O O8 0.092105 0.175472 0.133662
O O9 0.092971 0.290778 0.467776
O O10 0.808822 0.072007 0.473748
O O11 0.739887 0.989516 0.311033
O O12 0.194209 0.896693 0.378021
O O13 0.343986 0.983528 0.175136
O O14 0.382172 0.842131 0.994904
O O15 0.468987 0.318493 0.574647
O O16 0.500000 0.500000 0.500000
O O17 0.680860 0.298187 0.331026
#
# Coordination Sequence:
#
# PCOD9066336 Si02
#       8
#     2   2   2   2   2   2   2   2
#     4  11  28  48  72 109 150 202 256 320 384 470
#     4  12  26  44  79 110 148 201 254 312 394 453
#     4  11  27  48  71 110 155 198 260 318 395 464
#     4  11  25  45  74 107 150 190 262 315 381 460
#     4  11  27  46  73 109 152 202 254 324 387 468
#     4  12  25  48  75 109 151 203 262 324 383 467
#     4  11  26  47  73 108 149 196 250 318 379 458
#     4  11  26  43  78 105 148 203 257 314 396 454
#
# _framework density 26.640077999999999
#
# number of rings (size 3 to 8) (size 9 to 14) (size 15 to 20)
#    0.000    0.750    3.750    1.500   10.500    3.000 
#    0.000    1.250    0.000    0.000    0.000    0.000 
#    0.000    0.000    0.000    0.000    0.000    0.000 
#
# Total GULP energy -89171.462164 kJ/mol
# GULP energy per Si atom -5573.216385 kJ/mol
# Density = 2.657944 g / cm^3
# Si number density = 26.640078 Si / 1000 Ang^3
#
#
#
# Elastic Constant Matrix: (Units=GPa)
#
#
# Indices 1 2 3 4 5 6 
#
# 1 100.0993 24.7311 54.5646 -7.4701 17.7293 -29.7631
# 2 24.7311 112.3849 18.9394 7.5671 1.2553 -26.9204
# 3 54.5646 18.9394 122.6776 -15.3138 19.6928 -24.4613
# 4 -7.4701 7.5671 -15.3138 55.8057 -17.9696 3.1373
# 5 17.7293 1.2553 19.6928 -17.9696 30.9738 -1.3155
# 6 -29.7631 -26.9204 -24.4613 3.1373 -1.3155 45.7213
#
#
#
# Elastic Compliance Matrix: (Units=1/GPa)
#
#
# Indices 1 2 3 4 5 6 
#
# 1 0.015986 -0.000783 -0.004627 -0.001632 -0.006810 0.007386
# 2 -0.000783 0.010652 -0.000296 -0.002224 -0.000842 0.005733
# 3 -0.004627 -0.000296 0.011592 0.001187 -0.003901 0.002822
# 4 -0.001632 -0.002224 0.001187 0.022798 0.013372 -0.002916
# 5 -0.006810 -0.000842 -0.003901 0.013372 0.046175 -0.006605
# 6 0.007386 0.005733 0.002822 -0.002916 -0.006605 0.031575
#
#
# Mechanical properties :
#
#
# Convention : Reuss Voigt Hill
#
# Bulk Modulus (GPa) = 37.28679 59.07021 48.17850
# Shear Modulus (GPa) = 31.42074 42.29528 36.85801
#
# Velocity S-wave (km/s) = 3.43804 3.98886 3.72365
# Velocity P-wave (km/s) = 5.45775 6.59062 6.05076
#
# Compressibility (1/GPa) = 0.02681915
#
# Stress axis : x y z
#
# Youngs Moduli (GPa) = 62.55311 93.87533 86.26390
#
# Poissons Ratio (x) = 0.07350 0.39918
# Poissons Ratio (y) = 0.04898 0.02550
# Poissons Ratio (z) = 0.28946 0.02776
#
# Static dielectric constant tensor:
#      x y z
#    x 2.204060 0.055880 -0.021520 
#    y 0.055880 2.213770 -0.091800 
#    z -0.021520 -0.091800 2.137490 
# 
# From -- ./inp_files/548437.got.cif
#   From: 2010.05.17/outbox.cif.g08.bks.cpg/sg2_275_cif.got.tgz:548437.got - 2010.06.03 11:33:40.
