data_PCOD9066663
_publ_section_title
;
Structure prediction by ZEFSAII (Michael W. Deem and Ramdas Pophale) SiO2 
 PCOD9066663
Probable space group: P -1
;
_chemical_formula_sum "Si O2"
_cell_formula_units_Z 15
_cell_length_a 12.952542
_cell_length_b 9.047160
_cell_length_c 21.489259
_cell_angle_alpha 145.831847
_cell_angle_beta 27.177018
_cell_angle_gamma 145.175080
_cell_volume 609.593799
_symmetry_space_group_name_H-M "P -1"
_symmetry_group_IT_number 2
_symmetry_cell_setting 'triclinic'
loop_
_space_group_symop_operation_xyz
x,y,z
-x,-y,-z
loop_
_atom_site_type_symbol
_atom_site_label
_atom_site_fract_x
_atom_site_fract_y
_atom_site_fract_z
Si Si1 0.491445 0.337642 0.054877
Si Si2 0.500000 0.000000 0.500000
Si Si3 0.255174 0.604886 0.598321
Si Si4 0.235966 0.766449 0.313810
Si Si5 0.569622 0.774999 0.811658
Si Si6 0.898931 0.169275 0.452809
Si Si7 0.983097 0.303537 0.119588
Si Si8 0.578261 0.332183 0.275981
O O1 0.317763 0.492549 0.175551
O O2 0.498673 0.381715 0.141150
O O3 0.753555 0.485885 0.938663
O O4 0.440050 0.008821 0.959038
O O5 0.295351 0.837601 0.605106
O O6 0.289277 0.958599 0.544638
O O7 0.190543 0.700373 0.731734
O O8 0.481902 0.502032 0.436414
O O9 0.030197 0.334572 0.605681
O O10 0.221179 0.867317 0.427522
O O11 0.423768 0.009191 0.258284
O O12 0.490117 0.583356 0.726298
O O13 0.858777 0.912729 0.704250
O O14 0.000000 0.500000 0.500000
O O15 0.853955 0.376079 0.153837
O O16 0.000000 0.000000 0.000000
#
# Coordination Sequence:
#
# PCOD9066663 Si02
#       8
#     2   1   2   2   2   2   2   2
#     4  11  26  46  70 103 146 193 234 300 364 459
#     4  12  26  44  78 110 146 188 244 306 366 428
#     4  12  27  45  75 109 139 194 248 309 362 432
#     4  12  24  47  77 102 149 194 244 299 375 438
#     4  11  25  46  73 107 141 189 247 297 370 431
#     4  12  23  47  73 109 148 191 248 303 363 434
#     4  12  28  47  67 104 151 192 240 298 371 442
#     4  12  26  47  74 107 140 191 247 311 361 432
#
# _framework density 24.606549999999999
#
# number of rings (size 3 to 8) (size 9 to 14) (size 15 to 20)
#    0.000    0.267    5.333    2.400    5.600    1.600 
#    0.000    0.000    0.000    0.000    0.000    0.000 
#    0.000    0.000    0.000    0.000    0.000    0.000 
#
# Total GULP energy -83839.417821 kJ/mol
# GULP energy per Si atom -5589.294521 kJ/mol
# Density = 2.455054 g / cm^3
# Si number density = 24.606550 Si / 1000 Ang^3
#
#
#
# Elastic Constant Matrix: (Units=GPa)
#
#
# Indices 1 2 3 4 5 6 
#
# 1 115.0950 -7.5316 35.1655 -0.6095 8.3726 9.5669
# 2 -7.5316 55.6632 -6.2474 -5.3218 -0.3912 -7.5410
# 3 35.1655 -6.2474 110.8313 9.8794 -6.8192 1.1784
# 4 -0.6095 -5.3218 9.8794 30.3681 -6.3003 -1.2059
# 5 8.3726 -0.3912 -6.8192 -6.3003 46.2323 -6.9291
# 6 9.5669 -7.5410 1.1784 -1.2059 -6.9291 35.2580
#
#
#
# Elastic Compliance Matrix: (Units=1/GPa)
#
#
# Indices 1 2 3 4 5 6 
#
# 1 0.010224 0.000643 -0.003408 0.000746 -0.002701 -0.003028
# 2 0.000643 0.019045 0.000582 0.003591 0.001257 0.004249
# 3 -0.003408 0.000582 0.010507 -0.002949 0.001916 0.000974
# 4 0.000746 0.003591 -0.002949 0.035627 0.004737 0.002814
# 5 -0.002701 0.001257 0.001916 0.004737 0.023927 0.005802
# 6 -0.003028 0.004249 0.000974 0.002814 0.005802 0.031297
#
#
# Mechanical properties :
#
#
# Convention : Reuss Voigt Hill
#
# Bulk Modulus (GPa) = 28.24119 36.04028 32.14073
# Shear Modulus (GPa) = 34.06034 39.71855 36.88945
#
# Velocity S-wave (km/s) = 3.72452 4.02200 3.87611
# Velocity P-wave (km/s) = 5.47705 6.02055 5.75522
#
# Compressibility (1/GPa) = 0.03540928
#
# Stress axis : x y z
#
# Youngs Moduli (GPa) = 97.80899 52.50654 95.17230
#
# Poissons Ratio (x) = -0.03376 0.32437
# Poissons Ratio (y) = -0.06289 -0.05535
# Poissons Ratio (z) = 0.33335 -0.03054
#
# Static dielectric constant tensor:
#      x y z
#    x 1.943170 -0.024530 -0.006920 
#    y -0.024530 2.002300 0.119570 
#    z -0.006920 0.119570 2.029170 
# 
# From -- ./inp_files/181506.got.cif
#   From: 2010.05.17/outbox.cif.g08.bks.cpg/sg2_91_cif.got.tgz:181506.got - 2010.06.03 11:33:40.
