data_PCOD9066074
_publ_section_title
;
Structure prediction by ZEFSAII (Michael W. Deem and Ramdas Pophale) SiO2 
 PCOD9066074
Probable space group: P -1
;
_chemical_formula_sum "Si O2"
_cell_formula_units_Z 16
_cell_length_a 7.823517
_cell_length_b 5.764365
_cell_length_c 28.161495
_cell_angle_alpha 51.816533
_cell_angle_beta 133.386103
_cell_angle_gamma 104.938714
_cell_volume 693.853232
_symmetry_space_group_name_H-M "P -1"
_symmetry_group_IT_number 2
_symmetry_cell_setting 'triclinic'
loop_
_space_group_symop_operation_xyz
x,y,z
-x,-y,-z
loop_
_atom_site_type_symbol
_atom_site_label
_atom_site_fract_x
_atom_site_fract_y
_atom_site_fract_z
Si Si1 0.106248 0.280656 0.000703
Si Si2 0.036522 0.291329 0.172286
Si Si3 0.666336 0.903311 0.174501
Si Si4 0.552867 0.896138 0.337895
Si Si5 0.940217 0.668280 0.718513
Si Si6 0.116627 0.258547 0.665953
Si Si7 0.986700 0.077855 0.433043
Si Si8 0.507976 0.320941 0.437245
O O1 0.058279 0.488976 0.917857
O O2 0.000000 0.500000 0.000000
O O3 0.393735 0.101280 0.084966
O O4 0.000000 0.000000 0.000000
O O5 0.063421 0.407555 0.216543
O O6 0.310950 0.082931 0.240931
O O7 0.850648 0.091627 0.169510
O O8 0.686187 0.859448 0.240126
O O9 0.803545 0.566449 0.221997
O O10 0.741214 0.702807 0.359181
O O11 0.474422 0.690052 0.389553
O O12 0.710810 0.110007 0.360479
O O13 0.689684 0.649418 0.647735
O O14 0.971216 0.004665 0.669905
O O15 0.952065 0.600779 0.605337
O O16 0.000000 0.000000 0.500000
O O17 0.191746 0.782847 0.490307
O O18 0.500000 0.000000 0.500000
#
# Coordination Sequence:
#
# PCOD9066074 Si02
#       8
#     2   2   2   2   2   2   2   2
#     4  12  31  51  83 122 153 199 252 315 381 471
#     4  11  27  47  77 107 153 197 245 311 380 461
#     4  11  25  50  77 108 150 192 244 306 386 446
#     4  12  25  45  68 104 143 195 247 309 377 444
#     4  11  26  47  74 109 145 200 247 313 380 452
#     4  11  25  44  73  99 146 195 248 312 377 447
#     4  12  26  42  65  99 142 197 246 314 366 443
#     4  12  25  43  68 103 146 194 256 312 374 440
#
# _framework density 23.059631
#
# number of rings (size 3 to 8) (size 9 to 14) (size 15 to 20)
#    0.000    0.500    2.500    4.500   12.250    1.000 
#    0.000    0.000    0.000    0.000    0.000    0.000 
#    0.000    0.000    0.000    0.000    0.000    0.000 
#
# Total GULP energy -89139.866604 kJ/mol
# GULP energy per Si atom -5571.241663 kJ/mol
# Density = 2.300715 g / cm^3
# Si number density = 23.059631 Si / 1000 Ang^3
#
#
#
# Elastic Constant Matrix: (Units=GPa)
#
#
# Indices 1 2 3 4 5 6 
#
# 1 83.8981 35.6009 51.5144 -0.9631 0.3006 -7.5323
# 2 35.6009 110.0400 49.2477 -6.8876 6.8771 8.9321
# 3 51.5144 49.2477 170.3469 -2.6761 12.6136 5.7191
# 4 -0.9631 -6.8876 -2.6761 34.6829 7.9271 -1.9345
# 5 0.3006 6.8771 12.6136 7.9271 62.2889 -2.1739
# 6 -7.5323 8.9321 5.7191 -1.9345 -2.1739 32.0923
#
#
#
# Elastic Compliance Matrix: (Units=1/GPa)
#
#
# Indices 1 2 3 4 5 6 
#
# 1 0.016779 -0.004172 -0.004190 -0.000705 0.001524 0.005907
# 2 -0.004172 0.011818 -0.001893 0.002168 -0.001313 -0.003889
# 3 -0.004190 -0.001893 0.007864 0.000343 -0.001475 -0.001937
# 4 -0.000705 0.002168 0.000343 0.030254 -0.004131 0.000714
# 5 0.001524 -0.001313 -0.001475 -0.004131 0.017082 0.001894
# 6 0.005907 -0.003889 -0.001937 0.000714 0.001894 0.034146
#
#
# Mechanical properties :
#
#
# Convention : Reuss Voigt Hill
#
# Bulk Modulus (GPa) = 62.69220 70.77900 66.73560
# Shear Modulus (GPa) = 34.77738 41.00760 37.89249
#
# Velocity S-wave (km/s) = 3.88770 4.22160 4.05809
# Velocity P-wave (km/s) = 6.88464 7.38397 7.13868
#
# Compressibility (1/GPa) = 0.01595095
#
# Stress axis : x y z
#
# Youngs Moduli (GPa) = 59.59762 84.61607 127.15388
#
# Poissons Ratio (x) = 0.35302 0.53281
# Poissons Ratio (y) = 0.24864 0.24072
# Poissons Ratio (z) = 0.24973 0.16019
#
# Static dielectric constant tensor:
#      x y z
#    x 1.938450 -0.054850 -0.044280 
#    y -0.054850 1.855640 0.185360 
#    z -0.044280 0.185360 1.390690 
# 
# From -- ./inp_files/622176.got.cif
#   From: 2010.05.17/outbox.cif.g08.bks.cpg/sg2_312_cif.got.tgz:622176.got - 2010.06.03 11:33:40.
