data_PCOD9066491
_publ_section_title
;
Structure prediction by ZEFSAII (Michael W. Deem and Ramdas Pophale) SiO2 
 PCOD9066491
Probable space group: P -1
;
_chemical_formula_sum "Si O2"
_cell_formula_units_Z 14
_cell_length_a 15.800446
_cell_length_b 4.823692
_cell_length_c 7.390836
_cell_angle_alpha 110.548248
_cell_angle_beta 100.613242
_cell_angle_gamma 95.604283
_cell_volume 510.315960
_symmetry_space_group_name_H-M "P -1"
_symmetry_group_IT_number 2
_symmetry_cell_setting 'triclinic'
loop_
_space_group_symop_operation_xyz
x,y,z
-x,-y,-z
loop_
_atom_site_type_symbol
_atom_site_label
_atom_site_fract_x
_atom_site_fract_y
_atom_site_fract_z
Si Si1 0.050268 0.727051 0.929171
Si Si2 0.808206 0.746749 0.963225
Si Si3 0.180703 0.772747 0.425504
Si Si4 0.878470 0.648411 0.372696
Si Si5 0.618215 0.531136 0.961106
Si Si6 0.626233 0.860668 0.405074
Si Si7 0.467908 0.148318 0.278000
O O1 0.044327 0.529074 0.698452
O O2 0.000000 0.500000 0.000000
O O3 0.149596 0.920187 0.010371
O O4 0.000000 0.000000 0.000000
O O5 0.836189 0.495977 0.786382
O O6 0.841034 0.708080 0.172197
O O7 0.704162 0.675567 0.916449
O O8 0.178296 0.594013 0.573736
O O9 0.277311 0.962049 0.475195
O O10 0.116544 0.022247 0.459243
O O11 0.541168 0.669412 0.865688
O O12 0.635719 0.631517 0.196167
O O13 0.593253 0.177517 0.848671
O O14 0.575845 0.725973 0.534419
O O15 0.562489 0.075907 0.348793
#
# Coordination Sequence:
#
# PCOD9066491 Si02
#       7
#     2   2   2   2   2   2   2
#     4  12  25  49  82 110 149 191 230 299 370 433
#     4  12  28  47  79 108 147 194 245 301 364 437
#     4  12  28  43  77 110 145 195 255 294 358 436
#     4  12  26  50  76 108 148 193 242 294 365 435
#     4  12  26  44  73 100 142 192 249 296 362 428
#     4  11  25  46  70 101 149 193 242 310 360 423
#     4  11  28  44  67 106 144 192 248 302 369 418
#
# _framework density 27.433982
#
# number of rings (size 3 to 8) (size 9 to 14) (size 15 to 20)
#    0.000    0.286    5.714    0.857    8.000    4.571 
#    0.000    4.286    0.000    0.000    0.000    0.000 
#    0.000    0.000    0.000    0.000    0.000    0.000 
#
# Total GULP energy -78510.127486 kJ/mol
# GULP energy per Si atom -5607.866249 kJ/mol
# Density = 2.737154 g / cm^3
# Si number density = 27.433982 Si / 1000 Ang^3
#
#
#
# Elastic Constant Matrix: (Units=GPa)
#
#
# Indices 1 2 3 4 5 6 
#
# 1 99.2821 26.0863 51.5901 14.9437 -13.7249 29.8268
# 2 26.0863 176.3944 44.2990 22.2038 -11.4177 14.1343
# 3 51.5901 44.2990 160.5144 16.5883 -17.5589 1.6850
# 4 14.9437 22.2038 16.5883 60.2188 -2.9946 -0.3249
# 5 -13.7249 -11.4177 -17.5589 -2.9946 47.2594 -3.1676
# 6 29.8268 14.1343 1.6850 -0.3249 -3.1676 36.8518
#
#
#
# Elastic Compliance Matrix: (Units=1/GPa)
#
#
# Indices 1 2 3 4 5 6 
#
# 1 0.017548 0.000308 -0.005025 -0.003051 0.002176 -0.013931
# 2 0.000308 0.006537 -0.001581 -0.002027 0.000776 -0.002636
# 3 -0.005025 -0.001581 0.008448 -0.000395 0.001568 0.004419
# 4 -0.003051 -0.002027 -0.000395 0.018231 -0.000139 0.003414
# 5 0.002176 0.000776 0.001568 -0.000139 0.022540 -0.000195
# 6 -0.013931 -0.002636 0.004419 0.003414 -0.000195 0.039233
#
#
# Mechanical properties :
#
#
# Convention : Reuss Voigt Hill
#
# Bulk Modulus (GPa) = 50.16060 75.57130 62.86595
# Shear Modulus (GPa) = 37.94213 49.81370 43.87791
#
# Velocity S-wave (km/s) = 3.72295 4.26580 4.00359
# Velocity P-wave (km/s) = 6.06665 7.20203 6.65858
#
# Compressibility (1/GPa) = 0.01993597
#
# Stress axis : x y z
#
# Youngs Moduli (GPa) = 56.98622 152.97073 118.37765
#
# Poissons Ratio (x) = -0.04714 0.59490
# Poissons Ratio (y) = -0.01756 0.18717
# Poissons Ratio (z) = 0.28638 0.24187
#
# Static dielectric constant tensor:
#      x y z
#    x 2.184040 -0.076470 -0.005710 
#    y -0.076470 2.065610 -0.005580 
#    z -0.005710 -0.005580 2.144030 
# 
# From -- ./inp_files/324230.got.cif
#   From: 2010.05.17/outbox.cif.g08.bks.cpg/sg2_163_cif.got.tgz:324230.got - 2010.06.03 11:33:40.
