data_PCOD9066677
_publ_section_title
;
Structure prediction by ZEFSAII (Michael W. Deem and Ramdas Pophale) SiO2 
 PCOD9066677
Probable space group: P -1
;
_chemical_formula_sum "Si O2"
_cell_formula_units_Z 16
_cell_length_a 20.676718
_cell_length_b 16.179047
_cell_length_c 11.978087
_cell_angle_alpha 130.957345
_cell_angle_beta 35.828313
_cell_angle_gamma 161.064403
_cell_volume 616.500539
_symmetry_space_group_name_H-M "P -1"
_symmetry_group_IT_number 2
_symmetry_cell_setting 'triclinic'
loop_
_space_group_symop_operation_xyz
x,y,z
-x,-y,-z
loop_
_atom_site_type_symbol
_atom_site_label
_atom_site_fract_x
_atom_site_fract_y
_atom_site_fract_z
Si Si1 0.954741 0.341106 0.976743
Si Si2 0.759841 0.885702 0.095093
Si Si3 0.338516 0.657117 0.332616
Si Si4 0.628194 0.555705 0.545209
Si Si5 0.800070 0.891053 0.435664
Si Si6 0.890748 0.097146 0.692649
Si Si7 0.847940 0.376233 0.834237
Si Si8 0.146211 0.431989 0.168088
O O1 0.599868 0.977371 0.187571
O O2 0.000000 0.500000 0.000000
O O3 0.133878 0.516971 0.998657
O O4 0.061016 0.356844 0.745095
O O5 0.558191 0.773489 0.192951
O O6 0.553017 0.628428 0.248595
O O7 0.961905 0.978536 0.833073
O O8 0.965216 0.164780 0.125027
O O9 0.112635 0.526971 0.605441
O O10 0.125222 0.409936 0.311636
O O11 0.611665 0.652642 0.587091
O O12 0.453464 0.314431 0.486575
O O13 0.994418 0.883177 0.358018
O O14 0.520267 0.771842 0.922231
O O15 0.968093 0.139452 0.494535
O O16 0.934565 0.525060 0.733674
O O17 0.500000 0.000000 0.000000
#
# Coordination Sequence:
#
# PCOD9066677 Si02
#       8
#     2   2   2   2   2   2   2   2
#     4  11  25  47  77 110 154 200 260 314 388 458
#     4  12  27  48  77 117 156 202 258 318 387 460
#     4  11  26  49  74 111 160 201 253 327 382 463
#     4  11  26  45  81 108 155 202 261 312 385 452
#     4  11  25  50  77 111 158 200 256 322 383 453
#     4  11  26  46  77 112 151 204 248 317 379 456
#     4  12  26  46  77 111 152 203 258 322 389 461
#     4  11  25  46  73 111 158 197 258 314 384 454
#
# _framework density 25.952936000000001
#
# number of rings (size 3 to 8) (size 9 to 14) (size 15 to 20)
#    0.000    0.750    1.250    6.000    5.250    3.500 
#    0.000    0.000    0.000    2.250    0.000    0.000 
#    0.000    0.000    0.000    0.000    0.000    0.000 
#
# Total GULP energy -89497.034525 kJ/mol
# GULP energy per Si atom -5593.564658 kJ/mol
# Density = 2.589387 g / cm^3
# Si number density = 25.952936 Si / 1000 Ang^3
#
#
#
# Elastic Constant Matrix: (Units=GPa)
#
#
# Indices 1 2 3 4 5 6 
#
# 1 123.5146 8.3243 65.7266 13.0635 14.0886 23.5161
# 2 8.3243 120.4039 47.5617 32.7873 -0.5245 19.4097
# 3 65.7266 47.5617 120.9260 27.4965 4.7446 1.3088
# 4 13.0635 32.7873 27.4965 57.1505 -2.5511 10.4072
# 5 14.0886 -0.5245 4.7446 -2.5511 49.7010 1.4080
# 6 23.5161 19.4097 1.3088 10.4072 1.4080 42.9279
#
#
#
# Elastic Compliance Matrix: (Units=1/GPa)
#
#
# Indices 1 2 3 4 5 6 
#
# 1 0.015267 0.004321 -0.009878 0.000475 -0.003030 -0.010032
# 2 0.004321 0.012717 -0.006349 -0.003987 -0.000493 -0.006941
# 3 -0.009878 -0.006349 0.016871 -0.003762 0.000684 0.008657
# 4 0.000475 -0.003987 -0.003762 0.022239 0.001431 -0.003781
# 5 -0.003030 -0.000493 0.000684 0.001431 0.020959 0.000828
# 6 -0.010032 -0.006941 0.008657 -0.003781 0.000828 0.032554
#
#
# Mechanical properties :
#
#
# Convention : Reuss Voigt Hill
#
# Bulk Modulus (GPa) = 47.52457 67.56329 57.54393
# Shear Modulus (GPa) = 33.01781 46.17135 39.59458
#
# Velocity S-wave (km/s) = 3.57069 4.22244 3.91017
# Velocity P-wave (km/s) = 5.94570 7.06127 6.52736
#
# Compressibility (1/GPa) = 0.02104175
#
# Stress axis : x y z
#
# Youngs Moduli (GPa) = 65.50166 78.63385 59.27409
#
# Poissons Ratio (x) = -0.33978 0.58551
# Poissons Ratio (y) = -0.28303 0.37636
# Poissons Ratio (z) = 0.64703 0.49928
#
# Static dielectric constant tensor:
#      x y z
#    x 2.193190 -0.045920 0.025520 
#    y -0.045920 2.159320 0.019660 
#    z 0.025520 0.019660 2.129870 
# 
# From -- ./inp_files/348513.got.cif
#   From: 2010.05.17/outbox.cif.g08.bks.cpg/sg2_175_cif.got.tgz:348513.got - 2010.06.03 11:33:40.
