data_PCOD9066440
_publ_section_title
;
Structure prediction by ZEFSAII (Michael W. Deem and Ramdas Pophale) SiO2 
 PCOD9066440
Probable space group: P -1
;
_chemical_formula_sum "Si O2"
_cell_formula_units_Z 12
_cell_length_a 7.889032
_cell_length_b 8.356192
_cell_length_c 11.038031
_cell_angle_alpha 70.101634
_cell_angle_beta 134.334898
_cell_angle_gamma 121.764128
_cell_volume 442.057604
_symmetry_space_group_name_H-M "P -1"
_symmetry_group_IT_number 2
_symmetry_cell_setting 'triclinic'
loop_
_space_group_symop_operation_xyz
x,y,z
-x,-y,-z
loop_
_atom_site_type_symbol
_atom_site_label
_atom_site_fract_x
_atom_site_fract_y
_atom_site_fract_z
Si Si1 0.970700 0.032393 0.816849
Si Si2 0.693442 0.913529 0.274218
Si Si3 0.791228 0.650944 0.588205
Si Si4 0.083348 0.409097 0.701909
Si Si5 0.099227 0.720453 0.968651
Si Si6 0.618118 0.212817 0.331956
O O1 0.083365 0.258501 0.837653
O O2 0.110054 0.054740 0.747025
O O3 0.653442 0.921655 0.701934
O O4 0.076070 0.899369 0.976673
O O5 0.668700 0.091649 0.280187
O O6 0.411348 0.793493 0.103464
O O7 0.234812 0.197529 0.554852
O O8 0.500000 0.500000 0.500000
O O9 0.945633 0.535807 0.647471
O O10 0.919903 0.712516 0.766682
O O11 0.865983 0.279535 0.529377
O O12 0.356720 0.577811 0.748645
O O13 0.000000 0.500000 0.000000
#
# Coordination Sequence:
#
# PCOD9066440 Si02
#       6
#     2   2   2   2   2   2
#     4  12  27  49  80 118 166 213 271 340 403 491
#     4  12  27  53  84 120 165 219 273 338 414 484
#     4  12  24  49  85 118 165 215 271 342 404 489
#     4  11  25  45  78 123 160 216 274 335 415 480
#     4  12  28  50  83 122 161 220 278 329 416 491
#     4  11  25  48  78 122 167 209 275 339 405 490
#
# _framework density 27.145783000000002
#
# number of rings (size 3 to 8) (size 9 to 14) (size 15 to 20)
#    0.000    0.333    1.667    7.000    2.333    2.667 
#    0.000    4.167    0.000    0.000    0.000    0.000 
#    0.000    0.000    0.000    0.000    0.000    0.000 
#
# Total GULP energy -66977.253627 kJ/mol
# GULP energy per Si atom -5581.437802 kJ/mol
# Density = 2.708400 g / cm^3
# Si number density = 27.145783 Si / 1000 Ang^3
#
#
#
# Elastic Constant Matrix: (Units=GPa)
#
#
# Indices 1 2 3 4 5 6 
#
# 1 99.7319 72.1099 29.2123 7.6110 25.6369 14.2950
# 2 72.1099 306.4829 77.2729 -13.9220 29.4130 28.6109
# 3 29.2123 77.2729 143.1622 14.3473 1.2354 15.4092
# 4 7.6110 -13.9220 14.3473 61.3332 5.5666 -1.6398
# 5 25.6369 29.4130 1.2354 5.5666 36.8634 -4.2173
# 6 14.2950 28.6109 15.4092 -1.6398 -4.2173 51.5806
#
#
#
# Elastic Compliance Matrix: (Units=1/GPa)
#
#
# Indices 1 2 3 4 5 6 
#
# 1 0.014709 -0.002030 -0.001348 -0.001265 -0.008752 -0.003303
# 2 -0.002030 0.004812 -0.002192 0.002073 -0.002852 -0.001619
# 3 -0.001348 -0.002192 0.008783 -0.002653 0.002690 -0.000899
# 4 -0.001265 0.002073 -0.002653 0.017864 -0.003350 0.000287
# 5 -0.008752 -0.002852 0.002690 -0.003350 0.036602 0.006090
# 6 -0.003303 -0.001619 -0.000899 0.000287 0.006090 0.021976
#
#
# Mechanical properties :
#
#
# Convention : Reuss Voigt Hill
#
# Bulk Modulus (GPa) = 58.26082 100.72969 79.49525
# Shear Modulus (GPa) = 41.11582 54.67422 47.89502
#
# Velocity S-wave (km/s) = 3.89605 4.49274 4.20499
# Velocity P-wave (km/s) = 6.46125 8.00627 7.27489
#
# Compressibility (1/GPa) = 0.01716419
#
# Stress axis : x y z
#
# Youngs Moduli (GPa) = 67.98446 207.80527 113.86113
#
# Poissons Ratio (x) = 0.42189 0.15346
# Poissons Ratio (y) = 0.13802 0.24958
# Poissons Ratio (z) = 0.09163 0.45551
#
# Static dielectric constant tensor:
#      x y z
#    x 2.666010 -0.089350 -0.144690 
#    y -0.089350 2.491660 -0.007920 
#    z -0.144690 -0.007920 2.049450 
# 
# From -- ./inp_files/492655.got.cif
#   From: 2010.05.17/outbox.cif.g08.bks.cpg/sg2_247_cif.got.tgz:492655.got - 2010.06.03 11:33:40.
