data_PCOD9066184
_publ_section_title
;
Structure prediction by ZEFSAII (Michael W. Deem and Ramdas Pophale) SiO2 
 PCOD9066184
Probable space group: P -1
;
_chemical_formula_sum "Si O2"
_cell_formula_units_Z 14
_cell_length_a 22.780712
_cell_length_b 10.272610
_cell_length_c 12.297928
_cell_angle_alpha 128.524141
_cell_angle_beta 152.652506
_cell_angle_gamma 33.535469
_cell_volume 647.331198
_symmetry_space_group_name_H-M "P -1"
_symmetry_group_IT_number 2
_symmetry_cell_setting 'triclinic'
loop_
_space_group_symop_operation_xyz
x,y,z
-x,-y,-z
loop_
_atom_site_type_symbol
_atom_site_label
_atom_site_fract_x
_atom_site_fract_y
_atom_site_fract_z
Si Si1 0.965904 0.775231 0.827172
Si Si2 0.463383 0.222769 0.804189
Si Si3 0.589534 0.246123 0.798531
Si Si4 0.135780 0.758905 0.682028
Si Si5 0.330239 0.654094 0.395503
Si Si6 0.195171 0.224051 0.235105
Si Si7 0.099779 0.324305 0.681589
O O1 0.889755 0.832580 0.854920
O O2 0.025046 0.532564 0.757394
O O3 0.777408 0.060083 0.608270
O O4 0.159239 0.699291 0.095232
O O5 0.538450 0.262749 0.848554
O O6 0.321435 0.474942 0.780552
O O7 0.324763 0.221416 0.518981
O O8 0.657004 0.946891 0.042481
O O9 0.412711 0.494144 0.559817
O O10 0.663788 0.999051 0.740405
O O11 0.766881 0.203309 0.059814
O O12 0.997393 0.758134 0.506232
O O13 0.000000 0.000000 0.500000
O O14 0.500000 0.500000 0.500000
O O15 0.000000 0.500000 0.000000
O O16 0.000000 0.500000 0.500000
#
# Coordination Sequence:
#
# PCOD9066184 Si02
#       7
#     2   2   2   2   2   2   2
#     4  11  25  46  68 103 145 182 241 301 354 434
#     4  12  26  49  72 105 147 190 247 302 363 435
#     4  12  25  43  76 101 141 192 240 297 371 424
#     4  12  27  49  72 107 148 188 247 301 362 440
#     4  11  25  45  70 105 141 186 237 301 368 433
#     4  12  23  44  75 105 140 184 242 304 362 430
#     4  12  29  46  74 104 147 198 245 301 368 437
#
# _framework density 21.627262000000002
#
# number of rings (size 3 to 8) (size 9 to 14) (size 15 to 20)
#    0.000    0.286    4.286    4.286    4.000    0.571 
#    0.000    0.000    0.000    0.000    0.000    0.000 
#    0.000    0.000    0.000    0.000    0.000    0.000 
#
# Total GULP energy -78323.580250 kJ/mol
# GULP energy per Si atom -5594.541446 kJ/mol
# Density = 2.157804 g / cm^3
# Si number density = 21.627262 Si / 1000 Ang^3
#
#
#
# Elastic Constant Matrix: (Units=GPa)
#
#
# Indices 1 2 3 4 5 6 
#
# 1 63.2563 4.0520 34.3114 -11.8642 0.5738 22.2819
# 2 4.0520 102.7314 56.0986 -21.5408 -7.6504 16.4334
# 3 34.3114 56.0986 131.1864 -22.5660 -1.2225 13.7460
# 4 -11.8642 -21.5408 -22.5660 58.4498 18.3251 -6.5809
# 5 0.5738 -7.6504 -1.2225 18.3251 36.8255 3.2943
# 6 22.2819 16.4334 13.7460 -6.5809 3.2943 33.6571
#
#
#
# Elastic Compliance Matrix: (Units=1/GPa)
#
#
# Indices 1 2 3 4 5 6 
#
# 1 0.025618 0.006149 -0.007137 0.002573 0.000849 -0.016627
# 2 0.006149 0.015265 -0.006784 0.002570 0.002330 -0.008479
# 3 -0.007137 -0.006784 0.012319 0.001884 -0.002147 0.003585
# 4 0.002573 0.002570 0.001884 0.022975 -0.011042 0.001846
# 5 0.000849 0.002330 -0.002147 -0.011042 0.033610 -0.006271
# 6 -0.016627 -0.008479 0.003585 0.001846 -0.006271 0.044370
#
#
# Mechanical properties :
#
#
# Convention : Reuss Voigt Hill
#
# Bulk Modulus (GPa) = 26.55463 54.01091 40.28277
# Shear Modulus (GPa) = 27.43455 39.30062 33.36758
#
# Velocity S-wave (km/s) = 3.56549 4.26746 3.93217
# Velocity P-wave (km/s) = 5.40881 7.02207 6.26756
#
# Compressibility (1/GPa) = 0.03765821
#
# Stress axis : x y z
#
# Youngs Moduli (GPa) = 39.03527 65.51091 81.17670
#
# Poissons Ratio (x) = -0.40285 0.57938
# Poissons Ratio (y) = -0.24004 0.55068
# Poissons Ratio (z) = 0.27860 0.44441
#
# Static dielectric constant tensor:
#      x y z
#    x 1.850240 0.006050 -0.075610 
#    y 0.006050 1.738070 0.022860 
#    z -0.075610 0.022860 1.868800 
# 
# From -- ./inp_files/69142.got.cif
#   From: 2010.05.17/outbox.cif.g08.bks.cpg/sg2_35_cif.got.tgz:69142.got - 2010.06.03 11:33:40.
