data_PCOD9066206
_publ_section_title
;
Structure prediction by ZEFSAII (Michael W. Deem and Ramdas Pophale) SiO2 
 PCOD9066206
Probable space group: P -1
;
_chemical_formula_sum "Si O2"
_cell_formula_units_Z 16
_cell_length_a 9.943438
_cell_length_b 12.255301
_cell_length_c 12.309653
_cell_angle_alpha 97.308047
_cell_angle_beta 95.996923
_cell_angle_gamma 24.498147
_cell_volume 616.732488
_symmetry_space_group_name_H-M "P -1"
_symmetry_group_IT_number 2
_symmetry_cell_setting 'triclinic'
loop_
_space_group_symop_operation_xyz
x,y,z
-x,-y,-z
loop_
_atom_site_type_symbol
_atom_site_label
_atom_site_fract_x
_atom_site_fract_y
_atom_site_fract_z
Si Si1 0.669131 0.395595 0.614174
Si Si2 0.321849 0.469159 0.985629
Si Si3 0.211579 0.821942 0.197269
Si Si4 0.403102 0.911879 0.294393
Si Si5 0.400509 0.980123 0.074784
Si Si6 0.505162 0.706354 0.791624
Si Si7 0.085528 0.453967 0.333247
Si Si8 0.271484 0.062323 0.547557
O O1 0.500000 0.500000 0.500000
O O2 0.620230 0.345786 0.700007
O O3 0.536397 0.607035 0.677089
O O4 0.050095 0.130699 0.589155
O O5 0.588552 0.330390 0.916059
O O6 0.393412 0.284233 0.957870
O O7 0.346950 0.466873 0.115704
O O8 0.975592 0.759335 0.949184
O O9 0.188298 0.969960 0.239104
O O10 0.874133 0.007297 0.179882
O O11 0.425231 0.983703 0.206903
O O12 0.783080 0.596740 0.304127
O O13 0.270875 0.047273 0.416348
O O14 0.500000 0.000000 0.000000
O O15 0.720544 0.652692 0.772795
O O16 0.896345 0.701073 0.396735
O O17 0.365808 0.214741 0.410676
#
# Coordination Sequence:
#
# PCOD9066206 Si02
#       8
#     2   2   2   2   2   2   2   2
#     4  11  26  44  76 105 150 196 241 298 368 436
#     4  11  27  44  77 108 143 190 252 298 361 428
#     4  11  26  46  72 107 146 192 243 300 366 426
#     4  11  26  45  74 104 147 187 242 307 361 429
#     4  11  26  49  73 110 146 194 239 302 370 435
#     4  11  25  47  71 105 146 194 244 300 360 433
#     4  11  25  46  70 106 141 196 238 298 359 435
#     4  11  25  45  71 105 144 192 246 291 361 436
#
# _framework density 25.943178
#
# number of rings (size 3 to 8) (size 9 to 14) (size 15 to 20)
#    0.000    1.000    1.250    3.000   10.500    6.500 
#    0.000    0.000    0.000    0.000    0.000    0.000 
#    0.000    0.000    0.000    0.000    0.000    0.000 
#
# Total GULP energy -89681.475848 kJ/mol
# GULP energy per Si atom -5605.092240 kJ/mol
# Density = 2.588413 g / cm^3
# Si number density = 25.943178 Si / 1000 Ang^3
#
#
#
# Elastic Constant Matrix: (Units=GPa)
#
#
# Indices 1 2 3 4 5 6 
#
# 1 81.8437 28.9076 27.2282 15.3412 -28.2425 -2.7534
# 2 28.9076 131.4723 45.7681 -9.5297 8.4431 -8.6912
# 3 27.2282 45.7681 148.2689 5.0442 -8.6278 5.2230
# 4 15.3412 -9.5297 5.0442 37.4496 -6.0333 -13.6644
# 5 -28.2425 8.4431 -8.6278 -6.0333 47.1598 2.9276
# 6 -2.7534 -8.6912 5.2230 -13.6644 2.9276 43.8683
#
#
#
# Elastic Compliance Matrix: (Units=1/GPa)
#
#
# Indices 1 2 3 4 5 6 
#
# 1 0.020295 -0.005839 -0.000795 -0.008979 0.012116 -0.003394
# 2 -0.005839 0.011065 -0.003041 0.006390 -0.005499 0.004545
# 3 -0.000795 -0.003041 0.008070 -0.002178 0.001414 -0.002386
# 4 -0.008979 0.006390 -0.002178 0.036368 -0.003043 0.012493
# 5 0.012116 -0.005499 0.001414 -0.003043 0.029526 -0.003416
# 6 -0.003394 0.004545 -0.002386 0.012493 -0.003416 0.027886
#
#
# Mechanical properties :
#
#
# Convention : Reuss Voigt Hill
#
# Bulk Modulus (GPa) = 49.79840 62.82140 56.30990
# Shear Modulus (GPa) = 31.39646 43.00762 37.20204
#
# Velocity S-wave (km/s) = 3.48257 4.07598 3.79090
# Velocity P-wave (km/s) = 5.95045 6.81315 6.39636
#
# Compressibility (1/GPa) = 0.02008097
#
# Stress axis : x y z
#
# Youngs Moduli (GPa) = 49.27326 90.37180 123.92313
#
# Poissons Ratio (x) = 0.52769 0.09846
# Poissons Ratio (y) = 0.28771 0.37684
# Poissons Ratio (z) = 0.03915 0.27481
#
# Static dielectric constant tensor:
#      x y z
#    x 2.167110 0.041390 0.001450 
#    y 0.041390 2.040930 0.010540 
#    z 0.001450 0.010540 2.041270 
# 
# From -- ./inp_files/434041.got.cif
#   From: 2010.05.17/outbox.cif.g08.bks.cpg/sg2_218_cif.got.tgz:434041.got - 2010.06.03 11:33:40.
