data_PCOD9066791
_publ_section_title
;
Structure prediction by ZEFSAII (Michael W. Deem and Ramdas Pophale) SiO2 
 PCOD9066791
Probable space group: P -1
;
_chemical_formula_sum "Si O2"
_cell_formula_units_Z 16
_cell_length_a 10.926200
_cell_length_b 9.290381
_cell_length_c 14.314862
_cell_angle_alpha 36.012824
_cell_angle_beta 52.105191
_cell_angle_gamma 68.261763
_cell_volume 648.686196
_symmetry_space_group_name_H-M "P -1"
_symmetry_group_IT_number 2
_symmetry_cell_setting 'triclinic'
loop_
_space_group_symop_operation_xyz
x,y,z
-x,-y,-z
loop_
_atom_site_type_symbol
_atom_site_label
_atom_site_fract_x
_atom_site_fract_y
_atom_site_fract_z
Si Si1 0.163984 0.563178 0.961084
Si Si2 0.388116 0.688633 0.952272
Si Si3 0.971301 0.028152 0.107389
Si Si4 0.127501 0.978057 0.245125
Si Si5 0.217813 0.336619 0.362823
Si Si6 0.378134 0.806547 0.343467
Si Si7 0.301229 0.809648 0.577144
Si Si8 0.375864 0.342490 0.473853
O O1 0.326651 0.677703 0.882270
O O2 0.044407 0.694157 0.002396
O O3 0.192262 0.675361 0.784824
O O4 0.130864 0.260135 0.132164
O O5 0.759062 0.454426 0.837376
O O6 0.478069 0.961144 0.808177
O O7 0.500000 0.500000 0.000000
O O8 0.104176 0.976999 0.144249
O O9 0.794961 0.840896 0.314983
O O10 0.000000 0.000000 0.000000
O O11 0.277675 0.908019 0.258515
O O12 0.966801 0.773905 0.463528
O O13 0.330547 0.441075 0.343785
O O14 0.277164 0.091051 0.434205
O O15 0.272193 0.709293 0.537237
O O16 0.432964 0.578497 0.392459
O O17 0.479285 0.787539 0.531735
#
# Coordination Sequence:
#
# PCOD9066791 Si02
#       8
#     2   2   2   2   2   2   2   2
#     4  12  25  47  79 107 146 189 259 299 360 440
#     4  12  24  46  71 110 140 195 245 303 365 429
#     4  11  27  47  75 108 151 193 239 304 375 435
#     4  11  26  50  72 114 143 197 248 293 370 446
#     4  11  25  46  77 101 148 195 245 305 366 433
#     4  12  28  45  73 109 155 189 247 301 373 435
#     4  12  24  46  78 105 144 194 245 308 360 433
#     4  11  26  46  72 111 146 195 245 307 369 428
#
# _framework density 24.665239
#
# number of rings (size 3 to 8) (size 9 to 14) (size 15 to 20)
#    0.000    0.500    5.000    2.625    1.750    6.500 
#    0.000    0.000    0.000    0.000    0.000    0.000 
#    0.000    0.000    0.000    0.000    0.000    0.000 
#
# Total GULP energy -89629.980239 kJ/mol
# GULP energy per Si atom -5601.873765 kJ/mol
# Density = 2.460910 g / cm^3
# Si number density = 24.665239 Si / 1000 Ang^3
#
#
#
# Elastic Constant Matrix: (Units=GPa)
#
#
# Indices 1 2 3 4 5 6 
#
# 1 135.1418 24.1326 10.3434 -4.9300 3.7678 16.4700
# 2 24.1326 117.9631 36.9411 -1.6103 4.2696 29.6767
# 3 10.3434 36.9411 80.9189 -3.8183 10.6088 10.6360
# 4 -4.9300 -1.6103 -3.8183 35.5003 14.5760 -0.9388
# 5 3.7678 4.2696 10.6088 14.5760 33.3783 -2.8809
# 6 16.4700 29.6767 10.6360 -0.9388 -2.8809 29.0707
#
#
#
# Elastic Compliance Matrix: (Units=1/GPa)
#
#
# Indices 1 2 3 4 5 6 
#
# 1 0.008129 -0.000531 0.000120 0.001853 -0.002064 -0.004252
# 2 -0.000531 0.012780 -0.004068 0.000349 -0.001417 -0.011387
# 3 0.000120 -0.004068 0.015501 0.004061 -0.006374 -0.002088
# 4 0.001853 0.000349 0.004061 0.035999 -0.017564 -0.003470
# 5 -0.002064 -0.001417 -0.006374 -0.017564 0.040797 0.008424
# 6 -0.004252 -0.011387 -0.002088 -0.003470 0.008424 0.049919
#
#
# Mechanical properties :
#
#
# Convention : Reuss Voigt Hill
#
# Bulk Modulus (GPa) = 36.42505 52.98422 44.70464
# Shear Modulus (GPa) = 27.58891 37.09699 32.34295
#
# Velocity S-wave (km/s) = 3.34808 3.88238 3.62508
# Velocity P-wave (km/s) = 5.45399 6.45175 5.97374
#
# Compressibility (1/GPa) = 0.02745364
#
# Stress axis : x y z
#
# Youngs Moduli (GPa) = 123.02310 78.24463 64.51076
#
# Poissons Ratio (x) = 0.04154 -0.00776
# Poissons Ratio (y) = 0.06531 0.26241
# Poissons Ratio (z) = -0.01479 0.31827
#
# Static dielectric constant tensor:
#      x y z
#    x 1.956310 -0.011350 -0.019060 
#    y -0.011350 1.936450 0.036590 
#    z -0.019060 0.036590 2.016650 
# 
# From -- ./inp_files/514885.got.cif
#   From: 2010.05.17/outbox.cif.g08.bks.cpg/sg2_258_cif.got.tgz:514885.got - 2010.06.03 11:33:40.
