data_PCOD9066225
_publ_section_title
;
Structure prediction by ZEFSAII (Michael W. Deem and Ramdas Pophale) SiO2 
 PCOD9066225
Probable space group: P -1
;
_chemical_formula_sum "Si O2"
_cell_formula_units_Z 14
_cell_length_a 8.427336
_cell_length_b 11.239644
_cell_length_c 12.007400
_cell_angle_alpha 143.617193
_cell_angle_beta 75.530603
_cell_angle_gamma 104.807295
_cell_volume 650.309861
_symmetry_space_group_name_H-M "P -1"
_symmetry_group_IT_number 2
_symmetry_cell_setting 'triclinic'
loop_
_space_group_symop_operation_xyz
x,y,z
-x,-y,-z
loop_
_atom_site_type_symbol
_atom_site_label
_atom_site_fract_x
_atom_site_fract_y
_atom_site_fract_z
Si Si1 0.178039 0.889740 0.952988
Si Si2 0.737201 0.729642 0.910762
Si Si3 0.702872 0.911860 0.282320
Si Si4 0.021496 0.509773 0.371511
Si Si5 0.603932 0.831065 0.489406
Si Si6 0.092508 0.073684 0.341417
Si Si7 0.455662 0.590533 0.694582
O O1 0.328133 0.753661 0.819043
O O2 0.034501 0.708079 0.832802
O O3 0.180123 0.042972 0.965544
O O4 0.158428 0.003490 0.158075
O O5 0.792950 0.502641 0.707559
O O6 0.596829 0.719154 0.833970
O O7 0.693871 0.750486 0.062591
O O8 0.569813 0.070067 0.389817
O O9 0.899785 0.983904 0.317458
O O10 0.640965 0.830813 0.351655
O O11 0.000000 0.500000 0.500000
O O12 0.927966 0.688746 0.479300
O O13 0.763386 0.954972 0.615781
O O14 0.596705 0.606115 0.370152
O O15 0.500000 0.500000 0.500000
#
# Coordination Sequence:
#
# PCOD9066225 Si02
#       7
#     2   2   2   2   2   2   2
#     4  12  23  41  67 103 137 173 229 286 347 413
#     4  12  23  41  66 102 138 181 230 283 351 412
#     4  11  25  45  71  99 139 188 233 285 346 413
#     4  12  22  39  65 100 141 176 219 287 346 404
#     4  11  25  47  69 100 140 185 234 287 345 413
#     4  12  23  46  72 102 141 180 233 287 351 409
#     4  12  24  43  68 102 138 180 230 292 352 411
#
# _framework density 21.528198
#
# number of rings (size 3 to 8) (size 9 to 14) (size 15 to 20)
#    0.000    0.286    4.286    6.429    0.000    0.571 
#    0.000    4.286    0.000    0.000    0.000    0.000 
#    0.000    0.000    0.000    0.000    0.000    0.000 
#
# Total GULP energy -78014.546175 kJ/mol
# GULP energy per Si atom -5572.467584 kJ/mol
# Density = 2.147920 g / cm^3
# Si number density = 21.528198 Si / 1000 Ang^3
#
#
#
# Elastic Constant Matrix: (Units=GPa)
#
#
# Indices 1 2 3 4 5 6 
#
# 1 -121.3489 105.2555 -85.1399 70.8060 -98.2668 -12.6935
# 2 105.2555 36.1735 113.4905 -46.6621 22.3541 -12.4707
# 3 -85.1399 113.4905 54.6018 27.1226 -84.6230 -10.2904
# 4 70.8060 -46.6621 27.1226 16.4294 24.2572 -2.4605
# 5 -98.2668 22.3541 -84.6230 24.2572 16.3114 5.0923
# 6 -12.6935 -12.4707 -10.2904 -2.4605 5.0923 27.0689
#
#
#
# Elastic Compliance Matrix: (Units=1/GPa)
#
#
# Indices 1 2 3 4 5 6 
#
# 1 0.009822 0.008119 -0.008904 0.003005 -0.004515 0.006084
# 2 0.008119 0.014046 -0.003597 0.000675 0.007648 0.007534
# 3 -0.008904 -0.003597 0.011471 0.006261 0.001878 -0.001256
# 4 0.003005 0.000675 0.006261 0.025921 0.009665 0.004638
# 5 -0.004515 0.007648 0.001878 0.009665 0.019184 -0.000610
# 6 0.006084 0.007534 -0.001256 0.004638 -0.000610 0.043326
#
#
# Mechanical properties :
#
#
# Convention : Reuss Voigt Hill
#
# Bulk Modulus (GPa) = 37.62823 26.29319 31.96071
# Shear Modulus (GPa) = 35.36300 1.01662 18.18981
#
# Velocity S-wave (km/s) = 4.05734 0.68793 2.90992
# Velocity P-wave (km/s) = 6.28219 3.58760 5.11550
#
# Compressibility (1/GPa) = 0.02657579
#
# Stress axis : x y z
#
# Youngs Moduli (GPa) = 101.80866 71.19469 87.17969
#
# Poissons Ratio (x) = -0.57804 0.77625
# Poissons Ratio (y) = -0.82661 0.31357
# Poissons Ratio (z) = 0.90650 0.25607
#
# Static dielectric constant tensor:
#      x y z
#    x 1.892120 0.211560 -0.056870 
#    y 0.211560 1.781870 -0.003730 
#    z -0.056870 -0.003730 1.754190 
# 
# From -- ./inp_files/27091.got.cif
#   From: 2010.05.17/outbox.cif.g08.bks.cpg/sg2_14_cif.got.tgz:27091.got - 2010.06.03 11:33:40.
