data_PCOD9066766
_publ_section_title
;
Structure prediction by ZEFSAII (Michael W. Deem and Ramdas Pophale) SiO2 
 PCOD9066766
Probable space group: P -1
;
_chemical_formula_sum "Si O2"
_cell_formula_units_Z 16
_cell_length_a 13.692903
_cell_length_b 9.440361
_cell_length_c 13.846367
_cell_angle_alpha 45.183467
_cell_angle_beta 30.209353
_cell_angle_gamma 60.421778
_cell_volume 604.472543
_symmetry_space_group_name_H-M "P -1"
_symmetry_group_IT_number 2
_symmetry_cell_setting 'triclinic'
loop_
_space_group_symop_operation_xyz
x,y,z
-x,-y,-z
loop_
_atom_site_type_symbol
_atom_site_label
_atom_site_fract_x
_atom_site_fract_y
_atom_site_fract_z
Si Si1 0.771762 0.808895 0.423513
Si Si2 0.970216 0.506644 0.658610
Si Si3 0.906561 0.035749 0.769154
Si Si4 0.832994 0.614815 0.930462
Si Si5 0.455113 0.952220 0.173167
Si Si6 0.228975 0.590720 0.658461
Si Si7 0.472912 0.719914 0.895454
Si Si8 0.547226 0.687632 0.493625
O O1 0.580629 0.783743 0.670107
O O2 0.696085 0.852957 0.361063
O O3 0.850361 0.602615 0.441856
O O4 0.955464 0.964167 0.255299
O O5 0.872972 0.552782 0.819165
O O6 0.030543 0.728090 0.442886
O O7 0.770440 0.327913 0.871975
O O8 0.911560 0.864013 0.766082
O O9 0.667194 0.948688 0.039361
O O10 0.987770 0.530569 0.901238
O O11 0.601670 0.499368 0.220724
O O12 0.411276 0.132067 0.187098
O O13 0.282842 0.736049 0.446405
O O14 0.500000 0.000000 0.000000
O O15 0.376800 0.728317 0.549567
O O16 0.310136 0.398778 0.655921
O O17 0.500000 0.500000 0.000000
#
# Coordination Sequence:
#
# PCOD9066766 Si02
#       8
#     2   2   2   2   2   2   2   2
#     4  12  24  46  67 104 140 189 233 288 352 414
#     4  12  24  41  68 103 145 186 228 286 350 418
#     4  12  25  40  66 104 149 176 232 291 346 420
#     4  12  24  44  71 104 134 186 239 285 355 411
#     4  12  27  45  72 108 143 185 229 289 358 417
#     4  11  25  47  71 102 142 182 239 297 336 415
#     4  12  25  41  70 100 147 188 226 282 354 423
#     4  11  25  46  75  98 137 192 241 283 350 412
#
# _framework density 26.469356999999999
#
# number of rings (size 3 to 8) (size 9 to 14) (size 15 to 20)
#    0.000    0.250    6.250    3.375    3.500    0.000 
#    0.000    3.125    0.000    0.000    0.000    0.000 
#    0.000    0.000    0.000    0.000    0.000    0.000 
#
# Total GULP energy -89522.045556 kJ/mol
# GULP energy per Si atom -5595.127847 kJ/mol
# Density = 2.640911 g / cm^3
# Si number density = 26.469357 Si / 1000 Ang^3
#
#
#
# Elastic Constant Matrix: (Units=GPa)
#
#
# Indices 1 2 3 4 5 6 
#
# 1 99.7279 13.0120 5.5239 -0.2955 -3.4370 23.2512
# 2 13.0120 119.5708 12.3938 13.6450 8.2061 23.7323
# 3 5.5239 12.3938 93.6953 2.6573 -18.3206 -14.5645
# 4 -0.2955 13.6450 2.6573 26.3374 -0.4243 -12.7896
# 5 -3.4370 8.2061 -18.3206 -0.4243 46.1326 9.0375
# 6 23.2512 23.7323 -14.5645 -12.7896 9.0375 42.0237
#
#
#
# Elastic Compliance Matrix: (Units=1/GPa)
#
#
# Indices 1 2 3 4 5 6 
#
# 1 0.012436 0.001420 -0.002025 -0.005431 0.001865 -0.010438
# 2 0.001420 0.012565 -0.003591 -0.012271 -0.001199 -0.012603
# 3 -0.002025 -0.003591 0.013233 0.004565 0.004173 0.008227
# 4 -0.005431 -0.012271 0.004565 0.058136 -0.001667 0.029569
# 5 0.001865 -0.001199 0.004173 -0.001667 0.024593 -0.004704
# 6 -0.010438 -0.012603 0.008227 0.029569 -0.004704 0.049551
#
#
# Mechanical properties :
#
#
# Convention : Reuss Voigt Hill
#
# Bulk Modulus (GPa) = 33.51070 41.65038 37.58054
# Shear Modulus (GPa) = 26.47565 41.70303 34.08934
#
# Velocity S-wave (km/s) = 3.16608 3.97359 3.59260
# Velocity P-wave (km/s) = 5.10423 6.06812 5.60692
#
# Compressibility (1/GPa) = 0.02984121
#
# Stress axis : x y z
#
# Youngs Moduli (GPa) = 80.41176 79.58615 75.57033
#
# Poissons Ratio (x) = -0.11302 0.15303
# Poissons Ratio (y) = -0.11420 0.27140
# Poissons Ratio (z) = 0.16283 0.28583
#
# Static dielectric constant tensor:
#      x y z
#    x 2.150760 0.014020 0.012590 
#    y 0.014020 2.141510 0.065140 
#    z 0.012590 0.065140 2.093520 
# 
# From -- ./inp_files/529461.got.cif
#   From: 2010.05.17/outbox.cif.g08.bks.cpg/sg2_265_cif.got.tgz:529461.got - 2010.06.03 11:33:40.
