data_PCOD9066106
_publ_section_title
;
Structure prediction by ZEFSAII (Michael W. Deem and Ramdas Pophale) SiO2 
 PCOD9066106
Probable space group: P -1
;
_chemical_formula_sum "Si O2"
_cell_formula_units_Z 16
_cell_length_a 9.735906
_cell_length_b 5.517095
_cell_length_c 15.609383
_cell_angle_alpha 112.390221
_cell_angle_beta 58.455645
_cell_angle_gamma 109.025453
_cell_volume 652.082375
_symmetry_space_group_name_H-M "P -1"
_symmetry_group_IT_number 2
_symmetry_cell_setting 'triclinic'
loop_
_space_group_symop_operation_xyz
x,y,z
-x,-y,-z
loop_
_atom_site_type_symbol
_atom_site_label
_atom_site_fract_x
_atom_site_fract_y
_atom_site_fract_z
Si Si1 0.690015 0.053043 0.467834
Si Si2 0.100528 0.373750 0.372582
Si Si3 0.674158 0.478153 0.401901
Si Si4 0.658006 0.240052 0.188236
Si Si5 0.172692 0.939773 0.395893
Si Si6 0.958152 0.630564 0.907002
Si Si7 0.304009 0.279589 0.853504
Si Si8 0.016395 0.041224 0.792383
O O1 0.753057 0.309232 0.423578
O O2 0.708367 0.091023 0.567758
O O3 0.500000 0.000000 0.500000
O O4 0.759366 0.777030 0.396764
O O5 0.146133 0.633811 0.332250
O O6 0.000000 0.500000 0.500000
O O7 0.226046 0.209067 0.360090
O O8 0.021656 0.127809 0.304858
O O9 0.500000 0.500000 0.500000
O O10 0.650275 0.336231 0.300611
O O11 0.593515 0.447109 0.175318
O O12 0.854186 0.277466 0.110021
O O13 0.593917 0.929705 0.167292
O O14 0.000000 0.000000 0.500000
O O15 0.947407 0.318873 0.846830
O O16 0.939964 0.829307 0.861582
O O17 0.830551 0.665633 0.026909
O O18 0.199947 0.138886 0.786487
#
# Coordination Sequence:
#
# PCOD9066106 Si02
#       8
#     2   2   2   2   2   2   2   2
#     4  10  21  38  56  73 102 150 195 236 280 316
#     4  10  21  33  46  71 107 147 190 228 261 326
#     4  10  21  35  52  77 105 143 195 234 267 329
#     4  10  18  28  46  69  99 138 175 220 283 334
#     4  10  21  34  50  73 104 140 187 239 273 317
#     4  10  19  31  48  73 103 142 188 231 276 345
#     4  10  19  31  48  74 103 141 187 231 278 347
#     4  10  18  30  46  66 100 145 181 219 272 326
#
# _framework density 24.53678
#
# number of rings (size 3 to 8) (size 9 to 14) (size 15 to 20)
#    0.000    2.000    0.000    6.000    0.000   12.000 
#    0.000    0.000    0.000    0.000    0.000    0.000 
#    0.000    0.000    0.000  522.000    0.000    0.000 
#
# Total GULP energy -89248.421588 kJ/mol
# GULP energy per Si atom -5578.026349 kJ/mol
# Density = 2.448093 g / cm^3
# Si number density = 24.536780 Si / 1000 Ang^3
#
#
#
# Elastic Constant Matrix: (Units=GPa)
#
#
# Indices 1 2 3 4 5 6 
#
# 1 44.8223 30.5889 8.3100 1.1200 15.4840 -10.5932
# 2 30.5889 270.6098 39.4168 18.8080 -8.7341 -58.8454
# 3 8.3100 39.4168 66.7535 9.2413 1.5797 -3.9726
# 4 1.1200 18.8080 9.2413 48.6295 -4.6769 2.5634
# 5 15.4840 -8.7341 1.5797 -4.6769 14.9824 0.9101
# 6 -10.5932 -58.8454 -3.9726 2.5634 0.9101 35.7774
#
#
#
# Elastic Compliance Matrix: (Units=1/GPa)
#
#
# Indices 1 2 3 4 5 6 
#
# 1 0.045194 -0.004884 -0.000515 -0.004349 -0.051278 0.006907
# 2 -0.004884 0.007294 -0.003039 -0.001855 0.008426 0.010132
# 3 -0.000515 -0.003039 0.017054 -0.002237 -0.003553 -0.003006
# 4 -0.004349 -0.001855 -0.002237 0.023238 0.011301 -0.006540
# 5 -0.051278 0.008426 -0.003553 0.011301 0.128907 -0.005807
# 6 0.006907 0.010132 -0.003006 -0.006540 -0.005807 0.046943
#
#
# Mechanical properties :
#
#
# Convention : Reuss Voigt Hill
#
# Bulk Modulus (GPa) = 18.98778 59.86855 39.42817
# Shear Modulus (GPa) = 16.49823 40.13585 28.31704
#
# Velocity S-wave (km/s) = 2.59586 4.04882 3.40084
# Velocity P-wave (km/s) = 4.09145 6.80513 5.61470
#
# Compressibility (1/GPa) = 0.05266544
#
# Stress axis : x y z
#
# Youngs Moduli (GPa) = 22.12666 137.09305 58.63801
#
# Poissons Ratio (x) = 0.66962 0.03022
# Poissons Ratio (y) = 0.10808 0.17818
# Poissons Ratio (z) = 0.01140 0.41659
#
# Static dielectric constant tensor:
#      x y z
#    x 1.917520 -0.016440 0.035200 
#    y -0.016440 2.146000 -0.005410 
#    z 0.035200 -0.005410 1.995700 
# 
# From -- ./inp_files/473417.got.cif
#   From: 2010.05.17/outbox.cif.g08.bks.cpg/sg2_237_cif.got.tgz:473417.got - 2010.06.03 11:33:40.
