data_PCOD9066098
_publ_section_title
;
Structure prediction by ZEFSAII (Michael W. Deem and Ramdas Pophale) SiO2 
 PCOD9066098
Probable space group: P -1
;
_chemical_formula_sum "Si O2"
_cell_formula_units_Z 16
_cell_length_a 11.304542
_cell_length_b 10.220499
_cell_length_c 8.348751
_cell_angle_alpha 119.818231
_cell_angle_beta 85.851108
_cell_angle_gamma 63.574539
_cell_volume 693.862943
_symmetry_space_group_name_H-M "P -1"
_symmetry_group_IT_number 2
_symmetry_cell_setting 'triclinic'
loop_
_space_group_symop_operation_xyz
x,y,z
-x,-y,-z
loop_
_atom_site_type_symbol
_atom_site_label
_atom_site_fract_x
_atom_site_fract_y
_atom_site_fract_z
Si Si1 0.532799 0.773454 0.329471
Si Si2 0.187663 0.925614 0.996557
Si Si3 0.020604 0.118949 0.444711
Si Si4 0.502482 0.162213 0.009160
Si Si5 0.913775 0.716209 0.963352
Si Si6 0.262562 0.109470 0.602227
Si Si7 0.781361 0.441611 0.240492
Si Si8 0.793648 0.529693 0.648708
O O1 0.374480 0.893759 0.491866
O O2 0.631697 0.562791 0.235739
O O3 0.630596 0.836651 0.433404
O O4 0.520115 0.817301 0.168382
O O5 0.081330 0.008558 0.208083
O O6 0.127937 0.090375 0.980744
O O7 0.344773 0.872191 0.995227
O O8 0.198780 0.746731 0.830676
O O9 0.880763 0.320112 0.564638
O O10 0.146050 0.139302 0.507277
O O11 0.000000 0.000000 0.500000
O O12 0.370031 0.348625 0.206774
O O13 0.500000 0.000000 0.000000
O O14 0.868786 0.621428 0.780687
O O15 0.083381 0.600033 0.903416
O O16 0.820205 0.768649 0.162872
O O17 0.793676 0.527421 0.455257
#
# Coordination Sequence:
#
# PCOD9066098 Si02
#       8
#     2   2   2   2   2   2   2   2
#     4  11  26  46  72 109 143 188 247 304 358 435
#     4  12  27  49  73 104 150 197 237 305 364 435
#     4  12  28  47  73 107 153 192 240 299 371 429
#     4  12  26  50  77 106 145 191 249 302 363 428
#     4  12  25  47  77 105 146 191 247 298 364 433
#     4  11  25  44  76 103 144 189 245 301 365 419
#     4  12  29  44  72 108 152 186 245 298 368 432
#     4  12  28  46  76 109 145 196 243 299 362 435
#
# _framework density 23.059308000000001
#
# number of rings (size 3 to 8) (size 9 to 14) (size 15 to 20)
#    0.000    0.250    5.000    2.250   12.250    3.000 
#    0.000    0.000    0.000    0.000    0.000    0.000 
#    0.000    0.000    0.000    0.000    0.000    0.000 
#
# Total GULP energy -89575.614379 kJ/mol
# GULP energy per Si atom -5598.475899 kJ/mol
# Density = 2.300682 g / cm^3
# Si number density = 23.059308 Si / 1000 Ang^3
#
#
#
# Elastic Constant Matrix: (Units=GPa)
#
#
# Indices 1 2 3 4 5 6 
#
# 1 63.6821 42.1001 29.2805 20.4705 -4.8961 -20.7179
# 2 42.1001 135.9267 44.9054 19.6534 -9.0587 -21.3515
# 3 29.2805 44.9054 125.5313 27.3135 -11.0721 -11.5407
# 4 20.4705 19.6534 27.3135 24.6808 -11.9543 -7.2138
# 5 -4.8961 -9.0587 -11.0721 -11.9543 46.3403 9.0179
# 6 -20.7179 -21.3515 -11.5407 -7.2138 9.0179 36.4014
#
#
#
# Elastic Compliance Matrix: (Units=1/GPa)
#
#
# Indices 1 2 3 4 5 6 
#
# 1 0.027825 -0.004504 -0.000334 -0.018348 -0.004826 0.010649
# 2 -0.004504 0.009976 -0.002028 -0.001163 0.000231 0.002357
# 3 -0.000334 -0.002028 0.011027 -0.010527 -0.000545 0.000165
# 4 -0.018348 -0.001163 -0.010527 0.074696 0.015257 -0.003439
# 5 -0.004826 0.000231 -0.000545 0.015257 0.026134 -0.006234
# 6 0.010649 0.002357 0.000165 -0.003439 -0.006234 0.035830
#
#
# Mechanical properties :
#
#
# Convention : Reuss Voigt Hill
#
# Bulk Modulus (GPa) = 28.49252 61.96801 45.23027
# Shear Modulus (GPa) = 23.70592 35.40811 29.55701
#
# Velocity S-wave (km/s) = 3.20979 3.92283 3.58408
# Velocity P-wave (km/s) = 5.11077 6.88838 6.06505
#
# Compressibility (1/GPa) = 0.03509692
#
# Stress axis : x y z
#
# Youngs Moduli (GPa) = 35.93876 100.24395 90.68575
#
# Poissons Ratio (x) = 0.45150 0.03026
# Poissons Ratio (y) = 0.16187 0.18389
# Poissons Ratio (z) = 0.01199 0.20328
#
# Static dielectric constant tensor:
#      x y z
#    x 1.851290 -0.013670 -0.003110 
#    y -0.013670 1.929200 0.046500 
#    z -0.003110 0.046500 1.893050 
# 
# From -- ./inp_files/244970.got.cif
#   From: 2010.05.17/outbox.cif.g08.bks.cpg/sg2_123_cif.got.tgz:244970.got - 2010.06.03 11:33:40.
