data_PCOD9066424
_publ_section_title
;
Structure prediction by ZEFSAII (Michael W. Deem and Ramdas Pophale) SiO2 
 PCOD9066424
Probable space group: P -1
;
_chemical_formula_sum "Si O2"
_cell_formula_units_Z 14
_cell_length_a 9.682247
_cell_length_b 9.581705
_cell_length_c 11.329137
_cell_angle_alpha 58.508280
_cell_angle_beta 128.425235
_cell_angle_gamma 133.477914
_cell_volume 589.134934
_symmetry_space_group_name_H-M "P -1"
_symmetry_group_IT_number 2
_symmetry_cell_setting 'triclinic'
loop_
_space_group_symop_operation_xyz
x,y,z
-x,-y,-z
loop_
_atom_site_type_symbol
_atom_site_label
_atom_site_fract_x
_atom_site_fract_y
_atom_site_fract_z
Si Si1 0.779061 0.571306 0.375376
Si Si2 0.616588 0.444463 0.772963
Si Si3 0.870671 0.101107 0.419862
Si Si4 0.908708 0.837299 0.862810
Si Si5 0.992643 0.236264 0.806900
Si Si6 0.411684 0.754813 0.396744
Si Si7 0.736776 0.175484 0.067353
O O1 0.615434 0.640485 0.262159
O O2 0.655230 0.361399 0.464414
O O3 0.976049 0.717970 0.496156
O O4 0.864818 0.585865 0.283861
O O5 0.743112 0.674893 0.757888
O O6 0.601884 0.383144 0.656642
O O7 0.738896 0.365212 0.944619
O O8 0.816994 0.177110 0.240114
O O9 0.644982 0.945805 0.427140
O O10 0.000000 0.000000 0.500000
O O11 0.125502 0.868218 0.923931
O O12 0.926280 0.039663 0.787373
O O13 0.874082 0.756023 0.013368
O O14 0.777542 0.214091 0.740137
O O15 0.500000 0.000000 0.000000
#
# Coordination Sequence:
#
# PCOD9066424 Si02
#       7
#     2   2   2   2   2   2   2
#     4  12  28  46  74 112 153 198 246 303 375 448
#     4  12  25  47  78 109 141 191 264 304 357 436
#     4  12  25  45  78 111 153 190 245 313 376 426
#     4  11  25  45  78 105 150 195 246 312 369 440
#     4  11  26  50  70 109 156 197 241 302 388 442
#     4  12  26  49  75 112 148 194 251 311 362 449
#     4  12  22  44  76 112 142 187 252 312 360 435
#
# _framework density 23.763655
#
# number of rings (size 3 to 8) (size 9 to 14) (size 15 to 20)
#    0.000    0.286    4.286    3.857    6.000    2.286 
#    2.571    0.000    0.000    0.000    0.000    0.000 
#    0.000    0.000    0.000    0.000    0.000    0.000 
#
# Total GULP energy -78464.940876 kJ/mol
# GULP energy per Si atom -5604.638634 kJ/mol
# Density = 2.370957 g / cm^3
# Si number density = 23.763655 Si / 1000 Ang^3
#
#
#
# Elastic Constant Matrix: (Units=GPa)
#
#
# Indices 1 2 3 4 5 6 
#
# 1 124.0276 32.0986 19.8876 3.5448 9.7763 21.9585
# 2 32.0986 54.0204 -17.3256 -0.7807 5.1239 7.9825
# 3 19.8876 -17.3256 90.0700 -15.1747 6.1125 14.1928
# 4 3.5448 -0.7807 -15.1747 32.8237 6.9497 2.7763
# 5 9.7763 5.1239 6.1125 6.9497 41.2344 -9.2137
# 6 21.9585 7.9825 14.1928 2.7763 -9.2137 38.8960
#
#
#
# Elastic Compliance Matrix: (Units=1/GPa)
#
#
# Indices 1 2 3 4 5 6 
#
# 1 0.011395 -0.007205 -0.003564 -0.002348 -0.001754 -0.003902
# 2 -0.007205 0.027692 0.009793 0.007869 -0.006120 -0.007200
# 3 -0.003564 0.009793 0.017432 0.010840 -0.006733 -0.008727
# 4 -0.002348 0.007869 0.010840 0.039002 -0.010741 -0.009573
# 5 -0.001754 -0.006120 -0.006733 -0.010741 0.031105 0.012838
# 6 -0.003902 -0.007200 -0.008727 -0.009573 0.012838 0.036299
#
#
# Mechanical properties :
#
#
# Convention : Reuss Voigt Hill
#
# Bulk Modulus (GPa) = 18.32581 37.49323 27.90952
# Shear Modulus (GPa) = 27.31293 38.15463 32.73378
#
# Velocity S-wave (km/s) = 3.39390 4.01133 3.71546
# Velocity P-wave (km/s) = 4.80484 6.10460 5.49330
#
# Compressibility (1/GPa) = 0.05456784
#
# Stress axis : x y z
#
# Youngs Moduli (GPa) = 87.75836 36.11214 57.36716
#
# Poissons Ratio (x) = 0.26017 0.20443
# Poissons Ratio (y) = 0.63227 -0.56180
# Poissons Ratio (z) = 0.31273 -0.35365
#
# Static dielectric constant tensor:
#      x y z
#    x 1.890980 0.008880 0.002460 
#    y 0.008880 1.908000 -0.056270 
#    z 0.002460 -0.056270 1.972980 
# 
# From -- ./inp_files/381504.got.cif
#   From: 2010.05.17/outbox.cif.g08.bks.cpg/sg2_191_cif.got.tgz:381504.got - 2010.06.03 11:33:40.
