data_PCOD9066822
_publ_section_title
;
Structure prediction by ZEFSAII (Michael W. Deem and Ramdas Pophale) SiO2 
 PCOD9066822
Probable space group: P -1
;
_chemical_formula_sum "Si O2"
_cell_formula_units_Z 15
_cell_length_a 20.944848
_cell_length_b 5.616495
_cell_length_c 7.963008
_cell_angle_alpha 83.549221
_cell_angle_beta 139.541970
_cell_angle_gamma 76.444884
_cell_volume 524.433596
_symmetry_space_group_name_H-M "P -1"
_symmetry_group_IT_number 2
_symmetry_cell_setting 'triclinic'
loop_
_space_group_symop_operation_xyz
x,y,z
-x,-y,-z
loop_
_atom_site_type_symbol
_atom_site_label
_atom_site_fract_x
_atom_site_fract_y
_atom_site_fract_z
Si Si1 0.836668 0.799292 0.731248
Si Si2 0.000000 0.000000 0.000000
Si Si3 0.809202 0.626116 0.332673
Si Si4 0.391218 0.739286 0.853152
Si Si5 0.803273 0.401108 0.840168
Si Si6 0.585357 0.650922 0.788549
Si Si7 0.118051 0.925363 0.656868
Si Si8 0.554526 0.828147 0.355517
O O1 0.803785 0.668301 0.517530
O O2 0.851805 0.616229 0.938999
O O3 0.946629 0.801151 0.887771
O O4 0.721805 0.094607 0.491811
O O5 0.896983 0.170632 0.925595
O O6 0.872919 0.289344 0.457644
O O7 0.861646 0.818361 0.361050
O O8 0.686324 0.728452 0.995898
O O9 0.364016 0.620766 0.975165
O O10 0.445985 0.915050 0.017169
O O11 0.500000 0.500000 0.000000
O O12 0.672399 0.624127 0.519956
O O13 0.797705 0.261748 0.012952
O O14 0.553559 0.658508 0.531344
O O15 0.472431 0.883270 0.638334
O O16 0.000000 0.000000 0.500000
#
# Coordination Sequence:
#
# PCOD9066822 Si02
#       8
#     2   1   2   2   2   2   2   2
#     4  12  29  50  80 114 165 218 277 345 422 499
#     4  12  30  50  76 110 162 216 274 340 418 486
#     4  12  27  52  84 121 164 217 280 348 423 491
#     4  12  26  46  80 118 167 216 275 337 421 506
#     4  12  29  49  81 115 164 213 282 339 426 493
#     4  11  25  46  79 115 164 210 271 341 422 496
#     4  12  29  53  85 119 164 221 290 351 412 500
#     4  11  25  47  76 117 158 213 275 339 418 492
#
# _framework density 28.602288999999999
#
# number of rings (size 3 to 8) (size 9 to 14) (size 15 to 20)
#    0.000    0.267    2.667    4.400    9.333    3.200 
#    0.000    0.000    0.000    0.000    0.000    0.000 
#    0.000    0.000    0.000    0.000    0.000    0.000 
#
# Total GULP energy -83746.172118 kJ/mol
# GULP energy per Si atom -5583.078141 kJ/mol
# Density = 2.853719 g / cm^3
# Si number density = 28.602289 Si / 1000 Ang^3
#
#
#
# Elastic Constant Matrix: (Units=GPa)
#
#
# Indices 1 2 3 4 5 6 
#
# 1 145.8528 71.3490 17.2670 -3.1605 16.4409 19.9477
# 2 71.3490 121.6703 22.7149 -7.8348 17.7017 -0.8442
# 3 17.2670 22.7149 102.7542 -8.5749 30.3843 13.3986
# 4 -3.1605 -7.8348 -8.5749 44.1828 5.3402 3.7962
# 5 16.4409 17.7017 30.3843 5.3402 48.2469 -22.7129
# 6 19.9477 -0.8442 13.3986 3.7962 -22.7129 82.5480
#
#
#
# Elastic Compliance Matrix: (Units=1/GPa)
#
#
# Indices 1 2 3 4 5 6 
#
# 1 0.010612 -0.005818 0.001414 0.000887 -0.004403 -0.004106
# 2 -0.005818 0.012161 -0.001459 0.001464 -0.001060 0.001408
# 3 0.001414 -0.001459 0.014916 0.004870 -0.012973 -0.006571
# 4 0.000887 0.001464 0.004870 0.025370 -0.008880 -0.004600
# 5 -0.004403 -0.001060 -0.012973 -0.008880 0.038425 0.014140
# 6 -0.004106 0.001408 -0.006571 -0.004600 0.014140 0.018289
#
#
# Mechanical properties :
#
#
# Convention : Reuss Voigt Hill
#
# Bulk Modulus (GPa) = 38.51358 65.88211 52.19785
# Shear Modulus (GPa) = 35.67532 52.25862 43.96697
#
# Velocity S-wave (km/s) = 3.53553 4.27907 3.92495
# Velocity P-wave (km/s) = 5.49191 6.89186 6.23133
#
# Compressibility (1/GPa) = 0.02596487
#
# Stress axis : x y z
#
# Youngs Moduli (GPa) = 94.23450 82.22929 67.04185
#
# Poissons Ratio (x) = 0.47838 -0.09482
# Poissons Ratio (y) = 0.54823 0.09779
# Poissons Ratio (z) = -0.13327 0.11994
#
# Static dielectric constant tensor:
#      x y z
#    x 2.209220 0.019860 0.143110 
#    y 0.019860 2.474680 -0.010600 
#    z 0.143110 -0.010600 1.138320 
# 
# From -- ./inp_files/340367.got.cif
#   From: 2010.05.17/outbox.cif.g08.bks.cpg/sg2_171_cif.got.tgz:340367.got - 2010.06.03 11:33:40.
