data_PCOD9066034
_publ_section_title
;
Structure prediction by ZEFSAII (Michael W. Deem and Ramdas Pophale) SiO2 
 PCOD9066034
Probable space group: P -1
;
_chemical_formula_sum "Si O2"
_cell_formula_units_Z 16
_cell_length_a 8.726548
_cell_length_b 8.902086
_cell_length_c 14.940693
_cell_angle_alpha 41.693274
_cell_angle_beta 110.067103
_cell_angle_gamma 113.701592
_cell_volume 705.126233
_symmetry_space_group_name_H-M "P -1"
_symmetry_group_IT_number 2
_symmetry_cell_setting 'triclinic'
loop_
_space_group_symop_operation_xyz
x,y,z
-x,-y,-z
loop_
_atom_site_type_symbol
_atom_site_label
_atom_site_fract_x
_atom_site_fract_y
_atom_site_fract_z
Si Si1 0.720938 0.994937 0.832930
Si Si2 0.105813 0.103277 0.562823
Si Si3 0.369164 0.613872 0.633790
Si Si4 0.861209 0.155252 0.154372
Si Si5 0.516873 0.841507 0.157157
Si Si6 0.460307 0.996924 0.635624
Si Si7 0.089666 0.383517 0.933748
Si Si8 0.009044 0.571785 0.311531
O O1 0.638263 0.145384 0.817427
O O2 0.577009 0.912353 0.768412
O O3 0.885364 0.177057 0.750522
O O4 0.780088 0.778510 0.982832
O O5 0.292140 0.063869 0.606051
O O6 0.100738 0.370723 0.446334
O O7 0.035452 0.964251 0.700823
O O8 0.000000 0.000000 0.500000
O O9 0.473671 0.417492 0.749380
O O10 0.426164 0.770681 0.488857
O O11 0.173851 0.491017 0.652989
O O12 0.405611 0.795418 0.641622
O O13 0.831196 0.377052 0.105501
O O14 0.691093 0.969325 0.181312
O O15 0.952267 0.248875 0.037992
O O16 0.500000 0.000000 0.000000
O O17 0.018419 0.426915 0.802903
#
# Coordination Sequence:
#
# PCOD9066034 Si02
#       8
#     2   2   2   2   2   2   2   2
#     4  12  27  44  76 102 149 182 246 296 359 424
#     4  12  23  46  76 104 143 188 244 293 359 425
#     4  11  26  46  71 102 151 178 247 283 369 422
#     4  11  25  44  72 107 141 187 245 291 359 430
#     4  12  26  45  70 104 146 190 234 303 356 424
#     4  11  26  47  70 111 138 195 232 303 354 431
#     4  11  25  46  71 106 144 188 242 293 362 431
#     4  12  25  46  75 105 142 196 233 302 356 427
#
# _framework density 22.690971999999999
#
# number of rings (size 3 to 8) (size 9 to 14) (size 15 to 20)
#    0.000    0.500    3.750    3.375    5.250    2.000 
#    0.000    0.000    0.000    0.000    0.000    0.000 
#    0.000    0.000    0.000    0.000    0.000    0.000 
#
# Total GULP energy -89596.342987 kJ/mol
# GULP energy per Si atom -5599.771437 kJ/mol
# Density = 2.263933 g / cm^3
# Si number density = 22.690972 Si / 1000 Ang^3
#
#
#
# Elastic Constant Matrix: (Units=GPa)
#
#
# Indices 1 2 3 4 5 6 
#
# 1 100.3057 26.2319 32.3509 -4.1277 -6.1791 -5.9945
# 2 26.2319 33.0475 21.1738 -7.4586 12.2999 -1.4958
# 3 32.3509 21.1738 116.9398 -17.3357 13.1686 -8.5465
# 4 -4.1277 -7.4586 -17.3357 39.5868 -9.0642 11.1222
# 5 -6.1791 12.2999 13.1686 -9.0642 37.7662 -9.0633
# 6 -5.9945 -1.4958 -8.5465 11.1222 -9.0633 38.3228
#
#
#
# Elastic Compliance Matrix: (Units=1/GPa)
#
#
# Indices 1 2 3 4 5 6 
#
# 1 0.014987 -0.013450 -0.002562 -0.001193 0.008293 0.003556
# 2 -0.013450 0.050367 -0.003194 0.004363 -0.017972 -0.006367
# 3 -0.002562 -0.003194 0.010584 0.003146 -0.002219 0.000397
# 4 -0.001193 0.004363 0.003146 0.030035 0.002723 -0.007388
# 5 0.008293 -0.017972 -0.002219 0.002723 0.037053 0.008074
# 6 0.003556 -0.006367 0.000397 -0.007388 0.008074 0.030544
#
#
# Mechanical properties :
#
#
# Convention : Reuss Voigt Hill
#
# Bulk Modulus (GPa) = 26.64723 45.53403 36.09063
# Shear Modulus (GPa) = 22.27259 34.50424 28.38842
#
# Velocity S-wave (km/s) = 3.13639 3.90374 3.54091
# Velocity P-wave (km/s) = 4.98848 6.35842 5.71465
#
# Compressibility (1/GPa) = 0.03752736
#
# Stress axis : x y z
#
# Youngs Moduli (GPa) = 66.72254 19.85418 94.48493
#
# Poissons Ratio (x) = 0.26704 0.24205
# Poissons Ratio (y) = 0.89742 0.30176
# Poissons Ratio (z) = 0.17093 0.06341
#
# Static dielectric constant tensor:
#      x y z
#    x 1.908320 -0.046710 -0.045260 
#    y -0.046710 1.838180 0.024200 
#    z -0.045260 0.024200 1.850260 
# 
# From -- ./inp_files/298051.got.cif
#   From: 2010.05.17/outbox.cif.g08.bks.cpg/sg2_150_cif.got.tgz:298051.got - 2010.06.03 11:33:40.
