data_PCOD9066203
_publ_section_title
;
Structure prediction by ZEFSAII (Michael W. Deem and Ramdas Pophale) SiO2 
 PCOD9066203
Probable space group: P -1
;
_chemical_formula_sum "Si O2"
_cell_formula_units_Z 16
_cell_length_a 15.172070
_cell_length_b 9.612333
_cell_length_c 13.374257
_cell_angle_alpha 145.332137
_cell_angle_beta 43.903032
_cell_angle_gamma 136.265457
_cell_volume 726.398950
_symmetry_space_group_name_H-M "P -1"
_symmetry_group_IT_number 2
_symmetry_cell_setting 'triclinic'
loop_
_space_group_symop_operation_xyz
x,y,z
-x,-y,-z
loop_
_atom_site_type_symbol
_atom_site_label
_atom_site_fract_x
_atom_site_fract_y
_atom_site_fract_z
Si Si1 0.560544 0.390262 0.035635
Si Si2 0.702309 0.715583 0.923930
Si Si3 0.861865 0.905656 0.619297
Si Si4 0.614588 0.867193 0.671592
Si Si5 0.917744 0.170900 0.122282
Si Si6 0.124939 0.509249 0.475321
Si Si7 0.371262 0.421276 0.697109
Si Si8 0.896114 0.463176 0.973955
O O1 0.635266 0.590901 0.008360
O O2 0.625185 0.162196 0.859131
O O3 0.409217 0.253623 0.041539
O O4 0.567531 0.548377 0.224589
O O5 0.760593 0.505917 0.702942
O O6 0.813136 0.987542 0.021587
O O7 0.731406 0.783082 0.582538
O O8 0.888458 0.737322 0.588385
O O9 0.834738 0.157437 0.831318
O O10 0.000000 0.000000 0.500000
O O11 0.468915 0.677930 0.713802
O O12 0.627320 0.816529 0.513667
O O13 0.853110 0.268024 0.327640
O O14 0.021957 0.406965 0.115741
O O15 0.000000 0.000000 0.000000
O O16 0.000000 0.500000 0.500000
O O17 0.219650 0.418903 0.834461
O O18 0.000000 0.500000 0.000000
#
# Coordination Sequence:
#
# PCOD9066203 Si02
#       8
#     2   2   2   2   2   2   2   2
#     4  11  25  48  72 101 144 193 242 301 353 440
#     4  11  27  46  73 103 142 196 246 287 370 433
#     4  12  25  46  72 111 147 186 244 302 362 428
#     4  11  26  44  74 104 146 187 241 304 364 425
#     4  12  26  47  70 106 147 191 238 298 361 431
#     4  12  27  46  73 104 150 192 237 299 363 430
#     4  11  25  45  71 105 141 188 239 301 365 431
#     4  12  26  43  72 107 147 184 241 302 359 427
#
# _framework density 22.026461999999999
#
# number of rings (size 3 to 8) (size 9 to 14) (size 15 to 20)
#    0.000    0.500    3.750    3.375    5.250    4.000 
#    0.000    2.500    0.000    0.000    0.000    0.000 
#    0.000    0.000    0.000    0.000    0.000    0.000 
#
# Total GULP energy -89476.398122 kJ/mol
# GULP energy per Si atom -5592.274883 kJ/mol
# Density = 2.197633 g / cm^3
# Si number density = 22.026462 Si / 1000 Ang^3
#
#
#
# Elastic Constant Matrix: (Units=GPa)
#
#
# Indices 1 2 3 4 5 6 
#
# 1 149.4403 28.8606 36.3125 -4.1066 7.3400 -7.6981
# 2 28.8606 41.6093 14.8001 0.5840 6.1390 -0.7895
# 3 36.3125 14.8001 120.8593 -17.0954 21.5175 -1.4520
# 4 -4.1066 0.5840 -17.0954 33.6628 -6.3861 -3.4075
# 5 7.3400 6.1390 21.5175 -6.3861 36.9868 -4.0618
# 6 -7.6981 -0.7895 -1.4520 -3.4075 -4.0618 34.0875
#
#
#
# Elastic Compliance Matrix: (Units=1/GPa)
#
#
# Indices 1 2 3 4 5 6 
#
# 1 0.008200 -0.005082 -0.001860 0.000430 0.000567 0.001765
# 2 -0.005082 0.028707 -0.001806 -0.002791 -0.003323 -0.001235
# 3 -0.001860 -0.001806 0.010490 0.004220 -0.004722 -0.000156
# 4 0.000430 -0.002791 0.004220 0.033131 0.004084 0.004011
# 5 0.000567 -0.003323 -0.004722 0.004084 0.031367 0.003996
# 6 0.001765 -0.001235 -0.000156 0.004011 0.003996 0.030577
#
#
# Mechanical properties :
#
#
# Convention : Reuss Voigt Hill
#
# Bulk Modulus (GPa) = 33.44576 52.42837 42.93707
# Shear Modulus (GPa) = 29.42298 36.40978 32.91638
#
# Velocity S-wave (km/s) = 3.65883 4.07012 3.86994
# Velocity P-wave (km/s) = 5.75036 6.77805 6.28525
#
# Compressibility (1/GPa) = 0.02989915
#
# Stress axis : x y z
#
# Youngs Moduli (GPa) = 121.95024 34.83521 95.32900
#
# Poissons Ratio (x) = 0.17704 0.17733
# Poissons Ratio (y) = 0.61976 0.17220
# Poissons Ratio (z) = 0.22686 0.06293
#
# Static dielectric constant tensor:
#      x y z
#    x 1.748210 -0.091730 -0.121620 
#    y -0.091730 1.713870 -0.127420 
#    z -0.121620 -0.127420 1.696530 
# 
# From -- ./inp_files/448311.got.cif
#   From: 2010.05.17/outbox.cif.g08.bks.cpg/sg2_225_cif.got.tgz:448311.got - 2010.06.03 11:33:40.
