data_PCOD9066246
_publ_section_title
;
Structure prediction by ZEFSAII (Michael W. Deem and Ramdas Pophale) SiO2 
 PCOD9066246
Probable space group: P -1
;
_chemical_formula_sum "Si O2"
_cell_formula_units_Z 14
_cell_length_a 10.045707
_cell_length_b 9.104685
_cell_length_c 12.826811
_cell_angle_alpha 35.993123
_cell_angle_beta 116.380455
_cell_angle_gamma 113.201660
_cell_volume 616.339781
_symmetry_space_group_name_H-M "P -1"
_symmetry_group_IT_number 2
_symmetry_cell_setting 'triclinic'
loop_
_space_group_symop_operation_xyz
x,y,z
-x,-y,-z
loop_
_atom_site_type_symbol
_atom_site_label
_atom_site_fract_x
_atom_site_fract_y
_atom_site_fract_z
Si Si1 0.624210 0.222928 0.897029
Si Si2 0.271533 0.028699 0.356271
Si Si3 0.952085 0.760979 0.382236
Si Si4 0.724925 0.043985 0.253914
Si Si5 0.319131 0.456407 0.961399
Si Si6 0.530932 0.767979 0.501692
Si Si7 0.836005 0.931013 0.028071
O O1 0.553267 0.479687 0.697048
O O2 0.702598 0.204974 0.048001
O O3 0.500000 0.000000 0.000000
O O4 0.734913 0.163782 0.875034
O O5 0.357712 0.087866 0.459211
O O6 0.366365 0.836263 0.434991
O O7 0.277330 0.280632 0.145973
O O8 0.104533 0.919441 0.369450
O O9 0.862800 0.854082 0.199164
O O10 0.000000 0.500000 0.500000
O O11 0.843604 0.834663 0.396642
O O12 0.753298 0.277024 0.209716
O O13 0.580690 0.883811 0.341229
O O14 0.254333 0.291622 0.936889
O O15 0.500000 0.500000 0.000000
O O16 0.000000 0.000000 0.000000
#
# Coordination Sequence:
#
# PCOD9066246 Si02
#       7
#     2   2   2   2   2   2   2
#     4  11  26  45  70 106 144 187 241 297 356 432
#     4  11  25  45  72 106 144 190 239 304 355 429
#     4  11  28  47  67 105 149 185 240 301 365 427
#     4  11  26  46  72 104 141 195 235 294 362 430
#     4  12  23  46  75 107 145 187 247 293 362 434
#     4  11  26  44  73 106 141 188 246 294 356 427
#     4  11  26  45  71 103 141 189 233 301 364 416
#
# _framework density 22.714741
#
# number of rings (size 3 to 8) (size 9 to 14) (size 15 to 20)
#    0.000    0.857    4.286    0.857    8.000    2.857 
#    0.000    0.000    0.000    0.000    0.000    0.000 
#    0.000    0.000    0.000    0.000    0.000    0.000 
#
# Total GULP energy -78167.068765 kJ/mol
# GULP energy per Si atom -5583.362055 kJ/mol
# Density = 2.266304 g / cm^3
# Si number density = 22.714741 Si / 1000 Ang^3
#
#
#
# Elastic Constant Matrix: (Units=GPa)
#
#
# Indices 1 2 3 4 5 6 
#
# 1 120.9858 49.4160 11.6452 -18.0062 6.0786 -11.2604
# 2 49.4160 95.8614 13.7240 -12.2476 6.7876 -6.0833
# 3 11.6452 13.7240 83.1258 -28.1697 9.2754 -26.0881
# 4 -18.0062 -12.2476 -28.1697 45.0359 -8.2040 16.7201
# 5 6.0786 6.7876 9.2754 -8.2040 26.5630 -5.9022
# 6 -11.2604 -6.0833 -26.0881 16.7201 -5.9022 41.9075
#
#
#
# Elastic Compliance Matrix: (Units=1/GPa)
#
#
# Indices 1 2 3 4 5 6 
#
# 1 0.010912 -0.005266 0.000796 0.002830 -0.000221 0.001503
# 2 -0.005266 0.013499 -0.001300 0.000733 -0.001742 -0.000803
# 3 0.000796 -0.001300 0.017280 0.007664 -0.001859 0.007463
# 4 0.002830 0.000733 0.007664 0.031536 0.004837 -0.006263
# 5 -0.000221 -0.001742 -0.001859 0.004837 0.040807 0.002348
# 6 0.001503 -0.000803 0.007463 -0.006263 0.002348 0.031624
#
#
# Mechanical properties :
#
#
# Convention : Reuss Voigt Hill
#
# Bulk Modulus (GPa) = 33.16721 49.94926 41.55824
# Shear Modulus (GPa) = 29.89582 37.71381 33.80481
#
# Velocity S-wave (km/s) = 3.63180 4.07913 3.86195
# Velocity P-wave (km/s) = 5.67626 6.65006 6.18236
#
# Compressibility (1/GPa) = 0.03015026
#
# Stress axis : x y z
#
# Youngs Moduli (GPa) = 91.64150 74.08103 57.87148
#
# Poissons Ratio (x) = 0.39014 -0.04608
# Poissons Ratio (y) = 0.48263 0.07523
# Poissons Ratio (z) = -0.07298 0.09630
#
# Static dielectric constant tensor:
#      x y z
#    x 1.902170 -0.082430 0.057600 
#    y -0.082430 1.979450 0.015040 
#    z 0.057600 0.015040 1.879080 
# 
# From -- ./inp_files/200728.got.cif
#   From: 2010.05.17/outbox.cif.g08.bks.cpg/sg2_101_cif.got.tgz:200728.got - 2010.06.03 11:33:40.
