data_PCOD9066406
_publ_section_title
;
Structure prediction by ZEFSAII (Michael W. Deem and Ramdas Pophale) SiO2 
 PCOD9066406
Probable space group: P -1
;
_chemical_formula_sum "Si O2"
_cell_formula_units_Z 14
_cell_length_a 11.765263
_cell_length_b 11.644482
_cell_length_c 5.121480
_cell_angle_alpha 79.236631
_cell_angle_beta 126.689080
_cell_angle_gamma 89.777178
_cell_volume 546.773117
_symmetry_space_group_name_H-M "P -1"
_symmetry_group_IT_number 2
_symmetry_cell_setting 'triclinic'
loop_
_space_group_symop_operation_xyz
x,y,z
-x,-y,-z
loop_
_atom_site_type_symbol
_atom_site_label
_atom_site_fract_x
_atom_site_fract_y
_atom_site_fract_z
Si Si1 0.544049 0.607335 0.342906
Si Si2 0.518092 0.136714 0.939952
Si Si3 0.221649 0.679101 0.650825
Si Si4 0.872703 0.927822 0.780627
Si Si5 0.136410 0.461175 0.389543
Si Si6 0.326173 0.856478 0.364169
Si Si7 0.062154 0.216170 0.579626
O O1 0.500000 0.500000 0.500000
O O2 0.572915 0.745018 0.365333
O O3 0.701622 0.549438 0.493140
O O4 0.386953 0.638564 0.972714
O O5 0.647714 0.129461 0.909220
O O6 0.531942 0.173260 0.247739
O O7 0.500000 0.000000 0.000000
O O8 0.141901 0.566082 0.557341
O O9 0.233716 0.755511 0.370767
O O10 0.110797 0.761223 0.649289
O O11 0.884661 0.883623 0.519764
O O12 0.738421 0.020180 0.644834
O O13 0.885994 0.819595 0.043844
O O14 0.000000 0.000000 0.000000
O O15 0.120150 0.334186 0.529570
O O16 0.000000 0.500000 0.000000
#
# Coordination Sequence:
#
# PCOD9066406 Si02
#       7
#     2   2   2   2   2   2   2
#     4  11  26  47  80 110 156 210 269 315 399 480
#     4  11  26  48  72 113 153 206 257 330 388 468
#     4  11  25  50  77 112 156 210 262 320 392 478
#     4  12  26  44  76 108 154 204 261 315 391 470
#     4  12  27  49  77 116 157 200 261 336 397 461
#     4  11  25  45  77 104 156 199 263 315 389 468
#     4  12  27  46  76 115 153 202 259 329 390 458
#
# _framework density 25.604768
#
# number of rings (size 3 to 8) (size 9 to 14) (size 15 to 20)
#    0.000    0.571    1.429    5.143    8.000    2.286 
#    0.000    0.000    0.000    0.000    0.000    0.000 
#    0.000    0.000    0.000    0.000    0.000    0.000 
#
# Total GULP energy -78032.113957 kJ/mol
# GULP energy per Si atom -5573.722425 kJ/mol
# Density = 2.554649 g / cm^3
# Si number density = 25.604768 Si / 1000 Ang^3
#
#
#
# Elastic Constant Matrix: (Units=GPa)
#
#
# Indices 1 2 3 4 5 6 
#
# 1 148.9794 19.2348 43.5407 -10.9634 4.8817 1.6874
# 2 19.2348 121.6149 10.3183 -28.3720 -6.1389 17.7759
# 3 43.5407 10.3183 95.6136 -13.5366 10.2218 3.1477
# 4 -10.9634 -28.3720 -13.5366 45.6566 2.6274 -7.5017
# 5 4.8817 -6.1389 10.2218 2.6274 36.0327 -15.7684
# 6 1.6874 17.7759 3.1477 -7.5017 -15.7684 61.2704
#
#
#
# Elastic Compliance Matrix: (Units=1/GPa)
#
#
# Indices 1 2 3 4 5 6 
#
# 1 0.007858 -0.000912 -0.003418 0.000354 -0.000179 0.000221
# 2 -0.000912 0.010004 0.000158 0.005678 0.000463 -0.002071
# 3 -0.003418 0.000158 0.012903 0.003125 -0.003944 -0.001247
# 4 0.000354 0.005678 0.003125 0.026703 -0.001441 0.001081
# 5 -0.000179 0.000463 -0.003944 -0.001441 0.032720 0.008317
# 6 0.000221 -0.002071 -0.001247 0.001081 0.008317 0.019253
#
#
# Mechanical properties :
#
#
# Convention : Reuss Voigt Hill
#
# Bulk Modulus (GPa) = 44.59821 56.93284 50.76553
# Shear Modulus (GPa) = 39.91720 48.13286 44.02503
#
# Velocity S-wave (km/s) = 3.95267 4.34042 4.15107
# Velocity P-wave (km/s) = 6.18767 6.88494 6.54560
#
# Compressibility (1/GPa) = 0.02242242
#
# Stress axis : x y z
#
# Youngs Moduli (GPa) = 127.25130 99.95847 77.49860
#
# Poissons Ratio (x) = 0.09113 0.26491
# Poissons Ratio (y) = 0.11602 -0.01226
# Poissons Ratio (z) = 0.43497 -0.01581
#
# Static dielectric constant tensor:
#      x y z
#    x 2.038230 0.002290 0.022800 
#    y 0.002290 2.089820 0.057550 
#    z 0.022800 0.057550 2.114500 
# 
# From -- ./inp_files/69478.got.cif
#   From: 2010.05.17/outbox.cif.g08.bks.cpg/sg2_35_cif.got.tgz:69478.got - 2010.06.03 11:33:40.
