data_PCOD9066838
_publ_section_title
;
Structure prediction by ZEFSAII (Michael W. Deem and Ramdas Pophale) SiO2 
 PCOD9066838
Probable space group: P -1
;
_chemical_formula_sum "Si O2"
_cell_formula_units_Z 16
_cell_length_a 24.584685
_cell_length_b 6.432664
_cell_length_c 11.520933
_cell_angle_alpha 57.668566
_cell_angle_beta 30.086506
_cell_angle_gamma 54.908859
_cell_volume 744.243402
_symmetry_space_group_name_H-M "P -1"
_symmetry_group_IT_number 2
_symmetry_cell_setting 'triclinic'
loop_
_space_group_symop_operation_xyz
x,y,z
-x,-y,-z
loop_
_atom_site_type_symbol
_atom_site_label
_atom_site_fract_x
_atom_site_fract_y
_atom_site_fract_z
Si Si1 0.430204 0.788361 0.369123
Si Si2 0.039305 0.833374 0.361471
Si Si3 0.085166 0.539959 0.933566
Si Si4 0.752700 0.004808 0.155741
Si Si5 0.074464 0.321512 0.589145
Si Si6 0.754190 0.109402 0.521404
Si Si7 0.563788 0.207369 0.281035
Si Si8 0.438282 0.784906 0.990084
O O1 0.345987 0.883261 0.603884
O O2 0.343754 0.798815 0.419684
O O3 0.507130 0.501059 0.336033
O O4 0.503508 0.990378 0.148052
O O5 0.077435 0.559037 0.433304
O O6 0.948164 0.862471 0.417518
O O7 0.143112 0.875762 0.083496
O O8 0.000000 0.000000 0.500000
O O9 0.145247 0.759757 0.724975
O O10 0.188196 0.288077 0.836660
O O11 0.000000 0.500000 0.000000
O O12 0.020802 0.600664 0.158085
O O13 0.689776 0.081108 0.127944
O O14 0.186046 0.191016 0.494096
O O15 0.687906 0.167656 0.745953
O O16 0.557948 0.215542 0.153128
O O17 0.500000 0.000000 0.500000
O O18 0.500000 0.500000 0.000000
#
# Coordination Sequence:
#
# PCOD9066838 Si02
#       8
#     2   2   2   2   2   2   2   2
#     4  12  26  50  70 109 149 192 251 309 368 447
#     4  11  25  47  68 104 142 184 241 307 361 446
#     4  12  25  48  74 106 148 191 249 309 370 454
#     4  12  25  43  78  98 141 196 235 300 377 428
#     4  11  26  45  71 104 142 184 245 298 369 447
#     4  12  26  43  76 102 144 195 238 305 376 434
#     4  12  27  47  73 108 148 190 250 306 366 450
#     4  12  27  48  71 107 152 193 252 307 365 444
#
# _framework density 21.498343999999999
#
# number of rings (size 3 to 8) (size 9 to 14) (size 15 to 20)
#    0.000    0.250    3.750    4.875    3.500    0.000 
#    0.000    0.000    0.000    0.000    0.000    0.000 
#    0.000    0.000    0.000    0.000    0.000    0.000 
#
# Total GULP energy -89309.905611 kJ/mol
# GULP energy per Si atom -5581.869101 kJ/mol
# Density = 2.144941 g / cm^3
# Si number density = 21.498344 Si / 1000 Ang^3
#
#
#
# Elastic Constant Matrix: (Units=GPa)
#
#
# Indices 1 2 3 4 5 6 
#
# 1 47.6207 1.3626 -108.6535 -10.9337 8.0720 -20.6532
# 2 1.3626 87.5068 -41.7798 -7.0905 -0.9676 -29.9337
# 3 -108.6535 -41.7798 -113.0789 -21.5878 25.0805 -12.7198
# 4 -10.9337 -7.0905 -21.5878 30.4302 -6.7935 3.7932
# 5 8.0720 -0.9676 25.0805 -6.7935 43.8371 5.0500
# 6 -20.6532 -29.9337 -12.7198 3.7932 5.0500 40.9645
#
#
#
# Elastic Compliance Matrix: (Units=1/GPa)
#
#
# Indices 1 2 3 4 5 6 
#
# 1 0.007635 -0.002934 -0.005609 -0.001575 0.001503 -0.000076
# 2 -0.002934 0.012739 -0.002324 -0.000315 0.001299 0.006977
# 3 -0.005609 -0.002324 -0.001180 -0.002369 0.001854 -0.004902
# 4 -0.001575 -0.000315 -0.002369 0.032906 0.007397 -0.005718
# 5 0.001503 0.001299 0.001854 0.007397 0.022789 -0.001211
# 6 -0.000076 0.006977 -0.004902 -0.005718 -0.001211 0.028628
#
#
# Mechanical properties :
#
#
# Convention : Reuss Voigt Hill
#
# Bulk Modulus (GPa) = -393.50912 -30.67699 -212.09305
# Shear Modulus (GPa) = 40.19103 34.45432 37.32268
#
# Velocity S-wave (km/s) = 4.32846 4.00765 4.17114
# Velocity P-wave (km/s) = 12.58802 2.66732 8.69896
#
# Compressibility (1/GPa) = -0.00254124
#
# Stress axis : x y z
#
# Youngs Moduli (GPa) = 130.97576 78.49833 -847.64808
#
# Poissons Ratio (x) = 0.23032 -4.75488
# Poissons Ratio (y) = 0.38429 -1.97014
# Poissons Ratio (z) = 0.73471 0.18245
#
# Static dielectric constant tensor:
#      x y z
#    x 1.779030 0.065850 0.074410 
#    y 0.065850 1.810860 0.037060 
#    z 0.074410 0.037060 1.395990 
# 
# From -- ./inp_files/473352.got.cif
#   From: 2010.05.17/outbox.cif.g08.bks.cpg/sg2_237_cif.got.tgz:473352.got - 2010.06.03 11:33:40.
