data_PCOD9066799
_publ_section_title
;
Structure prediction by ZEFSAII (Michael W. Deem and Ramdas Pophale) SiO2 
 PCOD9066799
Probable space group: P -1
;
_chemical_formula_sum "Si O2"
_cell_formula_units_Z 16
_cell_length_a 5.989729
_cell_length_b 11.684322
_cell_length_c 12.396608
_cell_angle_alpha 74.300044
_cell_angle_beta 71.280944
_cell_angle_gamma 56.744473
_cell_volume 682.208912
_symmetry_space_group_name_H-M "P -1"
_symmetry_group_IT_number 2
_symmetry_cell_setting 'triclinic'
loop_
_space_group_symop_operation_xyz
x,y,z
-x,-y,-z
loop_
_atom_site_type_symbol
_atom_site_label
_atom_site_fract_x
_atom_site_fract_y
_atom_site_fract_z
Si Si1 0.737483 0.111984 0.448140
Si Si2 0.411517 0.233700 0.684553
Si Si3 0.923571 0.653385 0.949011
Si Si4 0.955205 0.752873 0.693422
Si Si5 0.916806 0.147249 0.061332
Si Si6 0.810221 0.483405 0.441613
Si Si7 0.357040 0.859811 0.102630
Si Si8 0.633744 0.011553 0.274547
O O1 0.529417 0.195242 0.554679
O O2 0.687171 0.027118 0.386710
O O3 0.792924 0.220411 0.347446
O O4 0.000000 0.000000 0.500000
O O5 0.241647 0.398048 0.667294
O O6 0.624757 0.182201 0.764355
O O7 0.267076 0.142391 0.740384
O O8 0.909265 0.674742 0.817839
O O9 0.131871 0.705328 0.935945
O O10 0.651312 0.757621 0.031146
O O11 0.000000 0.500000 0.000000
O O12 0.692822 0.903877 0.702297
O O13 0.001065 0.668349 0.598747
O O14 0.740642 0.093823 0.165983
O O15 0.844517 0.154224 0.945772
O O16 0.225231 0.025526 0.073897
O O17 0.500000 0.500000 0.500000
O O18 0.000000 0.500000 0.500000
#
# Coordination Sequence:
#
# PCOD9066799 Si02
#       8
#     2   2   2   2   2   2   2   2
#     4  12  24  43  73 106 145 184 250 307 379 451
#     4  12  26  46  72 111 148 196 253 311 388 468
#     4  12  26  49  72 106 148 196 254 311 383 471
#     4  12  25  48  73 106 149 198 246 318 382 456
#     4  11  25  46  77 108 145 197 251 323 393 452
#     4  12  29  51  76 108 160 207 254 316 391 474
#     4  11  26  47  73 107 149 191 251 320 386 461
#     4  12  25  45  76 108 141 192 252 319 377 456
#
# _framework density 23.453225
#
# number of rings (size 3 to 8) (size 9 to 14) (size 15 to 20)
#    0.000    0.250    5.000    3.750    5.250    1.500 
#    2.250    0.000    0.000    0.000    0.000    0.000 
#    0.000    0.000    0.000    0.000    0.000    0.000 
#
# Total GULP energy -89299.079459 kJ/mol
# GULP energy per Si atom -5581.192466 kJ/mol
# Density = 2.339984 g / cm^3
# Si number density = 23.453225 Si / 1000 Ang^3
#
#
#
# Elastic Constant Matrix: (Units=GPa)
#
#
# Indices 1 2 3 4 5 6 
#
# 1 78.0404 30.0291 56.9620 -8.0588 -6.3289 13.6633
# 2 30.0291 108.9584 23.8044 -17.4645 -10.0970 26.3587
# 3 56.9620 23.8044 121.8800 -10.1847 -0.4510 0.5699
# 4 -8.0588 -17.4645 -10.1847 47.7284 -0.3190 -2.2473
# 5 -6.3289 -10.0970 -0.4510 -0.3190 58.2271 -0.5792
# 6 13.6633 26.3587 0.5699 -2.2473 -0.5792 32.3519
#
#
#
# Elastic Compliance Matrix: (Units=1/GPa)
#
#
# Indices 1 2 3 4 5 6 
#
# 1 0.022407 -0.001840 -0.010018 0.000623 0.001966 -0.007709
# 2 -0.001840 0.013071 -0.001327 0.003752 0.001982 -0.009553
# 3 -0.010018 -0.001327 0.013190 0.000871 -0.001161 0.005120
# 4 0.000623 0.003752 0.000871 0.022539 0.000831 -0.001755
# 5 0.001966 0.001982 -0.001161 0.000831 0.017707 -0.002050
# 6 -0.007709 -0.009553 0.005120 -0.001755 -0.002050 0.041701
#
#
# Mechanical properties :
#
#
# Convention : Reuss Voigt Hill
#
# Bulk Modulus (GPa) = 44.84544 58.94107 51.89325
# Shear Modulus (GPa) = 30.41044 40.86706 35.63875
#
# Velocity S-wave (km/s) = 3.60480 4.17885 3.90239
# Velocity P-wave (km/s) = 6.04060 6.96201 6.51761
#
# Compressibility (1/GPa) = 0.02229881
#
# Stress axis : x y z
#
# Youngs Moduli (GPa) = 44.62860 76.50499 75.81281
#
# Poissons Ratio (x) = 0.14076 0.75946
# Poissons Ratio (y) = 0.08211 0.10064
# Poissons Ratio (z) = 0.44707 0.10155
#
# Static dielectric constant tensor:
#      x y z
#    x 1.987050 0.024500 -0.050580 
#    y 0.024500 1.898580 0.001330 
#    z -0.050580 0.001330 1.962250 
# 
# From -- ./inp_files/364261.got.cif
#   From: 2010.05.17/outbox.cif.g08.bks.cpg/sg2_183_cif.got.tgz:364261.got - 2010.06.03 11:33:40.
