data_PCOD9066839
_publ_section_title
;
Structure prediction by ZEFSAII (Michael W. Deem and Ramdas Pophale) SiO2 
 PCOD9066839
Probable space group: P -1
;
_chemical_formula_sum "Si O2"
_cell_formula_units_Z 14
_cell_length_a 5.751013
_cell_length_b 11.696889
_cell_length_c 25.208728
_cell_angle_alpha 31.242815
_cell_angle_beta 45.679254
_cell_angle_gamma 59.548573
_cell_volume 610.235501
_symmetry_space_group_name_H-M "P -1"
_symmetry_group_IT_number 2
_symmetry_cell_setting 'triclinic'
loop_
_space_group_symop_operation_xyz
x,y,z
-x,-y,-z
loop_
_atom_site_type_symbol
_atom_site_label
_atom_site_fract_x
_atom_site_fract_y
_atom_site_fract_z
Si Si1 0.535602 0.529314 0.251950
Si Si2 0.450069 0.341123 0.688263
Si Si3 0.208301 0.919479 0.329320
Si Si4 0.154488 0.087226 0.019197
Si Si5 0.764695 0.370377 0.041045
Si Si6 0.201116 0.669064 0.540372
Si Si7 0.462510 0.952098 0.588236
O O1 0.550872 0.499981 0.324043
O O2 0.782214 0.766797 0.103105
O O3 0.584481 0.317443 0.294838
O O4 0.142077 0.508859 0.316907
O O5 0.453809 0.512102 0.571592
O O6 0.743569 0.217998 0.676815
O O7 0.136304 0.131490 0.833392
O O8 0.512826 0.143074 0.194234
O O9 0.869580 0.997530 0.354675
O O10 0.204440 0.767938 0.442337
O O11 0.034742 0.276840 0.999499
O O12 0.500000 0.000000 0.000000
O O13 0.500000 0.500000 0.000000
O O14 0.000000 0.500000 0.000000
O O15 0.256060 0.883212 0.486543
O O16 0.500000 0.000000 0.500000
#
# Coordination Sequence:
#
# PCOD9066839 Si02
#       7
#     2   2   2   2   2   2   2
#     4  12  25  44  73 101 145 185 246 306 370 444
#     4  11  25  47  68 106 141 190 242 303 379 445
#     4  11  27  44  73 104 146 189 242 306 372 453
#     4  11  25  47  77 110 145 202 253 315 376 457
#     4  11  28  52  78 114 154 206 254 317 385 455
#     4  12  24  43  72 102 142 183 246 295 375 436
#     4  12  25  44  68 104 139 192 239 303 370 444
#
# _framework density 22.941962
#
# number of rings (size 3 to 8) (size 9 to 14) (size 15 to 20)
#    0.000    0.571    4.286    2.143    4.000    8.000 
#    0.000    0.000    0.000    0.000    0.000    0.000 
#    0.000    0.000    0.000    0.000    0.000    0.000 
#
# Total GULP energy -77963.570694 kJ/mol
# GULP energy per Si atom -5568.826478 kJ/mol
# Density = 2.288974 g / cm^3
# Si number density = 22.941962 Si / 1000 Ang^3
#
#
#
# Elastic Constant Matrix: (Units=GPa)
#
#
# Indices 1 2 3 4 5 6 
#
# 1 46.5741 25.6116 14.8237 -0.7118 3.5944 7.7166
# 2 25.6116 150.1004 22.9245 10.3684 -0.9713 -9.5778
# 3 14.8237 22.9245 137.2465 -1.5228 1.5629 1.3207
# 4 -0.7118 10.3684 -1.5228 40.9573 -3.2038 -6.9357
# 5 3.5944 -0.9713 1.5629 -3.2038 35.3047 -1.8268
# 6 7.7166 -9.5778 1.3207 -6.9357 -1.8268 30.6246
#
#
#
# Elastic Compliance Matrix: (Units=1/GPa)
#
#
# Indices 1 2 3 4 5 6 
#
# 1 0.026294 -0.004732 -0.001935 -0.000056 -0.003152 -0.008223
# 2 -0.004732 0.007928 -0.000871 -0.001481 0.000781 0.003421
# 3 -0.001935 -0.000871 0.007647 0.000458 -0.000125 -0.000018
# 4 -0.000056 -0.001481 0.000458 0.025951 0.002588 0.005563
# 5 -0.003152 0.000781 -0.000125 0.002588 0.029082 0.003365
# 6 -0.008223 0.003421 -0.000018 0.005563 0.003365 0.037256
#
#
# Mechanical properties :
#
#
# Convention : Reuss Voigt Hill
#
# Bulk Modulus (GPa) = 37.32404 51.18227 44.25315
# Shear Modulus (GPa) = 31.61203 39.41474 35.51338
#
# Velocity S-wave (km/s) = 3.71605 4.14940 3.93869
# Velocity P-wave (km/s) = 5.89205 6.73161 6.32577
#
# Compressibility (1/GPa) = 0.02679239
#
# Stress axis : x y z
#
# Youngs Moduli (GPa) = 38.03130 126.12876 130.76319
#
# Poissons Ratio (x) = 0.59687 0.25304
# Poissons Ratio (y) = 0.17997 0.11395
# Poissons Ratio (z) = 0.07360 0.10991
#
# Static dielectric constant tensor:
#      x y z
#    x 1.979100 -0.002120 -0.033680 
#    y -0.002120 1.914640 -0.037680 
#    z -0.033680 -0.037680 1.849140 
# 
# From -- ./inp_files/53469.got.cif
#   From: 2010.05.17/outbox.cif.g08.bks.cpg/sg2_27_cif.got.tgz:53469.got - 2010.06.03 11:33:40.
