data_PCOD9066565
_publ_section_title
;
Structure prediction by ZEFSAII (Michael W. Deem and Ramdas Pophale) SiO2 
 PCOD9066565
Probable space group: P -1
;
_chemical_formula_sum "Si O2"
_cell_formula_units_Z 14
_cell_length_a 8.503312
_cell_length_b 8.199069
_cell_length_c 20.596335
_cell_angle_alpha 47.209643
_cell_angle_beta 139.796146
_cell_angle_gamma 104.154543
_cell_volume 554.582507
_symmetry_space_group_name_H-M "P -1"
_symmetry_group_IT_number 2
_symmetry_cell_setting 'triclinic'
loop_
_space_group_symop_operation_xyz
x,y,z
-x,-y,-z
loop_
_atom_site_type_symbol
_atom_site_label
_atom_site_fract_x
_atom_site_fract_y
_atom_site_fract_z
Si Si1 0.080463 0.438380 0.150315
Si Si2 0.235629 0.086293 0.182001
Si Si3 0.420461 0.329351 0.970464
Si Si4 0.282641 0.588493 0.347798
Si Si5 0.366182 0.841054 0.528249
Si Si6 0.070650 0.140412 0.540092
Si Si7 0.282994 0.314642 0.789828
O O1 0.106522 0.195744 0.184299
O O2 0.426513 0.313670 0.302236
O O3 0.909336 0.534974 0.138423
O O4 0.914458 0.683761 0.981530
O O5 0.152259 0.880034 0.198113
O O6 0.591515 0.948588 0.329716
O O7 0.444291 0.357838 0.891162
O O8 0.500000 0.500000 0.000000
O O9 0.573951 0.995192 0.108030
O O10 0.500000 0.500000 0.500000
O O11 0.516635 0.388609 0.423878
O O12 0.017931 0.583599 0.293221
O O13 0.024689 0.960982 0.400890
O O14 0.500000 0.000000 0.500000
O O15 0.838834 0.465558 0.366070
O O16 0.000000 0.000000 0.500000
#
# Coordination Sequence:
#
# PCOD9066565 Si02
#       7
#     2   2   2   2   2   2   2
#     4  11  25  46  71 108 148 197 250 304 388 449
#     4  11  26  45  74 113 147 201 251 316 383 456
#     4  11  26  46  79 111 158 201 255 322 389 461
#     4  12  24  47  72 104 153 188 253 311 376 455
#     4  12  27  47  76 106 145 201 248 308 389 455
#     4  12  26  48  76 108 153 196 259 321 377 459
#     4  11  26  49  75 117 151 203 258 316 385 461
#
# _framework density 25.244216000000002
#
# number of rings (size 3 to 8) (size 9 to 14) (size 15 to 20)
#    0.000    0.571    4.286    2.571    4.000    4.571 
#    0.000    0.000    0.000    0.000    0.000    0.000 
#    0.000    0.000    0.000    0.000    0.000    0.000 
#
# Total GULP energy -77990.849914 kJ/mol
# GULP energy per Si atom -5570.774994 kJ/mol
# Density = 2.518676 g / cm^3
# Si number density = 25.244216 Si / 1000 Ang^3
#
#
#
# Elastic Constant Matrix: (Units=GPa)
#
#
# Indices 1 2 3 4 5 6 
#
# 1 104.6449 7.9220 9.4674 -3.8340 12.2250 -6.2732
# 2 7.9220 79.0818 9.1764 2.5251 -19.1147 -21.6927
# 3 9.4674 9.1764 98.2950 -1.2241 -10.2624 3.7971
# 4 -3.8340 2.5251 -1.2241 36.0504 10.8902 5.1074
# 5 12.2250 -19.1147 -10.2624 10.8902 19.6175 -6.9361
# 6 -6.2732 -21.6927 3.7971 5.1074 -6.9361 44.3903
#
#
#
# Elastic Compliance Matrix: (Units=1/GPa)
#
#
# Indices 1 2 3 4 5 6 
#
# 1 0.015318 -0.014403 -0.003488 0.015966 -0.038671 -0.012455
# 2 -0.014403 0.049433 0.004737 -0.039789 0.096326 0.041346
# 3 -0.003488 0.004737 0.011697 -0.006354 0.017977 0.004361
# 4 0.015966 -0.039789 -0.006354 0.069614 -0.105217 -0.041094
# 5 -0.038671 0.096326 0.017977 -0.105217 0.270114 0.094382
# 6 -0.012455 0.041346 0.004361 -0.041094 0.094382 0.060075
#
#
# Mechanical properties :
#
#
# Convention : Reuss Voigt Hill
#
# Bulk Modulus (GPa) = 19.94503 37.23925 28.59214
# Shear Modulus (GPa) = 9.62885 37.04202 23.33544
#
# Velocity S-wave (km/s) = 1.95514 3.83475 3.04367
# Velocity P-wave (km/s) = 3.60759 5.86436 4.86854
#
# Compressibility (1/GPa) = 0.05013780
#
# Stress axis : x y z
#
# Youngs Moduli (GPa) = 65.28218 20.22946 85.49566
#
# Poissons Ratio (x) = 0.29137 0.29823
# Poissons Ratio (y) = 0.94027 -0.40495
# Poissons Ratio (z) = 0.22772 -0.09582
#
# Static dielectric constant tensor:
#      x y z
#    x 2.283950 -0.082860 -0.128980 
#    y -0.082860 2.156190 0.187360 
#    z -0.128980 0.187360 2.147760 
# 
# From -- ./inp_files/587847.got.cif
#   From: 2010.05.17/outbox.cif.g08.bks.cpg/sg2_294_cif.got.tgz:587847.got - 2010.06.03 11:33:40.
