data_PCOD9066951
_publ_section_title
;
Structure prediction by ZEFSAII (Michael W. Deem and Ramdas Pophale) SiO2 
 PCOD9066951
Probable space group: P -1
;
_chemical_formula_sum "Si O2"
_cell_formula_units_Z 14
_cell_length_a 8.867597
_cell_length_b 6.128645
_cell_length_c 11.769754
_cell_angle_alpha 78.450322
_cell_angle_beta 103.160399
_cell_angle_gamma 75.386685
_cell_volume 579.723446
_symmetry_space_group_name_H-M "P -1"
_symmetry_group_IT_number 2
_symmetry_cell_setting 'triclinic'
loop_
_space_group_symop_operation_xyz
x,y,z
-x,-y,-z
loop_
_atom_site_type_symbol
_atom_site_label
_atom_site_fract_x
_atom_site_fract_y
_atom_site_fract_z
Si Si1 0.223122 0.055780 0.860375
Si Si2 0.643509 0.259857 0.527988
Si Si3 0.371311 0.411491 0.912831
Si Si4 0.745832 0.811315 0.720028
Si Si5 0.438749 0.717069 0.741086
Si Si6 0.052551 0.578929 0.379115
Si Si7 0.042972 0.723544 0.925893
O O1 0.339470 0.165492 0.941354
O O2 0.090026 0.252026 0.741771
O O3 0.339836 0.890738 0.803104
O O4 0.128251 0.929173 0.943344
O O5 0.500000 0.500000 0.500000
O O6 0.636580 0.198720 0.401896
O O7 0.816303 0.289815 0.583964
O O8 0.628260 0.049321 0.623660
O O9 0.420058 0.462708 0.789323
O O10 0.189349 0.580108 0.884698
O O11 0.500000 0.500000 0.000000
O O12 0.629412 0.688935 0.775741
O O13 0.849653 0.645993 0.656156
O O14 0.876159 0.857078 0.821633
O O15 0.000000 0.500000 0.500000
O O16 0.000000 0.500000 0.000000
#
# Coordination Sequence:
#
# PCOD9066951 Si02
#       7
#     2   2   2   2   2   2   2
#     4  11  25  47  73 111 149 199 249 313 382 446
#     4  12  26  43  71 111 151 200 249 303 376 447
#     4  11  25  49  74 107 146 192 256 314 382 452
#     4  12  25  46  69 111 149 195 254 308 370 452
#     4  11  26  42  73 107 151 194 251 306 374 452
#     4  12  25  42  73 106 153 199 246 303 378 445
#     4  11  25  47  74 108 149 197 258 310 369 448
#
# _framework density 24.149448
#
# number of rings (size 3 to 8) (size 9 to 14) (size 15 to 20)
#    0.000    0.571    4.286    3.000    6.000    4.000 
#    0.000    0.000    0.000    0.000    0.000    0.000 
#    0.000    0.000    0.000    0.000    0.000    0.000 
#
# Total GULP energy -78131.420522 kJ/mol
# GULP energy per Si atom -5580.815752 kJ/mol
# Density = 2.409448 g / cm^3
# Si number density = 24.149448 Si / 1000 Ang^3
#
#
#
# Elastic Constant Matrix: (Units=GPa)
#
#
# Indices 1 2 3 4 5 6 
#
# 1 163.7581 54.2604 51.9075 -4.1925 -7.2432 28.3574
# 2 54.2604 95.8637 39.7100 -10.0214 -4.8121 18.6541
# 3 51.9075 39.7100 79.0981 -5.9577 2.6959 10.2350
# 4 -4.1925 -10.0214 -5.9577 43.6858 4.1593 2.8519
# 5 -7.2432 -4.8121 2.6959 4.1593 54.8573 -1.6944
# 6 28.3574 18.6541 10.2350 2.8519 -1.6944 70.0061
#
#
#
# Elastic Compliance Matrix: (Units=1/GPa)
#
#
# Indices 1 2 3 4 5 6 
#
# 1 0.008755 -0.002811 -0.004116 -0.000327 0.001070 -0.002156
# 2 -0.002811 0.014904 -0.005203 0.002491 0.000937 -0.002151
# 3 -0.004116 -0.005203 0.018059 0.001039 -0.001956 0.000324
# 4 -0.000327 0.002491 0.001039 0.023849 -0.001736 -0.001697
# 5 0.001070 0.000937 -0.001956 -0.001736 0.018684 0.000126
# 6 -0.002156 -0.002151 0.000324 -0.001697 0.000126 0.015756
#
#
# Mechanical properties :
#
#
# Convention : Reuss Voigt Hill
#
# Bulk Modulus (GPa) = 57.28591 70.05287 63.66939
# Shear Modulus (GPa) = 38.43557 46.56597 42.50077
#
# Velocity S-wave (km/s) = 3.99378 4.39594 4.19968
# Velocity P-wave (km/s) = 6.71118 7.40518 7.06671
#
# Compressibility (1/GPa) = 0.01745630
#
# Stress axis : x y z
#
# Youngs Moduli (GPa) = 114.21771 67.09559 55.37377
#
# Poissons Ratio (x) = 0.18863 0.22793
# Poissons Ratio (y) = 0.32111 0.28813
# Poissons Ratio (z) = 0.47014 0.34913
#
# Static dielectric constant tensor:
#      x y z
#    x 1.919630 0.103000 -0.000900 
#    y 0.103000 2.159660 -0.016250 
#    z -0.000900 -0.016250 1.982310 
# 
# From -- ./inp_files/372972.got.cif
#   From: 2010.05.17/outbox.cif.g08.bks.cpg/sg2_187_cif.got.tgz:372972.got - 2010.06.03 11:33:40.
