data_PCOD9066486
_publ_section_title
;
Structure prediction by ZEFSAII (Michael W. Deem and Ramdas Pophale) SiO2 
 PCOD9066486
Probable space group: P -1
;
_chemical_formula_sum "Si O2"
_cell_formula_units_Z 12
_cell_length_a 17.276374
_cell_length_b 12.473269
_cell_length_c 12.576455
_cell_angle_alpha 145.779546
_cell_angle_beta 32.719855
_cell_angle_gamma 157.810836
_cell_volume 537.826581
_symmetry_space_group_name_H-M "P -1"
_symmetry_group_IT_number 2
_symmetry_cell_setting 'triclinic'
loop_
_space_group_symop_operation_xyz
x,y,z
-x,-y,-z
loop_
_atom_site_type_symbol
_atom_site_label
_atom_site_fract_x
_atom_site_fract_y
_atom_site_fract_z
Si Si1 0.321869 0.427095 0.864387
Si Si2 0.568702 0.286685 0.815517
Si Si3 0.147311 0.087676 0.080722
Si Si4 0.972697 0.844142 0.508303
Si Si5 0.554810 0.856453 0.761661
Si Si6 0.510020 0.212223 0.471363
O O1 0.421997 0.567781 0.748011
O O2 0.372288 0.260382 0.700087
O O3 0.441437 0.679680 0.019108
O O4 0.062811 0.198226 0.973755
O O5 0.764035 0.619753 0.823929
O O6 0.587186 0.080832 0.610910
O O7 0.349331 0.146635 0.899923
O O8 0.067855 0.054115 0.263875
O O9 0.756863 0.497030 0.459471
O O10 0.000000 0.000000 0.500000
O O11 0.189359 0.939064 0.356555
O O12 0.489609 0.796706 0.664798
O O13 0.500000 0.000000 0.000000
#
# Coordination Sequence:
#
# PCOD9066486 Si02
#       6
#     2   2   2   2   2   2
#     4  12  23  47  68  98 137 176 221 282 330 391
#     4  11  26  46  66 103 132 178 231 266 334 402
#     4  11  25  46  69  96 139 176 222 281 328 395
#     4  12  24  45  70  99 137 178 217 279 340 389
#     4  12  25  43  68 103 135 171 227 274 333 399
#     4  12  25  42  71  99 135 177 222 276 332 397
#
# _framework density 22.312024999999998
#
# number of rings (size 3 to 8) (size 9 to 14) (size 15 to 20)
#    0.000    0.333    6.667    2.000    2.333    2.000 
#    0.000    0.000    0.000    0.000    0.000    0.000 
#    0.000    0.000    0.000    0.000    0.000    0.000 
#
# Total GULP energy -67221.408504 kJ/mol
# GULP energy per Si atom -5601.784042 kJ/mol
# Density = 2.226124 g / cm^3
# Si number density = 22.312025 Si / 1000 Ang^3
#
#
#
# Elastic Constant Matrix: (Units=GPa)
#
#
# Indices 1 2 3 4 5 6 
#
# 1 80.2155 24.3888 1.0194 2.8558 -4.4597 12.3767
# 2 24.3888 53.9019 -13.6658 5.1949 -24.5858 17.5360
# 3 1.0194 -13.6658 62.7410 20.9388 -11.7844 6.7787
# 4 2.8558 5.1949 20.9388 36.5562 -7.2055 -5.8133
# 5 -4.4597 -24.5858 -11.7844 -7.2055 30.6970 -3.1160
# 6 12.3767 17.5360 6.7787 -5.8133 -3.1160 53.1860
#
#
#
# Elastic Compliance Matrix: (Units=1/GPa)
#
#
# Indices 1 2 3 4 5 6 
#
# 1 0.016163 -0.015231 -0.006910 0.002843 -0.011656 0.001769
# 2 -0.015231 0.076067 0.039743 -0.023417 0.065903 -0.025299
# 3 -0.006910 0.039743 0.042044 -0.024123 0.039561 -0.017173
# 4 0.002843 -0.023417 -0.024123 0.043337 -0.016016 0.013932
# 5 -0.011656 0.065903 0.039561 -0.016016 0.093027 -0.020359
# 6 0.001769 -0.025299 -0.017173 0.013932 -0.020359 0.029250
#
#
# Mechanical properties :
#
#
# Convention : Reuss Voigt Hill
#
# Bulk Modulus (GPa) = 5.90051 24.48258 15.19154
# Shear Modulus (GPa) = 15.56773 36.42890 25.99831
#
# Velocity S-wave (km/s) = 2.64432 4.04506 3.41723
# Velocity P-wave (km/s) = 3.46028 5.72829 4.73217
#
# Compressibility (1/GPa) = 0.16947697
#
# Stress axis : x y z
#
# Youngs Moduli (GPa) = 61.87010 13.14630 23.78461
#
# Poissons Ratio (x) = 0.20024 0.16434
# Poissons Ratio (y) = 0.94236 -0.94526
# Poissons Ratio (z) = 0.42750 -0.52247
#
# Static dielectric constant tensor:
#      x y z
#    x 1.845260 -0.033950 0.019780 
#    y -0.033950 1.822920 0.005630 
#    z 0.019780 0.005630 1.778880 
# 
# From -- ./inp_files/184712.got.cif
#   From: 2010.05.17/outbox.cif.g08.bks.cpg/sg2_93_cif.got.tgz:184712.got - 2010.06.03 11:33:40.
