data_PCOD9066817
_publ_section_title
;
Structure prediction by ZEFSAII (Michael W. Deem and Ramdas Pophale) SiO2 
 PCOD9066817
Probable space group: P -1
;
_chemical_formula_sum "Si O2"
_cell_formula_units_Z 12
_cell_length_a 5.084764
_cell_length_b 5.084761
_cell_length_c 18.255584
_cell_angle_alpha 62.684149
_cell_angle_beta 97.518803
_cell_angle_gamma 93.363649
_cell_volume 415.756476
_symmetry_space_group_name_H-M "P -1"
_symmetry_group_IT_number 2
_symmetry_cell_setting 'triclinic'
loop_
_space_group_symop_operation_xyz
x,y,z
-x,-y,-z
loop_
_atom_site_type_symbol
_atom_site_label
_atom_site_fract_x
_atom_site_fract_y
_atom_site_fract_z
Si Si1 0.603181 0.286145 0.176493
Si Si2 0.360868 0.749803 0.323507
Si Si3 0.731903 0.158563 0.037476
Si Si4 0.900972 0.839253 0.633011
Si Si5 0.233515 0.656951 0.537476
Si Si6 0.894727 0.365050 0.866990
O O1 0.584453 0.279727 0.088292
O O2 0.900496 0.393049 0.185513
O O3 0.405796 0.536387 0.168513
O O4 0.518934 0.981065 0.250000
O O5 0.235925 0.470528 0.314487
O O6 0.543688 0.592128 0.411708
O O7 0.126586 0.931228 0.331487
O O8 0.959304 0.940907 0.108253
O O9 0.891546 0.342040 0.958683
O O10 0.500000 0.000000 0.000000
O O11 0.157415 0.742798 0.608253
O O12 0.740596 0.025820 0.541317
O O13 0.000000 0.500000 0.500000
#
# Coordination Sequence:
#
# PCOD9066817 Si02
#       6
#     2   2   2   2   2   2
#     4  12  29  45  72 107 155 193 245 316 387 444
#     4  12  29  45  72 107 155 193 245 316 387 444
#     4  11  25  46  79 108 142 198 258 307 370 453
#     4  11  26  46  72 106 142 195 250 304 372 454
#     4  11  25  46  79 108 142 198 258 307 370 453
#     4  11  26  46  72 106 142 195 250 304 372 454
#
# _framework density 28.863049
#
# number of rings (size 3 to 8) (size 9 to 14) (size 15 to 20)
#    0.000    0.667    3.333    2.000   14.000    1.333 
#    0.000    0.000    0.000    0.000    0.000    0.000 
#    0.000    0.000    0.000    0.000    0.000    0.000 
#
# Total GULP energy -67204.125209 kJ/mol
# GULP energy per Si atom -5600.343767 kJ/mol
# Density = 2.879736 g / cm^3
# Si number density = 28.863049 Si / 1000 Ang^3
#
#
#
# Elastic Constant Matrix: (Units=GPa)
#
#
# Indices 1 2 3 4 5 6 
#
# 1 130.1508 49.2475 34.1934 -2.0417 -2.2897 -25.3436
# 2 49.2475 149.4734 38.2595 -2.0559 -2.7249 -29.3360
# 3 34.1934 38.2595 162.1683 -32.3386 -38.5523 -11.0775
# 4 -2.0417 -2.0559 -32.3386 61.1919 3.5046 0.5115
# 5 -2.2897 -2.7249 -38.5523 3.5046 62.2867 0.6080
# 6 -25.3436 -29.3360 -11.0775 0.5115 0.6080 56.2330
#
#
#
# Elastic Compliance Matrix: (Units=1/GPa)
#
#
# Indices 1 2 3 4 5 6 
#
# 1 0.009448 -0.002178 -0.001569 -0.000570 -0.000715 0.002826
# 2 -0.002178 0.008405 -0.001603 -0.000623 -0.000699 0.003101
# 3 -0.001569 -0.001603 0.008983 0.004343 0.005187 0.000131
# 4 -0.000570 -0.000623 0.004343 0.018505 0.001598 0.000088
# 5 -0.000715 -0.000699 0.005187 0.001598 0.019117 0.000114
# 6 0.002826 0.003101 0.000131 0.000088 0.000114 0.020698
#
#
# Mechanical properties :
#
#
# Convention : Reuss Voigt Hill
#
# Bulk Modulus (GPa) = 61.96231 76.13260 69.04745
# Shear Modulus (GPa) = 49.38996 57.28181 53.33589
#
# Velocity S-wave (km/s) = 4.14113 4.45973 4.30338
# Velocity P-wave (km/s) = 6.66180 7.27690 6.97614
#
# Compressibility (1/GPa) = 0.01613884
#
# Stress axis : x y z
#
# Youngs Moduli (GPa) = 105.83844 118.97573 111.31636
#
# Poissons Ratio (x) = 0.25908 0.17464
# Poissons Ratio (y) = 0.23048 0.17838
# Poissons Ratio (z) = 0.16605 0.19066
#
# Static dielectric constant tensor:
#      x y z
#    x 2.232190 0.072510 0.023150 
#    y 0.072510 2.206500 0.019090 
#    z 0.023150 0.019090 2.314150 
# 
# From -- ./inp_files/580570.got.cif
#   From: 2010.05.17/outbox.cif.g08.bks.cpg/sg2_291_cif.got.tgz:580570.got - 2010.06.03 11:33:40.
