data_PCOD9066456
_publ_section_title
;
Structure prediction by ZEFSAII (Michael W. Deem and Ramdas Pophale) SiO2 
 PCOD9066456
Probable space group: P -1
;
_chemical_formula_sum "Si O2"
_cell_formula_units_Z 13
_cell_length_a 11.383905
_cell_length_b 13.222462
_cell_length_c 10.154058
_cell_angle_alpha 33.330804
_cell_angle_beta 117.234800
_cell_angle_gamma 139.131471
_cell_volume 480.720397
_symmetry_space_group_name_H-M "P -1"
_symmetry_group_IT_number 2
_symmetry_cell_setting 'triclinic'
loop_
_space_group_symop_operation_xyz
x,y,z
-x,-y,-z
loop_
_atom_site_type_symbol
_atom_site_label
_atom_site_fract_x
_atom_site_fract_y
_atom_site_fract_z
Si Si1 0.192874 0.489778 0.373264
Si Si2 0.820288 0.207490 0.808421
Si Si3 0.100843 0.267799 0.035290
Si Si4 0.510080 0.405623 0.746490
Si Si5 0.000000 0.000000 0.000000
Si Si6 0.651572 0.754092 0.695153
Si Si7 0.840945 0.318088 0.237451
O O1 0.303496 0.755306 0.235621
O O2 0.324459 0.576836 0.219688
O O3 0.977839 0.356978 0.373224
O O4 0.130106 0.245767 0.688480
O O5 0.000000 0.500000 0.500000
O O6 0.889724 0.155130 0.025610
O O7 0.702339 0.928847 0.963906
O O8 0.131574 0.116470 0.299926
O O9 0.136442 0.252549 0.917557
O O10 0.223216 0.556871 0.865623
O O11 0.500000 0.500000 0.500000
O O12 0.583530 0.616216 0.668141
O O13 0.667333 0.988611 0.465137
O O14 0.500000 0.500000 0.000000
O O15 0.000000 0.500000 0.000000
#
# Coordination Sequence:
#
# PCOD9066456 Si02
#       7
#     2   2   2   2   1   2   2
#     4  11  25  45  81 110 159 200 269 317 396 467
#     4  11  25  48  79 111 153 209 259 319 395 474
#     4  11  26  48  79 108 157 203 262 309 396 472
#     4  12  30  48  77 117 158 201 268 333 388 469
#     4  12  22  42  84 114 152 212 256 312 396 470
#     4  12  31  51  77 114 162 207 262 328 401 468
#     4  11  27  49  78 111 153 210 258 323 398 467
#
# _framework density 27.042748
#
# number of rings (size 3 to 8) (size 9 to 14) (size 15 to 20)
#    0.000    0.615    3.077    2.308   15.077    1.846 
#    5.538    0.000    0.000    0.000    0.000    0.000 
#    0.000    0.000    0.000    0.000    0.000    0.000 
#
# Total GULP energy -72478.249339 kJ/mol
# GULP energy per Si atom -5575.249949 kJ/mol
# Density = 2.698120 g / cm^3
# Si number density = 27.042748 Si / 1000 Ang^3
#
#
#
# Elastic Constant Matrix: (Units=GPa)
#
#
# Indices 1 2 3 4 5 6 
#
# 1 64.5494 26.5000 37.2520 -3.1987 9.3710 -24.1129
# 2 26.5000 168.1127 53.1632 -23.7121 0.7174 -48.7383
# 3 37.2520 53.1632 147.4685 -26.7588 -0.3382 -25.9552
# 4 -3.1987 -23.7121 -26.7588 51.3698 -21.3888 15.9169
# 5 9.3710 0.7174 -0.3382 -21.3888 53.7345 -6.4622
# 6 -24.1129 -48.7383 -25.9552 15.9169 -6.4622 47.2274
#
#
#
# Elastic Compliance Matrix: (Units=1/GPa)
#
#
# Indices 1 2 3 4 5 6 
#
# 1 0.022795 0.000163 -0.005207 -0.006720 -0.005426 0.010468
# 2 0.000163 0.008994 -0.001587 0.001358 0.001371 0.008223
# 3 -0.005207 -0.001587 0.009570 0.005332 0.003062 -0.000414
# 4 -0.006720 0.001358 0.005332 0.029838 0.012163 -0.007491
# 5 -0.005426 0.001371 0.003062 0.012163 0.024346 -0.000441
# 6 0.010468 0.008223 -0.000414 -0.007491 -0.000441 0.037242
#
#
# Mechanical properties :
#
#
# Convention : Reuss Voigt Hill
#
# Bulk Modulus (GPa) = 35.58852 68.21787 51.90319
# Shear Modulus (GPa) = 32.17289 48.01405 40.09347
#
# Velocity S-wave (km/s) = 3.45295 4.21822 3.85463
# Velocity P-wave (km/s) = 5.39313 7.00038 6.24864
#
# Compressibility (1/GPa) = 0.02809895
#
# Stress axis : x y z
#
# Youngs Moduli (GPa) = 43.86979 111.18326 104.49425
#
# Poissons Ratio (x) = -0.01817 0.54405
# Poissons Ratio (y) = -0.00717 0.16581
# Poissons Ratio (z) = 0.22841 0.17643
#
# Static dielectric constant tensor:
#      x y z
#    x 2.216970 0.173480 -0.028300 
#    y 0.173480 2.204420 -0.120000 
#    z -0.028300 -0.120000 2.114640 
# 
# From -- ./inp_files/424820.got.cif
#   From: 2010.05.17/outbox.cif.g08.bks.cpg/sg2_213_cif.got.tgz:424820.got - 2010.06.03 11:33:40.
