data_PCOD9066936
_publ_section_title
;
Structure prediction by ZEFSAII (Michael W. Deem and Ramdas Pophale) SiO2 
 PCOD9066936
Probable space group: P -1
;
_chemical_formula_sum "Si O2"
_cell_formula_units_Z 14
_cell_length_a 13.834146
_cell_length_b 9.663967
_cell_length_c 15.241259
_cell_angle_alpha 132.109557
_cell_angle_beta 151.947016
_cell_angle_gamma 66.731073
_cell_volume 587.126212
_symmetry_space_group_name_H-M "P -1"
_symmetry_group_IT_number 2
_symmetry_cell_setting 'triclinic'
loop_
_space_group_symop_operation_xyz
x,y,z
-x,-y,-z
loop_
_atom_site_type_symbol
_atom_site_label
_atom_site_fract_x
_atom_site_fract_y
_atom_site_fract_z
Si Si1 0.271879 0.055002 0.758860
Si Si2 0.182455 0.365888 0.346524
Si Si3 0.117200 0.001659 0.801270
Si Si4 0.083625 0.749211 0.197985
Si Si5 0.782676 0.522862 0.374538
Si Si6 0.565715 0.168200 0.341255
Si Si7 0.258942 0.980111 0.262429
O O1 0.261204 0.003323 0.831692
O O2 0.305324 0.899096 0.655374
O O3 0.508429 0.310285 0.040720
O O4 0.000000 0.000000 0.500000
O O5 0.203302 0.455885 0.499606
O O6 0.327082 0.572587 0.482984
O O7 0.293629 0.214070 0.368270
O O8 0.898489 0.201137 0.016162
O O9 0.090399 0.211612 0.863316
O O10 0.278508 0.024516 0.024274
O O11 0.853118 0.763131 0.495300
O O12 0.344808 0.856591 0.503428
O O13 0.089248 0.875683 0.169108
O O14 0.000000 0.500000 0.000000
O O15 0.000000 0.500000 0.500000
O O16 0.500000 0.000000 0.500000
#
# Coordination Sequence:
#
# PCOD9066936 Si02
#       7
#     2   2   2   2   2   2   2
#     4  12  26  48  76 113 153 199 251 315 385 453
#     4  11  25  47  73 106 147 199 245 309 380 445
#     4  12  26  48  76 109 154 192 254 310 382 454
#     4  12  27  47  70 110 143 194 255 309 373 447
#     4  12  25  46  78 111 151 199 250 308 380 460
#     4  12  25  46  78 106 145 199 248 309 377 453
#     4  11  27  46  71 106 149 193 252 312 377 443
#
# _framework density 23.844958999999999
#
# number of rings (size 3 to 8) (size 9 to 14) (size 15 to 20)
#    0.000    0.286    7.143    1.286    4.000    2.286 
#    0.000    0.000    0.000    0.000    0.000    0.000 
#    0.000    0.000    0.000    0.000    0.000    0.000 
#
# Total GULP energy -78367.937231 kJ/mol
# GULP energy per Si atom -5597.709802 kJ/mol
# Density = 2.379069 g / cm^3
# Si number density = 23.844959 Si / 1000 Ang^3
#
#
#
# Elastic Constant Matrix: (Units=GPa)
#
#
# Indices 1 2 3 4 5 6 
#
# 1 55.6799 12.8785 21.3002 -1.0006 -4.4296 3.3500
# 2 12.8785 106.2902 51.7925 6.9955 -1.8957 -6.0680
# 3 21.3002 51.7925 145.2461 -8.8922 2.3745 -5.1944
# 4 -1.0006 6.9955 -8.8922 51.0135 2.5393 3.4207
# 5 -4.4296 -1.8957 2.3745 2.5393 40.1139 -4.0444
# 6 3.3500 -6.0680 -5.1944 3.4207 -4.0444 34.8800
#
#
#
# Elastic Compliance Matrix: (Units=1/GPa)
#
#
# Indices 1 2 3 4 5 6 
#
# 1 0.019509 -0.001238 -0.002523 0.000163 0.002008 -0.002248
# 2 -0.001238 0.011883 -0.004160 -0.002560 0.001028 0.001937
# 3 -0.002523 -0.004160 0.008902 0.002092 -0.001083 0.000514
# 4 0.000163 -0.002560 0.002092 0.020569 -0.001768 -0.002372
# 5 0.002008 0.001028 -0.001083 -0.001768 0.025675 0.002975
# 6 -0.002248 0.001937 0.000514 -0.002372 0.002975 0.029877
#
#
# Mechanical properties :
#
#
# Convention : Reuss Voigt Hill
#
# Bulk Modulus (GPa) = 40.89462 53.23983 47.06722
# Shear Modulus (GPa) = 35.61083 39.95114 37.78098
#
# Velocity S-wave (km/s) = 3.86869 4.09767 3.98482
# Velocity P-wave (km/s) = 6.09451 6.69058 6.39949
#
# Compressibility (1/GPa) = 0.02445309
#
# Stress axis : x y z
#
# Youngs Moduli (GPa) = 51.25803 84.15673 112.32985
#
# Poissons Ratio (x) = 0.10416 0.28339
# Poissons Ratio (y) = 0.06344 0.46728
# Poissons Ratio (z) = 0.12932 0.35008
#
# Static dielectric constant tensor:
#      x y z
#    x 2.007160 0.032580 0.017960 
#    y 0.032580 1.922880 0.002660 
#    z 0.017960 0.002660 1.927090 
# 
# From -- ./inp_files/279004.got.cif
#   From: 2010.05.17/outbox.cif.g08.bks.cpg/sg2_140_cif.got.tgz:279004.got - 2010.06.03 11:33:40.
