data_PCOD9066373
_publ_section_title
;
Structure prediction by ZEFSAII (Michael W. Deem and Ramdas Pophale) SiO2 
 PCOD9066373
Probable space group: P -1
;
_chemical_formula_sum "Si O2"
_cell_formula_units_Z 16
_cell_length_a 7.635016
_cell_length_b 20.883122
_cell_length_c 14.748634
_cell_angle_alpha 158.851333
_cell_angle_beta 126.979274
_cell_angle_gamma 53.353745
_cell_volume 672.495801
_symmetry_space_group_name_H-M "P -1"
_symmetry_group_IT_number 2
_symmetry_cell_setting 'triclinic'
loop_
_space_group_symop_operation_xyz
x,y,z
-x,-y,-z
loop_
_atom_site_type_symbol
_atom_site_label
_atom_site_fract_x
_atom_site_fract_y
_atom_site_fract_z
Si Si1 0.309360 0.046598 0.101695
Si Si2 0.170692 0.974137 0.319459
Si Si3 0.250544 0.410771 0.444200
Si Si4 0.731039 0.467199 0.081787
Si Si5 0.121829 0.228959 0.809285
Si Si6 0.514163 0.361565 0.055512
Si Si7 0.959852 0.814079 0.620340
Si Si8 0.732377 0.821119 0.010682
O O1 0.291538 0.223643 0.266998
O O2 0.178611 0.099880 0.223791
O O3 0.553555 0.973493 0.115110
O O4 0.197037 0.885478 0.805298
O O5 0.132880 0.071578 0.532368
O O6 0.134104 0.108234 0.401740
O O7 0.974857 0.851017 0.091015
O O8 0.397591 0.847284 0.207528
O O9 0.404120 0.551548 0.714337
O O10 0.000000 0.500000 0.500000
O O11 0.301099 0.362514 0.291789
O O12 0.640197 0.448672 0.129837
O O13 0.905993 0.611118 0.331988
O O14 0.500000 0.500000 0.000000
O O15 0.876321 0.299291 0.858373
O O16 0.258637 0.181386 0.881531
O O17 0.250347 0.377166 0.994412
#
# Coordination Sequence:
#
# PCOD9066373 Si02
#       8
#     2   2   2   2   2   2   2   2
#     4  11  25  45  75 111 150 198 250 315 379 464
#     4  12  25  49  77 107 154 203 260 307 379 462
#     4  12  23  46  76 108 154 196 250 316 382 447
#     4  12  28  49  74 112 153 202 254 318 378 448
#     4  12  29  49  77 110 154 205 258 310 382 456
#     4  12  26  49  75 109 150 198 253 316 378 451
#     4  11  25  47  75 108 153 196 254 307 387 446
#     4  12  26  45  76 112 148 201 256 310 381 452
#
# _framework density 23.791969000000002
#
# number of rings (size 3 to 8) (size 9 to 14) (size 15 to 20)
#    0.000    0.250    5.000    2.625    3.500    3.500 
#    0.000    0.000    0.000    0.000    0.000    0.000 
#    0.000    0.000    0.000    0.000    0.000    0.000 
#
# Total GULP energy -89486.146870 kJ/mol
# GULP energy per Si atom -5592.884179 kJ/mol
# Density = 2.373782 g / cm^3
# Si number density = 23.791969 Si / 1000 Ang^3
#
#
#
# Elastic Constant Matrix: (Units=GPa)
#
#
# Indices 1 2 3 4 5 6 
#
# 1 82.6476 17.1021 30.9025 -2.0282 -9.2598 6.1333
# 2 17.1021 101.5727 43.3205 -10.1444 -19.7010 4.5793
# 3 30.9025 43.3205 121.0883 -29.4396 -16.4905 4.0395
# 4 -2.0282 -10.1444 -29.4396 28.3374 14.8519 -2.7847
# 5 -9.2598 -19.7010 -16.4905 14.8519 42.2628 -9.6702
# 6 6.1333 4.5793 4.0395 -2.7847 -9.6702 48.3635
#
#
#
# Elastic Compliance Matrix: (Units=1/GPa)
#
#
# Indices 1 2 3 4 5 6 
#
# 1 0.014054 -0.000484 -0.004250 -0.005129 0.002740 -0.001129
# 2 -0.000484 0.012458 -0.004301 -0.002640 0.004970 0.000083
# 3 -0.004250 -0.004301 0.013930 0.013871 -0.002350 0.000112
# 4 -0.005129 -0.002640 0.013871 0.057357 -0.017188 -0.000392
# 5 0.002740 0.004970 -0.002350 -0.017188 0.032835 0.004954
# 6 -0.001129 0.000083 0.000112 -0.000392 0.004954 0.021771
#
#
# Mechanical properties :
#
#
# Convention : Reuss Voigt Hill
#
# Bulk Modulus (GPa) = 44.69834 54.21762 49.45798
# Shear Modulus (GPa) = 28.10070 38.05832 33.07951
#
# Velocity S-wave (km/s) = 3.44044 4.00387 3.73280
# Velocity P-wave (km/s) = 5.88304 6.64924 6.27784
#
# Compressibility (1/GPa) = 0.02237219
#
# Stress axis : x y z
#
# Youngs Moduli (GPa) = 71.15644 80.27258 71.78533
#
# Poissons Ratio (x) = 0.03883 0.30507
# Poissons Ratio (y) = 0.03442 0.30876
# Poissons Ratio (z) = 0.30240 0.34527
#
# Static dielectric constant tensor:
#      x y z
#    x 1.889290 0.028990 0.036730 
#    y 0.028990 1.929690 0.003630 
#    z 0.036730 0.003630 2.005680 
# 
# From -- ./inp_files/508225.got.cif
#   From: 2010.05.17/outbox.cif.g08.bks.cpg/sg2_255_cif.got.tgz:508225.got - 2010.06.03 11:33:40.
