data_PCOD9066275
_publ_section_title
;
Structure prediction by ZEFSAII (Michael W. Deem and Ramdas Pophale) SiO2 
 PCOD9066275
Probable space group: P -1
;
_chemical_formula_sum "Si O2"
_cell_formula_units_Z 16
_cell_length_a 14.761300
_cell_length_b 13.591787
_cell_length_c 5.332243
_cell_angle_alpha 65.842203
_cell_angle_beta 110.159310
_cell_angle_gamma 136.730195
_cell_volume 667.208722
_symmetry_space_group_name_H-M "P -1"
_symmetry_group_IT_number 2
_symmetry_cell_setting 'triclinic'
loop_
_space_group_symop_operation_xyz
x,y,z
-x,-y,-z
loop_
_atom_site_type_symbol
_atom_site_label
_atom_site_fract_x
_atom_site_fract_y
_atom_site_fract_z
Si Si1 0.483349 0.057974 0.173454
Si Si2 0.789721 0.023047 0.978316
Si Si3 0.159625 0.150888 0.519100
Si Si4 0.818931 0.609577 0.432526
Si Si5 0.679206 0.400631 0.905952
Si Si6 0.886460 0.192624 0.401555
Si Si7 0.911291 0.438765 0.231095
Si Si8 0.637351 0.587538 0.890133
O O1 0.500000 0.000000 0.500000
O O2 0.584113 0.234019 0.068819
O O3 0.500000 0.000000 0.000000
O O4 0.342679 0.009992 0.087451
O O5 0.879242 0.146488 0.157120
O O6 0.788581 0.897065 0.182967
O O7 0.830512 0.066174 0.682479
O O8 0.161041 0.276332 0.471198
O O9 0.280548 0.250573 0.324406
O O10 0.000000 0.000000 0.500000
O O11 0.723226 0.442380 0.614955
O O12 0.965560 0.678600 0.489767
O O13 0.748614 0.617871 0.137014
O O14 0.610620 0.464523 0.811912
O O15 0.818987 0.474059 0.094685
O O16 0.822982 0.261884 0.307818
O O17 0.000000 0.500000 0.500000
O O18 0.000000 0.500000 0.000000
O O19 0.500000 0.500000 0.000000
#
# Coordination Sequence:
#
# PCOD9066275 Si02
#       8
#     2   2   2   2   2   2   2   2
#     4  12  29  52  76 108 151 199 255 310 378 464
#     4  12  27  45  77 105 149 196 249 307 380 447
#     4  11  25  46  72 110 148 199 256 321 384 453
#     4  11  25  45  73 105 151 192 253 309 385 450
#     4  11  27  47  72 108 151 199 246 324 379 454
#     4  12  25  46  73 111 147 188 248 312 377 453
#     4  12  24  42  73 107 144 189 247 306 385 454
#     4  11  28  46  75 109 154 206 263 314 387 467
#
# _framework density 23.980499999999999
#
# number of rings (size 3 to 8) (size 9 to 14) (size 15 to 20)
#    0.000    0.500    2.500    4.500    8.750    2.000 
#    0.000    0.000    0.000    0.000    0.000    0.000 
#    0.000    0.000    0.000    0.000    0.000    0.000 
#
# Total GULP energy -89277.459340 kJ/mol
# GULP energy per Si atom -5579.841209 kJ/mol
# Density = 2.392592 g / cm^3
# Si number density = 23.980500 Si / 1000 Ang^3
#
#
#
# Elastic Constant Matrix: (Units=GPa)
#
#
# Indices 1 2 3 4 5 6 
#
# 1 112.3555 13.2996 12.6379 -13.7504 8.4800 7.0208
# 2 13.2996 71.9757 27.9715 -25.0817 -6.8410 2.0870
# 3 12.6379 27.9715 127.9748 -31.8053 13.4660 3.0173
# 4 -13.7504 -25.0817 -31.8053 51.3273 -2.4851 1.4075
# 5 8.4800 -6.8410 13.4660 -2.4851 39.5336 -2.9591
# 6 7.0208 2.0870 3.0173 1.4075 -2.9591 33.2337
#
#
#
# Elastic Compliance Matrix: (Units=1/GPa)
#
#
# Indices 1 2 3 4 5 6 
#
# 1 0.009600 -0.001299 0.000126 0.001962 -0.002372 -0.002252
# 2 -0.001299 0.018068 -0.002521 0.007159 0.004675 -0.000518
# 3 0.000126 -0.002521 0.009970 0.004839 -0.003653 -0.001304
# 4 0.001962 0.007159 0.004839 0.026603 0.000665 -0.002371
# 5 -0.002372 0.004675 -0.003653 0.000665 0.028125 0.003015
# 6 -0.002252 -0.000518 -0.001304 -0.002371 0.003015 0.031086
#
#
# Mechanical properties :
#
#
# Convention : Reuss Voigt Hill
#
# Bulk Modulus (GPa) = 33.05869 46.68043 39.86956
# Shear Modulus (GPa) = 35.48063 42.04538 38.76300
#
# Velocity S-wave (km/s) = 3.85068 4.19180 4.02486
# Velocity P-wave (km/s) = 5.79533 6.55260 6.18557
#
# Compressibility (1/GPa) = 0.03024923
#
# Stress axis : x y z
#
# Youngs Moduli (GPa) = 104.16863 55.34758 100.29748
#
# Poissons Ratio (x) = 0.07192 -0.01267
# Poissons Ratio (y) = 0.13536 0.25287
# Poissons Ratio (z) = -0.01316 0.13954
#
# Static dielectric constant tensor:
#      x y z
#    x 2.040070 -0.092370 -0.065240 
#    y -0.092370 2.094490 0.013530 
#    z -0.065240 0.013530 1.960630 
# 
# From -- ./inp_files/97593.got.cif
#   From: 2010.05.17/outbox.cif.g08.bks.cpg/sg2_49_cif.got.tgz:97593.got - 2010.06.03 11:33:40.
