data_PCOD9066121
_publ_section_title
;
Structure prediction by ZEFSAII (Michael W. Deem and Ramdas Pophale) SiO2 
 PCOD9066121
Probable space group: P -1
;
_chemical_formula_sum "Si O2"
_cell_formula_units_Z 14
_cell_length_a 7.953488
_cell_length_b 17.789173
_cell_length_c 17.659513
_cell_angle_alpha 21.787223
_cell_angle_beta 41.822082
_cell_angle_gamma 43.922290
_cell_volume 614.335949
_symmetry_space_group_name_H-M "P -1"
_symmetry_group_IT_number 2
_symmetry_cell_setting 'triclinic'
loop_
_space_group_symop_operation_xyz
x,y,z
-x,-y,-z
loop_
_atom_site_type_symbol
_atom_site_label
_atom_site_fract_x
_atom_site_fract_y
_atom_site_fract_z
Si Si1 0.027852 0.417699 0.372326
Si Si2 0.048833 0.359911 0.040678
Si Si3 0.012597 0.834514 0.058530
Si Si4 0.143666 0.731376 0.279561
Si Si5 0.375963 0.598244 0.593194
Si Si6 0.542920 0.182737 0.370715
Si Si7 0.549384 0.014221 0.695071
O O1 0.979226 0.660410 0.172419
O O2 0.288098 0.339150 0.317117
O O3 0.039155 0.328309 0.536872
O O4 0.789800 0.340416 0.482571
O O5 0.782670 0.295498 0.161563
O O6 0.229799 0.157742 0.192132
O O7 0.191191 0.485475 0.814814
O O8 0.000000 0.500000 0.000000
O O9 0.023847 0.742802 0.225340
O O10 0.287263 0.912967 0.881028
O O11 0.810954 0.034745 0.937604
O O12 0.388369 0.567326 0.350438
O O13 0.452526 0.794053 0.427737
O O14 0.595886 0.089418 0.524202
O O15 0.500000 0.000000 0.500000
#
# Coordination Sequence:
#
# PCOD9066121 Si02
#       7
#     2   2   2   2   2   2   2
#     4  12  27  47  70 106 142 182 234 289 347 410
#     4  12  26  47  71 100 142 186 234 279 347 416
#     4  11  25  44  78 103 138 186 231 288 347 415
#     4  11  25  48  72 106 142 181 233 286 352 416
#     4  12  28  45  73 105 142 188 226 288 351 414
#     4  12  27  46  74 103 141 184 234 292 341 411
#     4  12  25  49  71 105 140 183 236 284 350 411
#
# _framework density 22.788834999999999
#
# number of rings (size 3 to 8) (size 9 to 14) (size 15 to 20)
#    0.000    0.286    4.286    3.857    8.000    2.286 
#    0.000    0.000    0.000    0.000    0.000    0.000 
#    0.000    0.000    0.000    0.000    0.000    0.000 
#
# Total GULP energy -78477.130718 kJ/mol
# GULP energy per Si atom -5605.509337 kJ/mol
# Density = 2.273697 g / cm^3
# Si number density = 22.788835 Si / 1000 Ang^3
#
#
#
# Elastic Constant Matrix: (Units=GPa)
#
#
# Indices 1 2 3 4 5 6 
#
# 1 59.3912 25.3245 31.5668 -17.4208 -22.2925 9.0792
# 2 25.3245 123.0331 30.7711 -17.7606 -8.7874 -2.3931
# 3 31.5668 30.7711 67.8145 -4.6731 -12.4905 -0.1441
# 4 -17.4208 -17.7606 -4.6731 46.4361 -7.5003 -9.6150
# 5 -22.2925 -8.7874 -12.4905 -7.5003 39.6615 -11.7506
# 6 9.0792 -2.3931 -0.1441 -9.6150 -11.7506 34.8279
#
#
#
# Elastic Compliance Matrix: (Units=1/GPa)
#
#
# Indices 1 2 3 4 5 6 
#
# 1 0.034228 -0.000772 -0.011107 0.014745 0.018767 0.001381
# 2 -0.000772 0.009962 -0.003449 0.004119 0.002290 0.002781
# 3 -0.011107 -0.003449 0.021206 -0.003045 -0.000378 0.001778
# 4 0.014745 0.004119 -0.003045 0.033718 0.018129 0.011852
# 5 0.018767 0.002290 -0.000378 0.018129 0.044062 0.015135
# 6 0.001381 0.002781 0.001778 0.011852 0.015135 0.036929
#
#
# Mechanical properties :
#
#
# Convention : Reuss Voigt Hill
#
# Bulk Modulus (GPa) = 28.78550 47.28485 38.03517
# Shear Modulus (GPa) = 22.48793 35.02355 28.75574
#
# Velocity S-wave (km/s) = 3.14474 3.92455 3.55608
# Velocity P-wave (km/s) = 5.08377 6.42886 5.79547
#
# Compressibility (1/GPa) = 0.03473971
#
# Stress axis : x y z
#
# Youngs Moduli (GPa) = 29.21560 100.38405 47.15697
#
# Poissons Ratio (x) = 0.07746 0.52377
# Poissons Ratio (y) = 0.02254 0.16266
# Poissons Ratio (z) = 0.32450 0.34627
#
# Static dielectric constant tensor:
#      x y z
#    x 1.831030 -0.003950 0.011500 
#    y -0.003950 1.830910 0.007640 
#    z 0.011500 0.007640 1.857870 
# 
# From -- ./inp_files/360638.got.cif
#   From: 2010.05.17/outbox.cif.g08.bks.cpg/sg2_181_cif.got.tgz:360638.got - 2010.06.03 11:33:40.
