data_PCOD9066109
_publ_section_title
;
Structure prediction by ZEFSAII (Michael W. Deem and Ramdas Pophale) SiO2 
 PCOD9066109
Probable space group: P -1
;
_chemical_formula_sum "Si O2"
_cell_formula_units_Z 15
_cell_length_a 8.996499
_cell_length_b 9.288123
_cell_length_c 18.956186
_cell_angle_alpha 27.805814
_cell_angle_beta 57.233890
_cell_angle_gamma 66.233311
_cell_volume 609.644238
_symmetry_space_group_name_H-M "P -1"
_symmetry_group_IT_number 2
_symmetry_cell_setting 'triclinic'
loop_
_space_group_symop_operation_xyz
x,y,z
-x,-y,-z
loop_
_atom_site_type_symbol
_atom_site_label
_atom_site_fract_x
_atom_site_fract_y
_atom_site_fract_z
Si Si1 0.000000 0.500000 0.500000
Si Si2 0.867368 0.466810 0.238493
Si Si3 0.554360 0.215534 0.201892
Si Si4 0.338457 0.070671 0.185037
Si Si5 0.065877 0.740326 0.942778
Si Si6 0.022394 0.627734 0.276678
Si Si7 0.463844 0.222543 0.846599
Si Si8 0.696585 0.761820 0.616384
O O1 0.025313 0.519435 0.571034
O O2 0.158076 0.834224 0.310428
O O3 0.892199 0.579685 0.263783
O O4 0.713258 0.632110 0.174046
O O5 0.804351 0.092640 0.419954
O O6 0.039424 0.556431 0.104063
O O7 0.391747 0.086471 0.246601
O O8 0.733316 0.071109 0.209735
O O9 0.468274 0.197435 0.308908
O O10 0.641441 0.574450 0.002577
O O11 0.507356 0.961958 0.150563
O O12 0.948868 0.006821 0.870673
O O13 0.000000 0.500000 0.000000
O O14 0.180097 0.452806 0.284254
O O15 0.617809 0.537657 0.670002
O O16 0.500000 0.000000 0.000000
#
# Coordination Sequence:
#
# PCOD9066109 Si02
#       8
#     1   2   2   2   2   2   2   2
#     4  12  26  48  76 114 150 218 266 328 402 482
#     4  12  29  48  80 120 163 214 277 337 405 492
#     4  11  26  46  78 114 162 203 273 334 406 481
#     4  11  25  44  76 109 155 210 268 329 407 479
#     4  12  28  48  79 118 163 214 277 337 408 488
#     4  12  28  50  80 113 165 214 273 332 413 490
#     4  12  24  48  77 111 156 214 265 331 408 487
#     4  12  26  49  78 115 162 213 270 330 413 485
#
# _framework density 24.604512
#
# number of rings (size 3 to 8) (size 9 to 14) (size 15 to 20)
#    0.000    0.267    2.667    5.200    7.467    1.067 
#    0.000    2.667    0.000    0.000    0.000    0.000 
#    0.000    0.000    0.000    0.000    0.000    0.000 
#
# Total GULP energy -83564.498857 kJ/mol
# GULP energy per Si atom -5570.966590 kJ/mol
# Density = 2.454851 g / cm^3
# Si number density = 24.604512 Si / 1000 Ang^3
#
#
#
# Elastic Constant Matrix: (Units=GPa)
#
#
# Indices 1 2 3 4 5 6 
#
# 1 89.1152 16.4412 44.5011 -21.1655 2.9598 10.9720
# 2 16.4412 94.5790 62.5791 -18.5672 21.9769 23.4762
# 3 44.5011 62.5791 104.2252 15.1381 -14.4824 -7.4382
# 4 -21.1655 -18.5672 15.1381 21.0171 14.0113 19.5372
# 5 2.9598 21.9769 -14.4824 14.0113 17.7142 -7.1902
# 6 10.9720 23.4762 -7.4382 19.5372 -7.1902 40.3185
#
#
#
# Elastic Compliance Matrix: (Units=1/GPa)
#
#
# Indices 1 2 3 4 5 6 
#
# 1 0.010745 -0.005341 0.000384 -0.002602 0.008429 0.003021
# 2 -0.005341 0.005406 0.001858 -0.010875 0.006357 0.005052
# 3 0.000384 0.001858 0.005293 0.009708 -0.008318 -0.006398
# 4 -0.002602 -0.010875 0.009708 0.007981 0.018937 0.008341
# 5 0.008429 0.006357 -0.008318 0.018937 0.020048 -0.013131
# 6 0.003021 0.005052 -0.006398 0.008341 -0.013131 0.013475
#
#
# Mechanical properties :
#
#
# Convention : Reuss Voigt Hill
#
# Bulk Modulus (GPa) = 65.59360 59.44024 62.51692
# Shear Modulus (GPa) = 67.35957 26.76981 47.06469
#
# Velocity S-wave (km/s) = 5.23797 3.30207 4.37836
# Velocity P-wave (km/s) = 7.95606 6.22486 7.14310
#
# Compressibility (1/GPa) = 0.01524539
#
# Stress axis : x y z
#
# Youngs Moduli (GPa) = 93.06443 184.96995 188.94093
#
# Poissons Ratio (x) = 0.98799 -0.07255
# Poissons Ratio (y) = 0.49709 -0.35105
# Poissons Ratio (z) = -0.03573 -0.34367
#
# Static dielectric constant tensor:
#      x y z
#    x 2.116060 -0.136720 -0.020590 
#    y -0.136720 1.948100 -0.023870 
#    z -0.020590 -0.023870 1.952570 
# 
# From -- ./inp_files/556729.got.cif
#   From: 2010.05.17/outbox.cif.g08.bks.cpg/sg2_279_cif.got.tgz:556729.got - 2010.06.03 11:33:40.
