data_PCOD9066055
_publ_section_title
;
Structure prediction by ZEFSAII (Michael W. Deem and Ramdas Pophale) SiO2 
 PCOD9066055
Probable space group: P -1
;
_chemical_formula_sum "Si O2"
_cell_formula_units_Z 14
_cell_length_a 13.338515
_cell_length_b 11.229589
_cell_length_c 10.304296
_cell_angle_alpha 59.896967
_cell_angle_beta 144.272564
_cell_angle_gamma 137.863604
_cell_volume 584.444852
_symmetry_space_group_name_H-M "P -1"
_symmetry_group_IT_number 2
_symmetry_cell_setting 'triclinic'
loop_
_space_group_symop_operation_xyz
x,y,z
-x,-y,-z
loop_
_atom_site_type_symbol
_atom_site_label
_atom_site_fract_x
_atom_site_fract_y
_atom_site_fract_z
Si Si1 0.960537 0.480266 0.622286
Si Si2 0.375430 0.012424 0.170982
Si Si3 0.340000 0.810133 0.017679
Si Si4 0.952730 0.941318 0.259379
Si Si5 0.594975 0.660654 0.408421
Si Si6 0.658289 0.560601 0.259057
Si Si7 0.826874 0.120904 0.687038
O O1 0.720571 0.433298 0.414926
O O2 0.982089 0.333893 0.767351
O O3 0.000000 0.500000 0.500000
O O4 0.140835 0.659873 0.795551
O O5 0.288036 0.979040 0.244114
O O6 0.632424 0.089497 0.408768
O O7 0.257410 0.839105 0.046904
O O8 0.292143 0.111285 0.968684
O O9 0.466825 0.738434 0.232669
O O10 0.500000 0.000000 0.000000
O O11 0.141951 0.148562 0.396969
O O12 0.047560 0.934451 0.225535
O O13 0.895662 0.770588 0.368271
O O14 0.500000 0.500000 0.500000
O O15 0.561870 0.573287 0.281633
O O16 0.500000 0.500000 0.000000
#
# Coordination Sequence:
#
# PCOD9066055 Si02
#       7
#     2   2   2   2   2   2   2
#     4  12  24  43  72 102 140 187 247 301 371 444
#     4  11  25  44  73 104 142 194 241 305 375 449
#     4  12  25  48  74 103 147 197 252 307 374 455
#     4  12  24  49  75 105 151 198 248 304 383 447
#     4  12  29  47  76 115 154 197 259 320 380 453
#     4  12  26  47  76 111 149 197 258 310 380 465
#     4  11  25  45  70 108 147 186 246 304 378 443
#
# _framework density 23.954357999999999
#
# number of rings (size 3 to 8) (size 9 to 14) (size 15 to 20)
#    0.000    0.286    2.857    6.000    4.000    1.714 
#    0.000    0.000    0.000    0.000    0.000    0.000 
#    0.000    0.000    0.000    0.000    0.000    0.000 
#
# Total GULP energy -78304.617375 kJ/mol
# GULP energy per Si atom -5593.186955 kJ/mol
# Density = 2.389984 g / cm^3
# Si number density = 23.954358 Si / 1000 Ang^3
#
#
#
# Elastic Constant Matrix: (Units=GPa)
#
#
# Indices 1 2 3 4 5 6 
#
# 1 139.1981 15.8593 30.2245 -2.9831 -1.9053 -32.5205
# 2 15.8593 96.9557 41.7598 7.8606 -15.5280 -13.5680
# 3 30.2245 41.7598 110.3353 -0.1300 3.6364 -20.4379
# 4 -2.9831 7.8606 -0.1300 43.1820 -12.2758 -2.0329
# 5 -1.9053 -15.5280 3.6364 -12.2758 37.3898 -9.3227
# 6 -32.5205 -13.5680 -20.4379 -2.0329 -9.3227 46.4875
#
#
#
# Elastic Compliance Matrix: (Units=1/GPa)
#
#
# Indices 1 2 3 4 5 6 
#
# 1 0.009052 0.000419 -0.001540 0.001685 0.002944 0.006442
# 2 0.000419 0.014082 -0.005010 -0.000348 0.007145 0.003618
# 3 -0.001540 -0.005010 0.011868 0.000167 -0.002725 0.002139
# 4 0.001685 -0.000348 0.000167 0.026267 0.009602 0.004225
# 5 0.002944 0.007145 -0.002725 0.009602 0.035916 0.010569
# 6 0.006442 0.003618 0.002139 0.004225 0.010569 0.030318
#
#
# Mechanical properties :
#
#
# Convention : Reuss Voigt Hill
#
# Bulk Modulus (GPa) = 43.97678 58.01959 50.99818
# Shear Modulus (GPa) = 33.93402 42.65490 38.29446
#
# Velocity S-wave (km/s) = 3.76787 4.22438 4.00264
# Velocity P-wave (km/s) = 6.10963 6.93306 6.53433
#
# Compressibility (1/GPa) = 0.02273927
#
# Stress axis : x y z
#
# Youngs Moduli (GPa) = 110.47236 71.01118 84.26264
#
# Poissons Ratio (x) = -0.02976 0.12977
# Poissons Ratio (y) = -0.04630 0.42219
# Poissons Ratio (z) = 0.17014 0.35579
#
# Static dielectric constant tensor:
#      x y z
#    x 1.893770 0.003840 -0.015410 
#    y 0.003840 1.978330 0.078120 
#    z -0.015410 0.078120 2.130020 
# 
# From -- ./inp_files/451177.got.cif
#   From: 2010.05.17/outbox.cif.g08.bks.cpg/sg2_226_cif.got.tgz:451177.got - 2010.06.03 11:33:40.
