data_PCOD9066256
_publ_section_title
;
Structure prediction by ZEFSAII (Michael W. Deem and Ramdas Pophale) SiO2 
 PCOD9066256
Probable space group: P -1
;
_chemical_formula_sum "Si O2"
_cell_formula_units_Z 14
_cell_length_a 10.681199
_cell_length_b 11.984684
_cell_length_c 8.694558
_cell_angle_alpha 131.535776
_cell_angle_beta 60.471749
_cell_angle_gamma 137.628686
_cell_volume 561.460378
_symmetry_space_group_name_H-M "P -1"
_symmetry_group_IT_number 2
_symmetry_cell_setting 'triclinic'
loop_
_space_group_symop_operation_xyz
x,y,z
-x,-y,-z
loop_
_atom_site_type_symbol
_atom_site_label
_atom_site_fract_x
_atom_site_fract_y
_atom_site_fract_z
Si Si1 0.668313 0.036561 0.580210
Si Si2 0.309676 0.533399 0.557935
Si Si3 0.624241 0.726196 0.103118
Si Si4 0.616480 0.755254 0.806537
Si Si5 0.992713 0.164247 0.989538
Si Si6 0.748974 0.231047 0.393599
Si Si7 0.982682 0.665423 0.179415
O O1 0.746724 0.200177 0.549612
O O2 0.820228 0.136818 0.710997
O O3 0.636955 0.856089 0.349819
O O4 0.465200 0.946067 0.678307
O O5 0.478820 0.716207 0.720062
O O6 0.382358 0.423907 0.353592
O O7 0.230017 0.590135 0.527052
O O8 0.157280 0.396900 0.654151
O O9 0.500000 0.500000 0.000000
O O10 0.551336 0.752838 0.015182
O O11 0.836456 0.814307 0.024489
O O12 0.824820 0.949931 0.838599
O O13 0.894575 0.217363 0.211393
O O14 0.075082 0.302512 0.917879
O O15 0.000000 0.500000 0.000000
#
# Coordination Sequence:
#
# PCOD9066256 Si02
#       7
#     2   2   2   2   2   2   2
#     4  11  27  48  72 109 152 190 243 299 368 433
#     4  11  25  45  72 109 146 189 247 296 365 434
#     4  12  26  48  75 106 148 193 246 298 365 436
#     4  11  25  45  74 103 146 194 240 299 363 436
#     4  12  26  46  77 104 146 195 241 300 366 430
#     4  11  25  47  74 109 143 195 240 305 361 429
#     4  12  27  44  71 108 147 189 240 301 357 432
#
# _framework density 24.934977
#
# number of rings (size 3 to 8) (size 9 to 14) (size 15 to 20)
#    0.000    0.571    2.857    3.857    4.000    9.714 
#    0.000    0.000    0.000    0.000    0.000    0.000 
#    0.000    0.000    0.000    0.000    0.000    0.000 
#
# Total GULP energy -78462.942055 kJ/mol
# GULP energy per Si atom -5604.495861 kJ/mol
# Density = 2.487822 g / cm^3
# Si number density = 24.934977 Si / 1000 Ang^3
#
#
#
# Elastic Constant Matrix: (Units=GPa)
#
#
# Indices 1 2 3 4 5 6 
#
# 1 82.2196 17.7836 32.4363 7.8421 3.4597 -0.2993
# 2 17.7836 111.5550 22.0180 -2.0478 5.4018 -1.3792
# 3 32.4363 22.0180 98.1219 18.0798 -6.0452 3.8471
# 4 7.8421 -2.0478 18.0798 39.2849 6.1489 2.3923
# 5 3.4597 5.4018 -6.0452 6.1489 39.2529 -0.0417
# 6 -0.2993 -1.3792 3.8471 2.3923 -0.0417 61.9672
#
#
#
# Elastic Compliance Matrix: (Units=1/GPa)
#
#
# Indices 1 2 3 4 5 6 
#
# 1 0.014334 -0.001337 -0.004434 -0.000651 -0.001660 0.000339
# 2 -0.001337 0.009758 -0.002262 0.002098 -0.001902 0.000269
# 3 -0.004434 -0.002262 0.013526 -0.005999 0.003724 -0.000677
# 4 -0.000651 0.002098 -0.005999 0.029401 -0.005762 -0.000723
# 5 -0.001660 -0.001902 0.003724 -0.005762 0.027360 -0.000041
# 6 0.000339 0.000269 -0.000677 -0.000723 -0.000041 0.016215
#
#
# Mechanical properties :
#
#
# Convention : Reuss Voigt Hill
#
# Bulk Modulus (GPa) = 46.39922 48.48581 47.44252
# Shear Modulus (GPa) = 37.35681 42.74491 40.05086
#
# Velocity S-wave (km/s) = 3.87482 4.14485 4.01211
# Velocity P-wave (km/s) = 6.21831 6.51103 6.36635
#
# Compressibility (1/GPa) = 0.02155209
#
# Stress axis : x y z
#
# Youngs Moduli (GPa) = 69.76309 102.48317 73.93112
#
# Poissons Ratio (x) = 0.13706 0.32780
# Poissons Ratio (y) = 0.09330 0.16721
# Poissons Ratio (z) = 0.30932 0.23179
#
# Static dielectric constant tensor:
#      x y z
#    x 1.913700 -0.018260 0.002980 
#    y -0.018260 2.009240 0.003370 
#    z 0.002980 0.003370 2.000730 
# 
# From -- ./inp_files/245377.got.cif
#   From: 2010.05.17/outbox.cif.g08.bks.cpg/sg2_123_cif.got.tgz:245377.got - 2010.06.03 11:33:40.
