data_PCOD9066200
_publ_section_title
;
Structure prediction by ZEFSAII (Michael W. Deem and Ramdas Pophale) SiO2 
 PCOD9066200
Probable space group: P -1
;
_chemical_formula_sum "Si O2"
_cell_formula_units_Z 16
_cell_length_a 9.352287
_cell_length_b 15.233214
_cell_length_c 12.560026
_cell_angle_alpha 49.939232
_cell_angle_beta 132.535274
_cell_angle_gamma 140.926602
_cell_volume 803.453500
_symmetry_space_group_name_H-M "P -1"
_symmetry_group_IT_number 2
_symmetry_cell_setting 'triclinic'
loop_
_space_group_symop_operation_xyz
x,y,z
-x,-y,-z
loop_
_atom_site_type_symbol
_atom_site_label
_atom_site_fract_x
_atom_site_fract_y
_atom_site_fract_z
Si Si1 0.993268 0.862336 0.578428
Si Si2 0.922032 0.604072 0.383659
Si Si3 0.254701 0.733885 0.877119
Si Si4 0.777496 0.635848 0.052018
Si Si5 0.210946 0.897385 0.427151
Si Si6 0.456423 0.589080 0.486510
Si Si7 0.124586 0.589461 0.147814
Si Si8 0.775925 0.898371 0.888646
O O1 0.151083 0.827442 0.754792
O O2 0.088617 0.868767 0.502346
O O3 0.709630 0.730295 0.541879
O O4 0.000000 0.000000 0.500000
O O5 0.869399 0.633091 0.217934
O O6 0.679307 0.512760 0.401943
O O7 0.000000 0.500000 0.500000
O O8 0.111107 0.750471 0.429443
O O9 0.512945 0.821890 0.875198
O O10 0.049192 0.582304 0.831983
O O11 0.268951 0.680602 0.043113
O O12 0.947365 0.629813 0.059584
O O13 0.500000 0.500000 0.000000
O O14 0.785175 0.774737 0.942837
O O15 0.500000 0.000000 0.500000
O O16 0.168006 0.992717 0.260586
O O17 0.500000 0.500000 0.500000
O O18 0.293755 0.618567 0.311262
O O19 0.000000 0.000000 0.000000
#
# Coordination Sequence:
#
# PCOD9066200 Si02
#       8
#     2   2   2   2   2   2   2   2
#     4  12  29  47  71 106 141 189 235 290 357 422
#     4  12  27  46  74 105 140 186 245 298 346 421
#     4  11  25  47  69 101 143 181 232 289 352 409
#     4  12  27  44  72 107 138 185 240 286 350 423
#     4  12  27  48  72 100 148 189 235 298 358 417
#     4  12  25  45  74 102 141 185 238 284 353 416
#     4  11  25  45  71 104 139 179 235 296 337 413
#     4  12  27  46  71 101 145 188 231 285 362 424
#
# _framework density 19.914034000000001
#
# number of rings (size 3 to 8) (size 9 to 14) (size 15 to 20)
#    0.000    0.250    7.500    0.000   10.500    1.000 
#    0.000    1.250    0.000    0.000    0.000    0.000 
#    0.000    0.000    0.000    0.000    0.000    0.000 
#
# Total GULP energy -89434.560237 kJ/mol
# GULP energy per Si atom -5589.660015 kJ/mol
# Density = 1.986871 g / cm^3
# Si number density = 19.914034 Si / 1000 Ang^3
#
#
#
# Elastic Constant Matrix: (Units=GPa)
#
#
# Indices 1 2 3 4 5 6 
#
# 1 74.0484 23.7640 -8.0898 -14.4682 7.7087 -6.8174
# 2 23.7640 135.0726 9.0205 -13.5775 15.8135 -11.5513
# 3 -8.0898 9.0205 73.7035 -12.6854 5.1595 -4.7629
# 4 -14.4682 -13.5775 -12.6854 35.2966 -2.0679 8.0093
# 5 7.7087 15.8135 5.1595 -2.0679 45.8637 -11.9627
# 6 -6.8174 -11.5513 -4.7629 8.0093 -11.9627 43.8081
#
#
#
# Elastic Compliance Matrix: (Units=1/GPa)
#
#
# Indices 1 2 3 4 5 6 
#
# 1 0.016121 -0.002109 0.003362 0.006766 -0.001910 0.000560
# 2 -0.002109 0.008324 -0.000744 0.001744 -0.002122 0.000887
# 3 0.003362 -0.000744 0.015268 0.006399 -0.001641 0.000369
# 4 0.006766 0.001744 0.006399 0.035035 -0.002125 -0.004777
# 5 -0.001910 -0.002122 -0.001641 -0.002125 0.024523 0.006050
# 6 0.000560 0.000887 0.000369 -0.004777 0.006050 0.025713
#
#
# Mechanical properties :
#
#
# Convention : Reuss Voigt Hill
#
# Bulk Modulus (GPa) = 24.55168 36.91268 30.73218
# Shear Modulus (GPa) = 36.35188 42.20233 39.27710
#
# Velocity S-wave (km/s) = 4.27715 4.60850 4.44591
# Velocity P-wave (km/s) = 6.06198 6.84791 6.46690
#
# Compressibility (1/GPa) = 0.04073042
#
# Stress axis : x y z
#
# Youngs Moduli (GPa) = 62.02990 120.13704 65.49587
#
# Poissons Ratio (x) = 0.25340 -0.22020
# Poissons Ratio (y) = 0.13084 0.04874
# Poissons Ratio (z) = -0.20855 0.08940
#
# Static dielectric constant tensor:
#      x y z
#    x 1.669720 -0.010490 -0.001600 
#    y -0.010490 1.691080 0.045800 
#    z -0.001600 0.045800 1.598110 
# 
# From -- ./inp_files/184299.got.cif
#   From: 2010.05.17/outbox.cif.g08.bks.cpg/sg2_93_cif.got.tgz:184299.got - 2010.06.03 11:33:40.
