data_PCOD9066704
_publ_section_title
;
Structure prediction by ZEFSAII (Michael W. Deem and Ramdas Pophale) SiO2 
 PCOD9066704
Probable space group: P -1
;
_chemical_formula_sum "Si O2"
_cell_formula_units_Z 16
_cell_length_a 17.242097
_cell_length_b 5.081484
_cell_length_c 8.826196
_cell_angle_alpha 100.194043
_cell_angle_beta 112.415909
_cell_angle_gamma 62.467398
_cell_volume 633.917965
_symmetry_space_group_name_H-M "P -1"
_symmetry_group_IT_number 2
_symmetry_cell_setting 'triclinic'
loop_
_space_group_symop_operation_xyz
x,y,z
-x,-y,-z
loop_
_atom_site_type_symbol
_atom_site_label
_atom_site_fract_x
_atom_site_fract_y
_atom_site_fract_z
Si Si1 0.043166 0.353676 0.859114
Si Si2 0.743824 0.854170 0.944859
Si Si3 0.886203 0.718304 0.539179
Si Si4 0.463226 0.759558 0.622385
Si Si5 0.875646 0.161259 0.327748
Si Si6 0.325956 0.642851 0.724141
Si Si7 0.710744 0.760087 0.576234
Si Si8 0.368993 0.441305 0.046171
O O1 0.968978 0.555575 0.701389
O O2 0.064447 0.016471 0.790020
O O3 0.148905 0.307114 0.944587
O O4 0.000000 0.500000 0.000000
O O5 0.736163 0.706610 0.764236
O O6 0.689107 0.751313 0.014169
O O7 0.689823 0.211538 0.911752
O O8 0.877927 0.469901 0.398310
O O9 0.787843 0.855501 0.570893
O O10 0.907039 0.947726 0.476650
O O11 0.500000 0.500000 0.500000
O O12 0.384900 0.769293 0.685263
O O13 0.548391 0.718325 0.789189
O O14 0.399700 0.037053 0.500530
O O15 0.770223 0.186514 0.236888
O O16 0.284472 0.503759 0.552424
O O17 0.394380 0.447744 0.888845
#
# Coordination Sequence:
#
# PCOD9066704 Si02
#       8
#     2   2   2   2   2   2   2   2
#     4  12  26  49  78 111 148 198 246 308 374 442
#     4  12  28  50  73 110 156 195 246 312 375 442
#     4  11  25  48  74 110 142 198 243 306 362 451
#     4  12  25  46  79 109 151 200 250 305 377 445
#     4  11  25  47  76 105 153 190 247 300 374 433
#     4  11  26  46  77 107 153 199 248 311 369 441
#     4  11  25  46  74 107 152 192 253 299 379 435
#     4  12  29  48  77 109 153 196 251 310 370 440
#
# _framework density 25.239858999999999
#
# number of rings (size 3 to 8) (size 9 to 14) (size 15 to 20)
#    0.000    0.500    5.000    1.875    7.000    2.500 
#    0.000    4.375    0.000    0.000    0.000    0.000 
#    0.000    0.000    0.000    0.000    0.000    0.000 
#
# Total GULP energy -89399.729788 kJ/mol
# GULP energy per Si atom -5587.483112 kJ/mol
# Density = 2.518241 g / cm^3
# Si number density = 25.239859 Si / 1000 Ang^3
#
#
#
# Elastic Constant Matrix: (Units=GPa)
#
#
# Indices 1 2 3 4 5 6 
#
# 1 82.7755 21.4184 17.5608 -2.1004 21.9092 -15.6217
# 2 21.4184 84.8590 22.1082 -7.0079 8.0364 -18.0293
# 3 17.5608 22.1082 158.6299 -19.2959 19.3110 -14.2091
# 4 -2.1004 -7.0079 -19.2959 35.6256 -19.1513 3.2426
# 5 21.9092 8.0364 19.3110 -19.1513 53.4095 -2.5720
# 6 -15.6217 -18.0293 -14.2091 3.2426 -2.5720 37.2409
#
#
#
# Elastic Compliance Matrix: (Units=1/GPa)
#
#
# Indices 1 2 3 4 5 6 
#
# 1 0.015521 -0.002374 -0.000582 -0.004101 -0.007029 0.005011
# 2 -0.002374 0.013879 -0.001020 0.001608 0.000081 0.005200
# 3 -0.000582 -0.001020 0.007143 0.002909 -0.001068 0.001661
# 4 -0.004101 0.001608 0.002909 0.037247 0.013642 -0.002133
# 5 -0.007029 0.000081 -0.001068 0.013642 0.026744 -0.002657
# 6 0.005011 0.005200 0.001661 -0.002133 -0.002657 0.032107
#
#
# Mechanical properties :
#
#
# Convention : Reuss Voigt Hill
#
# Bulk Modulus (GPa) = 34.97646 49.82658 42.40152
# Shear Modulus (GPa) = 33.30589 42.93367 38.11978
#
# Velocity S-wave (km/s) = 3.63654 4.12882 3.89047
# Velocity P-wave (km/s) = 5.61429 6.52025 6.08416
#
# Compressibility (1/GPa) = 0.02859066
#
# Stress axis : x y z
#
# Youngs Moduli (GPa) = 64.43072 72.05068 139.99548
#
# Poissons Ratio (x) = 0.17107 0.08144
# Poissons Ratio (y) = 0.15298 0.14280
# Poissons Ratio (z) = 0.03748 0.07349
#
# Static dielectric constant tensor:
#      x y z
#    x 1.994420 0.085800 0.165090 
#    y 0.085800 1.873970 -0.278480 
#    z 0.165090 -0.278480 1.714430 
# 
# From -- ./inp_files/324019.got.cif
#   From: 2010.05.17/outbox.cif.g08.bks.cpg/sg2_163_cif.got.tgz:324019.got - 2010.06.03 11:33:40.
