data_PCOD9066586
_publ_section_title
;
Structure prediction by ZEFSAII (Michael W. Deem and Ramdas Pophale) SiO2 
 PCOD9066586
Probable space group: P -1
;
_chemical_formula_sum "Si O2"
_cell_formula_units_Z 12
_cell_length_a 9.557407
_cell_length_b 5.370566
_cell_length_c 12.575093
_cell_angle_alpha 129.035342
_cell_angle_beta 112.720336
_cell_angle_gamma 79.004595
_cell_volume 461.218537
_symmetry_space_group_name_H-M "P -1"
_symmetry_group_IT_number 2
_symmetry_cell_setting 'triclinic'
loop_
_space_group_symop_operation_xyz
x,y,z
-x,-y,-z
loop_
_atom_site_type_symbol
_atom_site_label
_atom_site_fract_x
_atom_site_fract_y
_atom_site_fract_z
Si Si1 0.263058 0.626907 0.001912
Si Si2 0.218193 0.658427 0.772944
Si Si3 0.351215 0.572251 0.410388
Si Si4 0.137540 0.068246 0.479119
Si Si5 0.431666 0.292938 0.147148
Si Si6 0.917567 0.996652 0.792761
O O1 0.365039 0.429420 0.055900
O O2 0.349512 0.963139 0.079141
O O3 0.124846 0.740754 0.063281
O O4 0.220944 0.459843 0.832121
O O5 0.165477 0.450363 0.598878
O O6 0.392076 0.761276 0.827712
O O7 0.090304 0.901898 0.826163
O O8 0.500000 0.500000 0.500000
O O9 0.401729 0.557509 0.298733
O O10 0.207352 0.308255 0.311160
O O11 0.289262 0.908015 0.516184
O O12 0.103923 0.919565 0.314054
O O13 0.000000 0.000000 0.500000
#
# Coordination Sequence:
#
# PCOD9066586 Si02
#       6
#     2   2   2   2   2   2
#     4  11  26  51  73 107 147 195 243 296 360 433
#     4  12  26  44  74 107 143 193 240 303 360 430
#     4  11  25  46  72 103 144 192 238 300 364 431
#     4  12  26  44  73 107 144 182 247 303 362 430
#     4  11  26  48  75 107 147 190 248 297 358 431
#     4  11  25  48  67 105 146 187 244 297 364 430
#
# _framework density 26.018035000000001
#
# number of rings (size 3 to 8) (size 9 to 14) (size 15 to 20)
#    0.000    0.667    3.333    3.000    7.000    2.667 
#    0.000    3.333    0.000    0.000    0.000    0.000 
#    0.000    0.000    0.000    0.000    0.000    0.000 
#
# Total GULP energy -67259.654502 kJ/mol
# GULP energy per Si atom -5604.971209 kJ/mol
# Density = 2.595882 g / cm^3
# Si number density = 26.018035 Si / 1000 Ang^3
#
#
#
# Elastic Constant Matrix: (Units=GPa)
#
#
# Indices 1 2 3 4 5 6 
#
# 1 227.3328 62.7309 46.6879 -2.6424 -5.1151 -25.7019
# 2 62.7309 93.9309 19.8390 -20.1893 6.0441 -11.8526
# 3 46.6879 19.8390 98.7267 -15.8489 -24.8180 -5.3859
# 4 -2.6424 -20.1893 -15.8489 47.5460 -4.3608 0.5073
# 5 -5.1151 6.0441 -24.8180 -4.3608 57.9455 2.2412
# 6 -25.7019 -11.8526 -5.3859 0.5073 2.2412 52.2638
#
#
#
# Elastic Compliance Matrix: (Units=1/GPa)
#
#
# Indices 1 2 3 4 5 6 
#
# 1 0.006132 -0.003764 -0.002471 -0.002135 -0.000360 0.001943
# 2 -0.003764 0.014820 -0.000655 0.005686 -0.001787 0.001464
# 3 -0.002471 -0.000655 0.013700 0.004712 0.006083 -0.000258
# 4 -0.002135 0.005686 0.004712 0.025181 0.003118 0.000347
# 5 -0.000360 -0.001787 0.006083 0.003118 0.020285 -0.000856
# 6 0.001943 0.001464 -0.000258 0.000347 -0.000856 0.020428
#
#
# Mechanical properties :
#
#
# Convention : Reuss Voigt Hill
#
# Bulk Modulus (GPa) = 47.90703 75.38956 61.64830
# Shear Modulus (GPa) = 41.22634 50.93322 46.07978
#
# Velocity S-wave (km/s) = 3.98493 4.42929 4.21297
# Velocity P-wave (km/s) = 6.29491 7.42947 6.88560
#
# Compressibility (1/GPa) = 0.02087376
#
# Stress axis : x y z
#
# Youngs Moduli (GPa) = 163.09141 67.47767 72.99102
#
# Poissons Ratio (x) = 0.25395 0.18033
# Poissons Ratio (y) = 0.61380 0.04780
# Poissons Ratio (z) = 0.40292 0.04419
#
# Static dielectric constant tensor:
#      x y z
#    x 1.965190 0.035220 0.039720 
#    y 0.035220 2.061860 0.036310 
#    z 0.039720 0.036310 2.158510 
# 
# From -- ./inp_files/21339.got.cif
#   From: 2010.05.17/outbox.cif.g08.bks.cpg/sg2_11_cif.got.tgz:21339.got - 2010.06.03 11:33:40.
