data_PCOD9066411
_publ_section_title
;
Structure prediction by ZEFSAII (Michael W. Deem and Ramdas Pophale) SiO2 
 PCOD9066411
Probable space group: P -1
;
_chemical_formula_sum "Si O2"
_cell_formula_units_Z 10
_cell_length_a 7.112860
_cell_length_b 10.126685
_cell_length_c 5.183788
_cell_angle_alpha 109.527123
_cell_angle_beta 103.455724
_cell_angle_gamma 92.429272
_cell_volume 339.297013
_symmetry_space_group_name_H-M "P -1"
_symmetry_group_IT_number 2
_symmetry_cell_setting 'triclinic'
loop_
_space_group_symop_operation_xyz
x,y,z
-x,-y,-z
loop_
_atom_site_type_symbol
_atom_site_label
_atom_site_fract_x
_atom_site_fract_y
_atom_site_fract_z
Si Si1 0.789818 0.282327 0.534692
Si Si2 0.447232 0.872995 0.089525
Si Si3 0.592926 0.663967 0.241327
Si Si4 0.056089 0.891371 0.167081
Si Si5 0.187570 0.408677 0.225535
O O1 0.668482 0.247199 0.212811
O O2 0.619481 0.299494 0.704895
O O3 0.929957 0.161665 0.557673
O O4 0.898682 0.442732 0.677027
O O5 0.641375 0.819449 0.224342
O O6 0.289417 0.930126 0.254107
O O7 0.500000 0.000000 0.000000
O O8 0.693897 0.616337 0.494993
O O9 0.659799 0.577185 0.960718
O O10 0.965051 0.732828 0.939748
O O11 0.000000 0.000000 0.000000
#
# Coordination Sequence:
#
# PCOD9066411 Si02
#       5
#     2   2   2   2   2
#     4  11  26  46  76 105 147 191 242 297 359 427
#     4  11  26  47  74 106 148 192 244 295 360 434
#     4  11  25  45  77 109 144 189 238 295 361 430
#     4  11  28  46  70 105 148 195 239 299 361 426
#     4  12  26  46  77 112 146 183 242 300 362 426
#
# _framework density 29.472705000000001
#
# number of rings (size 3 to 8) (size 9 to 14) (size 15 to 20)
#    0.000    0.800    2.000    3.000   11.200    3.200 
#    0.000    0.000    0.000    0.000    0.000    0.000 
#    0.000    0.000    0.000    0.000    0.000    0.000 
#
# Total GULP energy -55687.763263 kJ/mol
# GULP energy per Si atom -5568.776326 kJ/mol
# Density = 2.940562 g / cm^3
# Si number density = 29.472705 Si / 1000 Ang^3
#
#
#
# Elastic Constant Matrix: (Units=GPa)
#
#
# Indices 1 2 3 4 5 6 
#
# 1 107.0962 -10.9756 17.7492 -23.1604 -7.2079 -11.4535
# 2 -10.9756 52.4123 11.4810 -32.5073 -13.4231 -24.7450
# 3 17.7492 11.4810 179.6410 -22.9826 -23.4443 -15.2786
# 4 -23.1604 -32.5073 -22.9826 68.2710 -0.4030 23.0130
# 5 -7.2079 -13.4231 -23.4443 -0.4030 39.0506 -9.0094
# 6 -11.4535 -24.7450 -15.2786 23.0130 -9.0094 38.2467
#
#
#
# Elastic Compliance Matrix: (Units=1/GPa)
#
#
# Indices 1 2 3 4 5 6 
#
# 1 0.016554 0.021987 0.001880 0.011088 0.015774 0.016978
# 2 0.021987 0.077674 0.007390 0.029179 0.047839 0.053502
# 3 0.001880 0.007390 0.007294 0.003958 0.009161 0.008035
# 4 0.011088 0.029179 0.003958 0.030577 0.016930 0.009370
# 5 0.015774 0.047839 0.009161 0.016930 0.060659 0.043436
# 6 0.016978 0.053502 0.008035 0.009370 0.043436 0.073649
#
#
# Mechanical properties :
#
#
# Convention : Reuss Voigt Hill
#
# Bulk Modulus (GPa) = 6.09617 41.73984 23.91801
# Shear Modulus (GPa) = 19.33713 50.50666 34.92189
#
# Velocity S-wave (km/s) = 2.56423 4.14415 3.44596
# Velocity P-wave (km/s) = 3.29241 6.09028 4.89548
#
# Compressibility (1/GPa) = 0.16403737
#
# Stress axis : x y z
#
# Youngs Moduli (GPa) = 60.40705 12.87435 137.10274
#
# Poissons Ratio (x) = -0.28307 -0.25779
# Poissons Ratio (y) = -1.32818 -1.01321
# Poissons Ratio (z) = -0.11358 -0.09514
#
# Static dielectric constant tensor:
#      x y z
#    x 2.488220 0.419580 -0.263380 
#    y 0.419580 3.337340 -0.670520 
#    z -0.263380 -0.670520 3.140450 
# 
# From -- ./inp_files/16459.got.cif
#   From: 2010.05.17/outbox.cif.g08.bks.cpg/sg2_9_cif.got.tgz:16459.got - 2010.06.03 11:33:40.
