data_PCOD9066717
_publ_section_title
;
Structure prediction by ZEFSAII (Michael W. Deem and Ramdas Pophale) SiO2 
 PCOD9066717
Probable space group: P -1
;
_chemical_formula_sum "Si O2"
_cell_formula_units_Z 14
_cell_length_a 11.902155
_cell_length_b 9.091088
_cell_length_c 12.177236
_cell_angle_alpha 56.328186
_cell_angle_beta 38.078036
_cell_angle_gamma 43.248234
_cell_volume 556.216806
_symmetry_space_group_name_H-M "P -1"
_symmetry_group_IT_number 2
_symmetry_cell_setting 'triclinic'
loop_
_space_group_symop_operation_xyz
x,y,z
-x,-y,-z
loop_
_atom_site_type_symbol
_atom_site_label
_atom_site_fract_x
_atom_site_fract_y
_atom_site_fract_z
Si Si1 0.380268 0.303082 0.275397
Si Si2 0.156016 0.760091 0.026699
Si Si3 0.792056 0.149971 0.519479
Si Si4 0.652338 0.599240 0.513873
Si Si5 0.007943 0.514857 0.118988
Si Si6 0.220742 0.023290 0.613355
Si Si7 0.677350 0.866201 0.826395
O O1 0.250355 0.472921 0.406502
O O2 0.329075 0.290232 0.192125
O O3 0.345562 0.125691 0.426963
O O4 0.610821 0.284312 0.100732
O O5 0.156135 0.600919 0.004770
O O6 0.003248 0.785892 0.236281
O O7 0.000000 0.000000 0.000000
O O8 0.660531 0.400271 0.539417
O O9 0.852780 0.081094 0.376088
O O10 0.649057 0.058598 0.698505
O O11 0.000000 0.000000 0.500000
O O12 0.407488 0.816064 0.624558
O O13 0.776243 0.654930 0.305904
O O14 0.106935 0.290647 0.200187
O O15 0.000000 0.500000 0.000000
O O16 0.500000 0.000000 0.000000
#
# Coordination Sequence:
#
# PCOD9066717 Si02
#       7
#     2   2   2   2   2   2   2
#     4  11  26  48  76 109 151 196 249 305 370 439
#     4  12  26  44  76 110 148 193 249 302 373 434
#     4  11  26  46  71 104 145 199 243 300 374 434
#     4  12  24  47  75 110 147 192 253 301 368 439
#     4  12  30  48  76 111 151 195 248 310 374 446
#     4  11  25  46  74 109 150 193 245 312 360 442
#     4  11  29  50  72 107 153 196 245 312 370 438
#
# _framework density 25.170041999999999
#
# number of rings (size 3 to 8) (size 9 to 14) (size 15 to 20)
#    0.000    0.571    4.286    1.714   12.000    2.286 
#    0.000    0.000    0.000    0.000    0.000    0.000 
#    0.000    0.000    0.000    0.000    0.000    0.000 
#
# Total GULP energy -78099.352318 kJ/mol
# GULP energy per Si atom -5578.525166 kJ/mol
# Density = 2.511275 g / cm^3
# Si number density = 25.170042 Si / 1000 Ang^3
#
#
#
# Elastic Constant Matrix: (Units=GPa)
#
#
# Indices 1 2 3 4 5 6 
#
# 1 163.5197 25.3480 61.4251 5.5807 32.0662 39.5199
# 2 25.3480 74.3895 22.5397 -1.8631 -2.2873 31.8255
# 3 61.4251 22.5397 129.1260 20.4780 3.4339 10.3375
# 4 5.5807 -1.8631 20.4780 42.2096 11.0781 3.6181
# 5 32.0662 -2.2873 3.4339 11.0781 43.1886 4.3209
# 6 39.5199 31.8255 10.3375 3.6181 4.3209 41.7441
#
#
#
# Elastic Compliance Matrix: (Units=1/GPa)
#
#
# Indices 1 2 3 4 5 6 
#
# 1 0.012189 0.002323 -0.005780 0.004497 -0.008482 -0.011392
# 2 0.002323 0.021809 -0.004114 0.004072 0.000535 -0.018216
# 3 -0.005780 -0.004114 0.011695 -0.006716 0.004281 0.005851
# 4 0.004497 0.004072 -0.006716 0.029643 -0.009464 -0.007289
# 5 -0.008482 0.000535 0.004281 -0.009464 0.031151 0.004157
# 6 -0.011392 -0.018216 0.005851 -0.007289 0.004157 0.047381
#
#
# Mechanical properties :
#
#
# Convention : Reuss Voigt Hill
#
# Bulk Modulus (GPa) = 32.73012 65.07343 48.90177
# Shear Modulus (GPa) = 27.90272 42.60994 35.25633
#
# Velocity S-wave (km/s) = 3.33313 4.11893 3.74669
# Velocity P-wave (km/s) = 5.27682 6.96638 6.17961
#
# Compressibility (1/GPa) = 0.03055290
#
# Stress axis : x y z
#
# Youngs Moduli (GPa) = 82.03859 45.85175 85.50857
#
# Poissons Ratio (x) = -0.10652 0.49422
# Poissons Ratio (y) = -0.19059 0.35177
# Poissons Ratio (z) = 0.47416 0.18863
#
# Static dielectric constant tensor:
#      x y z
#    x 3.646250 -1.506620 -0.567470 
#    y -1.506620 4.215430 0.971030 
#    z -0.567470 0.971030 2.637220 
# 
# From -- ./inp_files/419056.got.cif
#   From: 2010.05.17/outbox.cif.g08.bks.cpg/sg2_210_cif.got.tgz:419056.got - 2010.06.03 11:33:40.
