data_PCOD9066787
_publ_section_title
;
Structure prediction by ZEFSAII (Michael W. Deem and Ramdas Pophale) SiO2 
 PCOD9066787
Probable space group: P -1
;
_chemical_formula_sum "Si O2"
_cell_formula_units_Z 16
_cell_length_a 7.830361
_cell_length_b 8.606244
_cell_length_c 12.072352
_cell_angle_alpha 107.123133
_cell_angle_beta 51.491714
_cell_angle_gamma 106.122494
_cell_volume 603.539329
_symmetry_space_group_name_H-M "P -1"
_symmetry_group_IT_number 2
_symmetry_cell_setting 'triclinic'
loop_
_space_group_symop_operation_xyz
x,y,z
-x,-y,-z
loop_
_atom_site_type_symbol
_atom_site_label
_atom_site_fract_x
_atom_site_fract_y
_atom_site_fract_z
Si Si1 0.065500 0.814824 0.326716
Si Si2 0.301519 0.760764 0.609321
Si Si3 0.070978 0.323181 0.414126
Si Si4 0.405273 0.652484 0.777023
Si Si5 0.682687 0.859486 0.337994
Si Si6 0.865467 0.820017 0.031623
Si Si7 0.502377 0.993276 0.128321
Si Si8 0.740971 0.477228 0.950328
O O1 0.149694 0.661552 0.192271
O O2 0.028322 0.777045 0.461393
O O3 0.838031 0.862221 0.381700
O O4 0.255380 0.964528 0.264124
O O5 0.350523 0.640671 0.664550
O O6 0.462873 0.742300 0.435109
O O7 0.053563 0.742154 0.660588
O O8 0.361527 0.958950 0.645578
O O9 0.333210 0.342936 0.310962
O O10 0.000000 0.500000 0.500000
O O11 0.363718 0.839538 0.851581
O O12 0.296933 0.564533 0.911938
O O13 0.829360 0.793079 0.170228
O O14 0.624818 0.846009 0.088862
O O15 0.903239 0.649715 0.924642
O O16 0.000000 0.000000 0.000000
O O17 0.500000 0.000000 0.000000
O O18 0.500000 0.500000 0.000000
#
# Coordination Sequence:
#
# PCOD9066787 Si02
#       8
#     2   2   2   2   2   2   2   2
#     4  12  25  47  79 117 154 214 261 328 403 474
#     4  11  26  49  77 115 158 209 263 330 394 478
#     4  12  29  47  77 112 160 207 268 328 395 474
#     4  12  26  51  80 118 154 216 265 326 401 481
#     4  11  25  46  76 114 156 198 267 332 393 466
#     4  12  27  47  76 109 153 207 259 328 394 471
#     4  12  23  46  76 110 153 204 261 321 394 466
#     4  12  27  51  80 114 163 208 265 327 406 481
#
# _framework density 26.510287000000002
#
# number of rings (size 3 to 8) (size 9 to 14) (size 15 to 20)
#    0.000    0.250    5.000    3.000    3.500    5.000 
#    0.000    0.000    0.000    0.000    0.000    0.000 
#    0.000    0.000    0.000    0.000    0.000    0.000 
#
# Total GULP energy -89599.245461 kJ/mol
# GULP energy per Si atom -5599.952841 kJ/mol
# Density = 2.644995 g / cm^3
# Si number density = 26.510287 Si / 1000 Ang^3
#
#
#
# Elastic Constant Matrix: (Units=GPa)
#
#
# Indices 1 2 3 4 5 6 
#
# 1 146.2073 31.3919 37.6254 -29.8221 3.8954 -25.0929
# 2 31.3919 120.9908 40.8989 -1.3037 6.5468 13.1176
# 3 37.6254 40.8989 155.0410 -36.8626 10.2146 -5.0066
# 4 -29.8221 -1.3037 -36.8626 46.4314 -13.3817 5.0745
# 5 3.8954 6.5468 10.2146 -13.3817 53.2341 -3.8276
# 6 -25.0929 13.1176 -5.0066 5.0745 -3.8276 43.5386
#
#
#
# Elastic Compliance Matrix: (Units=1/GPa)
#
#
# Indices 1 2 3 4 5 6 
#
# 1 0.009735 -0.003197 -0.000014 0.005959 0.001614 0.006020
# 2 -0.003197 0.010756 -0.003101 -0.004207 -0.001919 -0.005118
# 3 -0.000014 -0.003101 0.008946 0.007026 0.000517 0.001181
# 4 0.005959 -0.004207 0.007026 0.032615 0.007100 0.002332
# 5 0.001614 -0.001919 0.000517 0.007100 0.020773 0.002567
# 6 0.006020 -0.005118 0.001181 0.002332 0.002567 0.028069
#
#
# Mechanical properties :
#
#
# Convention : Reuss Voigt Hill
#
# Bulk Modulus (GPa) = 59.47568 71.34127 65.40847
# Shear Modulus (GPa) = 38.72287 49.46236 44.09262
#
# Velocity S-wave (km/s) = 3.82602 4.32415 4.08269
# Velocity P-wave (km/s) = 6.48086 7.20418 6.85207
#
# Compressibility (1/GPa) = 0.01681359
#
# Stress axis : x y z
#
# Youngs Moduli (GPa) = 102.71941 92.97110 111.78351
#
# Poissons Ratio (x) = 0.29721 0.00161
# Poissons Ratio (y) = 0.32837 0.34659
# Poissons Ratio (z) = 0.00148 0.28826
#
# Static dielectric constant tensor:
#      x y z
#    x 2.110390 0.021970 0.006200 
#    y 0.021970 2.115330 0.184460 
#    z 0.006200 0.184460 2.606030 
# 
# From -- ./inp_files/382517.got.cif
#   From: 2010.05.17/outbox.cif.g08.bks.cpg/sg2_192_cif.got.tgz:382517.got - 2010.06.03 11:33:40.
