data_PCOD9066469
_publ_section_title
;
Structure prediction by ZEFSAII (Michael W. Deem and Ramdas Pophale) SiO2 
 PCOD9066469
Probable space group: P -1
;
_chemical_formula_sum "Si O2"
_cell_formula_units_Z 16
_cell_length_a 6.609700
_cell_length_b 27.042832
_cell_length_c 12.298914
_cell_angle_alpha 152.050654
_cell_angle_beta 47.179810
_cell_angle_gamma 130.744857
_cell_volume 746.968959
_symmetry_space_group_name_H-M "P -1"
_symmetry_group_IT_number 2
_symmetry_cell_setting 'triclinic'
loop_
_space_group_symop_operation_xyz
x,y,z
-x,-y,-z
loop_
_atom_site_type_symbol
_atom_site_label
_atom_site_fract_x
_atom_site_fract_y
_atom_site_fract_z
Si Si1 0.420642 0.378977 0.250898
Si Si2 0.729500 0.133992 0.354228
Si Si3 0.763563 0.350829 0.427207
Si Si4 0.940642 0.983861 0.156875
Si Si5 0.412590 0.796222 0.986327
Si Si6 0.834431 0.368623 0.685520
Si Si7 0.595208 0.482347 0.184580
Si Si8 0.074528 0.081831 0.533090
O O1 0.500000 0.500000 0.500000
O O2 0.553910 0.384633 0.093677
O O3 0.092090 0.353926 0.305686
O O4 0.514139 0.294590 0.135222
O O5 0.838864 0.255905 0.522535
O O6 0.403689 0.122495 0.481269
O O7 0.883768 0.083763 0.298791
O O8 0.808831 0.066772 0.089650
O O9 0.709591 0.349457 0.573374
O O10 0.665737 0.455076 0.612094
O O11 0.621335 0.251386 0.215207
O O12 0.662398 0.895354 0.085779
O O13 0.995515 0.021134 0.331516
O O14 0.124754 0.830204 0.200229
O O15 0.146765 0.433753 0.701081
O O16 0.662894 0.439770 0.959760
O O17 0.000000 0.000000 0.500000
#
# Coordination Sequence:
#
# PCOD9066469 Si02
#       8
#     2   2   2   2   2   2   2   2
#     4  12  25  44  72 104 143 185 234 287 349 422
#     4  11  26  46  73 105 135 192 233 294 351 428
#     4  12  24  45  72 103 141 187 236 284 352 420
#     4  11  26  50  73  99 147 183 236 293 360 419
#     4  12  28  44  78 104 143 189 232 297 360 413
#     4  11  26  44  71  99 148 180 236 291 346 418
#     4  11  25  46  68 104 142 189 234 286 350 412
#     4  12  28  46  74 109 139 183 241 297 354 424
#
# _framework density 21.419899000000001
#
# number of rings (size 3 to 8) (size 9 to 14) (size 15 to 20)
#    0.000    0.500    3.750    3.000    7.000    3.000 
#    2.250    0.000    0.000    0.000    0.000    0.000 
#    0.000    0.000    0.000    0.000    0.000    0.000 
#
# Total GULP energy -89541.846590 kJ/mol
# GULP energy per Si atom -5596.365412 kJ/mol
# Density = 2.137115 g / cm^3
# Si number density = 21.419899 Si / 1000 Ang^3
#
#
#
# Elastic Constant Matrix: (Units=GPa)
#
#
# Indices 1 2 3 4 5 6 
#
# 1 85.6235 24.4652 47.1778 -8.3701 4.4352 -21.3662
# 2 24.4652 73.2454 23.8953 -12.8971 6.9239 -26.1676
# 3 47.1778 23.8953 81.4572 -17.0363 -3.0852 -14.8867
# 4 -8.3701 -12.8971 -17.0363 40.1276 -4.3632 -6.6274
# 5 4.4352 6.9239 -3.0852 -4.3632 42.9351 -7.0696
# 6 -21.3662 -26.1676 -14.8867 -6.6274 -7.0696 33.0279
#
#
#
# Elastic Compliance Matrix: (Units=1/GPa)
#
#
# Indices 1 2 3 4 5 6 
#
# 1 0.019017 -0.000156 -0.009320 0.001145 -0.001183 0.007954
# 2 -0.000156 0.022789 -0.000808 0.010279 0.000584 0.019778
# 3 -0.009320 -0.000808 0.020653 0.007869 0.004220 0.005122
# 4 0.001145 0.010279 0.007869 0.035893 0.005877 0.020891
# 5 -0.001183 0.000584 0.004220 0.005877 0.025579 0.008254
# 6 0.007954 0.019778 0.005122 0.020891 0.008254 0.059360
#
#
# Mechanical properties :
#
#
# Convention : Reuss Voigt Hill
#
# Bulk Modulus (GPa) = 23.87217 47.93362 35.90289
# Shear Modulus (GPa) = 22.95437 32.87063 27.91250
#
# Velocity S-wave (km/s) = 3.27714 3.92163 3.61378
# Velocity P-wave (km/s) = 5.04862 6.55227 5.84896
#
# Compressibility (1/GPa) = 0.04188978
#
# Stress axis : x y z
#
# Youngs Moduli (GPa) = 52.58468 43.88077 48.41894
#
# Poissons Ratio (x) = 0.00686 0.45126
# Poissons Ratio (y) = 0.00823 0.03913
# Poissons Ratio (z) = 0.49009 0.03547
#
# Static dielectric constant tensor:
#      x y z
#    x 1.755260 -0.003300 0.013540 
#    y -0.003300 1.765130 -0.031320 
#    z 0.013540 -0.031320 1.797590 
# 
# From -- ./inp_files/371451.got.cif
#   From: 2010.05.17/outbox.cif.g08.bks.cpg/sg2_186_cif.got.tgz:371451.got - 2010.06.03 11:33:40.
