data_PCOD9066312
_publ_section_title
;
Structure prediction by ZEFSAII (Michael W. Deem and Ramdas Pophale) SiO2 
 PCOD9066312
Probable space group: P -1
;
_chemical_formula_sum "Si O2"
_cell_formula_units_Z 14
_cell_length_a 8.284731
_cell_length_b 7.612468
_cell_length_c 18.725505
_cell_angle_alpha 33.401494
_cell_angle_beta 113.272044
_cell_angle_gamma 121.705212
_cell_volume 550.695043
_symmetry_space_group_name_H-M "P -1"
_symmetry_group_IT_number 2
_symmetry_cell_setting 'triclinic'
loop_
_space_group_symop_operation_xyz
x,y,z
-x,-y,-z
loop_
_atom_site_type_symbol
_atom_site_label
_atom_site_fract_x
_atom_site_fract_y
_atom_site_fract_z
Si Si1 0.512279 0.393791 0.865990
Si Si2 0.741071 0.334660 0.175796
Si Si3 0.950676 0.402480 0.426946
Si Si4 0.625606 0.662882 0.641441
Si Si5 0.920312 0.351866 0.782281
Si Si6 0.717339 0.596257 0.423729
Si Si7 0.831894 0.613700 0.953814
O O1 0.354234 0.457123 0.864675
O O2 0.513131 0.535990 0.738517
O O3 0.710836 0.619864 0.861849
O O4 0.500000 0.000000 0.000000
O O5 0.967019 0.519318 0.168634
O O6 0.683431 0.938364 0.321434
O O7 0.701539 0.350321 0.079988
O O8 0.865051 0.659604 0.361191
O O9 0.956865 0.405397 0.342318
O O10 0.163678 0.490382 0.463721
O O11 0.805343 0.026022 0.555128
O O12 0.719267 0.385626 0.736667
O O13 0.482336 0.670284 0.551406
O O14 0.901762 0.976789 0.883012
O O15 0.000000 0.500000 0.000000
#
# Coordination Sequence:
#
# PCOD9066312 Si02
#       7
#     2   2   2   2   2   2   2
#     4  12  26  46  71 103 142 183 237 291 352 421
#     4  12  24  46  70 105 143 182 236 293 349 419
#     4  11  26  48  69 104 146 185 236 290 346 420
#     4  12  25  47  71 106 140 187 237 287 353 417
#     4  12  25  45  71 104 143 182 238 290 349 420
#     4  11  25  45  73  99 145 183 236 286 351 410
#     4  12  25  43  73 103 138 187 233 290 362 413
#
# _framework density 25.422422000000001
#
# number of rings (size 3 to 8) (size 9 to 14) (size 15 to 20)
#    0.000    0.286    1.429    7.714    4.000    0.571 
#    0.000    0.000    0.000    0.000    0.000    0.000 
#    0.000    0.000    0.000    0.000    0.000    0.000 
#
# Total GULP energy -78507.239117 kJ/mol
# GULP energy per Si atom -5607.659937 kJ/mol
# Density = 2.536456 g / cm^3
# Si number density = 25.422422 Si / 1000 Ang^3
#
#
#
# Elastic Constant Matrix: (Units=GPa)
#
#
# Indices 1 2 3 4 5 6 
#
# 1 115.0485 8.5570 31.7942 4.5110 22.1024 -17.4267
# 2 8.5570 111.9279 28.3872 14.3890 10.1485 14.9570
# 3 31.7942 28.3872 86.7208 3.3910 6.4557 -4.7954
# 4 4.5110 14.3890 3.3910 23.4615 0.8946 11.9324
# 5 22.1024 10.1485 6.4557 0.8946 43.1623 5.0336
# 6 -17.4267 14.9570 -4.7954 11.9324 5.0336 50.2980
#
#
#
# Elastic Compliance Matrix: (Units=1/GPa)
#
#
# Indices 1 2 3 4 5 6 
#
# 1 0.011795 0.000418 -0.003537 -0.004475 -0.006135 0.005301
# 2 0.000418 0.010892 -0.003486 -0.005161 -0.001912 -0.002010
# 3 -0.003537 -0.003486 0.013986 0.000250 0.000412 0.001044
# 4 -0.004475 -0.005161 0.000250 0.053061 0.003881 -0.012968
# 5 -0.006135 -0.001912 0.000412 0.003881 0.027220 -0.005162
# 6 0.005301 -0.002010 0.001044 -0.012968 -0.005162 0.026009
#
#
# Mechanical properties :
#
#
# Convention : Reuss Voigt Hill
#
# Bulk Modulus (GPa) = 42.61567 50.13041 46.37304
# Shear Modulus (GPa) = 30.48933 39.71495 35.10214
#
# Velocity S-wave (km/s) = 3.46686 3.95676 3.71988
# Velocity P-wave (km/s) = 5.72930 6.37467 6.06058
#
# Compressibility (1/GPa) = 0.02346555
#
# Stress axis : x y z
#
# Youngs Moduli (GPa) = 84.78012 91.81074 71.49886
#
# Poissons Ratio (x) = -0.03842 0.25286
# Poissons Ratio (y) = -0.03548 0.24923
# Poissons Ratio (z) = 0.29983 0.32003
#
# Static dielectric constant tensor:
#      x y z
#    x 1.979400 0.002100 -0.013080 
#    y 0.002100 1.971280 -0.042140 
#    z -0.013080 -0.042140 2.020320 
# 
# From -- ./inp_files/587104.got.cif
#   From: 2010.05.17/outbox.cif.g08.bks.cpg/sg2_294_cif.got.tgz:587104.got - 2010.06.03 11:33:40.
