data_PCOD9066985
_publ_section_title
;
Structure prediction by ZEFSAII (Michael W. Deem and Ramdas Pophale) SiO2 
 PCOD9066985
Probable space group: P -1
;
_chemical_formula_sum "Si O2"
_cell_formula_units_Z 12
_cell_length_a 6.312325
_cell_length_b 17.192033
_cell_length_c 8.954087
_cell_angle_alpha 121.109526
_cell_angle_beta 97.396273
_cell_angle_gamma 126.438313
_cell_volume 518.460294
_symmetry_space_group_name_H-M "P -1"
_symmetry_group_IT_number 2
_symmetry_cell_setting 'triclinic'
loop_
_space_group_symop_operation_xyz
x,y,z
-x,-y,-z
loop_
_atom_site_type_symbol
_atom_site_label
_atom_site_fract_x
_atom_site_fract_y
_atom_site_fract_z
Si Si1 0.403715 0.890809 0.500475
Si Si2 0.661760 0.958136 0.900385
Si Si3 0.391706 0.555507 0.461527
Si Si4 0.349809 0.169279 0.739853
Si Si5 0.615994 0.282021 0.192812
Si Si6 0.363295 0.362995 0.774180
O O1 0.669887 0.978484 0.745399
O O2 0.386482 0.794503 0.306300
O O3 0.039106 0.777690 0.428925
O O4 0.500000 0.000000 0.500000
O O5 0.366734 0.790517 0.755055
O O6 0.500000 0.000000 0.000000
O O7 0.000000 0.000000 0.000000
O O8 0.500000 0.500000 0.500000
O O9 0.549720 0.687805 0.707970
O O10 0.478585 0.592573 0.332183
O O11 0.986015 0.430131 0.313721
O O12 0.397704 0.289852 0.819223
O O13 0.420335 0.180253 0.930574
O O14 0.000000 0.000000 0.500000
O O15 0.500000 0.500000 0.000000
#
# Coordination Sequence:
#
# PCOD9066985 Si02
#       6
#     2   2   2   2   2   2
#     4  12  26  47  78 112 156 208 263 335 401 484
#     4  12  29  47  79 117 157 212 268 330 406 483
#     4  11  25  47  74 108 151 203 262 328 403 481
#     4  12  25  47  75 108 154 200 266 326 406 476
#     4  11  26  46  76 107 154 205 262 333 399 482
#     4  12  27  46  77 113 154 204 264 330 402 488
#
# _framework density 23.145454000000001
#
# number of rings (size 3 to 8) (size 9 to 14) (size 15 to 20)
#    0.000    0.333    1.667    6.000    7.000    5.333 
#    0.000    0.000    0.000    0.000    0.000    0.000 
#    0.000    0.000    0.000    0.000    0.000    0.000 
#
# Total GULP energy -66922.944003 kJ/mol
# GULP energy per Si atom -5576.912000 kJ/mol
# Density = 2.309277 g / cm^3
# Si number density = 23.145454 Si / 1000 Ang^3
#
#
#
# Elastic Constant Matrix: (Units=GPa)
#
#
# Indices 1 2 3 4 5 6 
#
# 1 97.3125 30.9740 23.5573 -3.3499 -15.5330 -3.9215
# 2 30.9740 140.0725 28.2191 -8.6585 -4.1913 -0.5029
# 3 23.5573 28.2191 108.8722 -19.6989 -11.8619 -4.6373
# 4 -3.3499 -8.6585 -19.6989 51.8450 -3.6347 -5.5252
# 5 -15.5330 -4.1913 -11.8619 -3.6347 41.8110 6.0527
# 6 -3.9215 -0.5029 -4.6373 -5.5252 6.0527 58.2028
#
#
#
# Elastic Compliance Matrix: (Units=1/GPa)
#
#
# Indices 1 2 3 4 5 6 
#
# 1 0.011975 -0.002211 -0.001580 0.000097 0.003746 0.000281
# 2 -0.002211 0.007959 -0.001530 0.000566 -0.000393 -0.000107
# 3 -0.001580 -0.001530 0.010985 0.004092 0.002605 0.000873
# 4 0.000097 0.000566 0.004092 0.021362 0.002810 0.002073
# 5 0.003746 -0.000393 0.002605 0.002810 0.026548 -0.002037
# 6 0.000281 -0.000107 0.000873 0.002073 -0.002037 0.017678
#
#
# Mechanical properties :
#
#
# Convention : Reuss Voigt Hill
#
# Bulk Modulus (GPa) = 49.31474 56.86202 53.08838
# Shear Modulus (GPa) = 43.89557 47.93888 45.91723
#
# Velocity S-wave (km/s) = 4.35962 4.55598 4.45888
# Velocity P-wave (km/s) = 6.83333 7.23164 7.03530
#
# Compressibility (1/GPa) = 0.02027791
#
# Stress axis : x y z
#
# Youngs Moduli (GPa) = 83.50696 125.64427 91.03388
#
# Poissons Ratio (x) = 0.27774 0.14388
# Poissons Ratio (y) = 0.18459 0.13924
# Poissons Ratio (z) = 0.13198 0.19217
#
# Static dielectric constant tensor:
#      x y z
#    x 2.283430 -0.036760 0.082460 
#    y -0.036760 1.828160 0.016730 
#    z 0.082460 0.016730 1.930360 
# 
# From -- ./inp_files/72494.got.cif
#   From: 2010.05.17/outbox.cif.g08.bks.cpg/sg2_37_cif.got.tgz:72494.got - 2010.06.03 11:33:40.
