data_PCOD9066904
_publ_section_title
;
Structure prediction by ZEFSAII (Michael W. Deem and Ramdas Pophale) SiO2 
 PCOD9066904
Probable space group: P -1
;
_chemical_formula_sum "Si O2"
_cell_formula_units_Z 16
_cell_length_a 13.358823
_cell_length_b 23.042054
_cell_length_c 9.750137
_cell_angle_alpha 32.299377
_cell_angle_beta 137.020310
_cell_angle_gamma 154.594401
_cell_volume 681.314375
_symmetry_space_group_name_H-M "P -1"
_symmetry_group_IT_number 2
_symmetry_cell_setting 'triclinic'
loop_
_space_group_symop_operation_xyz
x,y,z
-x,-y,-z
loop_
_atom_site_type_symbol
_atom_site_label
_atom_site_fract_x
_atom_site_fract_y
_atom_site_fract_z
Si Si1 0.750672 0.368254 0.085014
Si Si2 0.821946 0.259501 0.926199
Si Si3 0.469404 0.072181 0.203675
Si Si4 0.876602 0.782904 0.688986
Si Si5 0.749596 0.810174 0.784709
Si Si6 0.720197 0.319294 0.437087
Si Si7 0.979470 0.873696 0.150929
Si Si8 0.691571 0.582621 0.641475
O O1 0.720645 0.471511 0.905125
O O2 0.558756 0.232770 0.050031
O O3 0.719536 0.271811 0.377419
O O4 0.000000 0.500000 0.000000
O O5 0.709967 0.227421 0.732473
O O6 0.034153 0.470913 0.731592
O O7 0.638134 0.154328 0.077718
O O8 0.945189 0.214613 0.134191
O O9 0.500000 0.000000 0.500000
O O10 0.203703 0.952011 0.142559
O O11 0.771050 0.741928 0.814766
O O12 0.687776 0.643364 0.660657
O O13 0.029060 0.978156 0.417314
O O14 0.510513 0.739000 0.666380
O O15 0.777370 0.769397 0.041271
O O16 0.928173 0.760921 0.447419
O O17 0.000000 0.000000 0.000000
O O18 0.500000 0.500000 0.500000
#
# Coordination Sequence:
#
# PCOD9066904 Si02
#       8
#     2   2   2   2   2   2   2   2
#     4  12  24  46  70 106 143 190 239 299 367 429
#     4  11  26  48  73 105 146 194 241 301 369 439
#     4  12  27  47  76 108 149 191 246 307 365 442
#     4  11  25  48  69 106 145 191 248 297 368 434
#     4  11  27  46  74 104 148 194 244 307 362 439
#     4  11  25  47  72 104 145 190 241 301 364 438
#     4  12  25  46  73 111 145 196 248 298 372 434
#     4  12  25  46  73 104 146 192 241 303 360 436
#
# _framework density 23.484017999999999
#
# number of rings (size 3 to 8) (size 9 to 14) (size 15 to 20)
#    0.000    0.500    3.750    3.750    5.250    3.000 
#    0.000    0.000    0.000    0.000    0.000    0.000 
#    0.000    0.000    0.000    0.000    0.000    0.000 
#
# Total GULP energy -89522.787454 kJ/mol
# GULP energy per Si atom -5595.174216 kJ/mol
# Density = 2.343057 g / cm^3
# Si number density = 23.484018 Si / 1000 Ang^3
#
#
#
# Elastic Constant Matrix: (Units=GPa)
#
#
# Indices 1 2 3 4 5 6 
#
# 1 150.3766 55.0538 45.6263 18.1558 -26.0310 -13.9581
# 2 55.0538 85.4388 25.0098 27.7312 -3.2543 -7.2557
# 3 45.6263 25.0098 119.7731 21.6100 -23.6975 -7.5319
# 4 18.1558 27.7312 21.6100 43.3561 -6.7721 -1.3074
# 5 -26.0310 -3.2543 -23.6975 -6.7721 38.5430 4.8502
# 6 -13.9581 -7.2557 -7.5319 -1.3074 4.8502 45.6168
#
#
#
# Elastic Compliance Matrix: (Units=1/GPa)
#
#
# Indices 1 2 3 4 5 6 
#
# 1 0.010400 -0.006349 -0.001725 0.001467 0.005516 0.001343
# 2 -0.006349 0.019155 -0.000691 -0.009994 -0.005007 0.001236
# 3 -0.001725 -0.000691 0.010735 -0.003435 0.004706 0.000536
# 4 0.001467 -0.009994 -0.003435 0.031088 0.003649 -0.001205
# 5 0.005516 -0.005007 0.004706 0.003649 0.033001 -0.001736
# 6 0.001343 0.001236 0.000536 -0.001205 -0.001736 0.022768
#
#
# Mechanical properties :
#
#
# Convention : Reuss Voigt Hill
#
# Bulk Modulus (GPa) = 43.93483 67.44090 55.68786
# Shear Modulus (GPa) = 32.83776 40.82976 36.83376
#
# Velocity S-wave (km/s) = 3.74344 4.17420 3.96468
# Velocity P-wave (km/s) = 6.11829 7.21194 6.68751
#
# Compressibility (1/GPa) = 0.02276099
#
# Stress axis : x y z
#
# Youngs Moduli (GPa) = 96.15409 52.20468 93.15218
#
# Poissons Ratio (x) = 0.33142 0.16069
# Poissons Ratio (y) = 0.61044 0.06438
# Poissons Ratio (z) = 0.16587 0.03608
#
# Static dielectric constant tensor:
#      x y z
#    x 1.843850 0.005990 -0.030010 
#    y 0.005990 2.015920 -0.080150 
#    z -0.030010 -0.080150 1.948890 
# 
# From -- ./inp_files/282802.got.cif
#   From: 2010.05.17/outbox.cif.g08.bks.cpg/sg2_142_cif.got.tgz:282802.got - 2010.06.03 11:33:40.
