data_PCOD9066133
_publ_section_title
;
Structure prediction by ZEFSAII (Michael W. Deem and Ramdas Pophale) SiO2 
 PCOD9066133
Probable space group: P -1
;
_chemical_formula_sum "Si O2"
_cell_formula_units_Z 12
_cell_length_a 7.604852
_cell_length_b 6.939979
_cell_length_c 17.287835
_cell_angle_alpha 118.317794
_cell_angle_beta 122.776845
_cell_angle_gamma 38.967374
_cell_volume 479.966563
_symmetry_space_group_name_H-M "P -1"
_symmetry_group_IT_number 2
_symmetry_cell_setting 'triclinic'
loop_
_space_group_symop_operation_xyz
x,y,z
-x,-y,-z
loop_
_atom_site_type_symbol
_atom_site_label
_atom_site_fract_x
_atom_site_fract_y
_atom_site_fract_z
Si Si1 0.569103 0.818692 0.790491
Si Si2 0.490323 0.728560 0.590347
Si Si3 0.232648 0.809326 0.950927
Si Si4 0.465688 0.358671 0.786613
Si Si5 0.048680 0.216523 0.863525
Si Si6 0.063303 0.423622 0.589945
O O1 0.546228 0.669376 0.683880
O O2 0.878153 0.557768 0.858338
O O3 0.545783 0.075980 0.796535
O O4 0.287236 0.992518 0.811271
O O5 0.500000 0.500000 0.500000
O O6 0.761298 0.670780 0.611239
O O7 0.197034 0.084633 0.573968
O O8 0.243028 0.652389 0.845858
O O9 0.500000 0.500000 0.000000
O O10 0.226813 0.052648 0.954720
O O11 0.000000 0.000000 0.000000
O O12 0.758354 0.279873 0.822514
O O13 0.296872 0.418394 0.680085
O O14 0.000000 0.500000 0.500000
#
# Coordination Sequence:
#
# PCOD9066133 Si02
#       6
#     2   2   2   2   2   2
#     4  11  26  45  73 108 140 190 254 284 366 443
#     4  11  25  45  66 102 148 184 238 313 350 414
#     4  12  25  47  76 111 146 188 240 301 369 435
#     4  11  27  48  78 103 154 190 240 313 354 424
#     4  12  25  46  78 104 140 196 238 294 376 422
#     4  11  26  45  71 107 140 193 248 282 371 430
#
# _framework density 25.001740999999999
#
# number of rings (size 3 to 8) (size 9 to 14) (size 15 to 20)
#    0.000    0.667    3.333    3.000    9.333    1.333 
#    0.000    5.000    0.000    0.000    0.000    0.000 
#    0.000    0.000    0.000    0.000    0.000    0.000 
#
# Total GULP energy -67126.509446 kJ/mol
# GULP energy per Si atom -5593.875787 kJ/mol
# Density = 2.494484 g / cm^3
# Si number density = 25.001741 Si / 1000 Ang^3
#
#
#
# Elastic Constant Matrix: (Units=GPa)
#
#
# Indices 1 2 3 4 5 6 
#
# 1 117.2017 20.0493 35.2229 -0.5813 -32.7527 -25.7929
# 2 20.0493 166.5945 57.3996 -5.7507 -27.2979 -15.2055
# 3 35.2229 57.3996 142.2757 17.4693 -29.7939 3.3904
# 4 -0.5813 -5.7507 17.4693 49.9581 3.2754 -18.7807
# 5 -32.7527 -27.2979 -29.7939 3.2754 52.2435 2.7694
# 6 -25.7929 -15.2055 3.3904 -18.7807 2.7694 51.1620
#
#
#
# Elastic Compliance Matrix: (Units=1/GPa)
#
#
# Indices 1 2 3 4 5 6 
#
# 1 0.012841 0.001477 -0.003155 0.004126 0.006325 0.008294
# 2 0.001477 0.008060 -0.003657 0.003799 0.002568 0.004638
# 3 -0.003155 -0.003657 0.010899 -0.006741 0.003070 -0.006040
# 4 0.004126 0.003799 -0.006741 0.028292 -0.001796 0.014139
# 5 0.006325 0.002568 0.003070 -0.001796 0.026223 0.001670
# 6 0.008294 0.004638 -0.006040 0.014139 0.001670 0.030605
#
#
# Mechanical properties :
#
#
# Convention : Reuss Voigt Hill
#
# Bulk Modulus (GPa) = 47.32106 72.37949 59.85028
# Shear Modulus (GPa) = 37.13800 51.56607 44.35203
#
# Velocity S-wave (km/s) = 3.85829 4.54640 4.21641
# Velocity P-wave (km/s) = 6.23031 7.52146 6.90612
#
# Compressibility (1/GPa) = 0.02113224
#
# Stress axis : x y z
#
# Youngs Moduli (GPa) = 77.87608 124.07016 91.74834
#
# Poissons Ratio (x) = -0.18330 0.28945
# Poissons Ratio (y) = -0.11505 0.33549
# Poissons Ratio (z) = 0.24569 0.45367
#
# Static dielectric constant tensor:
#      x y z
#    x 2.022770 0.048820 0.073900 
#    y 0.048820 2.000060 -0.045830 
#    z 0.073900 -0.045830 2.003930 
# 
# From -- ./inp_files/557486.got.cif
#   From: 2010.05.17/outbox.cif.g08.bks.cpg/sg2_279_cif.got.tgz:557486.got - 2010.06.03 11:33:40.
