data_PCOD9066239
_publ_section_title
;
Structure prediction by ZEFSAII (Michael W. Deem and Ramdas Pophale) SiO2 
 PCOD9066239
Probable space group: P -1
;
_chemical_formula_sum "Si O2"
_cell_formula_units_Z 16
_cell_length_a 6.646673
_cell_length_b 20.095675
_cell_length_c 9.248453
_cell_angle_alpha 43.560720
_cell_angle_beta 55.521298
_cell_angle_gamma 71.021688
_cell_volume 693.839591
_symmetry_space_group_name_H-M "P -1"
_symmetry_group_IT_number 2
_symmetry_cell_setting 'triclinic'
loop_
_space_group_symop_operation_xyz
x,y,z
-x,-y,-z
loop_
_atom_site_type_symbol
_atom_site_label
_atom_site_fract_x
_atom_site_fract_y
_atom_site_fract_z
Si Si1 0.771291 0.923967 0.770922
Si Si2 0.495932 0.658602 0.097286
Si Si3 0.903649 0.352651 0.504829
Si Si4 0.715946 0.458731 0.892970
Si Si5 0.594491 0.136331 0.233134
Si Si6 0.556797 0.098431 0.640563
Si Si7 0.082594 0.704891 0.745874
Si Si8 0.901720 0.828539 0.138593
O O1 0.634134 0.884160 0.746593
O O2 0.615950 0.991277 0.823485
O O3 0.818224 0.835096 0.994952
O O4 0.000000 0.000000 0.500000
O O5 0.372521 0.650971 0.316561
O O6 0.387434 0.568116 0.182740
O O7 0.376516 0.748137 0.935799
O O8 0.790434 0.684064 0.932578
O O9 0.049471 0.457804 0.320852
O O10 0.898617 0.327346 0.377947
O O11 0.045619 0.272632 0.654213
O O12 0.500000 0.500000 0.000000
O O13 0.781002 0.364351 0.099224
O O14 0.557605 0.092396 0.474758
O O15 0.825561 0.109496 0.090032
O O16 0.299815 0.128007 0.752642
O O17 0.777162 0.184294 0.464522
#
# Coordination Sequence:
#
# PCOD9066239 Si02
#       8
#     2   2   2   2   2   2   2   2
#     4  12  26  48  74 106 142 191 239 295 357 424
#     4  11  25  45  72 105 144 189 236 292 360 416
#     4  11  26  47  73 106 144 190 238 295 355 425
#     4  12  24  49  73 105 147 187 241 292 355 426
#     4  11  25  49  70 105 144 186 236 295 355 423
#     4  12  25  46  74 104 144 192 236 295 359 415
#     4  12  26  48  72 106 146 187 236 295 354 422
#     4  11  27  48  69 106 145 182 240 299 346 430
#
# _framework density 23.060085000000001
#
# number of rings (size 3 to 8) (size 9 to 14) (size 15 to 20)
#    0.000    0.500    3.750    3.750    3.500    1.000 
#    2.250    0.000    0.000    0.000    0.000    0.000 
#    0.000    0.000    0.000    0.000    0.000    0.000 
#
# Total GULP energy -89457.322612 kJ/mol
# GULP energy per Si atom -5591.082663 kJ/mol
# Density = 2.300760 g / cm^3
# Si number density = 23.060085 Si / 1000 Ang^3
#
#
#
# Elastic Constant Matrix: (Units=GPa)
#
#
# Indices 1 2 3 4 5 6 
#
# 1 108.1594 48.5465 35.6706 18.3174 -15.0048 14.1942
# 2 48.5465 111.2845 41.4061 15.3271 -14.2345 5.3136
# 3 35.6706 41.4061 76.8009 27.0994 -10.8951 7.8883
# 4 18.3174 15.3271 27.0994 43.3643 -10.6620 -12.4512
# 5 -15.0048 -14.2345 -10.8951 -10.6620 22.2172 1.3081
# 6 14.1942 5.3136 7.8883 -12.4512 1.3081 36.0286
#
#
#
# Elastic Compliance Matrix: (Units=1/GPa)
#
#
# Indices 1 2 3 4 5 6 
#
# 1 0.013600 -0.003973 -0.001517 -0.004057 0.004302 -0.005998
# 2 -0.003973 0.012870 -0.005311 0.001733 0.003713 0.001294
# 3 -0.001517 -0.005311 0.022334 -0.013705 0.000435 -0.008261
# 4 -0.004057 0.001733 -0.013705 0.040314 0.009941 0.017915
# 5 0.004302 0.003713 0.000435 0.009941 0.055333 -0.000911
# 6 -0.005998 0.001294 -0.008261 0.017915 -0.000911 0.037961
#
#
# Mechanical properties :
#
#
# Convention : Reuss Voigt Hill
#
# Bulk Modulus (GPa) = 36.76035 60.83233 48.79634
# Shear Modulus (GPa) = 23.46523 31.69680 27.58101
#
# Velocity S-wave (km/s) = 3.19340 3.71149 3.46215
# Velocity P-wave (km/s) = 5.43808 6.69358 6.09823
#
# Compressibility (1/GPa) = 0.02720323
#
# Stress axis : x y z
#
# Youngs Moduli (GPa) = 73.52805 77.70167 44.77430
#
# Poissons Ratio (x) = 0.30872 0.06790
# Poissons Ratio (y) = 0.29214 0.23779
# Poissons Ratio (z) = 0.11151 0.41265
#
# Static dielectric constant tensor:
#      x y z
#    x 1.879600 -0.037180 -0.017040 
#    y -0.037180 1.872160 -0.011620 
#    z -0.017040 -0.011620 1.898670 
# 
# From -- ./inp_files/141106.got.cif
#   From: 2010.05.17/outbox.cif.g08.bks.cpg/sg2_71_cif.got.tgz:141106.got - 2010.06.03 11:33:40.
