data_PCOD9066164
_publ_section_title
;
Structure prediction by ZEFSAII (Michael W. Deem and Ramdas Pophale) SiO2 
 PCOD9066164
Probable space group: P -1
;
_chemical_formula_sum "Si O2"
_cell_formula_units_Z 12
_cell_length_a 14.497129
_cell_length_b 5.052336
_cell_length_c 7.776926
_cell_angle_alpha 113.353199
_cell_angle_beta 73.213084
_cell_angle_gamma 101.782928
_cell_volume 498.051850
_symmetry_space_group_name_H-M "P -1"
_symmetry_group_IT_number 2
_symmetry_cell_setting 'triclinic'
loop_
_space_group_symop_operation_xyz
x,y,z
-x,-y,-z
loop_
_atom_site_type_symbol
_atom_site_label
_atom_site_fract_x
_atom_site_fract_y
_atom_site_fract_z
Si Si1 0.095813 0.228976 0.483436
Si Si2 0.299767 0.684761 0.880136
Si Si3 0.501309 0.829378 0.636377
Si Si4 0.227854 0.020569 0.706097
Si Si5 0.025052 0.812799 0.775206
Si Si6 0.708747 0.071105 0.691030
O O1 0.076195 0.515025 0.674156
O O2 0.070681 0.287033 0.308296
O O3 0.203688 0.131912 0.393159
O O4 0.000000 0.000000 0.500000
O O5 0.405564 0.832561 0.804795
O O6 0.232137 0.872805 0.850930
O O7 0.281958 0.343761 0.757961
O O8 0.281460 0.713847 0.099498
O O9 0.500000 0.500000 0.500000
O O10 0.500000 0.000000 0.500000
O O11 0.599281 0.924033 0.711403
O O12 0.116911 0.024183 0.707942
O O13 0.276003 0.824512 0.488028
O O14 0.000000 0.000000 0.000000
#
# Coordination Sequence:
#
# PCOD9066164 Si02
#       6
#     2   2   2   2   2   2
#     4  11  25  45  69 108 145 197 250 309 378 442
#     4  12  27  47  76 114 143 207 250 305 390 454
#     4  12  25  49  76 108 151 196 250 317 380 452
#     4  12  26  47  75 110 153 193 257 311 375 449
#     4  11  26  45  74 105 152 200 254 310 378 454
#     4  12  26  48  78 103 160 190 255 317 379 447
#
# _framework density 24.093876999999999
#
# number of rings (size 3 to 8) (size 9 to 14) (size 15 to 20)
#    0.000    0.333    5.000    2.500    2.333    4.667 
#    0.000    3.333    0.000    0.000    0.000    0.000 
#    0.000    0.000    0.000    0.000    0.000    0.000 
#
# Total GULP energy -66972.874234 kJ/mol
# GULP energy per Si atom -5581.072853 kJ/mol
# Density = 2.403904 g / cm^3
# Si number density = 24.093877 Si / 1000 Ang^3
#
#
#
# Elastic Constant Matrix: (Units=GPa)
#
#
# Indices 1 2 3 4 5 6 
#
# 1 163.8442 22.2424 27.2976 15.6975 0.3143 23.5162
# 2 22.2424 104.8274 31.9806 12.1455 0.8102 4.5933
# 3 27.2976 31.9806 164.9196 10.2894 -0.5434 13.8495
# 4 15.6975 12.1455 10.2894 22.0706 1.3356 -9.7256
# 5 0.3143 0.8102 -0.5434 1.3356 34.2250 -3.1939
# 6 23.5162 4.5933 13.8495 -9.7256 -3.1939 36.8173
#
#
#
# Elastic Compliance Matrix: (Units=1/GPa)
#
#
# Indices 1 2 3 4 5 6 
#
# 1 0.008071 -0.000339 -0.000102 -0.008752 -0.000419 -0.007423
# 2 -0.000339 0.010858 -0.001494 -0.005982 -0.000247 -0.002178
# 3 -0.000102 -0.001494 0.006887 -0.003787 -0.000018 -0.003341
# 4 -0.008752 -0.005982 -0.003787 0.067919 -0.000091 0.025694
# 5 -0.000419 -0.000247 -0.000018 -0.000091 0.029496 0.002840
# 6 -0.007423 -0.002178 -0.003341 0.025694 0.002840 0.040464
#
#
# Mechanical properties :
#
#
# Convention : Reuss Voigt Hill
#
# Bulk Modulus (GPa) = 45.56781 66.29249 55.93015
# Shear Modulus (GPa) = 28.59090 42.09398 35.34244
#
# Velocity S-wave (km/s) = 3.44851 4.18435 3.83412
# Velocity P-wave (km/s) = 5.90000 7.13575 6.54710
#
# Compressibility (1/GPa) = 0.02194531
#
# Stress axis : x y z
#
# Youngs Moduli (GPa) = 123.89973 92.10108 145.20172
#
# Poissons Ratio (x) = 0.03121 0.01484
# Poissons Ratio (y) = 0.04198 0.21694
# Poissons Ratio (z) = 0.01267 0.13761
#
# Static dielectric constant tensor:
#      x y z
#    x 3.015560 -1.611530 0.914600 
#    y -1.611530 4.516660 -1.468500 
#    z 0.914600 -1.468500 2.660910 
# 
# From -- ./inp_files/288265.got.cif
#   From: 2010.05.17/outbox.cif.g08.bks.cpg/sg2_145_cif.got.tgz:288265.got - 2010.06.03 11:33:40.
