data_PCOD9066301
_publ_section_title
;
Structure prediction by ZEFSAII (Michael W. Deem and Ramdas Pophale) SiO2 
 PCOD9066301
Probable space group: P -1
;
_chemical_formula_sum "Si O2"
_cell_formula_units_Z 12
_cell_length_a 5.567254
_cell_length_b 12.882094
_cell_length_c 15.192161
_cell_angle_alpha 150.370253
_cell_angle_beta 101.517800
_cell_angle_gamma 86.812090
_cell_volume 511.934183
_symmetry_space_group_name_H-M "P -1"
_symmetry_group_IT_number 2
_symmetry_cell_setting 'triclinic'
loop_
_space_group_symop_operation_xyz
x,y,z
-x,-y,-z
loop_
_atom_site_type_symbol
_atom_site_label
_atom_site_fract_x
_atom_site_fract_y
_atom_site_fract_z
Si Si1 0.598130 0.586546 0.719185
Si Si2 0.424020 0.771800 0.694296
Si Si3 0.750165 0.585111 0.293076
Si Si4 0.086237 0.984140 0.709888
Si Si5 0.205873 0.377448 0.881112
Si Si6 0.112888 0.862682 0.031540
O O1 0.383698 0.687479 0.729460
O O2 0.634800 0.426765 0.525197
O O3 0.515426 0.440533 0.693170
O O4 0.841771 0.770618 0.899055
O O5 0.276426 0.934895 0.761148
O O6 0.714821 0.909019 0.818527
O O7 0.818845 0.655295 0.249953
O O8 0.942212 0.755647 0.492063
O O9 0.763619 0.337853 0.116883
O O10 0.187412 0.152364 0.764607
O O11 0.907108 0.097448 0.836703
O O12 0.500000 0.500000 0.000000
O O13 0.000000 0.500000 0.000000
#
# Coordination Sequence:
#
# PCOD9066301 Si02
#       6
#     2   2   2   2   2   2
#     4  11  25  45  73 109 149 199 254 311 378 455
#     4  11  25  45  73 109 149 199 254 311 378 455
#     4  12  26  47  74 109 147 197 251 316 382 456
#     4  12  26  47  74 109 147 197 251 316 382 456
#     4  12  27  50  81 115 151 201 257 319 388 462
#     4  12  23  45  72 104 150 191 255 302 380 456
#
# _framework density 23.440514
#
# number of rings (size 3 to 8) (size 9 to 14) (size 15 to 20)
#    0.000    0.333    5.000    4.000    0.000    4.667 
#    0.000    2.500    0.000    0.000    0.000    0.000 
#    0.000    0.000    0.000    0.000    0.000    0.000 
#
# Total GULP energy -66947.692625 kJ/mol
# GULP energy per Si atom -5578.974385 kJ/mol
# Density = 2.338716 g / cm^3
# Si number density = 23.440514 Si / 1000 Ang^3
#
#
#
# Elastic Constant Matrix: (Units=GPa)
#
#
# Indices 1 2 3 4 5 6 
#
# 1 66.3473 35.8737 53.2791 -25.3934 20.3395 5.4234
# 2 35.8737 164.8781 72.6790 -38.4278 7.3762 27.1373
# 3 53.2791 72.6790 192.2398 -37.1610 29.1808 8.4137
# 4 -25.3934 -38.4278 -37.1610 61.7375 -2.6856 -6.0159
# 5 20.3395 7.3762 29.1808 -2.6856 34.2170 0.8671
# 6 5.4234 27.1373 8.4137 -6.0159 0.8671 35.4625
#
#
#
# Elastic Compliance Matrix: (Units=1/GPa)
#
#
# Indices 1 2 3 4 5 6 
#
# 1 0.024484 -0.001912 -0.003136 0.006500 -0.010952 -0.000166
# 2 -0.001912 0.009045 -0.002299 0.002978 0.001524 -0.005616
# 3 -0.003136 -0.002299 0.007930 0.001943 -0.004270 0.000792
# 4 0.006500 0.002978 0.001943 0.021706 -0.004460 0.000057
# 5 -0.010952 0.001524 -0.004270 -0.004460 0.038703 -0.000181
# 6 -0.000166 -0.005616 0.000792 0.000057 -0.000181 0.032348
#
#
# Mechanical properties :
#
#
# Convention : Reuss Voigt Hill
#
# Bulk Modulus (GPa) = 37.36671 83.01433 60.19052
# Shear Modulus (GPa) = 31.67931 43.72563 37.70247
#
# Velocity S-wave (km/s) = 3.68023 4.32370 4.01488
# Velocity P-wave (km/s) = 5.83391 7.77288 6.87212
#
# Compressibility (1/GPa) = 0.02676179
#
# Stress axis : x y z
#
# Youngs Moduli (GPa) = 40.84370 110.55793 126.11112
#
# Poissons Ratio (x) = 0.21142 0.39554
# Poissons Ratio (y) = 0.07811 0.28998
# Poissons Ratio (z) = 0.12811 0.25422
#
# Static dielectric constant tensor:
#      x y z
#    x 2.096470 0.004030 -0.062780 
#    y 0.004030 2.045980 0.028550 
#    z -0.062780 0.028550 1.837880 
# 
# From -- ./inp_files/35336.got.cif
#   From: 2010.05.17/outbox.cif.g08.bks.cpg/sg2_18_cif.got.tgz:35336.got - 2010.06.03 11:33:40.
