data_PCOD9066069
_publ_section_title
;
Structure prediction by ZEFSAII (Michael W. Deem and Ramdas Pophale) SiO2 
 PCOD9066069
Probable space group: P -1
;
_chemical_formula_sum "Si O2"
_cell_formula_units_Z 16
_cell_length_a 19.301630
_cell_length_b 7.412575
_cell_length_c 11.552733
_cell_angle_alpha 74.416374
_cell_angle_beta 31.786149
_cell_angle_gamma 56.508954
_cell_volume 646.154930
_symmetry_space_group_name_H-M "P -1"
_symmetry_group_IT_number 2
_symmetry_cell_setting 'triclinic'
loop_
_space_group_symop_operation_xyz
x,y,z
-x,-y,-z
loop_
_atom_site_type_symbol
_atom_site_label
_atom_site_fract_x
_atom_site_fract_y
_atom_site_fract_z
Si Si1 0.420771 0.241724 0.347517
Si Si2 0.136770 0.426657 0.117761
Si Si3 0.668061 0.791027 0.904182
Si Si4 0.412934 0.334776 0.584576
Si Si5 0.513234 0.431130 0.861191
Si Si6 0.793356 0.927088 0.491090
Si Si7 0.024514 0.644700 0.844596
Si Si8 0.754741 0.119706 0.264440
O O1 0.410708 0.194724 0.504170
O O2 0.520233 0.350256 0.198707
O O3 0.223544 0.460330 0.558817
O O4 0.525364 0.032834 0.139729
O O5 0.170180 0.349222 0.216203
O O6 0.076452 0.318538 0.135341
O O7 0.992998 0.714299 0.255799
O O8 0.315256 0.340172 0.831943
O O9 0.713938 0.847852 0.708024
O O10 0.398894 0.358502 0.998629
O O11 0.601403 0.219227 0.375789
O O12 0.292736 0.625442 0.673882
O O13 0.708904 0.191844 0.610464
O O14 0.500000 0.500000 0.000000
O O15 0.746992 0.987826 0.409848
O O16 0.000000 0.500000 0.000000
O O17 0.934787 0.907113 0.984723
#
# Coordination Sequence:
#
# PCOD9066069 Si02
#       8
#     2   2   2   2   2   2   2   2
#     4  12  26  48  77 110 149 194 249 305 370 444
#     4  12  27  46  75 109 152 195 245 307 374 434
#     4  12  29  50  77 108 151 198 251 307 362 442
#     4  11  25  44  73 111 146 192 241 312 369 440
#     4  12  27  47  77 109 141 200 253 298 369 443
#     4  12  24  48  74 106 150 199 244 305 366 438
#     4  12  25  44  74 111 147 196 245 303 376 440
#     4  11  25  44  75 109 150 190 249 305 372 441
#
# _framework density 24.761866000000001
#
# number of rings (size 3 to 8) (size 9 to 14) (size 15 to 20)
#    0.000    0.250    5.000    3.000    7.000    2.000 
#    0.000    0.625    0.000    0.000    0.000    0.000 
#    0.000    0.000    0.000    0.000    0.000    0.000 
#
# Total GULP energy -89515.003575 kJ/mol
# GULP energy per Si atom -5594.687723 kJ/mol
# Density = 2.470551 g / cm^3
# Si number density = 24.761866 Si / 1000 Ang^3
#
#
#
# Elastic Constant Matrix: (Units=GPa)
#
#
# Indices 1 2 3 4 5 6 
#
# 1 142.2142 47.3405 47.1524 14.5897 18.7221 -20.2698
# 2 47.3405 109.8593 24.9491 0.2721 7.5298 -7.8982
# 3 47.1524 24.9491 150.3100 24.5051 16.4638 -1.8676
# 4 14.5897 0.2721 24.5051 45.0352 2.3468 -0.1403
# 5 18.7221 7.5298 16.4638 2.3468 42.2721 8.4878
# 6 -20.2698 -7.8982 -1.8676 -0.1403 8.4878 51.2106
#
#
#
# Elastic Compliance Matrix: (Units=1/GPa)
#
#
# Indices 1 2 3 4 5 6 
#
# 1 0.010030 -0.003360 -0.001785 -0.002045 -0.003842 0.004018
# 2 -0.003360 0.010805 -0.000966 0.001561 -0.000216 0.000342
# 3 -0.001785 -0.000966 0.008202 -0.003777 -0.001974 -0.000239
# 4 -0.002045 0.001561 -0.003777 0.024865 0.000876 -0.000783
# 5 -0.003842 -0.000216 -0.001974 0.000876 0.027353 -0.006157
# 6 0.004018 0.000342 -0.000239 -0.000783 -0.006157 0.022180
#
#
# Mechanical properties :
#
#
# Convention : Reuss Voigt Hill
#
# Bulk Modulus (GPa) = 59.46547 71.25192 65.35870
# Shear Modulus (GPa) = 41.23326 46.56635 43.89981
#
# Velocity S-wave (km/s) = 4.08510 4.34126 4.21513
# Velocity P-wave (km/s) = 6.80572 7.34615 7.08110
#
# Compressibility (1/GPa) = 0.01681648
#
# Stress axis : x y z
#
# Youngs Moduli (GPa) = 99.70127 92.54842 121.91930
#
# Poissons Ratio (x) = 0.31092 0.21758
# Poissons Ratio (y) = 0.33495 0.11780
# Poissons Ratio (z) = 0.17793 0.08942
#
# Static dielectric constant tensor:
#      x y z
#    x 1.952610 0.033850 -0.003720 
#    y 0.033850 2.081820 -0.013100 
#    z -0.003720 -0.013100 1.961980 
# 
# From -- ./inp_files/469356.got.cif
#   From: 2010.05.17/outbox.cif.g08.bks.cpg/sg2_235_cif.got.tgz:469356.got - 2010.06.03 11:33:40.
