data_PCOD9066545
_publ_section_title
;
Structure prediction by ZEFSAII (Michael W. Deem and Ramdas Pophale) SiO2 
 PCOD9066545
Probable space group: P -1
;
_chemical_formula_sum "Si O2"
_cell_formula_units_Z 13
_cell_length_a 9.377262
_cell_length_b 14.672958
_cell_length_c 13.525071
_cell_angle_alpha 19.615324
_cell_angle_beta 67.153115
_cell_angle_gamma 58.654376
_cell_volume 498.819713
_symmetry_space_group_name_H-M "P -1"
_symmetry_group_IT_number 2
_symmetry_cell_setting 'triclinic'
loop_
_space_group_symop_operation_xyz
x,y,z
-x,-y,-z
loop_
_atom_site_type_symbol
_atom_site_label
_atom_site_fract_x
_atom_site_fract_y
_atom_site_fract_z
Si Si1 0.500000 0.500000 0.500000
Si Si2 0.326748 0.483192 0.028429
Si Si3 0.464080 0.891009 0.296882
Si Si4 0.813544 0.674543 0.501083
Si Si5 0.135590 0.124780 0.522363
Si Si6 0.730773 0.449457 0.255175
Si Si7 0.880339 0.930879 0.028834
O O1 0.521205 0.721059 0.351283
O O2 0.718085 0.238253 0.714805
O O3 0.323176 0.449418 0.946345
O O4 0.172641 0.817080 0.768904
O O5 0.500000 0.500000 0.000000
O O6 0.275676 0.233758 0.339540
O O7 0.618728 0.710410 0.522210
O O8 0.299889 0.842903 0.422221
O O9 0.405690 0.258342 0.936690
O O10 0.834551 0.898569 0.343995
O O11 0.806459 0.779797 0.282454
O O12 0.986888 0.334493 0.811356
O O13 0.930071 0.370426 0.303946
O O14 0.000000 0.000000 0.000000
#
# Coordination Sequence:
#
# PCOD9066545 Si02
#       7
#     1   2   2   2   2   2   2
#     4  12  26  46  76 106 148 194 254 298 380 426
#     4  12  25  46  72 105 142 190 242 306 371 442
#     4  12  26  44  73 102 147 191 245 303 363 453
#     4  11  26  46  70 108 147 197 246 306 378 436
#     4  12  26  44  76 102 146 188 245 308 367 445
#     4  12  26  46  70 107 144 192 245 302 375 439
#     4  11  25  46  71 104 150 194 246 308 366 451
#
# _framework density 26.061519000000001
#
# number of rings (size 3 to 8) (size 9 to 14) (size 15 to 20)
#    0.000    0.308    1.538    6.923    4.308    2.462 
#    0.000    0.000    0.000    0.000    0.000    0.000 
#    0.000    0.000    0.000    0.000    0.000    0.000 
#
# Total GULP energy -72621.974001 kJ/mol
# GULP energy per Si atom -5586.305692 kJ/mol
# Density = 2.600220 g / cm^3
# Si number density = 26.061519 Si / 1000 Ang^3
#
#
#
# Elastic Constant Matrix: (Units=GPa)
#
#
# Indices 1 2 3 4 5 6 
#
# 1 171.8832 33.6033 21.0852 2.1126 19.7017 16.7252
# 2 33.6033 58.1652 20.7291 -22.9695 3.9021 24.5072
# 3 21.0852 20.7291 103.8783 -31.4096 5.6384 -1.4656
# 4 2.1126 -22.9695 -31.4096 52.2019 -8.5155 -6.4358
# 5 19.7017 3.9021 5.6384 -8.5155 55.9129 -2.4797
# 6 16.7252 24.5072 -1.4656 -6.4358 -2.4797 47.9923
#
#
#
# Elastic Compliance Matrix: (Units=1/GPa)
#
#
# Indices 1 2 3 4 5 6 
#
# 1 0.007373 -0.004652 -0.001602 -0.003868 -0.002741 -0.000903
# 2 -0.004652 0.029955 -0.001986 0.010804 0.000851 -0.012243
# 3 -0.001602 -0.001986 0.012532 0.007205 0.000668 0.002956
# 4 -0.003868 0.010804 0.007205 0.029130 0.004327 0.000181
# 5 -0.002741 0.000851 0.000668 0.004327 0.019477 0.002128
# 6 -0.000903 -0.012243 0.002956 0.000181 0.002128 0.027628
#
#
# Mechanical properties :
#
#
# Convention : Reuss Voigt Hill
#
# Bulk Modulus (GPa) = 29.95587 53.86244 41.90916
# Shear Modulus (GPa) = 32.53049 48.45536 40.49293
#
# Velocity S-wave (km/s) = 3.53685 4.31660 3.94603
# Velocity P-wave (km/s) = 5.31021 6.74954 6.07267
#
# Compressibility (1/GPa) = 0.03338244
#
# Stress axis : x y z
#
# Youngs Moduli (GPa) = 135.62198 33.38299 79.79562
#
# Poissons Ratio (x) = 0.15529 0.12782
# Poissons Ratio (y) = 0.63087 0.15845
# Poissons Ratio (z) = 0.21724 0.06629
#
# Static dielectric constant tensor:
#      x y z
#    x 2.046270 -0.181790 0.004940 
#    y -0.181790 2.166550 0.028030 
#    z 0.004940 0.028030 2.098210 
# 
# From -- ./inp_files/94710.got.cif
#   From: 2010.05.17/outbox.cif.g08.bks.cpg/sg2_48_cif.got.tgz:94710.got - 2010.06.03 11:33:40.
