data_PCOD9066108
_publ_section_title
;
Structure prediction by ZEFSAII (Michael W. Deem and Ramdas Pophale) SiO2 
 PCOD9066108
Probable space group: P -1
;
_chemical_formula_sum "Si O2"
_cell_formula_units_Z 15
_cell_length_a 24.603204
_cell_length_b 14.742210
_cell_length_c 6.202241
_cell_angle_alpha 53.462825
_cell_angle_beta 54.850264
_cell_angle_gamma 19.106568
_cell_volume 590.892858
_symmetry_space_group_name_H-M "P -1"
_symmetry_group_IT_number 2
_symmetry_cell_setting 'triclinic'
loop_
_space_group_symop_operation_xyz
x,y,z
-x,-y,-z
loop_
_atom_site_type_symbol
_atom_site_label
_atom_site_fract_x
_atom_site_fract_y
_atom_site_fract_z
Si Si1 0.007737 0.733349 0.518165
Si Si2 0.000000 0.000000 0.000000
Si Si3 0.284774 0.615286 0.229766
Si Si4 0.271231 0.882220 0.076132
Si Si5 0.158742 0.184120 0.512245
Si Si6 0.606531 0.663088 0.241512
Si Si7 0.371698 0.168972 0.363578
Si Si8 0.561048 0.223237 0.851359
O O1 0.199324 0.397806 0.535512
O O2 0.908809 0.827064 0.417748
O O3 0.913357 0.838118 0.797798
O O4 0.998363 0.881702 0.307188
O O5 0.860459 0.166584 0.916535
O O6 0.305810 0.707991 0.141746
O O7 0.260100 0.569789 0.550589
O O8 0.462910 0.311069 0.139598
O O9 0.394418 0.727247 0.208372
O O10 0.269548 0.978914 0.756111
O O11 0.000000 0.500000 0.500000
O O12 0.264114 0.080892 0.228503
O O13 0.560817 0.616997 0.294514
O O14 0.452261 0.961087 0.295374
O O15 0.668329 0.655025 0.933521
O O16 0.500000 0.000000 0.500000
#
# Coordination Sequence:
#
# PCOD9066108 Si02
#       8
#     2   1   2   2   2   2   2   2
#     4  11  26  45  73 108 147 194 250 307 381 451
#     4  12  26  50  72 106 154 198 250 310 378 442
#     4  12  27  48  74 109 150 200 254 310 378 447
#     4  11  27  47  72 109 148 197 248 313 379 446
#     4  11  25  47  73 107 149 196 248 311 378 449
#     4  11  25  44  76 109 146 195 251 312 376 445
#     4  11  25  48  72 110 151 194 252 310 374 456
#     4  11  25  46  75 106 143 193 250 307 372 450
#
# _framework density 25.385311999999999
#
# number of rings (size 3 to 8) (size 9 to 14) (size 15 to 20)
#    0.000    0.800    1.333    4.400    3.733   10.133 
#    2.400    0.000    0.000    0.000    0.000    0.000 
#    0.000    0.000    0.000    0.000    0.000    0.000 
#
# Total GULP energy -83664.594272 kJ/mol
# GULP energy per Si atom -5577.639618 kJ/mol
# Density = 2.532753 g / cm^3
# Si number density = 25.385312 Si / 1000 Ang^3
#
#
#
# Elastic Constant Matrix: (Units=GPa)
#
#
# Indices 1 2 3 4 5 6 
#
# 1 153.3476 31.0558 34.6119 3.1793 15.8569 -7.6807
# 2 31.0558 82.0997 49.6924 29.5348 24.3455 -9.3951
# 3 34.6119 49.6924 124.5570 3.9420 12.2953 -1.1438
# 4 3.1793 29.5348 3.9420 46.1626 0.8403 7.3874
# 5 15.8569 24.3455 12.2953 0.8403 28.5915 -7.0106
# 6 -7.6807 -9.3951 -1.1438 7.3874 -7.0106 39.4543
#
#
#
# Elastic Compliance Matrix: (Units=1/GPa)
#
#
# Indices 1 2 3 4 5 6 
#
# 1 0.007345 -0.001530 -0.001233 0.000528 -0.002120 0.000554
# 2 -0.001530 0.033809 -0.010238 -0.021510 -0.021004 0.007751
# 3 -0.001233 -0.010238 0.011903 0.006013 0.003406 -0.002853
# 4 0.000528 -0.021510 0.006013 0.036172 0.012050 -0.009476
# 5 -0.002120 -0.021004 0.003406 0.012050 0.052655 0.001784
# 6 0.000554 0.007751 -0.002853 -0.009476 0.001784 0.029308
#
#
# Mechanical properties :
#
#
# Convention : Reuss Voigt Hill
#
# Bulk Modulus (GPa) = 36.96106 65.63604 51.29855
# Shear Modulus (GPa) = 24.24684 39.15131 31.69907
#
# Velocity S-wave (km/s) = 3.09391 3.93145 3.53755
# Velocity P-wave (km/s) = 5.23017 6.82059 6.07763
#
# Compressibility (1/GPa) = 0.02705550
#
# Stress axis : x y z
#
# Youngs Moduli (GPa) = 136.14034 29.57771 84.01436
#
# Poissons Ratio (x) = 0.04526 0.10359
# Poissons Ratio (y) = 0.20831 0.86012
# Poissons Ratio (z) = 0.16786 0.30281
#
# Static dielectric constant tensor:
#      x y z
#    x 1.974160 0.054470 -0.010650 
#    y 0.054470 2.007470 0.022030 
#    z -0.010650 0.022030 1.953670 
# 
# From -- ./inp_files/124126.got.cif
#   From: 2010.05.17/outbox.cif.g08.bks.cpg/sg2_63_cif.got.tgz:124126.got - 2010.06.03 11:33:40.
