data_PCOD9066044
_publ_section_title
;
Structure prediction by ZEFSAII (Michael W. Deem and Ramdas Pophale) SiO2 
 PCOD9066044
Probable space group: P -1
;
_chemical_formula_sum "Si O2"
_cell_formula_units_Z 16
_cell_length_a 8.293919
_cell_length_b 9.493642
_cell_length_c 10.924142
_cell_angle_alpha 102.352613
_cell_angle_beta 94.878028
_cell_angle_gamma 47.121824
_cell_volume 613.530499
_symmetry_space_group_name_H-M "P -1"
_symmetry_group_IT_number 2
_symmetry_cell_setting 'triclinic'
loop_
_space_group_symop_operation_xyz
x,y,z
-x,-y,-z
loop_
_atom_site_type_symbol
_atom_site_label
_atom_site_fract_x
_atom_site_fract_y
_atom_site_fract_z
Si Si1 0.789959 0.848582 0.427412
Si Si2 0.532045 0.250268 0.396144
Si Si3 0.946395 0.221645 0.804086
Si Si4 0.262760 0.421649 0.754213
Si Si5 0.151289 0.250201 0.052850
Si Si6 0.467567 0.320730 0.124714
Si Si7 0.176502 0.656658 0.567995
Si Si8 0.288453 0.882306 0.124815
O O1 0.777443 0.692424 0.354720
O O2 0.949999 0.823253 0.329840
O O3 0.917380 0.797853 0.552586
O O4 0.571829 0.076074 0.435184
O O5 0.544646 0.229961 0.247485
O O6 0.299986 0.462455 0.455933
O O7 0.716981 0.255835 0.445899
O O8 0.707211 0.443972 0.833587
O O9 0.908818 0.080333 0.814313
O O10 0.094406 0.211837 0.913165
O O11 0.247736 0.570167 0.693409
O O12 0.496972 0.260431 0.803318
O O13 0.069790 0.549705 0.865456
O O14 0.332927 0.263481 0.056533
O O15 0.232699 0.077136 0.118064
O O16 0.654779 0.235991 0.020745
#
# Coordination Sequence:
#
# PCOD9066044 Si02
#       8
#     2   2   2   2   2   2   2   2
#     4  12  25  46  70  98 132 177 221 273 332 387
#     4  11  25  44  72  98 131 174 221 276 331 388
#     4  12  24  43  70  99 137 174 218 271 331 392
#     4  12  26  44  70  98 135 176 218 274 329 392
#     4  12  25  44  67 102 138 173 217 270 329 399
#     4  12  22  46  70  95 139 176 214 273 331 392
#     4  11  26  45  69  98 132 172 226 277 328 383
#     4  12  27  41  69 103 134 176 219 267 331 398
#
# _framework density 26.078574
#
# number of rings (size 3 to 8) (size 9 to 14) (size 15 to 20)
#    0.000    0.250    3.750    5.250    5.250    1.500 
#    0.000    0.000    0.000    0.000    0.000    0.000 
#    0.000    0.000    0.000    0.000    0.000    0.000 
#
# Total GULP energy -89903.124716 kJ/mol
# GULP energy per Si atom -5618.945295 kJ/mol
# Density = 2.601922 g / cm^3
# Si number density = 26.078574 Si / 1000 Ang^3
#
#
#
# Elastic Constant Matrix: (Units=GPa)
#
#
# Indices 1 2 3 4 5 6 
#
# 1 56.3876 15.0922 10.2549 -0.5740 3.0316 4.0887
# 2 15.0922 118.9577 15.1774 -14.4281 16.0741 11.5721
# 3 10.2549 15.1774 93.2895 -19.9426 7.9671 -12.1209
# 4 -0.5740 -14.4281 -19.9426 45.5071 -13.1207 -2.1281
# 5 3.0316 16.0741 7.9671 -13.1207 46.8863 -7.4188
# 6 4.0887 11.5721 -12.1209 -2.1281 -7.4188 43.8262
#
#
#
# Elastic Compliance Matrix: (Units=1/GPa)
#
#
# Indices 1 2 3 4 5 6 
#
# 1 0.018877 -0.001973 -0.002331 -0.001794 -0.000988 -0.002139
# 2 -0.001973 0.009714 -0.001191 0.001497 -0.003081 -0.003159
# 3 -0.002331 -0.001191 0.012903 0.005647 0.000656 0.004486
# 4 -0.001794 0.001497 0.005647 0.027043 0.006812 0.003800
# 5 -0.000988 -0.003081 0.000656 0.006812 0.025141 0.005674
# 6 -0.002139 -0.003159 0.004486 0.003800 0.005674 0.026237
#
#
# Mechanical properties :
#
#
# Convention : Reuss Voigt Hill
#
# Bulk Modulus (GPa) = 32.78345 38.85377 35.81861
# Shear Modulus (GPa) = 35.44282 42.45127 38.94705
#
# Velocity S-wave (km/s) = 3.69057 4.03900 3.86871
# Velocity P-wave (km/s) = 5.54605 6.05661 5.80694
#
# Compressibility (1/GPa) = 0.03050320
#
# Stress axis : x y z
#
# Youngs Moduli (GPa) = 52.97589 102.94568 77.50051
#
# Poissons Ratio (x) = 0.20316 0.18065
# Poissons Ratio (y) = 0.10454 0.09228
# Poissons Ratio (z) = 0.12349 0.12258
#
# Static dielectric constant tensor:
#      x y z
#    x 1.998480 -0.028820 -0.018330 
#    y -0.028820 2.042210 0.008200 
#    z -0.018330 0.008200 1.991030 
# 
# From -- ./inp_files/188879.got.cif
#   From: 2010.05.17/outbox.cif.g08.bks.cpg/sg2_95_cif.got.tgz:188879.got - 2010.06.03 11:33:40.
