data_PCOD9066143
_publ_section_title
;
Structure prediction by ZEFSAII (Michael W. Deem and Ramdas Pophale) SiO2 
 PCOD9066143
Probable space group: P -1
;
_chemical_formula_sum "Si O2"
_cell_formula_units_Z 14
_cell_length_a 28.061140
_cell_length_b 15.899159
_cell_length_c 16.394319
_cell_angle_alpha 161.890219
_cell_angle_beta 18.867017
_cell_angle_gamma 159.425847
_cell_volume 684.101883
_symmetry_space_group_name_H-M "P -1"
_symmetry_group_IT_number 2
_symmetry_cell_setting 'triclinic'
loop_
_space_group_symop_operation_xyz
x,y,z
-x,-y,-z
loop_
_atom_site_type_symbol
_atom_site_label
_atom_site_fract_x
_atom_site_fract_y
_atom_site_fract_z
Si Si1 0.368743 0.683969 0.140808
Si Si2 0.188846 0.122976 0.806241
Si Si3 0.704191 0.039449 0.838183
Si Si4 0.459802 0.739730 0.229917
Si Si5 0.766988 0.159378 0.180958
Si Si6 0.317349 0.380443 0.661937
Si Si7 0.972479 0.834072 0.476589
O O1 0.401521 0.635315 0.137531
O O2 0.261367 0.878373 0.483122
O O3 0.276493 0.384785 0.967772
O O4 0.538366 0.862626 0.988598
O O5 0.229397 0.245347 0.762195
O O6 0.000000 0.000000 0.000000
O O7 0.855060 0.100540 0.706729
O O8 0.716298 0.854620 0.570587
O O9 0.714060 0.347811 0.072793
O O10 0.329563 0.837840 0.577179
O O11 0.623836 0.019297 0.219382
O O12 0.500000 0.500000 0.000000
O O13 0.877235 0.494173 0.300287
O O14 0.872401 0.960988 0.816921
O O15 0.500000 0.500000 0.500000
O O16 0.000000 0.000000 0.500000
#
# Coordination Sequence:
#
# PCOD9066143 Si02
#       7
#     2   2   2   2   2   2   2
#     4  12  26  46  75 103 137 186 246 278 369 426
#     4  12  28  47  72 107 142 181 232 314 351 422
#     4  12  25  43  77 103 133 201 228 291 358 430
#     4  11  26  47  76 100 147 193 237 294 354 441
#     4  11  25  45  68 101 145 191 228 287 364 406
#     4  12  23  48  73 100 143 178 246 291 357 424
#     4  12  26  45  69 107 151 177 239 300 347 427
#
# _framework density 20.464789
#
# number of rings (size 3 to 8) (size 9 to 14) (size 15 to 20)
#    0.000    0.286    4.286    3.857    4.000    4.571 
#    0.000    0.000    0.000    0.000    0.000    0.000 
#    0.000    0.000    0.000    0.000    0.000    0.000 
#
# Total GULP energy -78326.141244 kJ/mol
# GULP energy per Si atom -5594.724375 kJ/mol
# Density = 2.041821 g / cm^3
# Si number density = 20.464789 Si / 1000 Ang^3
#
#
#
# Elastic Constant Matrix: (Units=GPa)
#
#
# Indices 1 2 3 4 5 6 
#
# 1 172.6406 56.8251 65.5020 -4.6645 -4.0971 3.9881
# 2 56.8251 124.9356 51.9193 -9.0987 -9.3997 19.2168
# 3 65.5020 51.9193 137.9814 5.6589 -5.2415 7.6419
# 4 -4.6645 -9.0987 5.6589 55.6410 6.4291 2.0985
# 5 -4.0971 -9.3997 -5.2415 6.4291 32.0873 -6.0439
# 6 3.9881 19.2168 7.6419 2.0985 -6.0439 28.9973
#
#
#
# Elastic Compliance Matrix: (Units=1/GPa)
#
#
# Indices 1 2 3 4 5 6 
#
# 1 0.007651 -0.002489 -0.002789 0.000477 -0.000061 0.001285
# 2 -0.002489 0.011549 -0.002854 0.002106 0.000950 -0.006513
# 3 -0.002789 -0.002854 0.009747 -0.001779 0.000755 -0.000008
# 4 0.000477 0.002106 -0.001779 0.019127 -0.004052 -0.003221
# 5 -0.000061 0.000950 0.000755 -0.004052 0.033590 0.006474
# 6 0.001285 -0.006513 -0.000008 -0.003221 0.006474 0.040210
#
#
# Mechanical properties :
#
#
# Convention : Reuss Voigt Hill
#
# Bulk Modulus (GPa) = 78.83388 87.11672 82.97530
# Shear Modulus (GPa) = 35.12087 40.76588 37.94338
#
# Velocity S-wave (km/s) = 4.14715 4.46803 4.31058
# Velocity P-wave (km/s) = 7.84456 8.32341 8.08753
#
# Compressibility (1/GPa) = 0.01268490
#
# Stress axis : x y z
#
# Youngs Moduli (GPa) = 130.69498 86.59019 102.59473
#
# Poissons Ratio (x) = 0.21549 0.28612
# Poissons Ratio (y) = 0.32525 0.29277
# Poissons Ratio (z) = 0.36449 0.24710
#
# Static dielectric constant tensor:
#      x y z
#    x 1.665990 -0.008660 0.014430 
#    y -0.008660 1.700400 0.008220 
#    z 0.014430 0.008220 1.714540 
# 
# From -- ./inp_files/362874.got.cif
#   From: 2010.05.17/outbox.cif.g08.bks.cpg/sg2_182_cif.got.tgz:362874.got - 2010.06.03 11:33:40.
