data_PCOD9066805
_publ_section_title
;
Structure prediction by ZEFSAII (Michael W. Deem and Ramdas Pophale) SiO2 
 PCOD9066805
Probable space group: P -1
;
_chemical_formula_sum "Si O2"
_cell_formula_units_Z 12
_cell_length_a 12.030852
_cell_length_b 16.155921
_cell_length_c 5.773444
_cell_angle_alpha 124.924467
_cell_angle_beta 71.514501
_cell_angle_gamma 144.127926
_cell_volume 513.348978
_symmetry_space_group_name_H-M "P -1"
_symmetry_group_IT_number 2
_symmetry_cell_setting 'triclinic'
loop_
_space_group_symop_operation_xyz
x,y,z
-x,-y,-z
loop_
_atom_site_type_symbol
_atom_site_label
_atom_site_fract_x
_atom_site_fract_y
_atom_site_fract_z
Si Si1 0.810218 0.932256 0.606330
Si Si2 0.935301 0.497399 0.291945
Si Si3 0.414794 0.874470 0.065483
Si Si4 0.483109 0.545091 0.333561
Si Si5 0.758371 0.059314 0.502181
Si Si6 0.967111 0.746604 0.721543
O O1 0.651178 0.748814 0.540094
O O2 0.695794 0.917517 0.461615
O O3 0.000000 0.000000 0.500000
O O4 0.903547 0.086206 0.947318
O O5 0.024633 0.670843 0.531821
O O6 0.000000 0.500000 0.500000
O O7 0.699312 0.311128 0.171644
O O8 0.000000 0.500000 0.000000
O O9 0.245127 0.837375 0.195353
O O10 0.593824 0.971826 0.276899
O O11 0.500000 0.000000 0.000000
O O12 0.500000 0.500000 0.500000
O O13 0.251782 0.413132 0.289301
O O14 0.500000 0.500000 0.000000
O O15 0.978073 0.181439 0.460964
#
# Coordination Sequence:
#
# PCOD9066805 Si02
#       6
#     2   2   2   2   2   2
#     4  12  27  51  79 114 162 210 272 339 404 482
#     4  12  27  48  74 114 160 206 265 329 398 485
#     4  11  25  47  73 115 159 210 270 329 403 485
#     4  12  30  53  80 117 156 213 275 335 404 479
#     4  11  25  46  77 110 158 212 264 330 412 471
#     4  12  28  48  77 113 159 209 268 327 411 477
#
# _framework density 23.375912
#
# number of rings (size 3 to 8) (size 9 to 14) (size 15 to 20)
#    0.000    0.333    3.333    4.000    9.333    1.333 
#    0.000    0.000    0.000    0.000    0.000    0.000 
#    0.000    0.000    0.000    0.000    0.000    0.000 
#
# Total GULP energy -66814.170495 kJ/mol
# GULP energy per Si atom -5567.847541 kJ/mol
# Density = 2.332271 g / cm^3
# Si number density = 23.375912 Si / 1000 Ang^3
#
#
#
# Elastic Constant Matrix: (Units=GPa)
#
#
# Indices 1 2 3 4 5 6 
#
# 1 89.9252 60.9430 50.1330 -10.8273 -7.2693 -18.9421
# 2 60.9430 221.3242 78.0680 18.7525 -5.2271 -10.1731
# 3 50.1330 78.0680 162.5249 11.8029 -13.1173 -2.0591
# 4 -10.8273 18.7525 11.8029 60.4146 2.6681 -4.3273
# 5 -7.2693 -5.2271 -13.1173 2.6681 27.4220 -3.4407
# 6 -18.9421 -10.1731 -2.0591 -4.3273 -3.4407 54.8501
#
#
#
# Elastic Compliance Matrix: (Units=1/GPa)
#
#
# Indices 1 2 3 4 5 6 
#
# 1 0.017867 -0.003687 -0.003865 0.005420 0.002400 0.005920
# 2 -0.003687 0.006326 -0.001776 -0.002284 -0.000446 -0.000375
# 3 -0.003865 -0.001776 0.008551 -0.002029 0.002758 -0.001330
# 4 0.005420 -0.002284 -0.002029 0.018892 -0.001460 0.002771
# 5 0.002400 -0.000446 0.002758 -0.001460 0.038878 0.003173
# 6 0.005920 -0.000375 -0.001330 0.002771 0.003173 0.020574
#
#
# Mechanical properties :
#
#
# Convention : Reuss Voigt Hill
#
# Bulk Modulus (GPa) = 70.98273 94.67357 82.82815
# Shear Modulus (GPa) = 37.19100 47.51270 42.35185
#
# Velocity S-wave (km/s) = 3.99306 4.51327 4.26111
# Velocity P-wave (km/s) = 7.18965 8.23091 7.72784
#
# Compressibility (1/GPa) = 0.01408793
#
# Stress axis : x y z
#
# Youngs Moduli (GPa) = 55.96782 158.08404 116.93920
#
# Poissons Ratio (x) = 0.58284 0.45201
# Poissons Ratio (y) = 0.20635 0.20770
# Poissons Ratio (z) = 0.21633 0.28077
#
# Static dielectric constant tensor:
#      x y z
#    x 1.939650 0.034500 -0.052490 
#    y 0.034500 2.103250 -0.036190 
#    z -0.052490 -0.036190 1.972460 
# 
# From -- ./inp_files/78752.got.cif
#   From: 2010.05.17/outbox.cif.g08.bks.cpg/sg2_40_cif.got.tgz:78752.got - 2010.06.03 11:33:40.
