data_PCOD9066244
_publ_section_title
;
Structure prediction by ZEFSAII (Michael W. Deem and Ramdas Pophale) SiO2 
 PCOD9066244
Probable space group: P -1
;
_chemical_formula_sum "Si O2"
_cell_formula_units_Z 14
_cell_length_a 5.012579
_cell_length_b 12.021343
_cell_length_c 10.287096
_cell_angle_alpha 66.214458
_cell_angle_beta 90.506204
_cell_angle_gamma 98.050436
_cell_volume 560.860427
_symmetry_space_group_name_H-M "P -1"
_symmetry_group_IT_number 2
_symmetry_cell_setting 'triclinic'
loop_
_space_group_symop_operation_xyz
x,y,z
-x,-y,-z
loop_
_atom_site_type_symbol
_atom_site_label
_atom_site_fract_x
_atom_site_fract_y
_atom_site_fract_z
Si Si1 0.565289 0.764906 0.392862
Si Si2 0.647789 0.252617 0.312808
Si Si3 0.899102 0.107415 0.761967
Si Si4 0.091778 0.164082 0.213383
Si Si5 0.782634 0.452734 0.634568
Si Si6 0.063883 0.271911 0.901520
Si Si7 0.539437 0.500850 0.156107
O O1 0.461590 0.775236 0.531585
O O2 0.883989 0.803371 0.366024
O O3 0.467856 0.627944 0.403648
O O4 0.399347 0.855913 0.268101
O O5 0.392007 0.218908 0.232222
O O6 0.736797 0.399385 0.227688
O O7 0.881558 0.173066 0.322323
O O8 0.025752 0.142967 0.887383
O O9 0.902624 0.970970 0.777537
O O10 0.979918 0.244952 0.061317
O O11 0.679048 0.535423 0.710753
O O12 0.000000 0.500000 0.500000
O O13 0.909705 0.355226 0.770321
O O14 0.350277 0.357642 0.876576
O O15 0.500000 0.500000 0.000000
#
# Coordination Sequence:
#
# PCOD9066244 Si02
#       7
#     2   2   2   2   2   2   2
#     4  11  25  46  71 109 141 190 242 302 358 440
#     4  12  28  43  74 106 147 190 243 294 379 428
#     4  11  25  47  74 101 144 190 249 298 360 425
#     4  12  27  47  71 106 144 198 239 305 355 441
#     4  11  26  44  75 109 148 195 240 304 372 442
#     4  11  25  45  72 106 142 189 248 297 369 430
#     4  12  25  45  74 107 149 189 238 305 372 442
#
# _framework density 24.961649999999999
#
# number of rings (size 3 to 8) (size 9 to 14) (size 15 to 20)
#    0.000    0.571    2.857    3.857    8.000    5.714 
#    0.000    3.571    0.000    0.000    0.000    0.000 
#    0.000    0.000    0.000    0.000    0.000    0.000 
#
# Total GULP energy -78258.003333 kJ/mol
# GULP energy per Si atom -5589.857381 kJ/mol
# Density = 2.490484 g / cm^3
# Si number density = 24.961650 Si / 1000 Ang^3
#
#
#
# Elastic Constant Matrix: (Units=GPa)
#
#
# Indices 1 2 3 4 5 6 
#
# 1 91.4347 36.1187 14.2077 16.6568 1.0360 -5.3395
# 2 36.1187 116.0686 21.7084 20.6217 1.6169 -5.4602
# 3 14.2077 21.7084 88.0414 25.0439 -1.4792 11.7986
# 4 16.6568 20.6217 25.0439 29.0638 -8.7099 -1.6509
# 5 1.0360 1.6169 -1.4792 -8.7099 26.1264 7.8987
# 6 -5.3395 -5.4602 11.7986 -1.6509 7.8987 37.5253
#
#
#
# Elastic Compliance Matrix: (Units=1/GPa)
#
#
# Indices 1 2 3 4 5 6 
#
# 1 0.013396 -0.002901 0.000121 -0.006540 -0.003071 0.001805
# 2 -0.002901 0.010908 -0.000717 -0.006333 -0.003258 0.001807
# 3 0.000121 -0.000717 0.016370 -0.014659 -0.002289 -0.005397
# 4 -0.006540 -0.006333 -0.014659 0.061309 0.019876 0.001270
# 5 -0.003071 -0.003258 -0.002289 0.019876 0.047940 -0.009408
# 6 0.001805 0.001807 -0.005397 0.001270 -0.009408 0.030902
#
#
# Mechanical properties :
#
#
# Convention : Reuss Voigt Hill
#
# Bulk Modulus (GPa) = 29.69219 48.84601 39.26910
# Shear Modulus (GPa) = 25.11981 33.44377 29.28179
#
# Velocity S-wave (km/s) = 3.17572 3.66431 3.42873
# Velocity P-wave (km/s) = 5.03665 6.12485 5.60721
#
# Compressibility (1/GPa) = 0.03367889
#
# Stress axis : x y z
#
# Youngs Moduli (GPa) = 74.65035 91.67507 61.08620
#
# Poissons Ratio (x) = 0.26599 -0.00737
# Poissons Ratio (y) = 0.21659 0.04379
# Poissons Ratio (z) = -0.00901 0.06572
#
# Static dielectric constant tensor:
#      x y z
#    x 1.990230 -0.002740 0.015070 
#    y -0.002740 2.013840 -0.001040 
#    z 0.015070 -0.001040 1.995410 
# 
# From -- ./inp_files/31302.got.cif
#   From: 2010.05.17/outbox.cif.g08.bks.cpg/sg2_16_cif.got.tgz:31302.got - 2010.06.03 11:33:40.
