data_PCOD9066643
_publ_section_title
;
Structure prediction by ZEFSAII (Michael W. Deem and Ramdas Pophale) SiO2 
 PCOD9066643
Probable space group: P -1
;
_chemical_formula_sum "Si O2"
_cell_formula_units_Z 16
_cell_length_a 12.223873
_cell_length_b 17.058969
_cell_length_c 10.913256
_cell_angle_alpha 34.166835
_cell_angle_beta 125.987205
_cell_angle_gamma 147.423314
_cell_volume 641.320145
_symmetry_space_group_name_H-M "P -1"
_symmetry_group_IT_number 2
_symmetry_cell_setting 'triclinic'
loop_
_space_group_symop_operation_xyz
x,y,z
-x,-y,-z
loop_
_atom_site_type_symbol
_atom_site_label
_atom_site_fract_x
_atom_site_fract_y
_atom_site_fract_z
Si Si1 0.634901 0.791838 0.920589
Si Si2 0.299949 0.439444 0.586737
Si Si3 0.219081 0.074046 0.699569
Si Si4 0.900228 0.286288 0.083309
Si Si5 0.956330 0.795850 0.512996
Si Si6 0.709140 0.378865 0.247846
Si Si7 0.547948 0.991396 0.771078
Si Si8 0.977796 0.263975 0.797818
O O1 0.425537 0.613780 0.923566
O O2 0.586984 0.884031 0.857983
O O3 0.673689 0.687021 0.162875
O O4 0.839678 0.990170 0.711675
O O5 0.521659 0.702314 0.414568
O O6 0.245683 0.383378 0.480876
O O7 0.091179 0.338928 0.645299
O O8 0.113054 0.138520 0.523089
O O9 0.155481 0.896671 0.797781
O O10 0.123733 0.956135 0.922982
O O11 0.983861 0.294016 0.257153
O O12 0.679334 0.193666 0.069196
O O13 0.099287 0.521926 0.841718
O O14 0.548684 0.126068 0.508915
O O15 0.832460 0.536789 0.243047
O O16 0.763073 0.185148 0.746492
#
# Coordination Sequence:
#
# PCOD9066643 Si02
#       8
#     2   2   2   2   2   2   2   2
#     4  12  25  45  72 103 141 182 231 283 346 413
#     4  12  25  46  73 105 137 185 226 289 355 400
#     4  11  25  46  73 104 139 178 232 288 348 410
#     4  11  27  47  70 105 141 182 232 286 341 414
#     4  12  23  46  71 103 143 179 228 289 343 412
#     4  11  26  46  71 104 137 189 228 281 350 405
#     4  12  25  48  69 100 145 184 233 283 339 412
#     4  11  25  46  73 103 140 179 237 286 339 416
#
# _framework density 24.948537999999999
#
# number of rings (size 3 to 8) (size 9 to 14) (size 15 to 20)
#    0.000    0.500    3.750    4.125    0.000    6.000 
#    2.250    0.000    0.000    0.000    0.000    0.000 
#    0.000    0.000    0.000    0.000    0.000    0.000 
#
# Total GULP energy -89720.944705 kJ/mol
# GULP energy per Si atom -5607.559044 kJ/mol
# Density = 2.489175 g / cm^3
# Si number density = 24.948538 Si / 1000 Ang^3
#
#
#
# Elastic Constant Matrix: (Units=GPa)
#
#
# Indices 1 2 3 4 5 6 
#
# 1 72.0389 23.4603 -7.0241 -5.0123 -17.4950 11.2614
# 2 23.4603 123.4355 -10.2528 2.2744 1.4324 -4.1024
# 3 -7.0241 -10.2528 54.7578 -15.5468 -12.4413 -4.5965
# 4 -5.0123 2.2744 -15.5468 33.6569 12.8429 -8.6180
# 5 -17.4950 1.4324 -12.4413 12.8429 32.0153 -5.3837
# 6 11.2614 -4.1024 -4.5965 -8.6180 -5.3837 39.2532
#
#
#
# Elastic Compliance Matrix: (Units=1/GPa)
#
#
# Indices 1 2 3 4 5 6 
#
# 1 0.018747 -0.003491 0.003885 -0.000541 0.011483 -0.003832
# 2 -0.003491 0.008936 0.001154 0.000584 -0.001764 0.001957
# 3 0.003885 0.001154 0.024073 0.009731 0.008382 0.005111
# 4 -0.000541 0.000584 0.009731 0.040664 -0.011386 0.008722
# 5 0.011483 -0.001764 0.008382 -0.011386 0.045626 0.001261
# 6 -0.003832 0.001957 0.005111 0.008722 0.001261 0.029466
#
#
# Mechanical properties :
#
#
# Convention : Reuss Voigt Hill
#
# Bulk Modulus (GPa) = 18.23072 29.17768 23.70420
# Shear Modulus (GPa) = 27.36736 37.25497 32.31117
#
# Velocity S-wave (km/s) = 3.31562 3.86848 3.60267
# Velocity P-wave (km/s) = 4.68839 5.62797 5.17953
#
# Compressibility (1/GPa) = 0.05485247
#
# Stress axis : x y z
#
# Youngs Moduli (GPa) = 53.34116 111.91238 41.54039
#
# Poissons Ratio (x) = 0.39070 -0.16138
# Poissons Ratio (y) = 0.18622 -0.04796
# Poissons Ratio (z) = -0.20723 -0.12920
#
# Static dielectric constant tensor:
#      x y z
#    x 1.981070 -0.019420 0.029300 
#    y -0.019420 1.993960 0.023550 
#    z 0.029300 0.023550 1.953490 
# 
# From -- ./inp_files/436549.got.cif
#   From: 2010.05.17/outbox.cif.g08.bks.cpg/sg2_219_cif.got.tgz:436549.got - 2010.06.03 11:33:40.
