data_PCOD9066782
_publ_section_title
;
Structure prediction by ZEFSAII (Michael W. Deem and Ramdas Pophale) SiO2 
 PCOD9066782
Probable space group: P -1
;
_chemical_formula_sum "Si O2"
_cell_formula_units_Z 10
_cell_length_a 12.391974
_cell_length_b 15.054248
_cell_length_c 7.308734
_cell_angle_alpha 47.788538
_cell_angle_beta 46.190705
_cell_angle_gamma 26.562974
_cell_volume 434.095388
_symmetry_space_group_name_H-M "P -1"
_symmetry_group_IT_number 2
_symmetry_cell_setting 'triclinic'
loop_
_space_group_symop_operation_xyz
x,y,z
-x,-y,-z
loop_
_atom_site_type_symbol
_atom_site_label
_atom_site_fract_x
_atom_site_fract_y
_atom_site_fract_z
Si Si1 0.213132 0.926970 0.970162
Si Si2 0.500887 0.365082 0.266211
Si Si3 0.762543 0.910837 0.996432
Si Si4 0.754593 0.270503 0.457660
Si Si5 0.251097 0.332967 0.817900
O O1 0.446162 0.755585 0.799779
O O2 0.225123 0.842175 0.256757
O O3 0.190583 0.074932 0.870176
O O4 0.000000 0.000000 0.000000
O O5 0.709226 0.242663 0.350278
O O6 0.282465 0.440833 0.531200
O O7 0.500000 0.500000 0.000000
O O8 0.999455 0.805876 0.743416
O O9 0.500000 0.137595 0.916719
O O10 0.758218 0.771466 0.168427
O O11 0.500000 0.500000 0.500000
O O12 0.000000 0.500000 0.000000
#
# Coordination Sequence:
#
# PCOD9066782 Si02
#       5
#     2   2   2   2   2
#     4  12  24  42  76 113 149 192 257 320 372 449
#     4  12  25  45  75 114 145 202 260 307 379 458
#     4  11  25  46  76 110 151 205 249 312 389 448
#     4  12  23  45  76 108 155 197 253 320 375 447
#     4  11  26  50  76 108 160 203 247 316 390 452
#
# _framework density 23.036411000000001
#
# number of rings (size 3 to 8) (size 9 to 14) (size 15 to 20)
#    0.000    0.400    6.000    3.000    0.000    0.800 
#    0.000    4.000    0.000    0.000    0.000    0.000 
#    0.000    0.000    0.000    0.000    0.000    0.000 
#
# Total GULP energy -55850.369631 kJ/mol
# GULP energy per Si atom -5585.036963 kJ/mol
# Density = 2.298398 g / cm^3
# Si number density = 23.036411 Si / 1000 Ang^3
#
#
#
# Elastic Constant Matrix: (Units=GPa)
#
#
# Indices 1 2 3 4 5 6 
#
# 1 164.8345 41.6038 48.2619 4.1084 3.8340 23.4560
# 2 41.6038 139.3496 46.5445 27.9529 -9.4921 5.8282
# 3 48.2619 46.5445 145.6366 14.1848 -7.5341 -4.6248
# 4 4.1084 27.9529 14.1848 39.2191 -5.3668 -2.1618
# 5 3.8340 -9.4921 -7.5341 -5.3668 49.5072 8.1927
# 6 23.4560 5.8282 -4.6248 -2.1618 8.1927 37.7017
#
#
#
# Elastic Compliance Matrix: (Units=1/GPa)
#
#
# Indices 1 2 3 4 5 6 
#
# 1 0.007811 -0.001536 -0.002348 0.000811 -0.000378 -0.004781
# 2 -0.001536 0.009617 -0.001970 -0.005885 0.001254 -0.001383
# 3 -0.002348 -0.001970 0.008503 -0.001208 0.000533 0.002623
# 4 0.000811 -0.005885 -0.001208 0.030360 0.001645 0.001641
# 5 -0.000378 0.001254 0.000533 0.001645 0.021467 -0.004464
# 6 -0.004781 -0.001383 0.002623 0.001641 -0.004464 0.031098
#
#
# Mechanical properties :
#
#
# Convention : Reuss Voigt Hill
#
# Bulk Modulus (GPa) = 70.31426 80.29346 75.30386
# Shear Modulus (GPa) = 39.90300 46.17963 43.04132
#
# Velocity S-wave (km/s) = 4.16645 4.48217 4.32719
# Velocity P-wave (km/s) = 7.33042 7.85603 7.59777
#
# Compressibility (1/GPa) = 0.01422187
#
# Stress axis : x y z
#
# Youngs Moduli (GPa) = 128.02804 103.98603 117.61154
#
# Poissons Ratio (x) = 0.15973 0.27612
# Poissons Ratio (y) = 0.19667 0.23172
# Poissons Ratio (z) = 0.30058 0.20487
#
# Static dielectric constant tensor:
#      x y z
#    x 1.950770 0.001830 -0.024240 
#    y 0.001830 2.026860 0.013640 
#    z -0.024240 0.013640 1.845000 
# 
# From -- ./inp_files/76928.got.cif
#   From: 2010.05.17/outbox.cif.g08.bks.cpg/sg2_39_cif.got.tgz:76928.got - 2010.06.03 11:33:40.
