data_PCOD9066742
_publ_section_title
;
Structure prediction by ZEFSAII (Michael W. Deem and Ramdas Pophale) SiO2 
 PCOD9066742
Probable space group: P -1
;
_chemical_formula_sum "Si O2"
_cell_formula_units_Z 15
_cell_length_a 26.805075
_cell_length_b 15.721763
_cell_length_c 14.268032
_cell_angle_alpha 24.981335
_cell_angle_beta 160.726390
_cell_angle_gamma 161.549708
_cell_volume 624.630208
_symmetry_space_group_name_H-M "P -1"
_symmetry_group_IT_number 2
_symmetry_cell_setting 'triclinic'
loop_
_space_group_symop_operation_xyz
x,y,z
-x,-y,-z
loop_
_atom_site_type_symbol
_atom_site_label
_atom_site_fract_x
_atom_site_fract_y
_atom_site_fract_z
Si Si1 0.388790 0.905951 0.250835
Si Si2 0.969683 0.887982 0.162379
Si Si3 0.373500 0.126776 0.451074
Si Si4 0.932887 0.064364 0.408104
Si Si5 0.000000 0.500000 0.500000
Si Si6 0.363549 0.765153 0.920089
Si Si7 0.334303 0.300188 0.538530
Si Si8 0.638446 0.430804 0.289823
O O1 0.492739 0.879099 0.377804
O O2 0.355260 0.716834 0.463456
O O3 0.537281 0.213993 0.243922
O O4 0.183274 0.835378 0.927033
O O5 0.942969 0.627717 0.357816
O O6 0.769987 0.838190 0.887794
O O7 0.164541 0.104853 0.355538
O O8 0.000000 0.000000 0.000000
O O9 0.524892 0.377859 0.539440
O O10 0.255333 0.849001 0.579928
O O11 0.132321 0.292303 0.594158
O O12 0.777215 0.799992 0.459430
O O13 0.000000 0.000000 0.500000
O O14 0.150605 0.502588 0.840620
O O15 0.503853 0.737161 0.143148
O O16 0.500000 0.000000 0.000000
O O17 0.500000 0.500000 0.000000
#
# Coordination Sequence:
#
# PCOD9066742 Si02
#       8
#     2   2   2   2   1   2   2   2
#     4  11  26  46  72 108 139 192 238 300 360 420
#     4  12  27  45  70 105 140 189 235 298 362 427
#     4  12  27  44  71 103 146 179 239 295 357 430
#     4  12  25  47  75 104 147 194 241 296 358 426
#     4  12  24  44  74  96 138 184 236 288 362 420
#     4  12  25  46  71 102 137 186 234 294 356 425
#     4  12  28  44  72 108 144 190 239 293 365 430
#     4  11  25  46  75 104 146 186 240 296 359 426
#
# _framework density 24.014208
#
# number of rings (size 3 to 8) (size 9 to 14) (size 15 to 20)
#    0.000    0.267    6.667    1.200    3.733    3.200 
#    0.000    0.000    0.000    0.000    0.000    0.000 
#    0.000    0.000    0.000    0.000    0.000    0.000 
#
# Total GULP energy -83818.993652 kJ/mol
# GULP energy per Si atom -5587.932910 kJ/mol
# Density = 2.395955 g / cm^3
# Si number density = 24.014208 Si / 1000 Ang^3
#
#
#
# Elastic Constant Matrix: (Units=GPa)
#
#
# Indices 1 2 3 4 5 6 
#
# 1 81.2663 31.1312 49.6734 -5.9208 29.2430 -12.5626
# 2 31.1312 169.5154 72.2410 6.8027 6.1914 -25.6271
# 3 49.6734 72.2410 210.0775 20.4859 29.8785 -19.8714
# 4 -5.9208 6.8027 20.4859 48.7782 -6.1917 -5.3770
# 5 29.2430 6.1914 29.8785 -6.1917 48.5793 -4.5861
# 6 -12.5626 -25.6271 -19.8714 -5.3770 -4.5861 43.8636
#
#
#
# Elastic Compliance Matrix: (Units=1/GPa)
#
#
# Indices 1 2 3 4 5 6 
#
# 1 0.018163 -0.001675 -0.002521 0.002683 -0.008590 0.002512
# 2 -0.001675 0.007532 -0.002159 0.000216 0.001701 0.003147
# 3 -0.002521 -0.002159 0.006846 -0.003185 -0.002783 0.000437
# 4 0.002683 0.000216 -0.003185 0.022864 0.003478 0.002618
# 5 -0.008590 0.001701 -0.002783 0.003478 0.027751 0.000601
# 6 0.002512 0.003147 0.000437 0.002618 0.000601 0.025937
#
#
# Mechanical properties :
#
#
# Convention : Reuss Voigt Hill
#
# Bulk Modulus (GPa) = 50.42834 85.21672 67.82253
# Shear Modulus (GPa) = 38.93624 48.76512 43.85068
#
# Velocity S-wave (km/s) = 4.03101 4.51119 4.27784
# Velocity P-wave (km/s) = 6.53531 7.91817 7.25975
#
# Compressibility (1/GPa) = 0.01983012
#
# Stress axis : x y z
#
# Youngs Moduli (GPa) = 55.05752 132.76695 146.06054
#
# Poissons Ratio (x) = 0.22245 0.36819
# Poissons Ratio (y) = 0.09225 0.31538
# Poissons Ratio (z) = 0.13879 0.28668
#
# Static dielectric constant tensor:
#      x y z
#    x 1.940980 0.049450 -0.026000 
#    y 0.049450 2.038450 0.030780 
#    z -0.026000 0.030780 1.968420 
# 
# From -- ./inp_files/544154.got.cif
#   From: 2010.05.17/outbox.cif.g08.bks.cpg/sg2_273_cif.got.tgz:544154.got - 2010.06.03 11:33:40.
