data_PCOD9066048
_publ_section_title
;
Structure prediction by ZEFSAII (Michael W. Deem and Ramdas Pophale) SiO2 
 PCOD9066048
Probable space group: P -1
;
_chemical_formula_sum "Si O2"
_cell_formula_units_Z 14
_cell_length_a 9.188541
_cell_length_b 5.001099
_cell_length_c 13.759412
_cell_angle_alpha 67.053666
_cell_angle_beta 92.465919
_cell_angle_gamma 92.825680
_cell_volume 581.348466
_symmetry_space_group_name_H-M "P -1"
_symmetry_group_IT_number 2
_symmetry_cell_setting 'triclinic'
loop_
_space_group_symop_operation_xyz
x,y,z
-x,-y,-z
loop_
_atom_site_type_symbol
_atom_site_label
_atom_site_fract_x
_atom_site_fract_y
_atom_site_fract_z
Si Si1 0.589463 0.029262 0.897310
Si Si2 0.621213 0.757343 0.521264
Si Si3 0.920659 0.120943 0.125954
Si Si4 0.788817 0.537348 0.906002
Si Si5 0.052205 0.320359 0.433450
Si Si6 0.581621 0.726229 0.315763
Si Si7 0.835201 0.481357 0.238131
O O1 0.694499 0.322327 0.863381
O O2 0.492879 0.062305 0.792465
O O3 0.677102 0.736434 0.931192
O O4 0.500000 0.000000 0.000000
O O5 0.778060 0.717080 0.580280
O O6 0.669297 0.822281 0.401390
O O7 0.539521 0.466499 0.601285
O O8 0.500000 0.000000 0.500000
O O9 0.822438 0.221358 0.198557
O O10 0.082443 0.225638 0.150893
O O11 0.887576 0.787077 0.146946
O O12 0.870615 0.309768 0.007745
O O13 0.000000 0.500000 0.500000
O O14 0.962400 0.434219 0.324714
O O15 0.000000 0.000000 0.500000
O O16 0.685535 0.533142 0.281408
#
# Coordination Sequence:
#
# PCOD9066048 Si02
#       7
#     2   2   2   2   2   2   2
#     4  12  26  45  73 106 148 190 244 296 368 438
#     4  11  27  48  74 105 149 197 242 309 369 436
#     4  11  25  44  73 101 145 187 244 299 368 430
#     4  11  25  46  67 106 144 189 242 302 357 438
#     4  12  26  48  73 106 144 185 248 302 364 438
#     4  11  27  45  71 106 146 191 245 299 370 436
#     4  12  25  45  74 105 139 193 242 301 366 441
#
# _framework density 24.081942000000002
#
# number of rings (size 3 to 8) (size 9 to 14) (size 15 to 20)
#    0.000    0.571    1.429    5.571   10.000    2.286 
#    0.000    0.000    0.000    0.000    0.000    0.000 
#    0.000    0.000    0.000    0.000    0.000    0.000 
#
# Total GULP energy -78220.718569 kJ/mol
# GULP energy per Si atom -5587.194184 kJ/mol
# Density = 2.402713 g / cm^3
# Si number density = 24.081942 Si / 1000 Ang^3
#
#
#
# Elastic Constant Matrix: (Units=GPa)
#
#
# Indices 1 2 3 4 5 6 
#
# 1 102.5205 1.2537 13.5722 -8.8405 2.4168 -0.5152
# 2 1.2537 79.7150 -3.0618 -9.4025 7.6423 -11.6832
# 3 13.5722 -3.0618 103.3145 -7.5612 2.4846 -0.9536
# 4 -8.8405 -9.4025 -7.5612 38.6998 -3.7249 -0.0532
# 5 2.4168 7.6423 2.4846 -3.7249 34.0635 2.5374
# 6 -0.5152 -11.6832 -0.9536 -0.0532 2.5374 38.6843
#
#
#
# Elastic Compliance Matrix: (Units=1/GPa)
#
#
# Indices 1 2 3 4 5 6 
#
# 1 0.010096 0.000107 -0.001160 0.002063 -0.000443 0.000170
# 2 0.000107 0.013908 0.000753 0.003253 -0.003157 0.004432
# 3 -0.001160 0.000753 0.010007 0.001811 -0.000656 0.000504
# 4 0.002063 0.003253 0.001811 0.027644 0.001943 0.000965
# 5 -0.000443 -0.003157 -0.000656 0.001943 0.030579 -0.002979
# 6 0.000170 0.004432 0.000504 0.000965 -0.002979 0.027400
#
#
# Mechanical properties :
#
#
# Convention : Reuss Voigt Hill
#
# Bulk Modulus (GPa) = 29.92988 34.34201 32.13594
# Shear Modulus (GPa) = 38.06071 40.54190 39.30130
#
# Velocity S-wave (km/s) = 3.97982 4.10750 4.04416
# Velocity P-wave (km/s) = 5.79430 6.06521 5.93131
#
# Compressibility (1/GPa) = 0.03341143
#
# Stress axis : x y z
#
# Youngs Moduli (GPa) = 99.05308 71.90183 99.93196
#
# Poissons Ratio (x) = -0.00773 0.11590
# Poissons Ratio (y) = -0.01064 -0.07524
# Poissons Ratio (z) = 0.11488 -0.05414
#
# Static dielectric constant tensor:
#      x y z
#    x 1.999500 0.096200 -0.022280 
#    y 0.096200 1.986120 0.028580 
#    z -0.022280 0.028580 1.883560 
# 
# From -- ./inp_files/90629.got.cif
#   From: 2010.05.17/outbox.cif.g08.bks.cpg/sg2_46_cif.got.tgz:90629.got - 2010.06.03 11:33:40.
