data_PCOD9066612
_publ_section_title
;
Structure prediction by ZEFSAII (Michael W. Deem and Ramdas Pophale) SiO2 
 PCOD9066612
Probable space group: P -1
;
_chemical_formula_sum "Si O2"
_cell_formula_units_Z 16
_cell_length_a 14.749980
_cell_length_b 9.315053
_cell_length_c 8.686030
_cell_angle_alpha 142.659640
_cell_angle_beta 80.480184
_cell_angle_gamma 107.832367
_cell_volume 682.768161
_symmetry_space_group_name_H-M "P -1"
_symmetry_group_IT_number 2
_symmetry_cell_setting 'triclinic'
loop_
_space_group_symop_operation_xyz
x,y,z
-x,-y,-z
loop_
_atom_site_type_symbol
_atom_site_label
_atom_site_fract_x
_atom_site_fract_y
_atom_site_fract_z
Si Si1 0.236470 0.031366 0.818634
Si Si2 0.077191 0.206163 0.558991
Si Si3 0.602287 0.637966 0.516837
Si Si4 0.902924 0.797102 0.801389
Si Si5 0.913197 0.372844 0.644087
Si Si6 0.774307 0.436074 0.004625
Si Si7 0.302479 0.819986 0.905973
Si Si8 0.394385 0.381508 0.859512
O O1 0.327222 0.168695 0.806148
O O2 0.142994 0.899690 0.631703
O O3 0.261941 0.840722 0.766208
O O4 0.195743 0.201250 0.087629
O O5 0.103658 0.155233 0.335960
O O6 0.174013 0.300100 0.707668
O O7 0.017100 0.402624 0.712174
O O8 0.000000 0.000000 0.500000
O O9 0.500000 0.500000 0.500000
O O10 0.655158 0.417713 0.316738
O O11 0.597959 0.699505 0.388443
O O12 0.637565 0.897967 0.822976
O O13 0.918652 0.545877 0.643898
O O14 0.000000 0.000000 0.000000
O O15 0.843407 0.419425 0.833783
O O16 0.769627 0.251277 0.989477
O O17 0.668404 0.423200 0.966087
O O18 0.500000 0.500000 0.000000
#
# Coordination Sequence:
#
# PCOD9066612 Si02
#       8
#     2   2   2   2   2   2   2   2
#     4  12  26  45  74 108 149 198 243 312 375 448
#     4  12  26  44  72 106 149 197 250 307 380 456
#     4  11  25  50  76 108 147 194 258 321 379 449
#     4  12  26  45  71 106 151 191 245 303 375 458
#     4  12  25  46  71 106 148 190 251 300 384 451
#     4  11  25  46  72 107 146 197 249 315 376 455
#     4  11  27  44  76 110 148 197 250 306 387 449
#     4  11  25  49  75 108 146 196 254 312 381 447
#
# _framework density 23.434014000000001
#
# number of rings (size 3 to 8) (size 9 to 14) (size 15 to 20)
#    0.000    0.500    2.500    4.875    8.750    2.000 
#    0.000    3.750    0.000    0.000    0.000    0.000 
#    0.000    0.000    0.000    0.000    0.000    0.000 
#
# Total GULP energy -89380.839215 kJ/mol
# GULP energy per Si atom -5586.302451 kJ/mol
# Density = 2.338068 g / cm^3
# Si number density = 23.434014 Si / 1000 Ang^3
#
#
#
# Elastic Constant Matrix: (Units=GPa)
#
#
# Indices 1 2 3 4 5 6 
#
# 1 126.7981 44.5531 31.7634 -1.5178 5.4117 6.2373
# 2 44.5531 178.7438 31.3621 -4.3077 -1.7393 5.3791
# 3 31.7634 31.3621 78.8511 -7.4798 -1.5806 13.0587
# 4 -1.5178 -4.3077 -7.4798 46.4946 8.7667 -0.3810
# 5 5.4117 -1.7393 -1.5806 8.7667 26.4983 6.8607
# 6 6.2373 5.3791 13.0587 -0.3810 6.8607 40.4123
#
#
#
# Elastic Compliance Matrix: (Units=1/GPa)
#
#
# Indices 1 2 3 4 5 6 
#
# 1 0.009401 -0.001820 -0.003135 0.000069 -0.002300 0.000195
# 2 -0.001820 0.006369 -0.001757 0.000120 0.000674 -0.000113
# 3 -0.003135 -0.001757 0.015631 0.001822 0.002063 -0.004666
# 4 0.000069 0.000120 0.001822 0.023302 -0.007849 0.000937
# 5 -0.002300 0.000674 0.002063 -0.007849 0.042985 -0.007773
# 6 0.000195 -0.000113 -0.004666 0.000937 -0.007773 0.027566
#
#
# Mechanical properties :
#
#
# Convention : Reuss Voigt Hill
#
# Bulk Modulus (GPa) = 55.62423 66.63891 61.13157
# Shear Modulus (GPa) = 34.56174 41.12867 37.84521
#
# Velocity S-wave (km/s) = 3.84455 4.19392 4.02303
# Velocity P-wave (km/s) = 6.59511 7.20767 6.90818
#
# Compressibility (1/GPa) = 0.01797778
#
# Stress axis : x y z
#
# Youngs Moduli (GPa) = 106.37583 157.00442 63.97680
#
# Poissons Ratio (x) = 0.28570 0.20057
# Poissons Ratio (y) = 0.19357 0.11239
# Poissons Ratio (z) = 0.33348 0.27581
#
# Static dielectric constant tensor:
#      x y z
#    x 1.904980 -0.064440 -0.009910 
#    y -0.064440 2.116270 -0.164550 
#    z -0.009910 -0.164550 2.139200 
# 
# From -- ./inp_files/288671.got.cif
#   From: 2010.05.17/outbox.cif.g08.bks.cpg/sg2_145_cif.got.tgz:288671.got - 2010.06.03 11:33:40.
