data_PCOD9066743
_publ_section_title
;
Structure prediction by ZEFSAII (Michael W. Deem and Ramdas Pophale) SiO2 
 PCOD9066743
Probable space group: P -1
;
_chemical_formula_sum "Si O2"
_cell_formula_units_Z 10
_cell_length_a 8.435556
_cell_length_b 6.135634
_cell_length_c 10.862888
_cell_angle_alpha 58.949396
_cell_angle_beta 120.125309
_cell_angle_gamma 95.532161
_cell_volume 406.476821
_symmetry_space_group_name_H-M "P -1"
_symmetry_group_IT_number 2
_symmetry_cell_setting 'triclinic'
loop_
_space_group_symop_operation_xyz
x,y,z
-x,-y,-z
loop_
_atom_site_type_symbol
_atom_site_label
_atom_site_fract_x
_atom_site_fract_y
_atom_site_fract_z
Si Si1 0.179325 0.128243 0.039381
Si Si2 0.207979 0.613663 0.754679
Si Si3 0.165533 0.196535 0.552617
Si Si4 0.693449 0.799240 0.657559
Si Si5 0.487788 0.663580 0.223619
O O1 0.229480 0.142619 0.197752
O O2 0.351471 0.947312 0.084083
O O3 0.152291 0.416320 0.888359
O O4 0.000000 0.000000 0.000000
O O5 0.411354 0.477590 0.817670
O O6 0.051329 0.653218 0.572454
O O7 0.205359 0.907399 0.711108
O O8 0.184289 0.162717 0.422215
O O9 0.336035 0.320967 0.625299
O O10 0.644297 0.517016 0.722196
O O11 0.500000 0.000000 0.500000
#
# Coordination Sequence:
#
# PCOD9066743 Si02
#       5
#     2   2   2   2   2
#     4  12  29  47  72 107 145 185 238 296 355 415
#     4  11  26  45  70 108 144 186 237 291 353 419
#     4  11  25  46  75 104 147 186 237 288 355 424
#     4  12  25  47  73 104 141 189 238 286 350 425
#     4  12  24  45  76 102 144 189 234 289 357 421
#
# _framework density 24.601647
#
# number of rings (size 3 to 8) (size 9 to 14) (size 15 to 20)
#    0.000    0.400    4.000    3.000    2.800   11.200 
#    0.000    0.000    0.000    0.000    0.000    0.000 
#    0.000    0.000    0.000    0.000    0.000    0.000 
#
# Total GULP energy -55996.759916 kJ/mol
# GULP energy per Si atom -5599.675992 kJ/mol
# Density = 2.454565 g / cm^3
# Si number density = 24.601647 Si / 1000 Ang^3
#
#
#
# Elastic Constant Matrix: (Units=GPa)
#
#
# Indices 1 2 3 4 5 6 
#
# 1 115.8853 20.9336 34.0626 -3.4692 6.4751 6.9622
# 2 20.9336 84.4196 53.7687 21.4162 -4.7519 25.8044
# 3 34.0626 53.7687 130.6655 -17.6011 -1.8999 5.4689
# 4 -3.4692 21.4162 -17.6011 30.8488 7.6162 9.9482
# 5 6.4751 -4.7519 -1.8999 7.6162 46.4705 -11.9446
# 6 6.9622 25.8044 5.4689 9.9482 -11.9446 41.9793
#
#
#
# Elastic Compliance Matrix: (Units=1/GPa)
#
#
# Indices 1 2 3 4 5 6 
#
# 1 0.009684 -0.001894 -0.001339 0.002775 -0.002471 -0.001628
# 2 -0.001894 0.036019 -0.018453 -0.034258 0.006367 -0.009493
# 3 -0.001339 -0.018453 0.018607 0.023547 -0.004190 0.002368
# 4 0.002775 -0.034258 0.023547 0.075723 -0.016663 -0.005156
# 5 -0.002471 0.006367 -0.004190 -0.016663 0.027327 0.008766
# 6 -0.001628 -0.009493 0.002368 -0.005156 0.008766 0.033334
#
#
# Mechanical properties :
#
#
# Convention : Reuss Voigt Hill
#
# Bulk Modulus (GPa) = 47.75819 60.94445 54.35132
# Shear Modulus (GPa) = 19.91674 38.67343 29.29508
#
# Velocity S-wave (km/s) = 2.84838 3.96913 3.45451
# Velocity P-wave (km/s) = 5.50204 6.76990 6.16863
#
# Compressibility (1/GPa) = 0.02093882
#
# Stress axis : x y z
#
# Youngs Moduli (GPa) = 103.26435 27.76311 53.74184
#
# Poissons Ratio (x) = 0.05257 0.07197
# Poissons Ratio (y) = 0.19554 0.99169
# Poissons Ratio (z) = 0.13830 0.51231
#
# Static dielectric constant tensor:
#      x y z
#    x 1.851960 0.237460 -0.162940 
#    y 0.237460 1.624320 0.242270 
#    z -0.162940 0.242270 1.716470 
# 
# From -- ./inp_files/16105.got.cif
#   From: 2010.05.17/outbox.cif.g08.bks.cpg/sg2_9_cif.got.tgz:16105.got - 2010.06.03 11:33:40.
