data_PCOD9066036
_publ_section_title
;
Structure prediction by ZEFSAII (Michael W. Deem and Ramdas Pophale) SiO2 
 PCOD9066036
Probable space group: P -1
;
_chemical_formula_sum "Si O2"
_cell_formula_units_Z 14
_cell_length_a 10.240141
_cell_length_b 9.801070
_cell_length_c 6.383513
_cell_angle_alpha 99.515093
_cell_angle_beta 85.200294
_cell_angle_gamma 119.798664
_cell_volume 548.315063
_symmetry_space_group_name_H-M "P -1"
_symmetry_group_IT_number 2
_symmetry_cell_setting 'triclinic'
loop_
_space_group_symop_operation_xyz
x,y,z
-x,-y,-z
loop_
_atom_site_type_symbol
_atom_site_label
_atom_site_fract_x
_atom_site_fract_y
_atom_site_fract_z
Si Si1 0.922511 0.597002 0.879276
Si Si2 0.500000 0.500000 0.500000
Si Si3 0.534298 0.918782 0.166665
Si Si4 0.952957 0.104057 0.772884
Si Si5 0.410458 0.580809 0.932505
Si Si6 0.736332 0.156030 0.512144
Si Si7 0.165233 0.241200 0.399203
Si Si8 0.000000 0.500000 0.500000
O O1 0.900549 0.644771 0.647970
O O2 0.000351 0.496655 0.772147
O O3 0.755182 0.495143 0.964775
O O4 0.011980 0.765903 0.021113
O O5 0.400134 0.546875 0.680475
O O6 0.343825 0.342038 0.400744
O O7 0.408870 0.864733 0.350567
O O8 0.687200 0.042013 0.288463
O O9 0.515215 0.759970 0.032537
O O10 0.500000 0.000000 0.000000
O O11 0.823553 0.100972 0.643537
O O12 0.099980 0.176765 0.621507
O O13 0.898129 0.918663 0.775091
O O14 0.500000 0.500000 0.000000
O O15 0.837815 0.336025 0.480448
#
# Coordination Sequence:
#
# PCOD9066036 Si02
#       8
#     2   1   2   2   2   2   2   1
#     4  12  25  47  72 108 144 194 239 300 368 430
#     4  12  26  44  70 108 142 194 240 298 362 440
#     4  11  29  49  74 108 149 194 241 303 373 433
#     4  11  26  45  72 107 141 190 237 306 361 427
#     4  12  27  46  77 108 148 193 242 303 364 433
#     4  11  27  48  75 106 145 189 249 300 361 446
#     4  11  25  44  72 107 145 184 244 298 360 439
#     4  12  26  48  74 106 146 190 248 302 356 446
#
# _framework density 25.532765000000001
#
# number of rings (size 3 to 8) (size 9 to 14) (size 15 to 20)
#    0.000    0.571    5.714    0.429    6.000    4.000 
#    0.000    0.000    0.000    0.000    0.000    0.000 
#    0.000    0.000    0.000    0.000    0.000    0.000 
#
# Total GULP energy -78011.561218 kJ/mol
# GULP energy per Si atom -5572.254373 kJ/mol
# Density = 2.547465 g / cm^3
# Si number density = 25.532765 Si / 1000 Ang^3
#
#
#
# Elastic Constant Matrix: (Units=GPa)
#
#
# Indices 1 2 3 4 5 6 
#
# 1 53.9053 30.5006 8.2663 6.5128 5.0484 5.0327
# 2 30.5006 170.6123 52.2166 42.1507 7.6932 5.8775
# 3 8.2663 52.2166 158.9150 55.3120 -21.6941 14.9884
# 4 6.5128 42.1507 55.3120 52.1904 7.0357 -9.2451
# 5 5.0484 7.6932 -21.6941 7.0357 45.8339 -5.5410
# 6 5.0327 5.8775 14.9884 -9.2451 -5.5410 52.9239
#
#
#
# Elastic Compliance Matrix: (Units=1/GPa)
#
#
# Indices 1 2 3 4 5 6 
#
# 1 0.020938 -0.003667 -0.000204 0.000553 -0.002071 -0.001646
# 2 -0.003667 0.008175 -0.000279 -0.006081 -0.000358 -0.001580
# 3 -0.000204 -0.000279 0.013933 -0.016712 0.008513 -0.005924
# 4 0.000553 -0.006081 -0.016712 0.045524 -0.012488 0.012001
# 5 -0.002071 -0.000358 0.008513 -0.012488 0.027879 -0.001437
# 6 -0.001646 -0.001580 -0.005924 0.012001 -0.001437 0.022851
#
#
# Mechanical properties :
#
#
# Convention : Reuss Voigt Hill
#
# Bulk Modulus (GPa) = 28.77988 62.82219 45.80103
# Shear Modulus (GPa) = 31.41075 49.68624 40.54850
#
# Velocity S-wave (km/s) = 3.51125 4.41611 3.98942
# Velocity P-wave (km/s) = 5.26637 7.11763 6.26080
#
# Compressibility (1/GPa) = 0.03474650
#
# Stress axis : x y z
#
# Youngs Moduli (GPa) = 47.75969 122.32349 71.77403
#
# Poissons Ratio (x) = 0.44858 0.01464
# Poissons Ratio (y) = 0.17514 0.01999
# Poissons Ratio (z) = 0.00974 0.03408
#
# Static dielectric constant tensor:
#      x y z
#    x 1.566480 0.178860 0.403470 
#    y 0.178860 1.866390 -0.240190 
#    z 0.403470 -0.240190 1.948310 
# 
# From -- ./inp_files/71810.got.cif
#   From: 2010.05.17/outbox.cif.g08.bks.cpg/sg2_36_cif.got.tgz:71810.got - 2010.06.03 11:33:40.
