data_PCOD9066365
_publ_section_title
;
Structure prediction by ZEFSAII (Michael W. Deem and Ramdas Pophale) SiO2 
 PCOD9066365
Probable space group: P -1
;
_chemical_formula_sum "Si O2"
_cell_formula_units_Z 16
_cell_length_a 17.737911
_cell_length_b 11.697499
_cell_length_c 9.110682
_cell_angle_alpha 98.923539
_cell_angle_beta 137.884026
_cell_angle_gamma 47.788109
_cell_volume 678.664583
_symmetry_space_group_name_H-M "P -1"
_symmetry_group_IT_number 2
_symmetry_cell_setting 'triclinic'
loop_
_space_group_symop_operation_xyz
x,y,z
-x,-y,-z
loop_
_atom_site_type_symbol
_atom_site_label
_atom_site_fract_x
_atom_site_fract_y
_atom_site_fract_z
Si Si1 0.556189 0.460337 0.403032
Si Si2 0.065346 0.325663 0.729906
Si Si3 0.755910 0.044331 0.625708
Si Si4 0.288665 0.951215 0.769101
Si Si5 0.222307 0.758703 0.730731
Si Si6 0.874917 0.328831 0.692627
Si Si7 0.659743 0.786134 0.281562
Si Si8 0.501275 0.059102 0.357149
O O1 0.500000 0.500000 0.500000
O O2 0.708482 0.219005 0.560319
O O3 0.668914 0.483587 0.525444
O O4 0.359981 0.609666 0.041676
O O5 0.134006 0.157043 0.693747
O O6 0.981660 0.348148 0.771836
O O7 0.866844 0.575090 0.454838
O O8 0.268462 0.229705 0.006013
O O9 0.566554 0.135674 0.445085
O O10 0.783059 0.967376 0.486171
O O11 0.944708 0.870513 0.976649
O O12 0.315585 0.792553 0.800984
O O13 0.520218 0.794640 0.105073
O O14 0.184731 0.696247 0.540545
O O15 0.000000 0.000000 0.500000
O O16 0.672078 0.842316 0.463511
O O17 0.500000 0.000000 0.000000
O O18 0.500000 0.000000 0.500000
#
# Coordination Sequence:
#
# PCOD9066365 Si02
#       8
#     2   2   2   2   2   2   2   2
#     4  12  29  45  75 115 151 194 248 311 377 443
#     4  11  26  46  80 105 143 205 248 303 387 442
#     4  12  26  49  72 111 153 192 253 317 363 447
#     4  11  25  45  75 105 151 194 252 311 373 444
#     4  12  25  46  73 105 147 196 244 303 381 444
#     4  12  25  46  75 106 150 194 250 302 375 452
#     4  11  25  48  70 110 143 186 257 312 364 446
#     4  11  25  50  73 106 153 194 248 312 369 442
#
# _framework density 23.575710000000001
#
# number of rings (size 3 to 8) (size 9 to 14) (size 15 to 20)
#    0.000    0.500    5.000    2.250    3.500    3.500 
#    4.500    0.000    0.000    0.000    0.000    0.000 
#    0.000    0.000    0.000    0.000    0.000    0.000 
#
# Total GULP energy -89314.649607 kJ/mol
# GULP energy per Si atom -5582.165600 kJ/mol
# Density = 2.352205 g / cm^3
# Si number density = 23.575710 Si / 1000 Ang^3
#
#
#
# Elastic Constant Matrix: (Units=GPa)
#
#
# Indices 1 2 3 4 5 6 
#
# 1 127.8844 7.0028 38.5207 5.1566 -4.6302 -10.2092
# 2 7.0028 55.9208 28.5674 -12.0851 0.5596 -21.3960
# 3 38.5207 28.5674 133.5138 -11.3682 -20.4146 -7.5328
# 4 5.1566 -12.0851 -11.3682 31.1410 2.2304 6.5321
# 5 -4.6302 0.5596 -20.4146 2.2304 56.4263 7.2525
# 6 -10.2092 -21.3960 -7.5328 6.5321 7.2525 47.6975
#
#
#
# Elastic Compliance Matrix: (Units=1/GPa)
#
#
# Indices 1 2 3 4 5 6 
#
# 1 0.008921 0.000607 -0.002888 -0.002716 -0.000490 0.002172
# 2 0.000607 0.025863 -0.005153 0.006086 -0.003680 0.010644
# 3 -0.002888 -0.005153 0.010058 0.002354 0.003645 -0.002218
# 4 -0.002716 0.006086 0.002354 0.036320 -0.000563 -0.002368
# 5 -0.000490 -0.003680 0.003645 -0.000563 0.019584 -0.004081
# 6 0.002172 0.010644 -0.002218 -0.002368 -0.004081 0.026800
#
#
# Mechanical properties :
#
#
# Convention : Reuss Voigt Hill
#
# Bulk Modulus (GPa) = 33.36000 51.72232 42.54116
# Shear Modulus (GPa) = 32.80722 43.26815 38.03769
#
# Velocity S-wave (km/s) = 3.73442 4.28867 4.02111
# Velocity P-wave (km/s) = 5.72498 6.81983 6.29625
#
# Compressibility (1/GPa) = 0.02997602
#
# Stress axis : x y z
#
# Youngs Moduli (GPa) = 112.09154 38.66464 99.42155
#
# Poissons Ratio (x) = -0.02347 0.28708
# Poissons Ratio (y) = -0.06803 0.51231
# Poissons Ratio (z) = 0.32367 0.19923
#
# Static dielectric constant tensor:
#      x y z
#    x 2.283900 0.035760 0.120650 
#    y 0.035760 1.943720 0.034850 
#    z 0.120650 0.034850 1.974510 
# 
# From -- ./inp_files/333444.got.cif
#   From: 2010.05.17/outbox.cif.g08.bks.cpg/sg2_167_cif.got.tgz:333444.got - 2010.06.03 11:33:40.
