data_PCOD9066905
_publ_section_title
;
Structure prediction by ZEFSAII (Michael W. Deem and Ramdas Pophale) SiO2 
 PCOD9066905
Probable space group: P -1
;
_chemical_formula_sum "Si O2"
_cell_formula_units_Z 15
_cell_length_a 15.534555
_cell_length_b 12.069339
_cell_length_c 8.416885
_cell_angle_alpha 76.448624
_cell_angle_beta 120.094379
_cell_angle_gamma 52.974826
_cell_volume 687.086240
_symmetry_space_group_name_H-M "P -1"
_symmetry_group_IT_number 2
_symmetry_cell_setting 'triclinic'
loop_
_space_group_symop_operation_xyz
x,y,z
-x,-y,-z
loop_
_atom_site_type_symbol
_atom_site_label
_atom_site_fract_x
_atom_site_fract_y
_atom_site_fract_z
Si Si1 0.065491 0.716861 0.127090
Si Si2 0.042956 0.781000 0.711385
Si Si3 0.553950 0.554521 0.427524
Si Si4 0.686197 0.022320 0.816398
Si Si5 0.821807 0.644242 0.669775
Si Si6 0.500000 0.000000 0.500000
Si Si7 0.317807 0.709402 0.869207
Si Si8 0.103186 0.289170 0.585547
O O1 0.224751 0.652245 0.348183
O O2 0.131286 0.525716 0.302593
O O3 0.062444 0.722277 0.930961
O O4 0.857994 0.934665 0.939966
O O5 0.026882 0.688137 0.609195
O O6 0.214853 0.696040 0.844441
O O7 0.849702 0.047401 0.438914
O O8 0.500000 0.500000 0.500000
O O9 0.499960 0.718054 0.423050
O O10 0.410597 0.690698 0.102669
O O11 0.653384 0.954759 0.683168
O O12 0.755224 0.899985 0.087427
O O13 0.803445 0.752444 0.474330
O O14 0.626785 0.829713 0.525165
O O15 0.000000 0.500000 0.000000
O O16 0.500000 0.500000 0.000000
O O17 0.000000 0.500000 0.500000
#
# Coordination Sequence:
#
# PCOD9066905 Si02
#       8
#     2   2   2   2   2   1   2   2
#     4  12  25  45  74 103 145 189 236 297 357 431
#     4  11  25  47  72 104 147 186 241 299 361 435
#     4  12  27  48  70 108 141 184 248 297 353 438
#     4  12  27  45  73 107 146 189 242 296 364 430
#     4  12  23  44  68 103 143 186 236 285 361 429
#     4  12  24  46  70 102 144 192 232 288 358 436
#     4  11  27  48  72 103 141 192 240 301 366 420
#     4  12  24  44  73 108 147 189 236 303 364 430
#
# _framework density 21.831322
#
# number of rings (size 3 to 8) (size 9 to 14) (size 15 to 20)
#    0.000    0.267    8.000    0.000    3.733    1.067 
#    2.400    0.000    0.000    0.000    0.000    0.000 
#    0.000    0.000    0.000    0.000    0.000    0.000 
#
# Total GULP energy -83625.170371 kJ/mol
# GULP energy per Si atom -5575.011358 kJ/mol
# Density = 2.178163 g / cm^3
# Si number density = 21.831322 Si / 1000 Ang^3
#
#
#
# Elastic Constant Matrix: (Units=GPa)
#
#
# Indices 1 2 3 4 5 6 
#
# 1 121.9665 25.4581 37.7495 -10.9205 14.5429 3.9316
# 2 25.4581 80.8212 11.1880 -4.7880 1.0876 4.1459
# 3 37.7495 11.1880 68.2670 -0.0558 3.1991 2.6912
# 4 -10.9205 -4.7880 -0.0558 22.4619 -4.0492 20.3676
# 5 14.5429 1.0876 3.1991 -4.0492 42.0025 -5.5364
# 6 3.9316 4.1459 2.6912 20.3676 -5.5364 40.8795
#
#
#
# Elastic Compliance Matrix: (Units=1/GPa)
#
#
# Indices 1 2 3 4 5 6 
#
# 1 0.011977 -0.001977 -0.005883 0.010396 -0.003464 -0.006213
# 2 -0.001977 0.013647 -0.001010 0.005459 0.000435 -0.003788
# 3 -0.005883 -0.001010 0.017967 -0.004626 0.000493 0.001857
# 4 0.010396 0.005459 -0.004626 0.094526 -0.000660 -0.048435
# 5 -0.003464 0.000435 0.000493 -0.000660 0.025426 0.004029
# 6 -0.006213 -0.003788 0.001857 -0.048435 0.004029 0.049999
#
#
# Mechanical properties :
#
#
# Convention : Reuss Voigt Hill
#
# Bulk Modulus (GPa) = 38.68310 46.64953 42.66631
# Shear Modulus (GPa) = 20.84209 34.17938 27.51074
#
# Velocity S-wave (km/s) = 3.09315 3.96107 3.55371
# Velocity P-wave (km/s) = 5.52398 6.50651 6.03527
#
# Compressibility (1/GPa) = 0.02585108
#
# Stress axis : x y z
#
# Youngs Moduli (GPa) = 83.49641 73.27384 55.65811
#
# Poissons Ratio (x) = 0.14486 0.32743
# Poissons Ratio (y) = 0.16507 0.05621
# Poissons Ratio (z) = 0.49120 0.07401
#
# Static dielectric constant tensor:
#      x y z
#    x 2.763160 -1.014030 -0.469070 
#    y -1.014030 2.931090 0.552850 
#    z -0.469070 0.552850 2.045640 
# 
# From -- ./inp_files/307156.got.cif
#   From: 2010.05.17/outbox.cif.g08.bks.cpg/sg2_154_cif.got.tgz:307156.got - 2010.06.03 11:33:40.
