data_PCOD9066305
_publ_section_title
;
Structure prediction by ZEFSAII (Michael W. Deem and Ramdas Pophale) SiO2 
 PCOD9066305
Probable space group: P -1
;
_chemical_formula_sum "Si O2"
_cell_formula_units_Z 15
_cell_length_a 9.843611
_cell_length_b 8.799772
_cell_length_c 11.886781
_cell_angle_alpha 50.522523
_cell_angle_beta 56.938083
_cell_angle_gamma 68.643863
_cell_volume 665.836187
_symmetry_space_group_name_H-M "P -1"
_symmetry_group_IT_number 2
_symmetry_cell_setting 'triclinic'
loop_
_space_group_symop_operation_xyz
x,y,z
-x,-y,-z
loop_
_atom_site_type_symbol
_atom_site_label
_atom_site_fract_x
_atom_site_fract_y
_atom_site_fract_z
Si Si1 0.000000 0.000000 0.000000
Si Si2 0.240997 0.899105 0.743868
Si Si3 0.665578 0.003260 0.769238
Si Si4 0.453891 0.325686 0.183052
Si Si5 0.771072 0.669296 0.524692
Si Si6 0.691631 0.838439 0.087349
Si Si7 0.086405 0.658192 0.540909
Si Si8 0.881410 0.436722 0.183706
O O1 0.182399 0.047884 0.944835
O O2 0.917366 0.080433 0.116474
O O3 0.385036 0.783601 0.794895
O O4 0.195028 0.768734 0.718981
O O5 0.291105 0.117395 0.586263
O O6 0.490599 0.114721 0.809940
O O7 0.801374 0.154103 0.600279
O O8 0.648491 0.831475 0.766228
O O9 0.703936 0.912764 0.917769
O O10 0.355536 0.414361 0.291248
O O11 0.500000 0.500000 0.000000
O O12 0.811816 0.526395 0.470732
O O13 0.936791 0.694630 0.507601
O O14 0.745024 0.609111 0.175708
O O15 0.033692 0.593740 0.719531
O O16 0.000000 0.500000 0.000000
#
# Coordination Sequence:
#
# PCOD9066305 Si02
#       8
#     1   2   2   2   2   2   2   2
#     4  12  22  44  74 104 150 192 240 298 368 436
#     4  12  26  46  73 107 149 196 246 304 374 440
#     4  11  26  48  75 108 147 197 247 307 371 436
#     4  12  28  46  75 110 153 193 248 309 371 446
#     4  11  28  50  74 108 149 198 248 310 378 439
#     4  11  25  45  73 110 147 191 247 303 372 442
#     4  11  28  49  76 107 148 196 252 310 371 446
#     4  12  27  45  73 110 142 193 248 306 369 444
#
# _framework density 22.528065000000002
#
# number of rings (size 3 to 8) (size 9 to 14) (size 15 to 20)
#    0.000    0.533    2.667    3.600    9.333    3.733 
#    0.000    0.000    0.000    0.000    0.000    0.000 
#    0.000    0.000    0.000    0.000    0.000    0.000 
#
# Total GULP energy -83811.379580 kJ/mol
# GULP energy per Si atom -5587.425305 kJ/mol
# Density = 2.247679 g / cm^3
# Si number density = 22.528065 Si / 1000 Ang^3
#
#
#
# Elastic Constant Matrix: (Units=GPa)
#
#
# Indices 1 2 3 4 5 6 
#
# 1 45.3369 7.7906 19.0800 0.2481 5.1403 1.4821
# 2 7.7906 63.7142 10.9568 7.0930 15.4289 12.5105
# 3 19.0800 10.9568 94.2143 8.4412 5.9053 1.3454
# 4 0.2481 7.0930 8.4412 36.9712 -1.4891 2.3148
# 5 5.1403 15.4289 5.9053 -1.4891 30.1635 5.2839
# 6 1.4821 12.5105 1.3454 2.3148 5.2839 32.9699
#
#
#
# Elastic Compliance Matrix: (Units=1/GPa)
#
#
# Indices 1 2 3 4 5 6 
#
# 1 0.024610 -0.001774 -0.004737 0.001161 -0.002310 0.000049
# 2 -0.001774 0.019720 -0.000986 -0.003542 -0.008766 -0.005709
# 3 -0.004737 -0.000986 0.011992 -0.002597 -0.001249 0.000480
# 4 0.001161 -0.003542 -0.002597 0.028539 0.003743 -0.001206
# 5 -0.002310 -0.008766 -0.001249 0.003743 0.038990 -0.003030
# 6 0.000049 -0.005709 0.000480 -0.001206 -0.003030 0.033045
#
#
# Mechanical properties :
#
#
# Convention : Reuss Voigt Hill
#
# Bulk Modulus (GPa) = 24.19696 30.99113 27.59405
# Shear Modulus (GPa) = 26.93001 31.05013 28.99007
#
# Velocity S-wave (km/s) = 3.46120 3.71656 3.59115
# Velocity P-wave (km/s) = 5.17082 5.67482 5.42867
#
# Compressibility (1/GPa) = 0.04132750
#
# Stress axis : x y z
#
# Youngs Moduli (GPa) = 40.63445 50.71087 83.38690
#
# Poissons Ratio (x) = 0.08995 0.39504
# Poissons Ratio (y) = 0.07208 0.08220
# Poissons Ratio (z) = 0.19250 0.04999
#
# Static dielectric constant tensor:
#      x y z
#    x 1.812200 0.008970 0.006430 
#    y 0.008970 1.857660 0.018130 
#    z 0.006430 0.018130 1.817460 
# 
# From -- ./inp_files/184018.got.cif
#   From: 2010.05.17/outbox.cif.g08.bks.cpg/sg2_93_cif.got.tgz:184018.got - 2010.06.03 11:33:40.
