data_PCOD9066740
_publ_section_title
;
Structure prediction by ZEFSAII (Michael W. Deem and Ramdas Pophale) SiO2 
 PCOD9066740
Probable space group: P -1
;
_chemical_formula_sum "Si O2"
_cell_formula_units_Z 16
_cell_length_a 11.996669
_cell_length_b 8.698175
_cell_length_c 20.959671
_cell_angle_alpha 132.740943
_cell_angle_beta 141.787962
_cell_angle_gamma 33.067396
_cell_volume 736.848186
_symmetry_space_group_name_H-M "P -1"
_symmetry_group_IT_number 2
_symmetry_cell_setting 'triclinic'
loop_
_space_group_symop_operation_xyz
x,y,z
-x,-y,-z
loop_
_atom_site_type_symbol
_atom_site_label
_atom_site_fract_x
_atom_site_fract_y
_atom_site_fract_z
Si Si1 0.739808 0.688708 0.338004
Si Si2 0.954453 0.784334 0.234861
Si Si3 0.405311 0.342803 0.398792
Si Si4 0.103280 0.631699 0.114721
Si Si5 0.626806 0.404222 0.298837
Si Si6 0.350431 0.307691 0.850740
Si Si7 0.864687 0.084198 0.029752
Si Si8 0.289440 0.331368 0.484118
O O1 0.612161 0.602184 0.295837
O O2 0.718785 0.668760 0.247415
O O3 0.021467 0.470960 0.423974
O O4 0.612803 0.010344 0.385067
O O5 0.759621 0.779970 0.177093
O O6 0.211502 0.512942 0.303060
O O7 0.973313 0.761679 0.160965
O O8 0.866858 0.081372 0.301535
O O9 0.500000 0.500000 0.500000
O O10 0.276405 0.372234 0.414217
O O11 0.392094 0.436825 0.199270
O O12 0.033044 0.868812 0.100770
O O13 0.000000 0.500000 0.000000
O O14 0.643856 0.507646 0.403444
O O15 0.241512 0.610776 0.911599
O O16 0.640468 0.099088 0.926190
O O17 0.000000 0.000000 0.000000
O O18 0.500000 0.000000 0.500000
#
# Coordination Sequence:
#
# PCOD9066740 Si02
#       8
#     2   2   2   2   2   2   2   2
#     4  12  27  47  76 108 151 196 249 300 369 447
#     4  12  28  46  74 107 153 189 247 304 372 431
#     4  12  28  46  75 106 151 198 242 304 368 438
#     4  12  28  47  76 107 151 197 248 305 375 437
#     4  12  28  46  76 109 150 196 250 306 369 442
#     4  11  26  44  71 108 142 193 246 305 365 439
#     4  11  25  46  75 102 147 191 249 304 370 433
#     4  12  27  47  76 112 149 194 251 303 371 443
#
# _framework density 21.714106999999998
#
# number of rings (size 3 to 8) (size 9 to 14) (size 15 to 20)
#    0.000    0.250    2.500    4.875   14.000    5.000 
#    0.000    0.000    0.000    0.000    0.000    0.000 
#    0.000    0.000    0.000    0.000    0.000    0.000 
#
# Total GULP energy -89601.053373 kJ/mol
# GULP energy per Si atom -5600.065836 kJ/mol
# Density = 2.166468 g / cm^3
# Si number density = 21.714107 Si / 1000 Ang^3
#
#
#
# Elastic Constant Matrix: (Units=GPa)
#
#
# Indices 1 2 3 4 5 6 
#
# 1 119.1864 27.1508 35.5588 3.4682 -14.3141 -6.5869
# 2 27.1508 132.3565 42.2230 6.0870 0.2416 -4.7863
# 3 35.5588 42.2230 105.0283 1.6748 -1.1134 -15.7318
# 4 3.4682 6.0870 1.6748 36.3002 -2.4043 -0.3153
# 5 -14.3141 0.2416 -1.1134 -2.4043 54.2706 0.2590
# 6 -6.5869 -4.7863 -15.7318 -0.3153 0.2590 34.8415
#
#
#
# Elastic Compliance Matrix: (Units=1/GPa)
#
#
# Indices 1 2 3 4 5 6 
#
# 1 0.009808 -0.001092 -0.002784 -0.000455 0.002512 0.000424
# 2 -0.001092 0.008857 -0.003245 -0.001265 -0.000448 -0.000463
# 3 -0.002784 -0.003245 0.012457 0.000244 -0.000476 0.004658
# 4 -0.000455 -0.001265 0.000244 0.027868 0.001125 0.000094
# 5 0.002512 -0.000448 -0.000476 0.001125 0.019131 0.000067
# 6 0.000424 -0.000463 0.004658 0.000094 0.000067 0.030822
#
#
# Mechanical properties :
#
#
# Convention : Reuss Voigt Hill
#
# Bulk Modulus (GPa) = 59.24193 62.93741 61.08967
# Shear Modulus (GPa) = 38.81667 41.85835 40.33751
#
# Velocity S-wave (km/s) = 4.23262 4.39532 4.31474
# Velocity P-wave (km/s) = 7.15742 7.40311 7.28130
#
# Compressibility (1/GPa) = 0.01687994
#
# Stress axis : x y z
#
# Youngs Moduli (GPa) = 101.95664 112.90867 80.27542
#
# Poissons Ratio (x) = 0.12331 0.22350
# Poissons Ratio (y) = 0.11135 0.26047
# Poissons Ratio (z) = 0.28387 0.36636
#
# Static dielectric constant tensor:
#      x y z
#    x 1.736900 0.031270 0.024150 
#    y 0.031270 1.783260 -0.011060 
#    z 0.024150 -0.011060 1.782640 
# 
# From -- ./inp_files/495199.got.cif
#   From: 2010.05.17/outbox.cif.g08.bks.cpg/sg2_248_cif.got.tgz:495199.got - 2010.06.03 11:33:40.
