data_PCOD9066907
_publ_section_title
;
Structure prediction by ZEFSAII (Michael W. Deem and Ramdas Pophale) SiO2 
 PCOD9066907
Probable space group: P -1
;
_chemical_formula_sum "Si O2"
_cell_formula_units_Z 16
_cell_length_a 12.554197
_cell_length_b 17.935710
_cell_length_c 15.261800
_cell_angle_alpha 150.260595
_cell_angle_beta 27.417910
_cell_angle_gamma 132.474091
_cell_volume 713.071439
_symmetry_space_group_name_H-M "P -1"
_symmetry_group_IT_number 2
_symmetry_cell_setting 'triclinic'
loop_
_space_group_symop_operation_xyz
x,y,z
-x,-y,-z
loop_
_atom_site_type_symbol
_atom_site_label
_atom_site_fract_x
_atom_site_fract_y
_atom_site_fract_z
Si Si1 0.418982 0.511762 0.672384
Si Si2 0.392287 0.699165 0.283170
Si Si3 0.044852 0.235738 0.631964
Si Si4 0.852531 0.834875 0.818351
Si Si5 0.495983 0.834773 0.663926
Si Si6 0.248146 0.230563 0.776587
Si Si7 0.313927 0.877956 0.338613
Si Si8 0.157612 0.405959 0.555411
O O1 0.500000 0.500000 0.500000
O O2 0.512773 0.326714 0.451253
O O3 0.571224 0.615606 0.700967
O O4 0.133702 0.623005 0.025813
O O5 0.589738 0.754815 0.244993
O O6 0.356683 0.763173 0.274773
O O7 0.119018 0.795928 0.631431
O O8 0.500000 0.500000 0.000000
O O9 0.875155 0.153486 0.624602
O O10 0.296398 0.124958 0.390622
O O11 0.141425 0.321187 0.571810
O O12 0.945542 0.675727 0.525774
O O13 0.598022 0.849140 0.068168
O O14 0.755932 0.998436 0.995085
O O15 0.598615 0.780441 0.435873
O O16 0.194141 0.069000 0.650824
O O17 0.001321 0.399856 0.123832
#
# Coordination Sequence:
#
# PCOD9066907 Si02
#       8
#     2   2   2   2   2   2   2   2
#     4  12  24  42  72 105 143 191 235 284 351 422
#     4  12  25  49  76  98 144 187 233 300 356 411
#     4  12  23  47  70 102 151 187 231 287 354 417
#     4  11  26  47  69 109 136 184 237 286 357 418
#     4  11  26  45  71 104 147 184 235 295 345 421
#     4  11  25  47  72 105 142 187 236 294 354 412
#     4  11  26  46  73 107 142 183 239 291 350 422
#     4  12  23  44  70 104 142 183 237 283 352 423
#
# _framework density 22.438146
#
# number of rings (size 3 to 8) (size 9 to 14) (size 15 to 20)
#    0.000    0.500    6.250    1.500    1.750    5.000 
#    4.500    0.000    0.000    0.000    0.000    0.000 
#    0.000    0.000    0.000    0.000    0.000    0.000 
#
# Total GULP energy -89366.365418 kJ/mol
# GULP energy per Si atom -5585.397839 kJ/mol
# Density = 2.238708 g / cm^3
# Si number density = 22.438146 Si / 1000 Ang^3
#
#
#
# Elastic Constant Matrix: (Units=GPa)
#
#
# Indices 1 2 3 4 5 6 
#
# 1 67.1488 11.9375 6.4550 0.1527 -1.0630 10.3126
# 2 11.9375 126.3983 34.7268 4.6148 -1.5691 -0.9024
# 3 6.4550 34.7268 106.3809 12.7518 -11.1476 3.8929
# 4 0.1527 4.6148 12.7518 38.4924 7.3101 -6.2051
# 5 -1.0630 -1.5691 -11.1476 7.3101 32.2144 -1.2414
# 6 10.3126 -0.9024 3.8929 -6.2051 -1.2414 32.4920
#
#
#
# Elastic Compliance Matrix: (Units=1/GPa)
#
#
# Indices 1 2 3 4 5 6 
#
# 1 0.015979 -0.001467 -0.000173 -0.000740 0.000363 -0.005219
# 2 -0.001467 0.008847 -0.002931 0.000211 -0.000638 0.001078
# 3 -0.000173 -0.002931 0.011517 -0.004722 0.004827 -0.002124
# 4 -0.000740 0.000211 -0.004722 0.030091 -0.008236 0.006239
# 5 0.000363 -0.000638 0.004827 -0.008236 0.034525 -0.000965
# 6 -0.005219 0.001078 -0.002124 0.006239 -0.000965 0.033872
#
#
# Mechanical properties :
#
#
# Convention : Reuss Voigt Hill
#
# Bulk Modulus (GPa) = 36.76287 45.12961 40.94624
# Shear Modulus (GPa) = 32.67122 37.09366 34.88244
#
# Velocity S-wave (km/s) = 3.81997 4.07031 3.94712
# Velocity P-wave (km/s) = 5.98965 6.49973 6.24989
#
# Compressibility (1/GPa) = 0.02720136
#
# Stress axis : x y z
#
# Youngs Moduli (GPa) = 62.58318 113.02841 86.82883
#
# Poissons Ratio (x) = 0.16585 0.01500
# Poissons Ratio (y) = 0.09183 0.25447
# Poissons Ratio (z) = 0.01081 0.33125
#
# Static dielectric constant tensor:
#      x y z
#    x 1.895360 0.093030 -0.035650 
#    y 0.093030 1.901400 -0.077300 
#    z -0.035650 -0.077300 1.884770 
# 
# From -- ./inp_files/523463.got.cif
#   From: 2010.05.17/outbox.cif.g08.bks.cpg/sg2_262_cif.got.tgz:523463.got - 2010.06.03 11:33:40.
