data_PCOD9066827
_publ_section_title
;
Structure prediction by ZEFSAII (Michael W. Deem and Ramdas Pophale) SiO2 
 PCOD9066827
Probable space group: P -1
;
_chemical_formula_sum "Si O2"
_cell_formula_units_Z 13
_cell_length_a 10.940874
_cell_length_b 8.108908
_cell_length_c 12.203163
_cell_angle_alpha 145.466285
_cell_angle_beta 127.059282
_cell_angle_gamma 59.921637
_cell_volume 489.747587
_symmetry_space_group_name_H-M "P -1"
_symmetry_group_IT_number 2
_symmetry_cell_setting 'triclinic'
loop_
_space_group_symop_operation_xyz
x,y,z
-x,-y,-z
loop_
_atom_site_type_symbol
_atom_site_label
_atom_site_fract_x
_atom_site_fract_y
_atom_site_fract_z
Si Si1 0.186540 0.440263 0.700421
Si Si2 0.462451 0.783930 0.762853
Si Si3 0.771277 0.751786 0.145479
Si Si4 0.531178 0.259837 0.742917
Si Si5 0.973616 0.031740 0.218540
Si Si6 0.680372 0.764741 0.679454
Si Si7 0.000000 0.000000 0.000000
O O1 0.151972 0.332993 0.744830
O O2 0.368679 0.404071 0.765480
O O3 0.126640 0.770636 0.819182
O O4 0.092837 0.236547 0.455769
O O5 0.609628 0.702955 0.726437
O O6 0.336521 0.969018 0.729283
O O7 0.652770 0.502301 0.907028
O O8 0.500000 0.000000 0.000000
O O9 0.875816 0.864050 0.163398
O O10 0.378817 0.479457 0.570673
O O11 0.500000 0.000000 0.500000
O O12 0.611261 0.080027 0.785819
O O13 0.051726 0.844004 0.064760
O O14 0.860271 0.766350 0.780266
#
# Coordination Sequence:
#
# PCOD9066827 Si02
#       7
#     2   2   2   2   2   2   1
#     4  11  26  51  77 115 157 204 262 322 401 474
#     4  11  25  46  80 116 155 206 271 329 397 477
#     4  12  26  48  81 117 153 204 271 323 396 479
#     4  12  26  47  75 115 158 201 263 328 394 473
#     4  11  28  49  79 112 157 210 257 328 402 476
#     4  11  26  49  73 116 159 207 257 332 400 473
#     4  12  26  50  74 112 162 206 260 324 408 472
#
# _framework density 26.544287000000001
#
# number of rings (size 3 to 8) (size 9 to 14) (size 15 to 20)
#    0.000    0.615    1.538    4.615   10.769    1.231 
#    2.769    3.846    0.000    0.000    0.000    0.000 
#    0.000    0.000    0.000    0.000    0.000    0.000 
#
# Total GULP energy -72666.150888 kJ/mol
# GULP energy per Si atom -5589.703914 kJ/mol
# Density = 2.648387 g / cm^3
# Si number density = 26.544287 Si / 1000 Ang^3
#
#
#
# Elastic Constant Matrix: (Units=GPa)
#
#
# Indices 1 2 3 4 5 6 
#
# 1 138.0522 42.7335 57.9572 -6.3267 19.2586 28.1244
# 2 42.7335 152.4356 57.9746 -7.5266 3.3981 5.0203
# 3 57.9572 57.9746 169.5605 1.4749 9.5222 18.4339
# 4 -6.3267 -7.5266 1.4749 47.5746 8.4868 -5.5610
# 5 19.2586 3.3981 9.5222 8.4868 55.5276 0.4947
# 6 28.1244 5.0203 18.4339 -5.5610 0.4947 58.2468
#
#
#
# Elastic Compliance Matrix: (Units=1/GPa)
#
#
# Indices 1 2 3 4 5 6 
#
# 1 0.009983 -0.001683 -0.002257 0.001243 -0.003128 -0.003816
# 2 -0.001683 0.007910 -0.002260 0.001155 0.000302 0.000954
# 3 -0.002257 -0.002260 0.007594 -0.000996 -0.000218 -0.001212
# 4 0.001243 0.001155 -0.000996 0.022275 -0.003751 0.001774
# 5 -0.003128 0.000302 -0.000218 -0.003751 0.019677 0.001028
# 6 -0.003816 0.000954 -0.001212 0.001774 0.001028 0.019473
#
#
# Mechanical properties :
#
#
# Convention : Reuss Voigt Hill
#
# Bulk Modulus (GPa) = 76.41127 86.37541 81.39334
# Shear Modulus (GPa) = 48.22704 52.36201 50.29453
#
# Velocity S-wave (km/s) = 4.26708 4.44625 4.35758
# Velocity P-wave (km/s) = 7.28877 7.67916 7.48651
#
# Compressibility (1/GPa) = 0.01308707
#
# Stress axis : x y z
#
# Youngs Moduli (GPa) = 100.17041 126.41437 131.67456
#
# Poissons Ratio (x) = 0.21281 0.29719
# Poissons Ratio (y) = 0.16863 0.29759
# Poissons Ratio (z) = 0.22608 0.28570
#
# Static dielectric constant tensor:
#      x y z
#    x 1.624920 0.331220 0.261840 
#    y 0.331220 2.023260 -0.193670 
#    z 0.261840 -0.193670 1.892910 
# 
# From -- ./inp_files/413756.got.cif
#   From: 2010.05.17/outbox.cif.g08.bks.cpg/sg2_207_cif.got.tgz:413756.got - 2010.06.03 11:33:40.
