data_PCOD9066886
_publ_section_title
;
Structure prediction by ZEFSAII (Michael W. Deem and Ramdas Pophale) SiO2 
 PCOD9066886
Probable space group: P -1
;
_chemical_formula_sum "Si O2"
_cell_formula_units_Z 16
_cell_length_a 8.507591
_cell_length_b 15.937961
_cell_length_c 12.867674
_cell_angle_alpha 35.088635
_cell_angle_beta 42.221196
_cell_angle_gamma 45.929195
_cell_volume 655.620036
_symmetry_space_group_name_H-M "P -1"
_symmetry_group_IT_number 2
_symmetry_cell_setting 'triclinic'
loop_
_space_group_symop_operation_xyz
x,y,z
-x,-y,-z
loop_
_atom_site_type_symbol
_atom_site_label
_atom_site_fract_x
_atom_site_fract_y
_atom_site_fract_z
Si Si1 0.802512 0.637225 0.541328
Si Si2 0.732416 0.865088 0.007057
Si Si3 0.251645 0.462896 0.608785
Si Si4 0.924029 0.162358 0.321757
Si Si5 0.493690 0.170710 0.359446
Si Si6 0.478525 0.622526 0.061793
Si Si7 0.241847 0.552781 0.736964
Si Si8 0.999463 0.847016 0.098613
O O1 0.753770 0.758228 0.534543
O O2 0.610156 0.532950 0.749001
O O3 0.809825 0.753020 0.326861
O O4 0.051233 0.520712 0.561388
O O5 0.849433 0.836753 0.864981
O O6 0.670080 0.710750 0.225372
O O7 0.938962 0.880721 0.973093
O O8 0.500000 0.000000 0.000000
O O9 0.112343 0.533489 0.712119
O O10 0.492987 0.485797 0.410843
O O11 0.700829 0.172332 0.341810
O O12 0.845902 0.289118 0.321158
O O13 0.000000 0.000000 0.500000
O O14 0.500000 0.000000 0.500000
O O15 0.501066 0.286644 0.144811
O O16 0.717896 0.572016 0.064985
O O17 0.257596 0.738781 0.105033
O O18 0.000000 0.000000 0.000000
#
# Coordination Sequence:
#
# PCOD9066886 Si02
#       8
#     2   2   2   2   2   2   2   2
#     4  12  24  44  78 104 140 192 246 301 358 429
#     4  12  28  47  71 105 148 191 240 301 365 437
#     4  11  25  47  71 108 140 188 246 298 357 431
#     4  12  28  48  70 102 149 193 239 298 370 434
#     4  12  28  46  72 108 148 192 240 304 366 431
#     4  12  23  48  71 105 141 187 248 302 356 428
#     4  11  26  45  74 103 143 190 241 300 359 430
#     4  12  26  44  74 108 147 189 244 299 363 430
#
# _framework density 24.404381000000001
#
# number of rings (size 3 to 8) (size 9 to 14) (size 15 to 20)
#    0.000    0.250    5.000    3.000    7.000    1.500 
#    0.000    0.000    0.000    0.000    0.000    0.000 
#    0.000    0.000    0.000    0.000    0.000    0.000 
#
# Total GULP energy -89332.628300 kJ/mol
# GULP energy per Si atom -5583.289269 kJ/mol
# Density = 2.434884 g / cm^3
# Si number density = 24.404381 Si / 1000 Ang^3
#
#
#
# Elastic Constant Matrix: (Units=GPa)
#
#
# Indices 1 2 3 4 5 6 
#
# 1 53.5322 46.0244 36.9331 -21.6074 33.8322 3.6268
# 2 46.0244 199.2682 50.7895 -33.1888 16.6997 21.9374
# 3 36.9331 50.7895 137.6869 -9.6072 36.0663 16.9508
# 4 -21.6074 -33.1888 -9.6072 39.0995 0.2920 3.8655
# 5 33.8322 16.6997 36.0663 0.2920 44.7192 -1.1773
# 6 3.6268 21.9374 16.9508 3.8655 -1.1773 50.0166
#
#
#
# Elastic Compliance Matrix: (Units=1/GPa)
#
#
# Indices 1 2 3 4 5 6 
#
# 1 0.071429 -0.005335 -0.000129 0.035977 -0.052358 -0.006809
# 2 -0.005335 0.007170 -0.001302 0.003048 0.002324 -0.002498
# 3 -0.000129 -0.001302 0.010362 0.001750 -0.007870 -0.003252
# 4 0.035977 0.003048 0.001750 0.049599 -0.030331 -0.009086
# 5 -0.052358 0.002324 -0.007870 -0.030331 0.067897 0.009387
# 6 -0.006809 -0.002498 -0.003252 -0.009086 0.009387 0.023608
#
#
# Mechanical properties :
#
#
# Convention : Reuss Voigt Hill
#
# Bulk Modulus (GPa) = 13.25763 73.10903 43.18333
# Shear Modulus (GPa) = 18.60524 43.88307 31.24416
#
# Velocity S-wave (km/s) = 2.76411 4.24508 3.58197
# Velocity P-wave (km/s) = 3.95365 7.35187 5.90260
#
# Compressibility (1/GPa) = 0.07542824
#
# Stress axis : x y z
#
# Youngs Moduli (GPa) = 13.99988 139.46181 96.50944
#
# Poissons Ratio (x) = 0.74409 0.01242
# Poissons Ratio (y) = 0.07470 0.12569
# Poissons Ratio (z) = 0.00180 0.18163
#
# Static dielectric constant tensor:
#      x y z
#    x 2.171940 0.061370 -0.071670 
#    y 0.061370 1.969020 0.107050 
#    z -0.071670 0.107050 2.000050 
# 
# From -- ./inp_files/398341.got.cif
#   From: 2010.05.17/outbox.cif.g08.bks.cpg/sg2_200_cif.got.tgz:398341.got - 2010.06.03 11:33:40.
