data_PCOD9066619
_publ_section_title
;
Structure prediction by ZEFSAII (Michael W. Deem and Ramdas Pophale) SiO2 
 PCOD9066619
Probable space group: P -1
;
_chemical_formula_sum "Si O2"
_cell_formula_units_Z 16
_cell_length_a 11.574996
_cell_length_b 12.616745
_cell_length_c 9.109775
_cell_angle_alpha 107.636783
_cell_angle_beta 53.962022
_cell_angle_gamma 64.186055
_cell_volume 620.055113
_symmetry_space_group_name_H-M "P -1"
_symmetry_group_IT_number 2
_symmetry_cell_setting 'triclinic'
loop_
_space_group_symop_operation_xyz
x,y,z
-x,-y,-z
loop_
_atom_site_type_symbol
_atom_site_label
_atom_site_fract_x
_atom_site_fract_y
_atom_site_fract_z
Si Si1 0.887849 0.471856 0.837300
Si Si2 0.735509 0.427832 0.433705
Si Si3 0.826575 0.081517 0.530389
Si Si4 0.187269 0.021792 0.807020
Si Si5 0.511410 0.642589 0.427505
Si Si6 0.401593 0.219361 0.042296
Si Si7 0.410474 0.140451 0.344551
Si Si8 0.242147 0.632583 0.308129
O O1 0.904267 0.338901 0.693653
O O2 0.136441 0.325752 0.671977
O O3 0.661510 0.603465 0.168886
O O4 0.826040 0.601959 0.812620
O O5 0.653729 0.568134 0.438818
O O6 0.525316 0.465790 0.616832
O O7 0.768817 0.444143 0.580242
O O8 0.970309 0.225918 0.113192
O O9 0.852174 0.974511 0.337278
O O10 0.588967 0.195914 0.840356
O O11 0.835606 0.199522 0.502360
O O12 0.000000 0.000000 0.500000
O O13 0.255415 0.854002 0.732532
O O14 0.418840 0.931942 0.676847
O O15 0.500376 0.039896 0.834056
O O16 0.410120 0.198768 0.204878
O O17 0.500000 0.500000 0.000000
#
# Coordination Sequence:
#
# PCOD9066619 Si02
#       8
#     2   2   2   2   2   2   2   2
#     4  12  25  51  77 107 155 200 252 312 377 447
#     4  11  26  43  73 111 154 191 246 312 380 446
#     4  12  27  46  79 111 149 196 246 315 391 446
#     4  12  27  50  69 110 155 196 251 310 367 452
#     4  11  25  46  72 110 146 198 248 309 386 438
#     4  11  25  52  72 112 148 204 260 308 375 443
#     4  11  30  46  76 107 152 208 262 301 370 454
#     4  12  23  46  75 113 149 189 247 312 380 459
#
# _framework density 25.804157
#
# number of rings (size 3 to 8) (size 9 to 14) (size 15 to 20)
#    0.000    0.500    5.000    1.500   10.500    2.000 
#    0.000    0.000    0.000    0.000    0.000    0.000 
#    0.000    0.000    0.000    0.000    0.000    0.000 
#
# Total GULP energy -89314.087400 kJ/mol
# GULP energy per Si atom -5582.130463 kJ/mol
# Density = 2.574543 g / cm^3
# Si number density = 25.804157 Si / 1000 Ang^3
#
#
#
# Elastic Constant Matrix: (Units=GPa)
#
#
# Indices 1 2 3 4 5 6 
#
# 1 140.6594 44.9241 39.2261 13.1347 4.9727 -26.6983
# 2 44.9241 135.7841 48.3053 -6.6093 -0.0682 -24.7091
# 3 39.2261 48.3053 122.0300 6.0464 11.1430 -25.5331
# 4 13.1347 -6.6093 6.0464 31.1507 -4.4510 -1.1511
# 5 4.9727 -0.0682 11.1430 -4.4510 38.4858 2.2400
# 6 -26.6983 -24.7091 -25.5331 -1.1511 2.2400 49.0750
#
#
#
# Elastic Compliance Matrix: (Units=1/GPa)
#
#
# Indices 1 2 3 4 5 6 
#
# 1 0.009205 -0.002297 -0.001001 -0.004280 -0.001591 0.003302
# 2 -0.002297 0.009778 -0.003021 0.003925 0.001519 0.002124
# 3 -0.001001 -0.003021 0.010955 -0.002719 -0.003580 0.003734
# 4 -0.004280 0.003925 -0.002719 0.036021 0.005581 -0.001176
# 5 -0.001591 0.001519 -0.003580 0.005581 0.028055 -0.003113
# 6 0.003302 0.002124 0.003734 -0.001176 -0.003113 0.025300
#
#
# Mechanical properties :
#
#
# Convention : Reuss Voigt Hill
#
# Bulk Modulus (GPa) = 57.80641 73.70941 65.75791
# Shear Modulus (GPa) = 36.30574 41.47685 38.89130
#
# Velocity S-wave (km/s) = 3.75503 4.01355 3.88644
# Velocity P-wave (km/s) = 6.42269 7.07849 6.75855
#
# Compressibility (1/GPa) = 0.01729912
#
# Stress axis : x y z
#
# Youngs Moduli (GPa) = 108.63615 102.27292 91.28170
#
# Poissons Ratio (x) = 0.23497 0.09139
# Poissons Ratio (y) = 0.24959 0.27574
# Poissons Ratio (z) = 0.10877 0.30894
#
# Static dielectric constant tensor:
#      x y z
#    x 2.120090 -0.129330 0.012170 
#    y -0.129330 2.364010 0.001690 
#    z 0.012170 0.001690 1.987880 
# 
# From -- ./inp_files/273612.got.cif
#   From: 2010.05.17/outbox.cif.g08.bks.cpg/sg2_137_cif.got.tgz:273612.got - 2010.06.03 11:33:40.
