data_PCOD9066738
_publ_section_title
;
Structure prediction by ZEFSAII (Michael W. Deem and Ramdas Pophale) SiO2 
 PCOD9066738
Probable space group: P -1
;
_chemical_formula_sum "Si O2"
_cell_formula_units_Z 16
_cell_length_a 12.553457
_cell_length_b 19.289926
_cell_length_c 14.987837
_cell_angle_alpha 31.202859
_cell_angle_beta 27.793638
_cell_angle_gamma 27.970710
_cell_volume 746.867758
_symmetry_space_group_name_H-M "P -1"
_symmetry_group_IT_number 2
_symmetry_cell_setting 'triclinic'
loop_
_space_group_symop_operation_xyz
x,y,z
-x,-y,-z
loop_
_atom_site_type_symbol
_atom_site_label
_atom_site_fract_x
_atom_site_fract_y
_atom_site_fract_z
Si Si1 0.108472 0.935835 0.136594
Si Si2 0.816014 0.566131 0.650061
Si Si3 0.241736 0.602147 0.767633
Si Si4 0.155850 0.246205 0.423825
Si Si5 0.327928 0.577989 0.932862
Si Si6 0.296469 0.790652 0.967438
Si Si7 0.322019 0.279434 0.984583
Si Si8 0.336252 0.443666 0.624423
O O1 0.400398 0.875764 0.025870
O O2 0.953746 0.869008 0.379822
O O3 0.159772 0.848678 0.099646
O O4 0.917124 0.115983 0.054487
O O5 0.860029 0.689769 0.534527
O O6 0.506291 0.645027 0.762822
O O7 0.000000 0.500000 0.500000
O O8 0.851783 0.437392 0.840549
O O9 0.209448 0.638117 0.856983
O O10 0.307095 0.424315 0.892913
O O11 0.488172 0.612116 0.534297
O O12 0.958959 0.710782 0.806916
O O13 0.464733 0.172387 0.251459
O O14 0.956529 0.406007 0.342001
O O15 0.554397 0.394654 0.948888
O O16 0.327113 0.320272 0.831696
O O17 0.500000 0.500000 0.500000
#
# Coordination Sequence:
#
# PCOD9066738 Si02
#       8
#     2   2   2   2   2   2   2   2
#     4  11  20  32  47  72 105 136 167 189 236 300
#     4  10  20  30  53  71  96 130 161 211 253 284
#     4  10  18  30  48  69 103 128 157 206 247 291
#     4  11  20  34  49  75 103 127 166 202 249 295
#     4  10  19  35  48  75 100 126 168 203 247 293
#     4  10  21  32  49  67 104 140 162 199 233 289
#     4  10  19  28  47  72  99 135 159 193 248 293
#     4  10  18  28  47  70  99 130 156 200 246 292
#
# _framework density 21.422802000000001
#
# number of rings (size 3 to 8) (size 9 to 14) (size 15 to 20)
#    0.000    1.750    3.750    3.375    3.500    0.000 
#    0.000    0.000    0.000    0.000    0.000   14.000 
#    0.000   29.250    0.000    0.000    0.000    0.000 
#
# Total GULP energy -89284.577287 kJ/mol
# GULP energy per Si atom -5580.286080 kJ/mol
# Density = 2.137404 g / cm^3
# Si number density = 21.422802 Si / 1000 Ang^3
#
#
#
# Elastic Constant Matrix: (Units=GPa)
#
#
# Indices 1 2 3 4 5 6 
#
# 1 87.4481 9.4964 18.0878 4.5882 8.0837 -18.6420
# 2 9.4964 61.5780 7.0392 8.7412 -13.7486 -30.8509
# 3 18.0878 7.0392 78.5393 20.0191 17.0172 -3.3260
# 4 4.5882 8.7412 20.0191 18.0963 -3.5344 -2.8274
# 5 8.0837 -13.7486 17.0172 -3.5344 31.9244 10.9369
# 6 -18.6420 -30.8509 -3.3260 -2.8274 10.9369 41.6509
#
#
#
# Elastic Compliance Matrix: (Units=1/GPa)
#
#
# Indices 1 2 3 4 5 6 
#
# 1 0.013972 0.001344 -0.001053 -0.002802 -0.005602 0.008446
# 2 0.001344 0.028293 -0.000518 -0.009508 0.004305 0.019741
# 3 -0.001053 -0.000518 0.024467 -0.029392 -0.017522 0.003704
# 4 -0.002802 -0.009508 -0.029392 0.096572 0.026784 -0.011121
# 5 -0.005602 0.004305 -0.017522 0.026784 0.051123 -0.012324
# 6 0.008446 0.019741 0.003704 -0.011121 -0.012324 0.045188
#
#
# Mechanical properties :
#
#
# Convention : Reuss Voigt Hill
#
# Bulk Modulus (GPa) = 15.08816 32.97915 24.03366
# Shear Modulus (GPa) = 17.72026 31.19710 24.45868
#
# Velocity S-wave (km/s) = 2.87917 3.82023 3.38259
# Velocity P-wave (km/s) = 4.25572 5.90650 5.14771
#
# Compressibility (1/GPa) = 0.06627712
#
# Stress axis : x y z
#
# Youngs Moduli (GPa) = 71.56932 35.34478 40.87199
#
# Poissons Ratio (x) = -0.04750 0.04303
# Poissons Ratio (y) = -0.09619 0.02119
# Poissons Ratio (z) = 0.07536 0.01833
#
# Static dielectric constant tensor:
#      x y z
#    x 1.830470 -0.007240 0.018380 
#    y -0.007240 1.773240 0.013340 
#    z 0.018380 0.013340 1.863610 
# 
# From -- ./inp_files/449896.got.cif
#   From: 2010.05.17/outbox.cif.g08.bks.cpg/sg2_225_cif.got.tgz:449896.got - 2010.06.03 11:33:40.
