data_PCOD9066430
_publ_section_title
;
Structure prediction by ZEFSAII (Michael W. Deem and Ramdas Pophale) SiO2 
 PCOD9066430
Probable space group: P -1
;
_chemical_formula_sum "Si O2"
_cell_formula_units_Z 11
_cell_length_a 16.300669
_cell_length_b 9.165371
_cell_length_c 13.314182
_cell_angle_alpha 33.228699
_cell_angle_beta 155.972893
_cell_angle_gamma 139.292904
_cell_volume 443.665993
_symmetry_space_group_name_H-M "P -1"
_symmetry_group_IT_number 2
_symmetry_cell_setting 'triclinic'
loop_
_space_group_symop_operation_xyz
x,y,z
-x,-y,-z
loop_
_atom_site_type_symbol
_atom_site_label
_atom_site_fract_x
_atom_site_fract_y
_atom_site_fract_z
Si Si1 0.000000 0.000000 0.000000
Si Si2 0.209176 0.267254 0.253492
Si Si3 0.188743 0.415982 0.831751
Si Si4 0.640563 0.067931 0.821369
Si Si5 0.536356 0.803043 0.061309
Si Si6 0.843895 0.565321 0.684426
O O1 0.891941 0.729266 0.075786
O O2 0.890172 0.965269 0.787119
O O3 0.438604 0.252798 0.482793
O O4 0.208719 0.248267 0.386528
O O5 0.078596 0.540534 0.932786
O O6 0.000000 0.500000 0.500000
O O7 0.337064 0.654134 0.888508
O O8 0.333960 0.191389 0.070094
O O9 0.806837 0.268546 0.855478
O O10 0.635975 0.954402 0.993188
O O11 0.704818 0.599628 0.412743
O O12 0.500000 0.000000 0.000000
#
# Coordination Sequence:
#
# PCOD9066430 Si02
#       6
#     1   2   2   2   2   2
#     4  12  26  48  76 106 152 204 254 310 390 448
#     4  11  25  45  78 109 154 197 257 313 383 462
#     4  12  30  49  78 116 155 204 260 325 385 459
#     4  12  26  50  79 110 154 201 259 324 378 463
#     4  12  28  49  81 115 153 205 258 314 394 461
#     4  11  26  50  74 115 154 203 255 321 386 456
#
# _framework density 24.793424999999999
#
# number of rings (size 3 to 8) (size 9 to 14) (size 15 to 20)
#    0.000    0.364    3.636    3.273    7.636    1.455 
#    0.000    4.545    0.000    0.000    0.000    0.000 
#    0.000    0.000    0.000    0.000    0.000    0.000 
#
# Total GULP energy -61245.048224 kJ/mol
# GULP energy per Si atom -5567.731657 kJ/mol
# Density = 2.473699 g / cm^3
# Si number density = 24.793425 Si / 1000 Ang^3
#
#
#
# Elastic Constant Matrix: (Units=GPa)
#
#
# Indices 1 2 3 4 5 6 
#
# 1 103.3067 40.7236 46.1219 -13.8433 -12.5763 4.8604
# 2 40.7236 134.6706 43.4075 1.4548 -19.5473 -6.4451
# 3 46.1219 43.4075 133.2567 24.0846 -7.6808 14.0785
# 4 -13.8433 1.4548 24.0846 37.9793 -3.4580 -8.1599
# 5 -12.5763 -19.5473 -7.6808 -3.4580 54.2269 -13.5037
# 6 4.8604 -6.4451 14.0785 -8.1599 -13.5037 45.6896
#
#
#
# Elastic Compliance Matrix: (Units=1/GPa)
#
#
# Indices 1 2 3 4 5 6 
#
# 1 0.015133 -0.001896 -0.006711 0.010817 0.003340 0.003109
# 2 -0.001896 0.009710 -0.003094 0.002102 0.003755 0.004010
# 3 -0.006711 -0.003094 0.013740 -0.012905 -0.003355 -0.007252
# 4 0.010817 0.002102 -0.012905 0.041774 0.007273 0.012732
# 5 0.003340 0.003755 -0.003355 0.007273 0.022865 0.009265
# 6 0.003109 0.004010 -0.007252 0.012732 0.009265 0.029369
#
#
# Mechanical properties :
#
#
# Convention : Reuss Voigt Hill
#
# Bulk Modulus (GPa) = 65.87135 70.19334 68.03234
# Shear Modulus (GPa) = 31.04533 43.64457 37.34495
#
# Velocity S-wave (km/s) = 3.54243 4.20018 3.88525
# Velocity P-wave (km/s) = 6.58464 7.20380 6.90117
#
# Compressibility (1/GPa) = 0.01518111
#
# Stress axis : x y z
#
# Youngs Moduli (GPa) = 66.07868 102.98140 72.77895
#
# Poissons Ratio (x) = 0.19529 0.48843
# Poissons Ratio (y) = 0.12531 0.22518
# Poissons Ratio (z) = 0.44347 0.31862
#
# Static dielectric constant tensor:
#      x y z
#    x 1.969910 -0.034960 0.061170 
#    y -0.034960 1.942420 0.001210 
#    z 0.061170 0.001210 2.108320 
# 
# From -- ./inp_files/443978.got.cif
#   From: 2010.05.17/outbox.cif.g08.bks.cpg/sg2_222_cif.got.tgz:443978.got - 2010.06.03 11:33:40.
