data_PCOD9066104
_publ_section_title
;
Structure prediction by ZEFSAII (Michael W. Deem and Ramdas Pophale) SiO2 
 PCOD9066104
Probable space group: P -1
;
_chemical_formula_sum "Si O2"
_cell_formula_units_Z 16
_cell_length_a 14.222921
_cell_length_b 10.623468
_cell_length_c 13.478678
_cell_angle_alpha 129.415370
_cell_angle_beta 41.894724
_cell_angle_gamma 150.320418
_cell_volume 672.954382
_symmetry_space_group_name_H-M "P -1"
_symmetry_group_IT_number 2
_symmetry_cell_setting 'triclinic'
loop_
_space_group_symop_operation_xyz
x,y,z
-x,-y,-z
loop_
_atom_site_type_symbol
_atom_site_label
_atom_site_fract_x
_atom_site_fract_y
_atom_site_fract_z
Si Si1 0.149424 0.290002 0.507681
Si Si2 0.715377 0.070090 0.960404
Si Si3 0.502915 0.987967 0.276122
Si Si4 0.827556 0.116177 0.216018
Si Si5 0.747348 0.427538 0.012416
Si Si6 0.975119 0.425927 0.596017
Si Si7 0.843664 0.695887 0.267604
Si Si8 0.377944 0.209807 0.601478
O O1 0.181142 0.389730 0.644128
O O2 0.404278 0.507249 0.386388
O O3 0.026982 0.291954 0.524593
O O4 0.000000 0.000000 0.500000
O O5 0.679318 0.140490 0.125120
O O6 0.792665 0.275222 0.922694
O O7 0.897022 0.094733 0.848525
O O8 0.491774 0.788362 0.957846
O O9 0.601675 0.933960 0.241074
O O10 0.441909 0.092707 0.442300
O O11 0.277148 0.752779 0.277410
O O12 0.858336 0.319392 0.344220
O O13 0.788875 0.962935 0.261984
O O14 0.051822 0.306483 0.070901
O O15 0.732807 0.499584 0.167021
O O16 0.000000 0.500000 0.500000
O O17 0.737396 0.778895 0.383402
#
# Coordination Sequence:
#
# PCOD9066104 Si02
#       8
#     2   2   2   2   2   2   2   2
#     4  12  28  48  74 113 152 199 247 312 387 445
#     4  11  25  44  76 107 147 193 255 303 375 441
#     4  12  23  45  75 111 143 195 254 315 365 438
#     4  12  24  47  75 110 146 200 260 301 374 448
#     4  11  25  46  75 106 147 200 249 307 365 456
#     4  12  24  44  76 110 147 193 252 313 369 444
#     4  12  27  49  72 109 153 195 241 312 379 443
#     4  12  27  47  75 107 155 199 246 316 378 445
#
# _framework density 23.775756999999999
#
# number of rings (size 3 to 8) (size 9 to 14) (size 15 to 20)
#    0.000    0.250    5.000    4.125    3.500    0.500 
#    0.000    0.625    0.000    0.000    0.000    0.000 
#    0.000    0.000    0.000    0.000    0.000    0.000 
#
# Total GULP energy -89350.268449 kJ/mol
# GULP energy per Si atom -5584.391778 kJ/mol
# Density = 2.372164 g / cm^3
# Si number density = 23.775757 Si / 1000 Ang^3
#
#
#
# Elastic Constant Matrix: (Units=GPa)
#
#
# Indices 1 2 3 4 5 6 
#
# 1 112.6493 16.5543 6.7122 -4.9546 2.8974 4.0997
# 2 16.5543 98.0850 9.0445 -9.5417 0.7284 4.6531
# 3 6.7122 9.0445 47.7042 -3.9063 16.8221 -8.6842
# 4 -4.9546 -9.5417 -3.9063 30.2090 4.8000 9.9409
# 5 2.8974 0.7284 16.8221 4.8000 38.4640 -10.8985
# 6 4.0997 4.6531 -8.6842 9.9409 -10.8985 38.5308
#
#
#
# Elastic Compliance Matrix: (Units=1/GPa)
#
#
# Indices 1 2 3 4 5 6 
#
# 1 0.009278 -0.001219 -0.000899 0.001768 -0.001009 -0.001784
# 2 -0.001219 0.011118 -0.001908 0.004109 -0.000612 -0.002876
# 3 -0.000899 -0.001908 0.026074 0.003710 -0.011171 0.002085
# 4 0.001768 0.004109 0.003710 0.041365 -0.010846 -0.013588
# 5 -0.001009 -0.000612 -0.011171 -0.010846 0.035284 0.010442
# 6 -0.001784 -0.002876 0.002085 -0.013588 0.010442 0.033420
#
#
# Mechanical properties :
#
#
# Convention : Reuss Voigt Hill
#
# Bulk Modulus (GPa) = 26.02877 35.89562 30.96220
# Shear Modulus (GPa) = 28.18577 36.51593 32.35085
#
# Velocity S-wave (km/s) = 3.44682 3.92324 3.69272
# Velocity P-wave (km/s) = 5.17804 5.97099 5.58860
#
# Compressibility (1/GPa) = 0.03841903
#
# Stress axis : x y z
#
# Youngs Moduli (GPa) = 107.77693 89.94796 38.35312
#
# Poissons Ratio (x) = 0.10964 0.03447
# Poissons Ratio (y) = 0.13138 0.07316
# Poissons Ratio (z) = 0.09685 0.17159
#
# Static dielectric constant tensor:
#      x y z
#    x 1.921720 -0.034730 0.011220 
#    y -0.034730 1.988220 -0.031130 
#    z 0.011220 -0.031130 2.014260 
# 
# From -- ./inp_files/532666.got.cif
#   From: 2010.05.17/outbox.cif.g08.bks.cpg/sg2_267_cif.got.tgz:532666.got - 2010.06.03 11:33:40.
