data_PCOD9066007
_publ_section_title
;
Structure prediction by ZEFSAII (Michael W. Deem and Ramdas Pophale) SiO2 
 PCOD9066007
Probable space group: P -1
;
_chemical_formula_sum "Si O2"
_cell_formula_units_Z 14
_cell_length_a 5.259578
_cell_length_b 13.475641
_cell_length_c 12.856777
_cell_angle_alpha 63.340060
_cell_angle_beta 116.765827
_cell_angle_gamma 132.372756
_cell_volume 586.330981
_symmetry_space_group_name_H-M "P -1"
_symmetry_group_IT_number 2
_symmetry_cell_setting 'triclinic'
loop_
_space_group_symop_operation_xyz
x,y,z
-x,-y,-z
loop_
_atom_site_type_symbol
_atom_site_label
_atom_site_fract_x
_atom_site_fract_y
_atom_site_fract_z
Si Si1 0.360096 0.066189 0.376525
Si Si2 0.214552 0.429429 0.888956
Si Si3 0.581622 0.751705 0.094367
Si Si4 0.631559 0.691966 0.703421
Si Si5 0.376284 0.146083 0.726702
Si Si6 0.413443 0.905344 0.832230
Si Si7 0.400893 0.594236 0.488797
O O1 0.505603 0.214978 0.372839
O O2 0.446315 0.076558 0.266637
O O3 0.500000 0.000000 0.500000
O O4 0.940163 0.960979 0.357513
O O5 0.242155 0.315642 0.892448
O O6 0.348812 0.550026 0.774514
O O7 0.829063 0.365790 0.893953
O O8 0.500000 0.500000 0.000000
O O9 0.741008 0.828176 0.197274
O O10 0.569154 0.848984 0.964068
O O11 0.665140 0.663998 0.603647
O O12 0.990441 0.783149 0.795866
O O13 0.572145 0.291288 0.635037
O O14 0.510415 0.051911 0.820038
O O15 0.500000 0.500000 0.500000
O O16 0.000000 0.500000 0.500000
#
# Coordination Sequence:
#
# PCOD9066007 Si02
#       7
#     2   2   2   2   2   2   2
#     4  11  25  45  76 100 142 188 240 296 348 425
#     4  12  25  46  73 105 147 188 235 291 349 425
#     4  12  27  46  75 106 146 187 235 295 355 418
#     4  11  25  44  71 105 139 187 241 288 356 418
#     4  11  27  47  69 108 141 185 239 293 359 416
#     4  11  25  44  74 103 141 190 235 293 349 428
#     4  12  28  47  72 102 141 186 233 293 354 417
#
# _framework density 23.877296999999999
#
# number of rings (size 3 to 8) (size 9 to 14) (size 15 to 20)
#    0.000    0.571    1.429    5.143   12.000    2.857 
#    0.000    0.000    0.000    0.000    0.000    0.000 
#    0.000    0.000    0.000    0.000    0.000    0.000 
#
# Total GULP energy -78388.175293 kJ/mol
# GULP energy per Si atom -5599.155378 kJ/mol
# Density = 2.382295 g / cm^3
# Si number density = 23.877297 Si / 1000 Ang^3
#
#
#
# Elastic Constant Matrix: (Units=GPa)
#
#
# Indices 1 2 3 4 5 6 
#
# 1 62.6513 40.0555 -3.6063 -11.9458 -7.9732 -2.2023
# 2 40.0555 149.1492 62.9581 -23.0434 1.4770 -28.1887
# 3 -3.6063 62.9581 139.8250 -34.6477 -8.9951 -10.0110
# 4 -11.9458 -23.0434 -34.6477 62.2729 -6.1158 -1.3996
# 5 -7.9732 1.4770 -8.9951 -6.1158 34.0630 7.4531
# 6 -2.2023 -28.1887 -10.0110 -1.3996 7.4531 46.9470
#
#
#
# Elastic Compliance Matrix: (Units=1/GPa)
#
#
# Indices 1 2 3 4 5 6 
#
# 1 0.024619 -0.009481 0.006656 0.005795 0.009963 -0.004527
# 2 -0.009481 0.013162 -0.006281 -0.000888 -0.006155 0.007069
# 3 0.006656 -0.006281 0.011985 0.006220 0.006495 -0.001749
# 4 0.005795 -0.000888 0.006220 0.020971 0.006664 0.000632
# 5 0.009963 -0.006155 0.006495 0.006664 0.036495 -0.007438
# 6 -0.004527 0.007069 -0.001749 0.000632 -0.007438 0.026160
#
#
# Mechanical properties :
#
#
# Convention : Reuss Voigt Hill
#
# Bulk Modulus (GPa) = 31.68887 61.16003 46.42445
# Shear Modulus (GPa) = 30.84119 45.47112 38.15615
#
# Velocity S-wave (km/s) = 3.59786 4.36864 4.00185
# Velocity P-wave (km/s) = 5.52809 7.14959 6.39048
#
# Compressibility (1/GPa) = 0.03155682
#
# Stress axis : x y z
#
# Youngs Moduli (GPa) = 40.61831 75.97766 83.43566
#
# Poissons Ratio (x) = 0.72031 -0.55538
# Poissons Ratio (y) = 0.38508 0.52403
# Poissons Ratio (z) = -0.27037 0.47719
#
# Static dielectric constant tensor:
#      x y z
#    x 1.957580 0.033380 0.067940 
#    y 0.033380 1.909570 0.032480 
#    z 0.067940 0.032480 1.860530 
# 
# From -- ./inp_files/47395.got.cif
#   From: 2010.05.17/outbox.cif.g08.bks.cpg/sg2_24_cif.got.tgz:47395.got - 2010.06.03 11:33:40.
