data_PCOD9066422
_publ_section_title
;
Structure prediction by ZEFSAII (Michael W. Deem and Ramdas Pophale) SiO2 
 PCOD9066422
Probable space group: P -1
;
_chemical_formula_sum "Si O2"
_cell_formula_units_Z 12
_cell_length_a 9.611535
_cell_length_b 8.355388
_cell_length_c 9.019285
_cell_angle_alpha 86.142187
_cell_angle_beta 49.090708
_cell_angle_gamma 105.089421
_cell_volume 499.686286
_symmetry_space_group_name_H-M "P -1"
_symmetry_group_IT_number 2
_symmetry_cell_setting 'triclinic'
loop_
_space_group_symop_operation_xyz
x,y,z
-x,-y,-z
loop_
_atom_site_type_symbol
_atom_site_label
_atom_site_fract_x
_atom_site_fract_y
_atom_site_fract_z
Si Si1 0.902767 0.327539 0.354574
Si Si2 0.116805 0.174293 0.999814
Si Si3 0.030751 0.688228 0.362373
Si Si4 0.396424 0.362806 0.214472
Si Si5 0.318868 0.053099 0.080581
Si Si6 0.335991 0.542601 0.700008
O O1 0.850777 0.277346 0.565353
O O2 0.739210 0.337125 0.353927
O O3 0.998740 0.204417 0.222275
O O4 0.052248 0.533488 0.262493
O O5 0.319731 0.164017 0.925442
O O6 0.162301 0.351286 0.865230
O O7 0.000000 0.000000 0.000000
O O8 0.794998 0.620788 0.573660
O O9 0.121676 0.874401 0.209894
O O10 0.307869 0.172036 0.215954
O O11 0.561543 0.378382 0.221099
O O12 0.500000 0.500000 0.000000
O O13 0.500000 0.000000 0.000000
O O14 0.500000 0.500000 0.500000
#
# Coordination Sequence:
#
# PCOD9066422 Si02
#       6
#     2   2   2   2   2   2
#     4  11  25  45  78 101 145 189 245 290 371 425
#     4  12  28  47  71 103 147 190 243 299 363 430
#     4  11  25  48  76 106 146 192 243 299 369 431
#     4  12  25  49  76 106 148 192 243 299 362 440
#     4  12  29  44  72 108 144 191 245 297 360 432
#     4  12  26  45  74 109 141 185 243 300 362 429
#
# _framework density 24.015066999999998
#
# number of rings (size 3 to 8) (size 9 to 14) (size 15 to 20)
#    0.000    0.333    5.000    2.000   11.667    0.000 
#    0.000    1.667    0.000    0.000    0.000    0.000 
#    0.000    0.000    0.000    0.000    0.000    0.000 
#
# Total GULP energy -67122.509350 kJ/mol
# GULP energy per Si atom -5593.542446 kJ/mol
# Density = 2.396041 g / cm^3
# Si number density = 24.015067 Si / 1000 Ang^3
#
#
#
# Elastic Constant Matrix: (Units=GPa)
#
#
# Indices 1 2 3 4 5 6 
#
# 1 193.7816 21.5284 21.8008 16.0420 15.1300 -10.1132
# 2 21.5284 125.6947 8.3063 20.1405 -2.5709 21.7054
# 3 21.8008 8.3063 54.6656 4.9326 -6.2009 1.6787
# 4 16.0420 20.1405 4.9326 39.0955 -2.9620 2.2993
# 5 15.1300 -2.5709 -6.2009 -2.9620 33.2223 4.8335
# 6 -10.1132 21.7054 1.6787 2.2993 4.8335 50.9917
#
#
#
# Elastic Compliance Matrix: (Units=1/GPa)
#
#
# Indices 1 2 3 4 5 6 
#
# 1 0.006158 -0.001003 -0.002621 -0.002102 -0.003879 0.002197
# 2 -0.001003 0.009567 -0.000398 -0.004116 0.001367 -0.004202
# 3 -0.002621 -0.000398 0.020088 -0.000785 0.005054 -0.001455
# 4 -0.002102 -0.004116 -0.000785 0.028910 0.003104 -0.000237
# 5 -0.003879 0.001367 0.005054 0.003104 0.033901 -0.004871
# 6 0.002197 -0.004202 -0.001455 -0.000237 -0.004871 0.022356
#
#
# Mechanical properties :
#
#
# Convention : Reuss Voigt Hill
#
# Bulk Modulus (GPa) = 36.01287 53.04590 44.52938
# Shear Modulus (GPa) = 36.15817 46.16232 41.16025
#
# Velocity S-wave (km/s) = 3.88447 4.38907 4.14446
# Velocity P-wave (km/s) = 5.92852 6.91533 6.44085
#
# Compressibility (1/GPa) = 0.02776785
#
# Stress axis : x y z
#
# Youngs Moduli (GPa) = 162.38043 104.52494 49.78164
#
# Poissons Ratio (x) = 0.10489 0.13049
# Poissons Ratio (y) = 0.16294 0.01981
# Poissons Ratio (z) = 0.42564 0.04160
#
# Static dielectric constant tensor:
#      x y z
#    x 1.976610 -0.018630 0.006760 
#    y -0.018630 1.916110 -0.018850 
#    z 0.006760 -0.018850 2.037680 
# 
# From -- ./inp_files/157835.got.cif
#   From: 2010.05.17/outbox.cif.g08.bks.cpg/sg2_79_cif.got.tgz:157835.got - 2010.06.03 11:33:40.
