data_PCOD9066976
_publ_section_title
;
Structure prediction by ZEFSAII (Michael W. Deem and Ramdas Pophale) SiO2 
 PCOD9066976
Probable space group: P -1
;
_chemical_formula_sum "Si O2"
_cell_formula_units_Z 16
_cell_length_a 9.751981
_cell_length_b 31.147486
_cell_length_c 11.801980
_cell_angle_alpha 28.346617
_cell_angle_beta 131.798582
_cell_angle_gamma 150.544123
_cell_volume 756.679313
_symmetry_space_group_name_H-M "P -1"
_symmetry_group_IT_number 2
_symmetry_cell_setting 'triclinic'
loop_
_space_group_symop_operation_xyz
x,y,z
-x,-y,-z
loop_
_atom_site_type_symbol
_atom_site_label
_atom_site_fract_x
_atom_site_fract_y
_atom_site_fract_z
Si Si1 0.901547 0.470370 0.386758
Si Si2 0.930721 0.628380 0.689150
Si Si3 0.759149 0.415832 0.912415
Si Si4 0.809606 0.082965 0.930462
Si Si5 0.315904 0.417725 0.973948
Si Si6 0.714120 0.108010 0.259215
Si Si7 0.959157 0.878622 0.785384
Si Si8 0.353454 0.116246 0.892783
O O1 0.868376 0.563362 0.154571
O O2 0.578834 0.291933 0.597084
O O3 0.000000 0.500000 0.500000
O O4 0.157304 0.541085 0.273327
O O5 0.931575 0.565620 0.723860
O O6 0.585130 0.508512 0.820698
O O7 0.048101 0.776183 0.387505
O O8 0.114746 0.633773 0.863966
O O9 0.402347 0.284602 0.052731
O O10 0.990091 0.123060 0.049386
O O11 0.500000 0.000000 0.000000
O O12 0.706704 0.960981 0.076786
O O13 0.500000 0.500000 0.000000
O O14 0.045405 0.245532 0.185081
O O15 0.804487 0.080418 0.264178
O O16 0.500000 0.000000 0.500000
O O17 0.541570 0.125605 0.062857
O O18 0.000000 0.000000 0.500000
O O19 0.000000 0.000000 0.000000
#
# Coordination Sequence:
#
# PCOD9066976 Si02
#       8
#     2   2   2   2   2   2   2   2
#     4  12  27  47  74 108 151 194 249 305 367 444
#     4  11  25  47  74 107 142 197 248 306 369 441
#     4  11  26  46  74 107 149 190 251 308 367 443
#     4  12  26  46  76 104 147 194 249 303 373 445
#     4  12  26  47  75 108 147 196 247 300 375 441
#     4  12  30  51  74 109 151 193 250 310 373 451
#     4  12  29  48  75 108 150 199 246 310 379 444
#     4  12  29  49  73 113 148 197 250 308 373 439
#
# _framework density 21.145022000000001
#
# number of rings (size 3 to 8) (size 9 to 14) (size 15 to 20)
#    0.000    0.250    5.000    2.250   10.500    1.500 
#    0.000    0.000    0.000    0.000    0.000    0.000 
#    0.000    0.000    0.000    0.000    0.000    0.000 
#
# Total GULP energy -89124.336560 kJ/mol
# GULP energy per Si atom -5570.271035 kJ/mol
# Density = 2.109690 g / cm^3
# Si number density = 21.145022 Si / 1000 Ang^3
#
#
#
# Elastic Constant Matrix: (Units=GPa)
#
#
# Indices 1 2 3 4 5 6 
#
# 1 131.1365 4.3699 3.6264 -16.3678 -25.9300 -16.1336
# 2 4.3699 51.1160 -15.4736 -24.0613 -16.3238 -24.7940
# 3 3.6264 -15.4736 26.4700 -32.1104 -20.8474 -20.1819
# 4 -16.3678 -24.0613 -32.1104 29.5823 4.1320 -11.3888
# 5 -25.9300 -16.3238 -20.8474 4.1320 35.4515 -10.5115
# 6 -16.1336 -24.7940 -20.1819 -11.3888 -10.5115 44.6713
#
#
#
# Elastic Compliance Matrix: (Units=1/GPa)
#
#
# Indices 1 2 3 4 5 6 
#
# 1 0.007936 -0.002517 -0.004031 -0.002536 0.002445 -0.000423
# 2 -0.002517 0.008725 -0.011604 -0.007925 -0.005064 -0.004521
# 3 -0.004031 -0.011604 0.003589 -0.010854 -0.008167 -0.010964
# 4 -0.002536 -0.007925 -0.010854 0.012256 -0.016575 -0.010994
# 5 0.002445 -0.005064 -0.008167 -0.016575 0.023516 -0.004310
# 6 -0.000423 -0.004521 -0.010964 -0.010994 -0.004310 0.010953
#
#
# Mechanical properties :
#
#
# Convention : Reuss Voigt Hill
#
# Bulk Modulus (GPa) = -62.28866 21.52977 -20.37944
# Shear Modulus (GPa) = 51.05807 36.35431 43.70619
#
# Velocity S-wave (km/s) = 4.91925 4.15092 4.55133
# Velocity P-wave (km/s) = 1.65638 5.76000 4.23800
#
# Compressibility (1/GPa) = -0.01605429
#
# Stress axis : x y z
#
# Youngs Moduli (GPa) = 126.00832 114.61426 278.63673
#
# Poissons Ratio (x) = 0.28844 1.12321
# Poissons Ratio (y) = 0.31711 3.23340
# Poissons Ratio (z) = 0.50795 1.33003
#
# Static dielectric constant tensor:
#      x y z
#    x 1.679540 0.038550 -0.001640 
#    y 0.038550 1.722790 -0.024940 
#    z -0.001640 -0.024940 1.862170 
# 
# From -- ./inp_files/407521.got.cif
#   From: 2010.05.17/outbox.cif.g08.bks.cpg/sg2_204_cif.got.tgz:407521.got - 2010.06.03 11:33:40.
