data_PCOD9066940
_publ_section_title
;
Structure prediction by ZEFSAII (Michael W. Deem and Ramdas Pophale) SiO2 
 PCOD9066940
Probable space group: P -1
;
_chemical_formula_sum "Si O2"
_cell_formula_units_Z 16
_cell_length_a 11.829130
_cell_length_b 12.230224
_cell_length_c 12.186024
_cell_angle_alpha 64.718119
_cell_angle_beta 69.212621
_cell_angle_gamma 24.546095
_cell_volume 659.588728
_symmetry_space_group_name_H-M "P -1"
_symmetry_group_IT_number 2
_symmetry_cell_setting 'triclinic'
loop_
_space_group_symop_operation_xyz
x,y,z
-x,-y,-z
loop_
_atom_site_type_symbol
_atom_site_label
_atom_site_fract_x
_atom_site_fract_y
_atom_site_fract_z
Si Si1 0.775971 0.181461 0.405161
Si Si2 0.621651 0.049550 0.460805
Si Si3 0.874066 0.561952 0.378300
Si Si4 0.270479 0.305311 0.051445
Si Si5 0.728915 0.296359 0.915680
Si Si6 0.490510 0.161469 0.804267
Si Si7 0.277803 0.797725 0.271234
Si Si8 0.238695 0.452820 0.227692
O O1 0.514112 0.502469 0.369458
O O2 0.675745 0.134884 0.451795
O O3 0.000000 0.000000 0.500000
O O4 0.966338 0.037013 0.295451
O O5 0.615263 0.794518 0.448199
O O6 0.893696 0.728261 0.521618
O O7 0.502254 0.174001 0.326366
O O8 0.777360 0.587332 0.286276
O O9 0.998260 0.581224 0.298845
O O10 0.244168 0.423364 0.107903
O O11 0.397374 0.071556 0.162211
O O12 0.443086 0.199057 0.935123
O O13 0.000000 0.500000 0.000000
O O14 0.654522 0.279188 0.846465
O O15 0.782704 0.384768 0.816810
O O16 0.500000 0.500000 0.000000
O O17 0.000000 0.000000 0.000000
O O18 0.685655 0.099027 0.743182
#
# Coordination Sequence:
#
# PCOD9066940 Si02
#       8
#     2   2   2   2   2   2   2   2
#     4  12  25  47  74 109 150 200 249 310 371 449
#     4  12  27  48  75 114 154 198 254 305 390 448
#     4  12  26  47  77 113 150 203 245 316 377 455
#     4  11  25  47  73 108 149 204 245 330 379 440
#     4  12  29  49  77 112 151 206 251 312 386 449
#     4  11  26  46  76 111 149 195 266 309 388 449
#     4  12  26  47  76 106 150 197 250 313 370 455
#     4  12  27  50  79 110 163 190 263 312 383 464
#
# _framework density 24.257539999999999
#
# number of rings (size 3 to 8) (size 9 to 14) (size 15 to 20)
#    0.000    0.250    2.500    5.625    3.500    3.000 
#    0.000    0.000    0.000    0.000    0.000    0.000 
#    0.000    0.000    0.000    0.000    0.000    0.000 
#
# Total GULP energy -89686.775412 kJ/mol
# GULP energy per Si atom -5605.423463 kJ/mol
# Density = 2.420233 g / cm^3
# Si number density = 24.257540 Si / 1000 Ang^3
#
#
#
# Elastic Constant Matrix: (Units=GPa)
#
#
# Indices 1 2 3 4 5 6 
#
# 1 119.9906 -12.3580 24.3107 -20.3187 -3.2243 2.8962
# 2 -12.3580 84.9779 23.1308 -16.2273 1.8897 -10.8360
# 3 24.3107 23.1308 94.5565 -18.0168 16.7142 -2.6557
# 4 -20.3187 -16.2273 -18.0168 38.1729 3.6959 5.9637
# 5 -3.2243 1.8897 16.7142 3.6959 55.1447 0.4829
# 6 2.8962 -10.8360 -2.6557 5.9637 0.4829 27.6295
#
#
#
# Elastic Compliance Matrix: (Units=1/GPa)
#
#
# Indices 1 2 3 4 5 6 
#
# 1 0.010162 0.003040 -0.002469 0.005662 0.000871 -0.001348
# 2 0.003040 0.014665 -0.003214 0.005705 0.000233 0.003888
# 3 -0.002469 -0.003214 0.013572 0.004237 -0.004427 -0.000534
# 4 0.005662 0.005705 0.004237 0.034812 -0.003435 -0.005403
# 5 0.000871 0.000233 -0.004427 -0.003435 0.019749 -0.000029
# 6 -0.001348 0.003888 -0.000534 -0.005403 -0.000029 0.038975
#
#
# Mechanical properties :
#
#
# Convention : Reuss Voigt Hill
#
# Bulk Modulus (GPa) = 30.20027 41.07686 35.63856
# Shear Modulus (GPa) = 33.72494 41.81886 37.77190
#
# Velocity S-wave (km/s) = 3.73270 4.15656 3.95032
# Velocity P-wave (km/s) = 5.57264 6.32506 5.96073
#
# Compressibility (1/GPa) = 0.03311229
#
# Stress axis : x y z
#
# Youngs Moduli (GPa) = 98.40489 68.19076 73.68335
#
# Poissons Ratio (x) = -0.20730 0.18194
# Poissons Ratio (y) = -0.29915 0.23680
# Poissons Ratio (z) = 0.24299 0.21915
#
# Static dielectric constant tensor:
#      x y z
#    x 1.857770 -0.011880 0.018240 
#    y -0.011880 1.931090 0.039290 
#    z 0.018240 0.039290 1.971220 
# 
# From -- ./inp_files/410221.got.cif
#   From: 2010.05.17/outbox.cif.g08.bks.cpg/sg2_206_cif.got.tgz:410221.got - 2010.06.03 11:33:40.
