data_PCOD9066119
_publ_section_title
;
Structure prediction by ZEFSAII (Michael W. Deem and Ramdas Pophale) SiO2 
 PCOD9066119
Probable space group: P -1
;
_chemical_formula_sum "Si O2"
_cell_formula_units_Z 10
_cell_length_a 13.649302
_cell_length_b 9.566883
_cell_length_c 9.320695
_cell_angle_alpha 150.121493
_cell_angle_beta 135.991245
_cell_angle_gamma 56.066833
_cell_volume 413.659095
_symmetry_space_group_name_H-M "P -1"
_symmetry_group_IT_number 2
_symmetry_cell_setting 'triclinic'
loop_
_space_group_symop_operation_xyz
x,y,z
-x,-y,-z
loop_
_atom_site_type_symbol
_atom_site_label
_atom_site_fract_x
_atom_site_fract_y
_atom_site_fract_z
Si Si1 0.230200 0.785809 0.229635
Si Si2 0.649660 0.828962 0.805219
Si Si3 0.968745 0.779008 0.138658
Si Si4 0.386605 0.310025 0.038714
Si Si5 0.397556 0.736593 0.088138
O O1 0.268162 0.511182 0.106371
O O2 0.261280 0.701610 0.023384
O O3 0.077406 0.836896 0.169322
O O4 0.339114 0.070207 0.654271
O O5 0.529394 0.554634 0.387320
O O6 0.646212 0.123382 0.980406
O O7 0.807856 0.761914 0.898419
O O8 0.616871 0.853524 0.960542
O O9 0.000000 0.000000 0.500000
O O10 0.000000 0.500000 0.000000
O O11 0.500000 0.000000 0.500000
O O12 0.500000 0.500000 0.000000
#
# Coordination Sequence:
#
# PCOD9066119 Si02
#       5
#     2   2   2   2   2
#     4  12  24  48  74 111 149 198 244 308 376 446
#     4  11  26  47  78 111 152 193 256 304 377 436
#     4  12  25  47  74 110 153 193 244 315 373 438
#     4  11  25  44  77 112 142 195 261 303 362 445
#     4  12  28  47  73 110 155 194 248 313 373 437
#
# _framework density 24.174495
#
# number of rings (size 3 to 8) (size 9 to 14) (size 15 to 20)
#    0.000    0.400    6.000    1.200    0.000    8.800 
#    0.000    0.000    0.000    7.200    0.000    0.000 
#    0.000    0.000    0.000    0.000    0.000    0.000 
#
# Total GULP energy -55850.012274 kJ/mol
# GULP energy per Si atom -5585.001227 kJ/mol
# Density = 2.411947 g / cm^3
# Si number density = 24.174495 Si / 1000 Ang^3
#
#
#
# Elastic Constant Matrix: (Units=GPa)
#
#
# Indices 1 2 3 4 5 6 
#
# 1 210.3625 94.0859 41.6148 16.2402 5.4080 -14.3196
# 2 94.0859 154.3943 45.8736 34.1331 8.0323 -11.0155
# 3 41.6148 45.8736 115.7324 42.7493 -14.6277 -8.6635
# 4 16.2402 34.1331 42.7493 40.5652 -12.3710 6.1508
# 5 5.4080 8.0323 -14.6277 -12.3710 27.9642 4.1793
# 6 -14.3196 -11.0155 -8.6635 6.1508 4.1793 66.3491
#
#
#
# Elastic Compliance Matrix: (Units=1/GPa)
#
#
# Indices 1 2 3 4 5 6 
#
# 1 0.006778 -0.004178 -0.001697 0.002574 0.000095 0.000303
# 2 -0.004178 0.012169 0.000145 -0.011621 -0.008160 0.002729
# 3 -0.001697 0.000145 0.015396 -0.015874 0.000857 0.003086
# 4 0.002574 -0.011621 -0.015874 0.058353 0.021881 -0.010235
# 5 0.000095 -0.008160 0.000857 0.021881 0.049162 -0.006348
# 6 0.000303 0.002729 0.003086 -0.010235 -0.006348 0.017342
#
#
# Mechanical properties :
#
#
# Convention : Reuss Voigt Hill
#
# Bulk Modulus (GPa) = 43.70391 93.73754 68.72073
# Shear Modulus (GPa) = 28.04445 46.90336 37.47390
#
# Velocity S-wave (km/s) = 3.40970 4.40955 3.94146
# Velocity P-wave (km/s) = 5.79820 8.04892 7.01442
#
# Compressibility (1/GPa) = 0.02288125
#
# Stress axis : x y z
#
# Youngs Moduli (GPa) = 147.54333 82.17876 64.95007
#
# Poissons Ratio (x) = 0.34337 0.11021
# Poissons Ratio (y) = 0.61649 -0.00939
# Poissons Ratio (z) = 0.25036 -0.01188
#
# Static dielectric constant tensor:
#      x y z
#    x 2.240100 0.029000 -0.028140 
#    y 0.029000 2.129170 -0.024200 
#    z -0.028140 -0.024200 1.894600 
# 
# From -- ./inp_files/452047.got.cif
#   From: 2010.05.17/outbox.cif.g08.bks.cpg/sg2_227_cif.got.tgz:452047.got - 2010.06.03 11:33:40.
