data_PCOD9066589
_publ_section_title
;
Structure prediction by ZEFSAII (Michael W. Deem and Ramdas Pophale) SiO2 
 PCOD9066589
Probable space group: P -1
;
_chemical_formula_sum "Si O2"
_cell_formula_units_Z 14
_cell_length_a 20.442084
_cell_length_b 8.014396
_cell_length_c 6.404886
_cell_angle_alpha 89.579389
_cell_angle_beta 66.946099
_cell_angle_gamma 43.459333
_cell_volume 597.185360
_symmetry_space_group_name_H-M "P -1"
_symmetry_group_IT_number 2
_symmetry_cell_setting 'triclinic'
loop_
_space_group_symop_operation_xyz
x,y,z
-x,-y,-z
loop_
_atom_site_type_symbol
_atom_site_label
_atom_site_fract_x
_atom_site_fract_y
_atom_site_fract_z
Si Si1 0.033544 0.633434 0.920084
Si Si2 0.573060 0.421658 0.606855
Si Si3 0.209356 0.786199 0.686697
Si Si4 0.768191 0.694838 0.999022
Si Si5 0.120098 0.726890 0.454644
Si Si6 0.412359 0.899733 0.085830
Si Si7 0.611493 0.835782 0.498807
O O1 0.101035 0.603763 0.642857
O O2 0.111350 0.511572 0.030797
O O3 0.000000 0.500000 0.000000
O O4 0.911997 0.954539 0.057656
O O5 0.500000 0.500000 0.500000
O O6 0.706420 0.213117 0.401175
O O7 0.566324 0.285017 0.777363
O O8 0.515794 0.689675 0.790873
O O9 0.169865 0.795667 0.509412
O O10 0.292395 0.483140 0.652797
O O11 0.790575 0.490357 0.832446
O O12 0.705029 0.921017 0.897783
O O13 0.675608 0.866836 0.297186
O O14 0.000000 0.000000 0.500000
O O15 0.407423 0.071982 0.239492
O O16 0.500000 0.000000 0.500000
#
# Coordination Sequence:
#
# PCOD9066589 Si02
#       7
#     2   2   2   2   2   2   2
#     4  12  29  48  75 109 152 201 251 317 391 456
#     4  11  27  48  70 108 151 199 245 316 380 462
#     4  12  25  46  75 103 148 191 254 309 381 445
#     4  12  24  45  76 100 151 186 248 313 375 452
#     4  12  25  48  74 110 147 197 257 313 381 458
#     4  11  25  46  72 103 151 190 252 303 387 454
#     4  12  26  45  75 108 147 196 249 313 380 447
#
# _framework density 23.443308999999999
#
# number of rings (size 3 to 8) (size 9 to 14) (size 15 to 20)
#    0.000    0.286    4.286    3.857    8.000    2.857 
#    2.571    0.000    0.000    0.000    0.000    0.000 
#    0.000    0.000    0.000    0.000    0.000    0.000 
#
# Total GULP energy -78037.364088 kJ/mol
# GULP energy per Si atom -5574.097435 kJ/mol
# Density = 2.338995 g / cm^3
# Si number density = 23.443309 Si / 1000 Ang^3
#
#
#
# Elastic Constant Matrix: (Units=GPa)
#
#
# Indices 1 2 3 4 5 6 
#
# 1 120.4431 28.8264 41.5656 -9.6018 6.3251 -33.2208
# 2 28.8264 156.9777 28.8883 -13.0145 6.8926 -34.9703
# 3 41.5656 28.8883 128.7096 7.5710 5.5863 -14.6496
# 4 -9.6018 -13.0145 7.5710 46.9423 -4.0463 0.9058
# 5 6.3251 6.8926 5.5863 -4.0463 22.4138 2.0027
# 6 -33.2208 -34.9703 -14.6496 0.9058 2.0027 52.4214
#
#
#
# Elastic Compliance Matrix: (Units=1/GPa)
#
#
# Indices 1 2 3 4 5 6 
#
# 1 0.011468 0.000265 -0.003039 0.002549 -0.002695 0.006654
# 2 0.000265 0.008001 -0.001321 0.002190 -0.002274 0.005186
# 3 -0.003039 -0.001321 0.009252 -0.002607 -0.001502 -0.000119
# 4 0.002549 0.002190 -0.002607 0.023098 0.003264 0.001823
# 5 -0.002695 -0.002274 -0.001502 0.003264 0.047532 -0.005517
# 6 0.006654 0.005186 -0.000119 0.001823 -0.005517 0.026898
#
#
# Mechanical properties :
#
#
# Convention : Reuss Voigt Hill
#
# Bulk Modulus (GPa) = 48.70396 67.18787 57.94592
# Shear Modulus (GPa) = 35.38989 44.81217 40.10103
#
# Velocity S-wave (km/s) = 3.88957 4.37683 4.14037
# Velocity P-wave (km/s) = 6.40249 7.36642 6.90131
#
# Compressibility (1/GPa) = 0.02053221
#
# Stress axis : x y z
#
# Youngs Moduli (GPa) = 87.19993 124.97827 108.08113
#
# Poissons Ratio (x) = -0.03316 0.32841
# Poissons Ratio (y) = -0.02313 0.14282
# Poissons Ratio (z) = 0.26496 0.16515
#
# Static dielectric constant tensor:
#      x y z
#    x 1.838390 0.047240 -0.015210 
#    y 0.047240 1.923180 0.018560 
#    z -0.015210 0.018560 1.921570 
# 
# From -- ./inp_files/26746.got.cif
#   From: 2010.05.17/outbox.cif.g08.bks.cpg/sg2_14_cif.got.tgz:26746.got - 2010.06.03 11:33:40.
