data_PCOD9066049
_publ_section_title
;
Structure prediction by ZEFSAII (Michael W. Deem and Ramdas Pophale) SiO2 
 PCOD9066049
Probable space group: P -1
;
_chemical_formula_sum "Si O2"
_cell_formula_units_Z 16
_cell_length_a 18.315870
_cell_length_b 9.402163
_cell_length_c 11.781164
_cell_angle_alpha 127.415840
_cell_angle_beta 135.581960
_cell_angle_gamma 89.337660
_cell_volume 733.106367
_symmetry_space_group_name_H-M "P -1"
_symmetry_group_IT_number 2
_symmetry_cell_setting 'triclinic'
loop_
_space_group_symop_operation_xyz
x,y,z
-x,-y,-z
loop_
_atom_site_type_symbol
_atom_site_label
_atom_site_fract_x
_atom_site_fract_y
_atom_site_fract_z
Si Si1 0.744426 0.025642 0.931873
Si Si2 0.825403 0.789832 0.759694
Si Si3 0.751239 0.448137 0.091676
Si Si4 0.217712 0.597820 0.305303
Si Si5 0.334834 0.388489 0.740969
Si Si6 0.617091 0.390506 0.680807
Si Si7 0.130174 0.861591 0.409759
Si Si8 0.881019 0.033282 0.294602
O O1 0.816919 0.964478 0.904287
O O2 0.554090 0.743001 0.590660
O O3 0.763843 0.251029 0.016740
O O4 0.826827 0.118798 0.190948
O O5 0.795610 0.583021 0.709013
O O6 0.699973 0.631398 0.439784
O O7 0.000000 0.000000 0.000000
O O8 0.683155 0.451303 0.130772
O O9 0.931283 0.755683 0.416168
O O10 0.639573 0.355429 0.817244
O O11 0.361168 0.741978 0.448237
O O12 0.221574 0.792217 0.466457
O O13 0.057565 0.403378 0.955661
O O14 0.200932 0.086159 0.502864
O O15 0.500000 0.500000 0.000000
O O16 0.765330 0.717778 0.981767
O O17 0.147894 0.956535 0.602276
#
# Coordination Sequence:
#
# PCOD9066049 Si02
#       8
#     2   2   2   2   2   2   2   2
#     4  12  29  43  70 107 142 179 230 291 351 402
#     4  12  26  45  70  98 143 183 224 280 348 416
#     4  12  26  46  72 100 137 187 234 282 345 414
#     4  11  25  44  73 102 135 181 232 284 346 411
#     4  12  27  44  67 102 143 178 224 286 349 406
#     4  12  24  47  71  99 139 183 233 286 343 406
#     4  11  25  45  72 103 134 183 232 285 341 415
#     4  12  24  46  73  99 135 182 238 285 334 415
#
# _framework density 21.824938
#
# number of rings (size 3 to 8) (size 9 to 14) (size 15 to 20)
#    0.000    0.250    5.000    3.750    7.000    0.000 
#    0.000    1.250    0.000    0.000    0.000    0.000 
#    0.000    0.000    0.000    0.000    0.000    0.000 
#
# Total GULP energy -89610.266059 kJ/mol
# GULP energy per Si atom -5600.641629 kJ/mol
# Density = 2.177526 g / cm^3
# Si number density = 21.824938 Si / 1000 Ang^3
#
#
#
# Elastic Constant Matrix: (Units=GPa)
#
#
# Indices 1 2 3 4 5 6 
#
# 1 107.2876 36.5731 27.8575 -0.0589 -14.5047 -22.4199
# 2 36.5731 82.5119 9.4552 -8.7022 -26.3956 -17.0766
# 3 27.8575 9.4552 74.5524 -16.5379 3.9047 -1.9987
# 4 -0.0589 -8.7022 -16.5379 44.2508 4.8875 -7.5585
# 5 -14.5047 -26.3956 3.9047 4.8875 30.2184 -8.8513
# 6 -22.4199 -17.0766 -1.9987 -7.5585 -8.8513 37.5711
#
#
#
# Elastic Compliance Matrix: (Units=1/GPa)
#
#
# Indices 1 2 3 4 5 6 
#
# 1 0.014697 -0.000323 -0.006128 -0.001744 0.010928 0.010521
# 2 -0.000323 0.025701 -0.003194 0.004000 0.027510 0.018605
# 3 -0.006128 -0.003194 0.017923 0.006317 -0.010648 -0.005393
# 4 -0.001744 0.004000 0.006317 0.026903 -0.000644 0.006374
# 5 0.010928 0.027510 -0.010648 -0.000644 0.074348 0.035845
# 6 0.010521 0.018605 -0.005393 0.006374 0.035845 0.050791
#
#
# Mechanical properties :
#
#
# Convention : Reuss Voigt Hill
#
# Bulk Modulus (GPa) = 25.62001 45.79151 35.70576
# Shear Modulus (GPa) = 20.60475 35.10580 27.85527
#
# Velocity S-wave (km/s) = 3.07594 4.01498 3.57642
# Velocity P-wave (km/s) = 4.93757 6.52076 5.78359
#
# Compressibility (1/GPa) = 0.03903199
#
# Stress axis : x y z
#
# Youngs Moduli (GPa) = 68.04093 38.90851 55.79516
#
# Poissons Ratio (x) = 0.01255 0.34191
# Poissons Ratio (y) = 0.02195 0.17820
# Poissons Ratio (z) = 0.41696 0.12427
#
# Static dielectric constant tensor:
#      x y z
#    x 1.794320 -0.030570 0.011670 
#    y -0.030570 1.809550 0.024870 
#    z 0.011670 0.024870 1.802710 
# 
# From -- ./inp_files/243109.got.cif
#   From: 2010.05.17/outbox.cif.g08.bks.cpg/sg2_122_cif.got.tgz:243109.got - 2010.06.03 11:33:40.
