data_PCOD9066308
_publ_section_title
;
Structure prediction by ZEFSAII (Michael W. Deem and Ramdas Pophale) SiO2 
 PCOD9066308
Probable space group: P -1
;
_chemical_formula_sum "Si O2"
_cell_formula_units_Z 16
_cell_length_a 8.288879
_cell_length_b 14.668831
_cell_length_c 13.296820
_cell_angle_alpha 49.457744
_cell_angle_beta 111.273559
_cell_angle_gamma 72.964319
_cell_volume 761.471863
_symmetry_space_group_name_H-M "P -1"
_symmetry_group_IT_number 2
_symmetry_cell_setting 'triclinic'
loop_
_space_group_symop_operation_xyz
x,y,z
-x,-y,-z
loop_
_atom_site_type_symbol
_atom_site_label
_atom_site_fract_x
_atom_site_fract_y
_atom_site_fract_z
Si Si1 0.105319 0.267922 0.794887
Si Si2 0.236532 0.785156 0.197423
Si Si3 0.633811 0.813118 0.714102
Si Si4 0.224347 0.496643 0.142748
Si Si5 0.515687 0.588614 0.190083
Si Si6 0.883006 0.784830 0.387371
Si Si7 0.274399 0.372807 0.462959
Si Si8 0.530819 0.143920 0.127105
O O1 0.214480 0.184813 0.769714
O O2 0.894388 0.275082 0.767744
O O3 0.939379 0.475553 0.612687
O O4 0.327622 0.168323 0.999340
O O5 0.374537 0.706999 0.175685
O O6 0.452648 0.713539 0.378471
O O7 0.000000 0.000000 0.000000
O O8 0.618747 0.695027 0.734613
O O9 0.513642 0.853921 0.767630
O O10 0.500000 0.000000 0.500000
O O11 0.946494 0.664235 0.907083
O O12 0.373583 0.544564 0.148003
O O13 0.184257 0.473167 0.265066
O O14 0.811341 0.397946 0.414886
O O15 0.512397 0.698096 0.031086
O O16 0.739034 0.763101 0.441733
O O17 0.810975 0.952549 0.291017
#
# Coordination Sequence:
#
# PCOD9066308 Si02
#       8
#     2   2   2   2   2   2   2   2
#     4  12  21  41  63  96 135 174 221 263 319 395
#     4  12  24  38  64 100 139 180 221 266 321 392
#     4  11  25  48  73  97 124 165 229 283 333 390
#     4  11  25  45  73  96 127 177 218 277 337 382
#     4  12  24  44  65  98 139 171 216 265 328 404
#     4  12  24  39  66  99 138 178 212 263 329 392
#     4  12  21  42  67  94 137 176 220 267 322 389
#     4  12  25  43  66  97 133 174 221 275 327 392
#
# _framework density 21.011938000000001
#
# number of rings (size 3 to 8) (size 9 to 14) (size 15 to 20)
#    0.000    0.250    5.000    4.875    0.000    3.500 
#    0.000    1.250    0.000    0.000    0.000    0.000 
#    0.000    0.000    0.000    0.000    0.000    0.000 
#
# Total GULP energy -89503.322858 kJ/mol
# GULP energy per Si atom -5593.957679 kJ/mol
# Density = 2.096411 g / cm^3
# Si number density = 21.011938 Si / 1000 Ang^3
#
#
#
# Elastic Constant Matrix: (Units=GPa)
#
#
# Indices 1 2 3 4 5 6 
#
# 1 67.7194 19.2597 35.0643 10.3520 2.6734 -1.1000
# 2 19.2597 126.7177 58.9622 -16.0552 0.8484 -4.4068
# 3 35.0643 58.9622 127.1319 -15.5558 -6.0902 -8.8695
# 4 10.3520 -16.0552 -15.5558 36.0791 -7.4079 5.3117
# 5 2.6734 0.8484 -6.0902 -7.4079 27.1143 7.7624
# 6 -1.1000 -4.4068 -8.8695 5.3117 7.7624 23.4896
#
#
#
# Elastic Compliance Matrix: (Units=1/GPa)
#
#
# Indices 1 2 3 4 5 6 
#
# 1 0.020663 -0.001350 -0.006600 -0.011407 -0.007537 0.003292
# 2 -0.001350 0.010399 -0.004079 0.003287 -0.000107 -0.000360
# 3 -0.006600 -0.004079 0.012666 0.006552 0.005275 0.000484
# 4 -0.011407 0.003287 0.006552 0.040595 0.017098 -0.012274
# 5 -0.007537 -0.000107 0.005275 0.017098 0.048738 -0.018354
# 6 0.003292 -0.000360 0.000484 -0.012274 -0.018354 0.051682
#
#
# Mechanical properties :
#
#
# Convention : Reuss Voigt Hill
#
# Bulk Modulus (GPa) = 50.83696 60.90462 55.87079
# Shear Modulus (GPa) = 23.21718 31.22211 27.21965
#
# Velocity S-wave (km/s) = 3.32769 3.85895 3.60312
# Velocity P-wave (km/s) = 6.24592 6.99314 6.63006
#
# Compressibility (1/GPa) = 0.01967073
#
# Stress axis : x y z
#
# Youngs Moduli (GPa) = 48.39569 96.16038 78.95140
#
# Poissons Ratio (x) = 0.12980 0.52109
# Poissons Ratio (y) = 0.06533 0.32203
# Poissons Ratio (z) = 0.31942 0.39222
#
# Static dielectric constant tensor:
#      x y z
#    x 1.758810 0.019990 -0.004760 
#    y 0.019990 1.810710 -0.050870 
#    z -0.004760 -0.050870 1.781690 
# 
# From -- ./inp_files/398622.got.cif
#   From: 2010.05.17/outbox.cif.g08.bks.cpg/sg2_200_cif.got.tgz:398622.got - 2010.06.03 11:33:40.
