data_PCOD9066667
_publ_section_title
;
Structure prediction by ZEFSAII (Michael W. Deem and Ramdas Pophale) SiO2 
 PCOD9066667
Probable space group: P -1
;
_chemical_formula_sum "Si O2"
_cell_formula_units_Z 12
_cell_length_a 9.726081
_cell_length_b 16.966596
_cell_length_c 5.580729
_cell_angle_alpha 87.768732
_cell_angle_beta 76.695886
_cell_angle_gamma 34.180192
_cell_volume 483.786497
_symmetry_space_group_name_H-M "P -1"
_symmetry_group_IT_number 2
_symmetry_cell_setting 'triclinic'
loop_
_space_group_symop_operation_xyz
x,y,z
-x,-y,-z
loop_
_atom_site_type_symbol
_atom_site_label
_atom_site_fract_x
_atom_site_fract_y
_atom_site_fract_z
Si Si1 0.473515 0.580286 0.195282
Si Si2 0.076810 0.721186 0.732678
Si Si3 0.095858 0.037783 0.067075
Si Si4 0.413905 0.101825 0.326603
Si Si5 0.736767 0.669957 0.607458
Si Si6 0.533726 0.233456 0.788775
O O1 0.221600 0.671785 0.434470
O O2 0.757284 0.431616 0.224370
O O3 0.424946 0.695096 0.161850
O O4 0.500000 0.500000 0.000000
O O5 0.097541 0.797259 0.845735
O O6 0.767784 0.850399 0.812475
O O7 0.230658 0.941021 0.267406
O O8 0.332524 0.966178 0.833546
O O9 0.000000 0.000000 0.000000
O O10 0.221358 0.258769 0.489626
O O11 0.500000 0.000000 0.500000
O O12 0.554713 0.723456 0.457755
O O13 0.000000 0.500000 0.500000
O O14 0.651431 0.705923 0.918761
#
# Coordination Sequence:
#
# PCOD9066667 Si02
#       6
#     2   2   2   2   2   2
#     4  11  27  45  74 108 148 201 253 310 382 455
#     4  11  26  47  75 107 153 194 254 313 382 454
#     4  11  26  48  77 111 153 201 256 315 385 464
#     4  11  26  45  75 113 149 195 252 315 383 452
#     4  11  25  46  73 108 148 198 246 318 379 455
#     4  11  26  45  73 107 150 193 260 305 382 452
#
# _framework density 24.804331000000001
#
# number of rings (size 3 to 8) (size 9 to 14) (size 15 to 20)
#    0.000    1.000    0.000    4.000   16.333    3.333 
#    0.000    0.000    0.000    0.000    0.000    0.000 
#    0.000    0.000    0.000    0.000    0.000    0.000 
#
# Total GULP energy -66921.941619 kJ/mol
# GULP energy per Si atom -5576.828468 kJ/mol
# Density = 2.474788 g / cm^3
# Si number density = 24.804331 Si / 1000 Ang^3
#
#
#
# Elastic Constant Matrix: (Units=GPa)
#
#
# Indices 1 2 3 4 5 6 
#
# 1 128.1926 35.1071 24.8249 -8.0003 8.4179 10.3419
# 2 35.1071 61.1879 -1.0433 3.2571 -36.1008 53.4744
# 3 24.8249 -1.0433 56.4280 10.0242 -4.6922 -1.7629
# 4 -8.0003 3.2571 10.0242 37.6539 10.1575 2.5886
# 5 8.4179 -36.1008 -4.6922 10.1575 32.7396 11.4363
# 6 10.3419 53.4744 -1.7629 2.5886 11.4363 47.0583
#
#
#
# Elastic Compliance Matrix: (Units=1/GPa)
#
#
# Indices 1 2 3 4 5 6 
#
# 1 0.007897 0.003893 -0.003641 0.001806 0.003730 -0.007301
# 2 0.003893 -0.009209 -0.004222 0.006839 -0.018634 0.013603
# 3 -0.003641 -0.004222 0.020404 -0.005944 -0.001408 0.007032
# 4 0.001806 0.006839 -0.005944 0.028367 0.000984 -0.010191
# 5 0.003730 -0.018634 -0.001408 0.000984 0.001593 0.019861
# 6 -0.007301 0.013603 0.007032 -0.010191 0.019861 0.003394
#
#
# Mechanical properties :
#
#
# Convention : Reuss Voigt Hill
#
# Bulk Modulus (GPa) = 89.68145 40.39844 65.03995
# Shear Modulus (GPa) = 77.99938 35.95168 56.97553
#
# Velocity S-wave (km/s) = 5.61375 3.81124 4.79790
# Velocity P-wave (km/s) = 8.84607 5.97408 7.54793
#
# Compressibility (1/GPa) = 0.01115058
#
# Stress axis : x y z
#
# Youngs Moduli (GPa) = 126.63818 -108.58821 49.01027
#
# Poissons Ratio (x) = 0.42270 0.17843
# Poissons Ratio (y) = -0.49296 0.20694
# Poissons Ratio (z) = 0.46106 -0.45849
#
# Static dielectric constant tensor:
#      x y z
#    x 2.096450 -0.080180 0.105370 
#    y -0.080180 2.062490 0.009150 
#    z 0.105370 0.009150 2.065630 
# 
# From -- ./inp_files/38582.got.cif
#   From: 2010.05.17/outbox.cif.g08.bks.cpg/sg2_20_cif.got.tgz:38582.got - 2010.06.03 11:33:40.
