data_PCOD9066216
_publ_section_title
;
Structure prediction by ZEFSAII (Michael W. Deem and Ramdas Pophale) SiO2 
 PCOD9066216
Probable space group: P -1
;
_chemical_formula_sum "Si O2"
_cell_formula_units_Z 16
_cell_length_a 9.921753
_cell_length_b 9.727296
_cell_length_c 26.829250
_cell_angle_alpha 30.878309
_cell_angle_beta 150.399140
_cell_angle_gamma 150.011418
_cell_volume 578.380624
_symmetry_space_group_name_H-M "P -1"
_symmetry_group_IT_number 2
_symmetry_cell_setting 'triclinic'
loop_
_space_group_symop_operation_xyz
x,y,z
-x,-y,-z
loop_
_atom_site_type_symbol
_atom_site_label
_atom_site_fract_x
_atom_site_fract_y
_atom_site_fract_z
Si Si1 0.629717 0.132695 0.174781
Si Si2 0.752578 0.630843 0.979271
Si Si3 0.458948 0.684149 0.605944
Si Si4 0.640293 0.768313 0.112468
Si Si5 0.137154 0.460121 0.478265
Si Si6 0.349535 0.601248 0.172268
Si Si7 0.285171 0.823229 0.315735
Si Si8 0.074387 0.838275 0.636305
O O1 0.739535 0.441859 0.083220
O O2 0.559882 0.875715 0.191599
O O3 0.859381 0.167758 0.281926
O O4 0.311683 0.094507 0.110840
O O5 0.072989 0.673550 0.046471
O O6 0.489391 0.422179 0.920332
O O7 0.383482 0.495475 0.589267
O O8 0.721797 0.683876 0.725997
O O9 0.152124 0.543391 0.585279
O O10 0.500000 0.000000 0.500000
O O11 0.510644 0.578260 0.181032
O O12 0.008626 0.903563 0.191435
O O13 0.500000 0.000000 0.000000
O O14 0.018781 0.127756 0.520040
O O15 0.279885 0.731376 0.400264
O O16 0.606163 0.067000 0.320223
O O17 0.179383 0.493851 0.358353
#
# Coordination Sequence:
#
# PCOD9066216 Si02
#       8
#     2   2   2   2   2   2   2   2
#     4  11  25  45  71 110 143 199 250 313 374 453
#     4  11  26  45  73 106 152 195 253 310 380 453
#     4  11  27  44  75 109 149 198 254 318 386 458
#     4  12  26  47  71 111 150 200 251 309 382 458
#     4  11  26  49  72 109 149 195 255 315 386 448
#     4  12  25  46  75 106 146 201 250 315 383 460
#     4  12  29  50  76 113 151 201 253 314 379 457
#     4  12  28  47  82 106 152 199 257 311 383 451
#
# _framework density 27.663443000000001
#
# number of rings (size 3 to 8) (size 9 to 14) (size 15 to 20)
#    0.000    0.500    5.000    1.500    8.750    2.000 
#    0.000    0.000    0.000    0.000    0.000    0.000 
#    0.000    0.000    0.000    0.000    0.000    0.000 
#
# Total GULP energy -89814.356711 kJ/mol
# GULP energy per Si atom -5613.397294 kJ/mol
# Density = 2.760048 g / cm^3
# Si number density = 27.663443 Si / 1000 Ang^3
#
#
#
# Elastic Constant Matrix: (Units=GPa)
#
#
# Indices 1 2 3 4 5 6 
#
# 1 143.8125 28.9811 28.2194 11.4132 -1.8529 4.1417
# 2 28.9811 82.5653 16.0090 -0.0942 0.8385 -14.1594
# 3 28.2194 16.0090 141.6768 8.9403 -16.3848 -4.7529
# 4 11.4132 -0.0942 8.9403 46.1629 -3.0504 8.5676
# 5 -1.8529 0.8385 -16.3848 -3.0504 63.6378 -2.3479
# 6 4.1417 -14.1594 -4.7529 8.5676 -2.3479 42.8175
#
#
#
# Elastic Compliance Matrix: (Units=1/GPa)
#
#
# Indices 1 2 3 4 5 6 
#
# 1 0.007920 -0.002805 -0.001242 -0.001447 -0.000179 -0.001552
# 2 -0.002805 0.014102 -0.000910 -0.000018 -0.000325 0.004820
# 3 -0.001242 -0.000910 0.007748 -0.001259 0.001949 0.001038
# 4 -0.001447 -0.000018 -0.001259 0.023157 0.000574 -0.004608
# 5 -0.000179 -0.000325 0.001949 0.000574 0.016276 0.000904
# 6 -0.001552 0.004820 0.001038 -0.004608 0.000904 0.026186
#
#
# Mechanical properties :
#
#
# Convention : Reuss Voigt Hill
#
# Bulk Modulus (GPa) = 50.35968 57.16375 53.76171
# Shear Modulus (GPa) = 44.67449 50.17999 47.42724
#
# Velocity S-wave (km/s) = 4.02298 4.26366 4.14507
# Velocity P-wave (km/s) = 6.31055 6.70428 6.51039
#
# Compressibility (1/GPa) = 0.01985716
#
# Stress axis : x y z
#
# Youngs Moduli (GPa) = 126.26755 70.90997 129.06351
#
# Poissons Ratio (x) = 0.19890 0.16029
# Poissons Ratio (y) = 0.35418 0.11739
# Poissons Ratio (z) = 0.15681 0.06450
#
# Static dielectric constant tensor:
#      x y z
#    x 2.203580 0.030590 0.047210 
#    y 0.030590 2.159460 -0.008480 
#    z 0.047210 -0.008480 2.170840 
# 
# From -- ./inp_files/340513.got.cif
#   From: 2010.05.17/outbox.cif.g08.bks.cpg/sg2_171_cif.got.tgz:340513.got - 2010.06.03 11:33:40.
