data_PCOD9066682
_publ_section_title
;
Structure prediction by ZEFSAII (Michael W. Deem and Ramdas Pophale) SiO2 
 PCOD9066682
Probable space group: P -1
;
_chemical_formula_sum "Si O2"
_cell_formula_units_Z 16
_cell_length_a 5.568545
_cell_length_b 18.376008
_cell_length_c 7.212574
_cell_angle_alpha 66.645006
_cell_angle_beta 62.140119
_cell_angle_gamma 92.017759
_cell_volume 576.517653
_symmetry_space_group_name_H-M "P -1"
_symmetry_group_IT_number 2
_symmetry_cell_setting 'triclinic'
loop_
_space_group_symop_operation_xyz
x,y,z
-x,-y,-z
loop_
_atom_site_type_symbol
_atom_site_label
_atom_site_fract_x
_atom_site_fract_y
_atom_site_fract_z
Si Si1 0.987299 0.258736 0.507565
Si Si2 0.043206 0.810179 0.054260
Si Si3 0.366325 0.216060 0.109359
Si Si4 0.674254 0.073446 0.721410
Si Si5 0.149889 0.600083 0.835307
Si Si6 0.757724 0.381884 0.811342
Si Si7 0.166484 0.068199 0.729586
Si Si8 0.631971 0.534768 0.615725
O O1 0.020417 0.269416 0.707201
O O2 0.244585 0.237176 0.326946
O O3 0.936552 0.337109 0.338351
O O4 0.733518 0.171104 0.659997
O O5 0.891157 0.858790 0.200606
O O6 0.892559 0.814681 0.909049
O O7 0.387640 0.830595 0.899867
O O8 0.533340 0.305699 0.879327
O O9 0.484305 0.065136 0.617891
O O10 0.986210 0.061423 0.615917
O O11 0.500000 0.000000 0.000000
O O12 0.465495 0.597517 0.679566
O O13 0.140362 0.638334 0.003152
O O14 0.000000 0.500000 0.000000
O O15 0.594414 0.452351 0.833266
O O16 0.035572 0.426523 0.555538
O O17 0.000000 0.000000 0.000000
O O18 0.500000 0.500000 0.500000
#
# Coordination Sequence:
#
# PCOD9066682 Si02
#       8
#     2   2   2   2   2   2   2   2
#     4  11  27  47  76 110 148 203 253 315 392 456
#     4  11  26  46  76 108 151 201 250 314 385 453
#     4  12  28  47  72 111 153 192 258 318 375 460
#     4   9  19  39  72 104 142 192 242 301 374 449
#     4  12  25  47  74 105 149 198 256 313 384 452
#     4  11  27  46  67 105 148 198 256 324 370 456
#     4   9  18  38  70 104 139 189 239 294 373 444
#     4  11  25  46  73  99 141 200 256 312 386 442
#
# _framework density 27.752832999999999
#
# number of rings (size 3 to 8) (size 9 to 14) (size 15 to 20)
#    0.000    1.250    1.250    3.375    3.500    8.000 
#    0.000    0.000    0.000   40.500    0.000    0.000 
#    0.000    0.000    0.000    0.000    0.000    0.000 
#
# Total GULP energy -89288.746833 kJ/mol
# GULP energy per Si atom -5580.546677 kJ/mol
# Density = 2.768967 g / cm^3
# Si number density = 27.752833 Si / 1000 Ang^3
#
#
#
# Elastic Constant Matrix: (Units=GPa)
#
#
# Indices 1 2 3 4 5 6 
#
# 1 236.1244 19.7995 46.5580 10.4328 -2.4152 8.0160
# 2 19.7995 68.1500 26.2759 -10.5862 7.2079 -0.2717
# 3 46.5580 26.2759 106.0816 -9.6344 11.2273 -4.5714
# 4 10.4328 -10.5862 -9.6344 59.6108 -0.0435 8.6014
# 5 -2.4152 7.2079 11.2273 -0.0435 57.6856 3.0437
# 6 8.0160 -0.2717 -4.5714 8.6014 3.0437 33.2846
#
#
#
# Elastic Compliance Matrix: (Units=1/GPa)
#
#
# Indices 1 2 3 4 5 6 
#
# 1 0.004832 -0.000843 -0.002155 -0.001164 0.000791 -0.001238
# 2 -0.000843 0.016804 -0.003428 0.002676 -0.001429 -0.000692
# 3 -0.002155 -0.003428 0.011644 0.001372 -0.002028 0.001921
# 4 -0.001164 0.002676 0.001372 0.018281 -0.000415 -0.004196
# 5 0.000791 -0.001429 -0.002028 -0.000415 0.018048 -0.002024
# 6 -0.001238 -0.000692 0.001921 -0.004196 -0.002024 0.031870
#
#
# Mechanical properties :
#
#
# Convention : Reuss Voigt Hill
#
# Bulk Modulus (GPa) = 48.95009 66.18031 57.56520
# Shear Modulus (GPa) = 41.27458 51.29771 46.28615
#
# Velocity S-wave (km/s) = 3.86063 4.30394 4.08830
# Velocity P-wave (km/s) = 6.12771 6.97113 6.56298
#
# Compressibility (1/GPa) = 0.02042897
#
# Stress axis : x y z
#
# Youngs Moduli (GPa) = 206.94579 59.50914 85.88380
#
# Poissons Ratio (x) = 0.05014 0.18508
# Poissons Ratio (y) = 0.17436 0.29441
# Poissons Ratio (z) = 0.44596 0.20400
#
# Static dielectric constant tensor:
#      x y z
#    x 2.171070 0.092390 -0.006210 
#    y 0.092390 2.149280 -0.066030 
#    z -0.006210 -0.066030 2.235600 
# 
# From -- ./inp_files/141339.got.cif
#   From: 2010.05.17/outbox.cif.g08.bks.cpg/sg2_71_cif.got.tgz:141339.got - 2010.06.03 11:33:40.
