data_PCOD9066351
_publ_section_title
;
Structure prediction by ZEFSAII (Michael W. Deem and Ramdas Pophale) SiO2 
 PCOD9066351
Probable space group: P -1
;
_chemical_formula_sum "Si O2"
_cell_formula_units_Z 16
_cell_length_a 12.891325
_cell_length_b 5.033923
_cell_length_c 13.988900
_cell_angle_alpha 77.732078
_cell_angle_beta 139.261458
_cell_angle_gamma 107.178143
_cell_volume 565.913604
_symmetry_space_group_name_H-M "P -1"
_symmetry_group_IT_number 2
_symmetry_cell_setting 'triclinic'
loop_
_space_group_symop_operation_xyz
x,y,z
-x,-y,-z
loop_
_atom_site_type_symbol
_atom_site_label
_atom_site_fract_x
_atom_site_fract_y
_atom_site_fract_z
Si Si1 0.883469 0.696993 0.942694
Si Si2 0.287416 0.579771 0.475949
Si Si3 0.225801 0.798136 0.961689
Si Si4 0.666854 0.875053 0.615838
Si Si5 0.073114 0.151063 0.696522
Si Si6 0.515442 0.086918 0.245653
Si Si7 0.213272 0.132321 0.587843
Si Si8 0.352156 0.651518 0.877039
O O1 0.740137 0.739640 0.767356
O O2 0.816332 0.513022 0.003391
O O3 0.000000 0.500000 0.000000
O O4 0.000000 0.000000 0.000000
O O5 0.337981 0.365719 0.449828
O O6 0.425707 0.752870 0.629864
O O7 0.165254 0.389055 0.479024
O O8 0.218696 0.825043 0.356343
O O9 0.353879 0.831547 0.960285
O O10 0.086328 0.934072 0.807443
O O11 0.326408 0.989917 0.100192
O O12 0.500000 0.000000 0.500000
O O13 0.174097 0.099330 0.674101
O O14 0.176627 0.446164 0.778079
O O15 0.897461 0.116337 0.529469
O O16 0.619299 0.247935 0.218742
O O17 0.597712 0.820501 0.312288
O O18 0.500000 0.500000 0.000000
#
# Coordination Sequence:
#
# PCOD9066351 Si02
#       8
#     2   2   2   2   2   2   2   2
#     4  12  33  61  87 124 169 225 302 373 431 511
#     4  12  27  49  84 117 169 217 273 358 435 493
#     4  12  29  48  81 114 167 225 281 350 440 499
#     4  12  30  55  86 124 162 222 294 361 433 515
#     4  11  25  45  74 120 166 226 270 341 427 530
#     4  12  25  46  78 124 167 218 277 346 430 533
#     4  11  25  45  75 120 171 213 282 338 424 533
#     4  12  24  43  75 118 171 214 272 337 418 528
#
# _framework density 28.272866
#
# number of rings (size 3 to 8) (size 9 to 14) (size 15 to 20)
#    0.000    0.250    5.000    2.250    7.000    3.500 
#    0.000    0.000    0.000    0.000    0.000    0.000 
#    0.000    0.000    0.000    0.000    0.000    0.000 
#
# Total GULP energy -89447.406351 kJ/mol
# GULP energy per Si atom -5590.462897 kJ/mol
# Density = 2.820852 g / cm^3
# Si number density = 28.272866 Si / 1000 Ang^3
#
#
#
# Elastic Constant Matrix: (Units=GPa)
#
#
# Indices 1 2 3 4 5 6 
#
# 1 120.9742 56.6723 56.5829 -23.3724 -15.2010 -8.9271
# 2 56.6723 177.9405 52.7190 -22.3029 -24.3320 3.2390
# 3 56.5829 52.7190 181.8302 -10.1905 -18.5216 7.7995
# 4 -23.3724 -22.3029 -10.1905 50.0202 4.4849 -11.8952
# 5 -15.2010 -24.3320 -18.5216 4.4849 53.4817 -14.0533
# 6 -8.9271 3.2390 7.7995 -11.8952 -14.0533 63.1637
#
#
#
# Elastic Compliance Matrix: (Units=1/GPa)
#
#
# Indices 1 2 3 4 5 6 
#
# 1 0.012017 -0.002206 -0.002785 0.004716 0.001967 0.003481
# 2 -0.002206 0.007162 -0.001079 0.001815 0.002180 0.000281
# 3 -0.002785 -0.001079 0.006770 -0.000746 0.000828 -0.001131
# 4 0.004716 0.001815 -0.000746 0.024038 0.001334 0.005489
# 5 0.001967 0.002180 0.000828 0.001334 0.021780 0.005161
# 6 0.003481 0.000281 -0.001131 0.005489 0.005161 0.018631
#
#
# Mechanical properties :
#
#
# Convention : Reuss Voigt Hill
#
# Bulk Modulus (GPa) = 72.40340 90.29925 81.35132
# Shear Modulus (GPa) = 46.66788 54.31784 50.49286
#
# Velocity S-wave (km/s) = 4.06720 4.38791 4.23059
# Velocity P-wave (km/s) = 6.90800 7.59470 7.25947
#
# Compressibility (1/GPa) = 0.01381151
#
# Stress axis : x y z
#
# Youngs Moduli (GPa) = 83.21460 139.62092 147.71207
#
# Poissons Ratio (x) = 0.30795 0.41134
# Poissons Ratio (y) = 0.18354 0.15932
# Poissons Ratio (z) = 0.23173 0.15059
#
# Static dielectric constant tensor:
#      x y z
#    x 2.247380 -0.042280 0.112970 
#    y -0.042280 2.710140 -0.378450 
#    z 0.112970 -0.378450 2.448920 
# 
# From -- ./inp_files/525633.got.cif
#   From: 2010.05.17/outbox.cif.g08.bks.cpg/sg2_263_cif.got.tgz:525633.got - 2010.06.03 11:33:40.
