data_PCOD9066881
_publ_section_title
;
Structure prediction by ZEFSAII (Michael W. Deem and Ramdas Pophale) SiO2 
 PCOD9066881
Probable space group: P -1
;
_chemical_formula_sum "Si O2"
_cell_formula_units_Z 12
_cell_length_a 13.748685
_cell_length_b 5.140201
_cell_length_c 14.207726
_cell_angle_alpha 86.420429
_cell_angle_beta 28.844887
_cell_angle_gamma 79.207163
_cell_volume 464.774985
_symmetry_space_group_name_H-M "P -1"
_symmetry_group_IT_number 2
_symmetry_cell_setting 'triclinic'
loop_
_space_group_symop_operation_xyz
x,y,z
-x,-y,-z
loop_
_atom_site_type_symbol
_atom_site_label
_atom_site_fract_x
_atom_site_fract_y
_atom_site_fract_z
Si Si1 0.878922 0.851673 0.177336
Si Si2 0.489113 0.283491 0.590356
Si Si3 0.347804 0.295776 0.123353
Si Si4 0.832515 0.900858 0.539740
Si Si5 0.157944 0.672815 0.127043
Si Si6 0.602871 0.506040 0.683434
O O1 0.750624 0.721870 0.214682
O O2 0.031867 0.701918 0.135066
O O3 0.679208 0.030312 0.402642
O O4 0.000000 0.000000 0.000000
O O5 0.500000 0.500000 0.500000
O O6 0.540695 0.388797 0.643187
O O7 0.191723 0.264500 0.341465
O O8 0.216500 0.383373 0.137173
O O9 0.500000 0.500000 0.000000
O O10 0.500000 0.000000 0.000000
O O11 0.733823 0.721931 0.555614
O O12 0.048780 0.867668 0.301335
O O13 0.721698 0.220705 0.639963
O O14 0.388709 0.691372 0.905203
#
# Coordination Sequence:
#
# PCOD9066881 Si02
#       6
#     2   2   2   2   2   2
#     4  11  26  46  75 111 149 199 259 308 383 453
#     4  11  25  47  71 106 157 196 249 324 372 446
#     4  12  25  50  76 109 153 196 246 318 377 442
#     4  12  26  50  73 115 147 198 249 312 374 449
#     4  12  26  47  80 109 149 204 252 306 384 457
#     4  12  27  46  79 106 157 189 254 313 370 446
#
# _framework density 25.818947999999999
#
# number of rings (size 3 to 8) (size 9 to 14) (size 15 to 20)
#    0.000    0.333    5.000    2.500    4.667    6.667 
#    3.000    3.333    0.000    0.000    0.000    0.000 
#    0.000    0.000    0.000    0.000    0.000    0.000 
#
# Total GULP energy -67007.002301 kJ/mol
# GULP energy per Si atom -5583.916858 kJ/mol
# Density = 2.576018 g / cm^3
# Si number density = 25.818948 Si / 1000 Ang^3
#
#
#
# Elastic Constant Matrix: (Units=GPa)
#
#
# Indices 1 2 3 4 5 6 
#
# 1 133.3653 54.8195 38.2058 -6.9547 4.1916 -31.5723
# 2 54.8195 140.8363 47.7133 -2.8408 -19.6735 -8.9937
# 3 38.2058 47.7133 144.9419 -0.6790 -1.7157 -9.7947
# 4 -6.9547 -2.8408 -0.6790 54.9230 -5.1788 -2.9288
# 5 4.1916 -19.6735 -1.7157 -5.1788 45.5774 -7.2104
# 6 -31.5723 -8.9937 -9.7947 -2.9288 -7.2104 52.8703
#
#
#
# Elastic Compliance Matrix: (Units=1/GPa)
#
#
# Indices 1 2 3 4 5 6 
#
# 1 0.010748 -0.003593 -0.001297 0.001299 -0.001583 0.005423
# 2 -0.003593 0.009894 -0.002271 0.000443 0.004528 -0.000241
# 3 -0.001297 -0.002271 0.007997 -0.000222 -0.000548 0.000234
# 4 0.001299 0.000443 -0.000222 0.018749 0.002541 0.002195
# 5 -0.001583 0.004528 -0.000548 0.002541 0.024823 0.003250
# 6 0.005423 -0.000241 0.000234 0.002195 0.003250 0.022720
#
#
# Mechanical properties :
#
#
# Convention : Reuss Voigt Hill
#
# Bulk Modulus (GPa) = 69.83791 77.84676 73.84234
# Shear Modulus (GPa) = 43.85084 49.23446 46.54265
#
# Velocity S-wave (km/s) = 4.12563 4.37156 4.25037
# Velocity P-wave (km/s) = 7.05707 7.46305 7.26290
#
# Compressibility (1/GPa) = 0.01431887
#
# Stress axis : x y z
#
# Youngs Moduli (GPa) = 93.04307 101.06898 125.04962
#
# Poissons Ratio (x) = 0.36312 0.16213
# Poissons Ratio (y) = 0.33428 0.28394
# Poissons Ratio (z) = 0.12063 0.22949
#
# Static dielectric constant tensor:
#      x y z
#    x 2.091870 0.026370 0.014120 
#    y 0.026370 2.028690 0.052050 
#    z 0.014120 0.052050 2.028100 
# 
# From -- ./inp_files/525659.got.cif
#   From: 2010.05.17/outbox.cif.g08.bks.cpg/sg2_263_cif.got.tgz:525659.got - 2010.06.03 11:33:40.
