data_PCOD9066922
_publ_section_title
;
Structure prediction by ZEFSAII (Michael W. Deem and Ramdas Pophale) SiO2 
 PCOD9066922
Probable space group: P -1
;
_chemical_formula_sum "Si O2"
_cell_formula_units_Z 16
_cell_length_a 21.681851
_cell_length_b 18.855757
_cell_length_c 9.844123
_cell_angle_alpha 35.945804
_cell_angle_beta 39.194406
_cell_angle_gamma 17.573903
_cell_volume 713.202662
_symmetry_space_group_name_H-M "P -1"
_symmetry_group_IT_number 2
_symmetry_cell_setting 'triclinic'
loop_
_space_group_symop_operation_xyz
x,y,z
-x,-y,-z
loop_
_atom_site_type_symbol
_atom_site_label
_atom_site_fract_x
_atom_site_fract_y
_atom_site_fract_z
Si Si1 0.361589 0.160179 0.120191
Si Si2 0.190720 0.098874 0.429992
Si Si3 0.064842 0.706591 0.206192
Si Si4 0.056279 0.696730 0.724783
Si Si5 0.666450 0.819942 0.377868
Si Si6 0.406968 0.461377 0.368494
Si Si7 0.561514 0.564502 0.965682
Si Si8 0.812285 0.918652 0.042943
O O1 0.222508 0.191138 0.308639
O O2 0.527408 0.982085 0.231403
O O3 0.215189 0.434378 0.934850
O O4 0.500000 0.000000 0.000000
O O5 0.105671 0.097189 0.689935
O O6 0.043649 0.261687 0.299005
O O7 0.413229 0.813294 0.446448
O O8 0.204247 0.443117 0.427806
O O9 0.210415 0.664058 0.013381
O O10 0.965680 0.779118 0.120702
O O11 0.190038 0.660349 0.492129
O O12 0.884253 0.912583 0.795599
O O13 0.805456 0.786235 0.215833
O O14 0.500000 0.000000 0.500000
O O15 0.419710 0.419627 0.250045
O O16 0.467543 0.533582 0.175338
O O17 0.408395 0.809494 0.939016
#
# Coordination Sequence:
#
# PCOD9066922 Si02
#       8
#     2   2   2   2   2   2   2   2
#     4  12  23  41  69  97 140 182 217 271 339 403
#     4  12  23  43  71 100 132 181 227 274 330 401
#     4  12  23  43  71 100 132 181 227 274 330 401
#     4  12  26  43  68 104 142 174 219 282 347 397
#     4  12  23  41  69  97 140 182 217 271 339 403
#     4  11  25  47  72  99 132 178 233 281 326 399
#     4  11  25  47  72  99 132 178 233 281 326 399
#     4  12  26  43  68 104 142 174 219 282 347 397
#
# _framework density 22.434017000000001
#
# number of rings (size 3 to 8) (size 9 to 14) (size 15 to 20)
#    0.000    0.250    5.000    5.250    0.000    2.000 
#    0.000    1.250    0.000    0.000    0.000    0.000 
#    0.000    0.000    0.000    0.000    0.000    0.000 
#
# Total GULP energy -89561.999069 kJ/mol
# GULP energy per Si atom -5597.624942 kJ/mol
# Density = 2.238296 g / cm^3
# Si number density = 22.434017 Si / 1000 Ang^3
#
#
#
# Elastic Constant Matrix: (Units=GPa)
#
#
# Indices 1 2 3 4 5 6 
#
# 1 112.3912 22.3172 25.4712 22.5831 12.0148 -20.2134
# 2 22.3172 51.3080 16.8208 32.8513 -0.5568 -3.8091
# 3 25.4712 16.8208 67.5618 36.7356 -2.3376 -1.0726
# 4 22.5831 32.8513 36.7356 42.3989 -3.7615 0.1247
# 5 12.0148 -0.5568 -2.3376 -3.7615 44.8931 3.7846
# 6 -20.2134 -3.8091 -1.0726 0.1247 3.7846 38.6714
#
#
#
# Elastic Compliance Matrix: (Units=1/GPa)
#
#
# Indices 1 2 3 4 5 6 
#
# 1 0.012091 -0.001927 -0.002303 -0.003344 -0.004207 0.006488
# 2 -0.001927 0.047103 0.015880 -0.049472 -0.002597 0.004486
# 3 -0.002303 0.015880 0.033614 -0.040290 -0.000940 0.001515
# 4 -0.003344 -0.049472 -0.040290 0.099275 0.007241 -0.008767
# 5 -0.004207 -0.002597 -0.000940 0.007241 0.024338 -0.004886
# 6 0.006488 0.004486 0.001515 -0.008767 -0.004886 0.030241
#
#
# Mechanical properties :
#
#
# Convention : Reuss Voigt Hill
#
# Bulk Modulus (GPa) = 8.61261 40.05328 24.33295
# Shear Modulus (GPa) = 19.07937 36.30281 27.69109
#
# Velocity S-wave (km/s) = 2.91944 4.02705 3.51712
# Velocity P-wave (km/s) = 3.90020 6.28613 5.23102
#
# Compressibility (1/GPa) = 0.11610881
#
# Stress axis : x y z
#
# Youngs Moduli (GPa) = 82.70908 21.23011 29.74945
#
# Poissons Ratio (x) = 0.04091 0.06851
# Poissons Ratio (y) = 0.15938 -0.47243
# Poissons Ratio (z) = 0.19046 -0.33714
#
# Static dielectric constant tensor:
#      x y z
#    x 1.800650 0.005190 -0.045600 
#    y 0.005190 1.847100 0.011830 
#    z -0.045600 0.011830 1.866650 
# 
# From -- ./inp_files/78300.got.cif
#   From: 2010.05.17/outbox.cif.g08.bks.cpg/sg2_40_cif.got.tgz:78300.got - 2010.06.03 11:33:40.
