data_PCOD9066123
_publ_section_title
;
Structure prediction by ZEFSAII (Michael W. Deem and Ramdas Pophale) SiO2 
 PCOD9066123
Probable space group: P -1
;
_chemical_formula_sum "Si O2"
_cell_formula_units_Z 12
_cell_length_a 9.778947
_cell_length_b 11.007948
_cell_length_c 5.020102
_cell_angle_alpha 83.197916
_cell_angle_beta 104.847254
_cell_angle_gamma 101.054693
_cell_volume 511.289752
_symmetry_space_group_name_H-M "P -1"
_symmetry_group_IT_number 2
_symmetry_cell_setting 'triclinic'
loop_
_space_group_symop_operation_xyz
x,y,z
-x,-y,-z
loop_
_atom_site_type_symbol
_atom_site_label
_atom_site_fract_x
_atom_site_fract_y
_atom_site_fract_z
Si Si1 0.979587 0.139487 0.376087
Si Si2 0.360715 0.677456 0.359981
Si Si3 0.667314 0.484244 0.103591
Si Si4 0.852834 0.752573 0.087541
Si Si5 0.660515 0.111075 0.317727
Si Si6 0.593982 0.842163 0.215018
O O1 0.025754 0.226658 0.630469
O O2 0.812435 0.135422 0.237948
O O3 0.079366 0.191109 0.166665
O O4 0.000000 0.000000 0.500000
O O5 0.318688 0.572849 0.585532
O O6 0.324510 0.804169 0.434274
O O7 0.532859 0.719627 0.386182
O O8 0.302729 0.617398 0.070632
O O9 0.772678 0.611643 0.068171
O O10 0.500000 0.500000 0.000000
O O11 0.732175 0.826929 0.120896
O O12 0.625750 0.963321 0.383504
O O13 0.532812 0.142717 0.059404
#
# Coordination Sequence:
#
# PCOD9066123 Si02
#       6
#     2   2   2   2   2   2
#     4  12  28  48  74 105 153 185 236 292 375 426
#     4  12  24  45  70 109 139 190 234 299 357 409
#     4  12  25  43  75 103 148 184 245 296 343 423
#     4  12  27  48  72 112 138 193 242 295 352 429
#     4  11  26  46  73 109 146 190 233 305 357 435
#     4  11  25  44  79 106 146 181 251 296 359 417
#
# _framework density 23.470057000000001
#
# number of rings (size 3 to 8) (size 9 to 14) (size 15 to 20)
#    0.000    0.333    5.000    2.500    7.000    1.333 
#    0.000    5.000    0.000    0.000    0.000    0.000 
#    0.000    0.000    0.000    0.000    0.000    0.000 
#
# Total GULP energy -67205.618015 kJ/mol
# GULP energy per Si atom -5600.468168 kJ/mol
# Density = 2.341664 g / cm^3
# Si number density = 23.470057 Si / 1000 Ang^3
#
#
#
# Elastic Constant Matrix: (Units=GPa)
#
#
# Indices 1 2 3 4 5 6 
#
# 1 95.6186 29.9879 25.5972 -0.6021 -3.5739 19.6280
# 2 29.9879 157.5562 38.7472 15.6037 -19.9994 24.8946
# 3 25.5972 38.7472 84.7155 -9.2597 -23.3061 12.2132
# 4 -0.6021 15.6037 -9.2597 41.3837 9.0735 -14.7206
# 5 -3.5739 -19.9994 -23.3061 9.0735 42.9999 -4.5176
# 6 19.6280 24.8946 12.2132 -14.7206 -4.5176 42.9932
#
#
#
# Elastic Compliance Matrix: (Units=1/GPa)
#
#
# Indices 1 2 3 4 5 6 
#
# 1 0.012559 -0.000760 -0.003243 -0.001810 -0.001224 -0.005120
# 2 -0.000760 0.009398 -0.002964 -0.007264 0.003565 -0.006365
# 3 -0.003243 -0.002964 0.016232 0.003442 0.006470 0.000445
# 4 -0.001810 -0.007264 0.003442 0.034653 -0.007384 0.015143
# 5 -0.001224 0.003565 0.006470 -0.007384 0.029587 -0.002763
# 6 -0.005120 -0.006365 0.000445 0.015143 -0.002763 0.034051
#
#
# Mechanical properties :
#
#
# Convention : Reuss Voigt Hill
#
# Bulk Modulus (GPa) = 41.23027 58.50609 49.86818
# Shear Modulus (GPa) = 31.54573 41.71255 36.62914
#
# Velocity S-wave (km/s) = 3.67015 4.22034 3.95482
# Velocity P-wave (km/s) = 5.96367 6.98072 6.49214
#
# Compressibility (1/GPa) = 0.02425403
#
# Stress axis : x y z
#
# Youngs Moduli (GPa) = 79.62602 106.40208 61.60594
#
# Poissons Ratio (x) = 0.08084 0.19981
# Poissons Ratio (y) = 0.06049 0.18263
# Poissons Ratio (z) = 0.25826 0.31543
#
# Static dielectric constant tensor:
#      x y z
#    x 1.884840 -0.014560 0.000550 
#    y -0.014560 1.898030 -0.007400 
#    z 0.000550 -0.007400 1.887390 
# 
# From -- ./inp_files/24748.got.cif
#   From: 2010.05.17/outbox.cif.g08.bks.cpg/sg2_13_cif.got.tgz:24748.got - 2010.06.03 11:33:40.
