data_PCOD9066237
_publ_section_title
;
Structure prediction by ZEFSAII (Michael W. Deem and Ramdas Pophale) SiO2 
 PCOD9066237
Probable space group: P -1
;
_chemical_formula_sum "Si O2"
_cell_formula_units_Z 12
_cell_length_a 10.845145
_cell_length_b 5.863826
_cell_length_c 13.815307
_cell_angle_alpha 85.496874
_cell_angle_beta 36.971409
_cell_angle_gamma 73.963649
_cell_volume 492.220493
_symmetry_space_group_name_H-M "P -1"
_symmetry_group_IT_number 2
_symmetry_cell_setting 'triclinic'
loop_
_space_group_symop_operation_xyz
x,y,z
-x,-y,-z
loop_
_atom_site_type_symbol
_atom_site_label
_atom_site_fract_x
_atom_site_fract_y
_atom_site_fract_z
Si Si1 0.954010 0.890831 0.432617
Si Si2 0.195657 0.175498 0.781671
Si Si3 0.093037 0.457996 0.656941
Si Si4 0.446932 0.666500 0.361637
Si Si5 0.707303 0.229245 0.116411
Si Si6 0.729830 0.947845 0.911927
O O1 0.698268 0.055215 0.576151
O O2 0.121681 0.941877 0.250097
O O3 0.968956 0.617616 0.406653
O O4 0.000000 0.000000 0.500000
O O5 0.180222 0.213274 0.675364
O O6 0.331361 0.340110 0.726579
O O7 0.304908 0.911897 0.771706
O O8 0.944126 0.256196 0.969226
O O9 0.283622 0.568663 0.526589
O O10 0.878924 0.659579 0.831442
O O11 0.519045 0.493888 0.228347
O O12 0.699843 0.068205 0.033187
O O13 0.500000 0.000000 0.000000
#
# Coordination Sequence:
#
# PCOD9066237 Si02
#       6
#     2   2   2   2   2   2
#     4  11  27  48  71 101 141 187 236 286 345 416
#     4  11  25  45  72 104 147 183 230 285 354 416
#     4  11  26  48  70 106 140 184 234 287 348 419
#     4  11  26  43  74 103 143 185 231 286 351 411
#     4  11  26  44  72 109 141 182 232 290 348 416
#     4  11  28  46  73 103 139 185 235 288 350 410
#
# _framework density 24.379317
#
# number of rings (size 3 to 8) (size 9 to 14) (size 15 to 20)
#    0.000    1.000    1.667    2.000   14.000    4.667 
#    0.000    0.000    0.000    0.000    0.000    0.000 
#    0.000    0.000    0.000    0.000    0.000    0.000 
#
# Total GULP energy -67094.064353 kJ/mol
# GULP energy per Si atom -5591.172029 kJ/mol
# Density = 2.432383 g / cm^3
# Si number density = 24.379317 Si / 1000 Ang^3
#
#
#
# Elastic Constant Matrix: (Units=GPa)
#
#
# Indices 1 2 3 4 5 6 
#
# 1 139.5283 42.1772 56.3831 8.2600 -10.4496 30.9215
# 2 42.1772 62.4178 44.0923 11.7606 -3.8817 27.5385
# 3 56.3831 44.0923 103.0373 24.7237 -19.8596 15.4829
# 4 8.2600 11.7606 24.7237 58.3185 14.4764 7.6213
# 5 -10.4496 -3.8817 -19.8596 14.4764 39.3643 -3.7555
# 6 30.9215 27.5385 15.4829 7.6213 -3.7555 27.9913
#
#
#
# Elastic Compliance Matrix: (Units=1/GPa)
#
#
# Indices 1 2 3 4 5 6 
#
# 1 0.011517 0.000686 -0.005938 0.002673 -0.001913 -0.011097
# 2 0.000686 0.039785 -0.015098 0.004845 -0.008538 -0.034013
# 3 -0.005938 -0.015098 0.022592 -0.010868 0.013637 0.013706
# 4 0.002673 0.004845 -0.010868 0.025422 -0.014656 -0.010595
# 5 -0.001913 -0.008538 0.013637 -0.014656 0.037467 0.011987
# 6 -0.011097 -0.034013 0.013706 -0.010595 0.011987 0.078359
#
#
# Mechanical properties :
#
#
# Convention : Reuss Voigt Hill
#
# Bulk Modulus (GPa) = 30.12535 65.58763 47.85649
# Shear Modulus (GPa) = 18.73307 35.95689 27.34498
#
# Velocity S-wave (km/s) = 2.77501 3.84460 3.35273
# Velocity P-wave (km/s) = 4.75934 6.83149 5.88730
#
# Compressibility (1/GPa) = 0.03319463
#
# Stress axis : x y z
#
# Youngs Moduli (GPa) = 86.82687 25.13504 44.26298
#
# Poissons Ratio (x) = -0.01724 0.26285
# Poissons Ratio (y) = -0.05956 0.66826
# Poissons Ratio (z) = 0.51561 0.37948
#
# Static dielectric constant tensor:
#      x y z
#    x 1.993020 0.010750 0.033840 
#    y 0.010750 2.005730 -0.019990 
#    z 0.033840 -0.019990 1.889350 
# 
# From -- ./inp_files/21483.got.cif
#   From: 2010.05.17/outbox.cif.g08.bks.cpg/sg2_11_cif.got.tgz:21483.got - 2010.06.03 11:33:40.
