data_PCOD9066723
_publ_section_title
;
Structure prediction by ZEFSAII (Michael W. Deem and Ramdas Pophale) SiO2 
 PCOD9066723
Probable space group: P -1
;
_chemical_formula_sum "Si O2"
_cell_formula_units_Z 10
_cell_length_a 10.224931
_cell_length_b 6.037104
_cell_length_c 7.467686
_cell_angle_alpha 96.560652
_cell_angle_beta 60.433879
_cell_angle_gamma 111.078306
_cell_volume 372.984194
_symmetry_space_group_name_H-M "P -1"
_symmetry_group_IT_number 2
_symmetry_cell_setting 'triclinic'
loop_
_space_group_symop_operation_xyz
x,y,z
-x,-y,-z
loop_
_atom_site_type_symbol
_atom_site_label
_atom_site_fract_x
_atom_site_fract_y
_atom_site_fract_z
Si Si1 0.940353 0.911383 0.332576
Si Si2 0.793621 0.075381 0.139055
Si Si3 0.188436 0.552935 0.418923
Si Si4 0.400306 0.740220 0.959374
Si Si5 0.504453 0.387509 0.675126
O O1 0.869710 0.087544 0.287634
O O2 0.823240 0.652073 0.444765
O O3 0.000000 0.000000 0.500000
O O4 0.071678 0.889422 0.101897
O O5 0.668650 0.808151 0.188984
O O6 0.691729 0.231441 0.155747
O O7 0.360819 0.732542 0.399366
O O8 0.000000 0.500000 0.500000
O O9 0.258613 0.583293 0.171877
O O10 0.521169 0.604439 0.819912
O O11 0.500000 0.000000 0.000000
O O12 0.500000 0.500000 0.500000
#
# Coordination Sequence:
#
# PCOD9066723 Si02
#       5
#     2   2   2   2   2
#     4  11  25  46  74 110 153 198 251 322 383 451
#     4  11  25  49  75 110 153 202 258 314 384 461
#     4  12  25  46  75 113 152 200 251 317 383 450
#     4  12  27  47  79 112 152 204 260 311 383 461
#     4  12  27  49  76 112 157 200 257 318 379 458
#
# _framework density 26.810787000000001
#
# number of rings (size 3 to 8) (size 9 to 14) (size 15 to 20)
#    0.000    0.400    6.000    1.800    2.800    2.400 
#    0.000    4.000    0.000    0.000    0.000    0.000 
#    0.000    0.000    0.000    0.000    0.000    0.000 
#
# Total GULP energy -55745.120699 kJ/mol
# GULP energy per Si atom -5574.512070 kJ/mol
# Density = 2.674976 g / cm^3
# Si number density = 26.810787 Si / 1000 Ang^3
#
#
#
# Elastic Constant Matrix: (Units=GPa)
#
#
# Indices 1 2 3 4 5 6 
#
# 1 225.3654 18.8475 88.8112 5.6979 22.8165 -26.6288
# 2 18.8475 43.9918 56.3456 -11.4076 -7.9954 -0.2277
# 3 88.8112 56.3456 212.8894 -34.0826 6.7442 -15.1990
# 4 5.6979 -11.4076 -34.0826 46.7578 -6.2254 4.0550
# 5 22.8165 -7.9954 6.7442 -6.2254 79.7691 -8.1637
# 6 -26.6288 -0.2277 -15.1990 4.0550 -8.1637 51.1957
#
#
#
# Elastic Compliance Matrix: (Units=1/GPa)
#
#
# Indices 1 2 3 4 5 6 
#
# 1 0.006060 -0.000108 -0.002798 -0.003209 -0.001519 0.002332
# 2 -0.000108 0.036393 -0.009438 0.002799 0.004469 -0.002205
# 3 -0.002798 -0.009438 0.009169 0.004589 -0.000482 0.000784
# 4 -0.003209 0.002799 0.004589 0.026330 0.002665 -0.001955
# 5 -0.001519 0.004469 -0.000482 0.002665 0.013777 0.001072
# 6 0.002332 -0.002205 0.000784 -0.001955 0.001072 0.021295
#
#
# Mechanical properties :
#
#
# Convention : Reuss Voigt Hill
#
# Bulk Modulus (GPa) = 37.13045 90.02836 63.57940
# Shear Modulus (GPa) = 34.08555 56.76068 45.42312
#
# Velocity S-wave (km/s) = 3.56945 4.60617 4.12054
# Velocity P-wave (km/s) = 5.55582 7.87027 6.81206
#
# Compressibility (1/GPa) = 0.02693207
#
# Stress axis : x y z
#
# Youngs Moduli (GPa) = 165.02708 27.47801 109.06768
#
# Poissons Ratio (x) = 0.00297 0.30521
# Poissons Ratio (y) = 0.01784 1.02937
# Poissons Ratio (z) = 0.46181 0.25934
#
# Static dielectric constant tensor:
#      x y z
#    x 2.037600 0.049340 0.062970 
#    y 0.049340 2.167820 0.072970 
#    z 0.062970 0.072970 2.075650 
# 
# From -- ./inp_files/229692.got.cif
#   From: 2010.05.17/outbox.cif.g08.bks.cpg/sg2_115_cif.got.tgz:229692.got - 2010.06.03 11:33:40.
