data_PCOD9066024
_publ_section_title
;
Structure prediction by ZEFSAII (Michael W. Deem and Ramdas Pophale) SiO2 
 PCOD9066024
Probable space group: P -1
;
_chemical_formula_sum "Si O2"
_cell_formula_units_Z 12
_cell_length_a 17.771384
_cell_length_b 9.246036
_cell_length_c 5.846369
_cell_angle_alpha 79.535124
_cell_angle_beta 126.915632
_cell_angle_gamma 134.181175
_cell_volume 501.560072
_symmetry_space_group_name_H-M "P -1"
_symmetry_group_IT_number 2
_symmetry_cell_setting 'triclinic'
loop_
_space_group_symop_operation_xyz
x,y,z
-x,-y,-z
loop_
_atom_site_type_symbol
_atom_site_label
_atom_site_fract_x
_atom_site_fract_y
_atom_site_fract_z
Si Si1 0.382138 0.179886 0.199151
Si Si2 0.969966 0.890939 0.225283
Si Si3 0.660943 0.529873 0.920110
Si Si4 0.054839 0.674169 0.359391
Si Si5 0.782599 0.261080 0.744350
Si Si6 0.435062 0.792053 0.796018
O O1 0.511342 0.326738 0.577824
O O2 0.341854 0.302290 0.060968
O O3 0.450234 0.184190 0.101937
O O4 0.254928 0.927373 0.124721
O O5 0.060182 0.846344 0.401399
O O6 0.800218 0.667818 0.984140
O O7 0.000000 0.000000 0.500000
O O8 0.000000 0.000000 0.000000
O O9 0.667590 0.426276 0.173289
O O10 0.000000 0.500000 0.500000
O O11 0.191606 0.769678 0.455367
O O12 0.924753 0.514819 0.988363
O O13 0.654729 0.224926 0.551103
O O14 0.500000 0.000000 0.000000
#
# Coordination Sequence:
#
# PCOD9066024 Si02
#       6
#     2   2   2   2   2   2
#     4  11  25  45  70 100 143 183 238 298 360 438
#     4  12  30  50  76 108 150 196 246 304 369 440
#     4  11  26  46  71 102 141 189 238 295 366 429
#     4  11  27  46  75 101 143 193 247 306 364 436
#     4  11  25  44  72 104 142 183 248 296 367 432
#     4  12  25  42  71 106 140 186 229 298 367 433
#
# _framework density 23.925348
#
# number of rings (size 3 to 8) (size 9 to 14) (size 15 to 20)
#    0.000    0.667    1.667    4.000   16.333    0.000 
#    0.000    0.000    0.000    0.000    0.000    0.000 
#    0.000    0.000    0.000    0.000    0.000    0.000 
#
# Total GULP energy -67135.388536 kJ/mol
# GULP energy per Si atom -5594.615711 kJ/mol
# Density = 2.387089 g / cm^3
# Si number density = 23.925348 Si / 1000 Ang^3
#
#
#
# Elastic Constant Matrix: (Units=GPa)
#
#
# Indices 1 2 3 4 5 6 
#
# 1 138.5147 45.4926 4.6720 -11.2742 -17.7884 -0.6622
# 2 45.4926 139.0341 5.5662 -26.1827 -15.4214 3.0214
# 3 4.6720 5.5662 62.6896 9.8157 -6.0534 -17.5851
# 4 -11.2742 -26.1827 9.8157 47.2339 -0.5203 0.4025
# 5 -17.7884 -15.4214 -6.0534 -0.5203 35.2958 -0.1459
# 6 -0.6622 3.0214 -17.5851 0.4025 -0.1459 49.9244
#
#
#
# Elastic Compliance Matrix: (Units=1/GPa)
#
#
# Indices 1 2 3 4 5 6 
#
# 1 0.008450 -0.002239 -0.000199 0.000852 0.003260 0.000180
# 2 -0.002239 0.009241 -0.001484 0.004936 0.002723 -0.001144
# 3 -0.000199 -0.001484 0.019012 -0.004852 0.002469 0.006830
# 4 0.000852 0.004936 -0.004852 0.025161 0.002116 -0.002193
# 5 0.003260 0.002723 0.002469 0.002116 0.031622 0.000823
# 6 0.000180 -0.001144 0.006830 -0.002193 0.000823 0.022528
#
#
# Mechanical properties :
#
#
# Convention : Reuss Voigt Hill
#
# Bulk Modulus (GPa) = 34.65157 50.18888 42.42022
# Shear Modulus (GPa) = 37.45895 45.45800 41.45847
#
# Velocity S-wave (km/s) = 3.96113 4.36362 4.16724
# Velocity P-wave (km/s) = 5.95277 6.81257 6.39713
#
# Compressibility (1/GPa) = 0.02885872
#
# Stress axis : x y z
#
# Youngs Moduli (GPa) = 118.33872 108.21408 52.59730
#
# Poissons Ratio (x) = 0.24229 0.01047
# Poissons Ratio (y) = 0.26496 0.07808
# Poissons Ratio (z) = 0.02355 0.16064
#
# Static dielectric constant tensor:
#      x y z
#    x 1.876230 0.008040 -0.057890 
#    y 0.008040 1.872320 0.046350 
#    z -0.057890 0.046350 2.051910 
# 
# From -- ./inp_files/17236.got.cif
#   From: 2010.05.17/outbox.cif.g08.bks.cpg/sg2_9_cif.got.tgz:17236.got - 2010.06.03 11:33:40.
