data_PCOD9066508
_publ_section_title
;
Structure prediction by ZEFSAII (Michael W. Deem and Ramdas Pophale) SiO2 
 PCOD9066508
Probable space group: P -1
;
_chemical_formula_sum "Si O2"
_cell_formula_units_Z 16
_cell_length_a 9.976197
_cell_length_b 11.756992
_cell_length_c 6.424089
_cell_angle_alpha 83.101295
_cell_angle_beta 95.788132
_cell_angle_gamma 60.031173
_cell_volume 636.578741
_symmetry_space_group_name_H-M "P -1"
_symmetry_group_IT_number 2
_symmetry_cell_setting 'triclinic'
loop_
_space_group_symop_operation_xyz
x,y,z
-x,-y,-z
loop_
_atom_site_type_symbol
_atom_site_label
_atom_site_fract_x
_atom_site_fract_y
_atom_site_fract_z
Si Si1 0.513582 0.627990 0.524993
Si Si2 0.565071 0.089767 0.072734
Si Si3 0.982419 0.236126 0.801016
Si Si4 0.655438 0.607710 0.972427
Si Si5 0.895158 0.669617 0.808640
Si Si6 0.217888 0.892182 0.226267
Si Si7 0.771443 0.925833 0.486389
Si Si8 0.189067 0.532826 0.599668
O O1 0.500000 0.500000 0.500000
O O2 0.535952 0.621663 0.775575
O O3 0.365735 0.760149 0.382384
O O4 0.679966 0.602822 0.463681
O O5 0.433176 0.243333 0.982080
O O6 0.615330 0.046005 0.329544
O O7 0.712042 0.067063 0.962716
O O8 0.500000 0.000000 0.000000
O O9 0.905156 0.148257 0.860115
O O10 0.855521 0.358038 0.609274
O O11 0.123115 0.153817 0.678183
O O12 0.030882 0.288478 0.998296
O O13 0.812050 0.595033 0.903524
O O14 0.708997 0.487853 0.169877
O O15 0.770402 0.812102 0.651141
O O16 0.021850 0.577481 0.671268
O O17 0.157417 0.006581 0.368664
#
# Coordination Sequence:
#
# PCOD9066508 Si02
#       8
#     2   2   2   2   2   2   2   2
#     4  12  26  46  71 107 145 187 238 293 354 427
#     4  12  27  45  73 107 145 188 239 291 353 428
#     4  11  25  47  72 104 145 185 239 295 353 426
#     4  12  26  46  73 106 142 192 236 293 360 416
#     4  11  27  47  74 105 144 187 240 296 347 429
#     4  12  25  45  71 104 145 189 233 296 358 418
#     4  11  25  46  70 106 140 189 238 294 355 419
#     4  11  25  46  72 104 140 188 235 291 352 424
#
# _framework density 25.134359
#
# number of rings (size 3 to 8) (size 9 to 14) (size 15 to 20)
#    0.000    0.500    3.750    3.750    1.750    9.500 
#    0.000    0.000    0.000    0.000    0.000    0.000 
#    0.000    0.000    0.000    0.000    0.000    0.000 
#
# Total GULP energy -89485.278482 kJ/mol
# GULP energy per Si atom -5592.829905 kJ/mol
# Density = 2.507715 g / cm^3
# Si number density = 25.134359 Si / 1000 Ang^3
#
#
#
# Elastic Constant Matrix: (Units=GPa)
#
#
# Indices 1 2 3 4 5 6 
#
# 1 98.3310 14.3901 31.1157 6.9917 -8.7482 16.1472
# 2 14.3901 97.3265 44.1284 -4.9074 9.7936 4.6252
# 3 31.1157 44.1284 140.3428 -32.7061 5.8270 23.4610
# 4 6.9917 -4.9074 -32.7061 63.2689 -8.5850 3.4987
# 5 -8.7482 9.7936 5.8270 -8.5850 30.8107 5.0885
# 6 16.1472 4.6252 23.4610 3.4987 5.0885 50.6150
#
#
#
# Elastic Compliance Matrix: (Units=1/GPa)
#
#
# Indices 1 2 3 4 5 6 
#
# 1 0.012101 -0.001031 -0.002514 -0.001993 0.004160 -0.002881
# 2 -0.001031 0.012619 -0.004263 -0.001785 -0.004277 0.001705
# 3 -0.002514 -0.004263 0.011155 0.006094 0.000972 -0.004498
# 4 -0.001993 -0.001785 0.006094 0.019939 0.005051 -0.003912
# 5 0.004160 -0.004277 0.000972 0.005051 0.037123 -0.005468
# 6 -0.002881 0.001705 -0.004498 -0.003912 -0.005468 0.023425
#
#
# Mechanical properties :
#
#
# Convention : Reuss Voigt Hill
#
# Bulk Modulus (GPa) = 49.36168 57.25207 53.30687
# Shear Modulus (GPa) = 36.04028 45.36332 40.70180
#
# Velocity S-wave (km/s) = 3.79080 4.25294 4.02850
# Velocity P-wave (km/s) = 6.23233 6.85161 6.54930
#
# Compressibility (1/GPa) = 0.02025863
#
# Stress axis : x y z
#
# Youngs Moduli (GPa) = 82.63631 79.24369 89.64576
#
# Poissons Ratio (x) = 0.08173 0.22539
# Poissons Ratio (y) = 0.08523 0.38214
# Poissons Ratio (z) = 0.20777 0.33780
#
# Static dielectric constant tensor:
#      x y z
#    x 1.984070 -0.055530 -0.009630 
#    y -0.055530 1.999500 0.006500 
#    z -0.009630 0.006500 2.002240 
# 
# From -- ./inp_files/70651.got.cif
#   From: 2010.05.17/outbox.cif.g08.bks.cpg/sg2_36_cif.got.tgz:70651.got - 2010.06.03 11:33:40.
