data_PCOD9066171
_publ_section_title
;
Structure prediction by ZEFSAII (Michael W. Deem and Ramdas Pophale) SiO2 
 PCOD9066171
Probable space group: P -1
;
_chemical_formula_sum "Si O2"
_cell_formula_units_Z 12
_cell_length_a 9.785757
_cell_length_b 9.768039
_cell_length_c 13.030485
_cell_angle_alpha 144.384706
_cell_angle_beta 136.408641
_cell_angle_gamma 44.533324
_cell_volume 475.662000
_symmetry_space_group_name_H-M "P -1"
_symmetry_group_IT_number 2
_symmetry_cell_setting 'triclinic'
loop_
_space_group_symop_operation_xyz
x,y,z
-x,-y,-z
loop_
_atom_site_type_symbol
_atom_site_label
_atom_site_fract_x
_atom_site_fract_y
_atom_site_fract_z
Si Si1 0.807095 0.445085 0.305522
Si Si2 0.645986 0.334779 0.787117
Si Si3 0.092979 0.051702 0.852763
Si Si4 0.528413 0.289536 0.471341
Si Si5 0.913150 0.621190 0.761148
Si Si6 0.806594 0.786429 0.217794
O O1 0.585313 0.652861 0.295353
O O2 0.000000 0.500000 0.500000
O O3 0.770829 0.226048 0.219949
O O4 0.899874 0.340613 0.181255
O O5 0.846952 0.096448 0.768095
O O6 0.631050 0.352585 0.667149
O O7 0.704150 0.568153 0.007578
O O8 0.124459 0.139699 0.810097
O O9 0.147260 0.221022 0.072340
O O10 0.500000 0.500000 0.500000
O O11 0.290706 0.305895 0.374513
O O12 0.653237 0.024182 0.332855
O O13 0.001295 0.338291 0.676508
#
# Coordination Sequence:
#
# PCOD9066171 Si02
#       6
#     2   2   2   2   2   2
#     4  12  26  44  67 102 141 179 228 280 338 409
#     4  11  25  45  70 101 137 181 229 281 342 402
#     4  11  25  46  71  99 140 178 228 286 338 404
#     4  12  24  40  71 102 136 181 225 277 345 401
#     4  11  25  46  68 102 136 180 231 278 343 406
#     4  11  26  46  72 104 137 176 231 288 337 403
#
# _framework density 25.228000999999999
#
# number of rings (size 3 to 8) (size 9 to 14) (size 15 to 20)
#    0.000    0.667    1.667    6.500    2.333    8.000 
#    0.000    0.000    0.000    0.000    0.000    0.000 
#    0.000    0.000    0.000    0.000    0.000    0.000 
#
# Total GULP energy -67219.409665 kJ/mol
# GULP energy per Si atom -5601.617472 kJ/mol
# Density = 2.517058 g / cm^3
# Si number density = 25.228001 Si / 1000 Ang^3
#
#
#
# Elastic Constant Matrix: (Units=GPa)
#
#
# Indices 1 2 3 4 5 6 
#
# 1 82.1477 10.0070 17.3120 2.6824 -4.8679 -19.1392
# 2 10.0070 110.1143 34.8323 -1.7107 -10.1299 -17.1334
# 3 17.3120 34.8323 90.3289 -3.4572 -22.8255 -14.3905
# 4 2.6824 -1.7107 -3.4572 34.0879 -9.3362 0.3956
# 5 -4.8679 -10.1299 -22.8255 -9.3362 28.4417 1.0680
# 6 -19.1392 -17.1334 -14.3905 0.3956 1.0680 48.1957
#
#
#
# Elastic Compliance Matrix: (Units=1/GPa)
#
#
# Indices 1 2 3 4 5 6 
#
# 1 0.013765 0.000119 -0.001864 -0.001239 0.000310 0.004955
# 2 0.000119 0.010693 -0.003389 0.000468 0.001158 0.002807
# 3 -0.001864 -0.003389 0.016823 0.005387 0.013641 0.002732
# 4 -0.001239 0.000468 0.005387 0.034239 0.015493 0.000659
# 5 0.000310 0.001158 0.013641 0.015493 0.051533 0.003338
# 6 0.004955 0.002807 0.002732 0.000659 0.003338 0.024451
#
#
# Mechanical properties :
#
#
# Convention : Reuss Voigt Hill
#
# Bulk Modulus (GPa) = 32.24322 45.21039 38.72680
# Shear Modulus (GPa) = 29.05156 36.84103 32.94629
#
# Velocity S-wave (km/s) = 3.39715 3.82556 3.61770
# Velocity P-wave (km/s) = 5.30998 6.12151 5.73013
#
# Compressibility (1/GPa) = 0.03101427
#
# Stress axis : x y z
#
# Youngs Moduli (GPa) = 72.64916 93.51794 59.44283
#
# Poissons Ratio (x) = -0.01112 0.11078
# Poissons Ratio (y) = -0.00864 0.20142
# Poissons Ratio (z) = 0.13539 0.31689
#
# Static dielectric constant tensor:
#      x y z
#    x 2.038740 -0.031970 0.055890 
#    y -0.031970 1.939590 -0.039380 
#    z 0.055890 -0.039380 2.004300 
# 
# From -- ./inp_files/518479.got.cif
#   From: 2010.05.17/outbox.cif.g08.bks.cpg/sg2_260_cif.got.tgz:518479.got - 2010.06.03 11:33:40.
