data_PCOD9066282
_publ_section_title
;
Structure prediction by ZEFSAII (Michael W. Deem and Ramdas Pophale) SiO2 
 PCOD9066282
Probable space group: P -1
;
_chemical_formula_sum "Si O2"
_cell_formula_units_Z 16
_cell_length_a 18.184876
_cell_length_b 9.056948
_cell_length_c 5.046843
_cell_angle_alpha 82.989577
_cell_angle_beta 66.826221
_cell_angle_gamma 118.146852
_cell_volume 623.353237
_symmetry_space_group_name_H-M "P -1"
_symmetry_group_IT_number 2
_symmetry_cell_setting 'triclinic'
loop_
_space_group_symop_operation_xyz
x,y,z
-x,-y,-z
loop_
_atom_site_type_symbol
_atom_site_label
_atom_site_fract_x
_atom_site_fract_y
_atom_site_fract_z
Si Si1 0.518613 0.346038 0.005688
Si Si2 0.451907 0.047073 0.798707
Si Si3 0.779498 0.719209 0.228391
Si Si4 0.837553 0.294677 0.372584
Si Si5 0.680502 0.931375 0.374897
Si Si6 0.094287 0.170532 0.468398
Si Si7 0.022691 0.391308 0.297746
Si Si8 0.319239 0.659121 0.275247
O O1 0.422292 0.177746 0.306466
O O2 0.500000 0.500000 0.000000
O O3 0.516880 0.260021 0.742536
O O4 0.620729 0.398781 0.973097
O O5 0.352731 0.028510 0.858063
O O6 0.500000 0.000000 0.500000
O O7 0.406082 0.877440 0.109765
O O8 0.716059 0.799504 0.346970
O O9 0.871117 0.822680 0.283228
O O10 0.725589 0.505462 0.411467
O O11 0.816549 0.768946 0.866196
O O12 0.774319 0.334810 0.646146
O O13 0.913598 0.249251 0.373950
O O14 0.759827 0.123301 0.346624
O O15 0.904763 0.475839 0.061488
O O16 0.068639 0.313918 0.425667
O O17 0.000000 0.000000 0.500000
O O18 0.000000 0.500000 0.500000
#
# Coordination Sequence:
#
# PCOD9066282 Si02
#       8
#     2   2   2   2   2   2   2   2
#     4  12  26  49  74 111 159 203 259 330 399 476
#     4  12  27  46  78 112 150 209 268 329 394 471
#     4  12  29  48  78 115 155 209 258 327 403 476
#     4  11  25  45  73 106 150 196 260 321 394 475
#     4  12  27  47  75 112 152 206 259 323 397 474
#     4  12  28  50  77 110 155 205 261 326 401 480
#     4  11  26  45  72 109 146 197 257 326 395 465
#     4  12  24  49  74 110 155 202 265 322 394 477
#
# _framework density 25.667631
#
# number of rings (size 3 to 8) (size 9 to 14) (size 15 to 20)
#    0.000    0.250    5.000    3.000    8.750    1.500 
#    0.000    0.000    0.000    0.000    0.000    0.000 
#    0.000    0.000    0.000    0.000    0.000    0.000 
#
# Total GULP energy -89251.939938 kJ/mol
# GULP energy per Si atom -5578.246246 kJ/mol
# Density = 2.560921 g / cm^3
# Si number density = 25.667631 Si / 1000 Ang^3
#
#
#
# Elastic Constant Matrix: (Units=GPa)
#
#
# Indices 1 2 3 4 5 6 
#
# 1 106.1097 34.2723 22.2812 10.8885 -28.3505 -20.1197
# 2 34.2723 110.5202 38.2843 -13.1960 -1.0462 2.8858
# 3 22.2812 38.2843 60.6856 -4.1681 -23.2158 -8.7030
# 4 10.8885 -13.1960 -4.1681 37.3907 2.4446 -11.6783
# 5 -28.3505 -1.0462 -23.2158 2.4446 49.1005 -0.4640
# 6 -20.1197 2.8858 -8.7030 -11.6783 -0.4640 58.8999
#
#
#
# Elastic Compliance Matrix: (Units=1/GPa)
#
#
# Indices 1 2 3 4 5 6 
#
# 1 0.015084 -0.006263 0.002606 -0.005462 0.010126 0.004841
# 2 -0.006263 0.015438 -0.010906 0.005543 -0.008753 -0.003477
# 3 0.002606 -0.010906 0.028931 -0.000585 0.015034 0.005702
# 4 -0.005462 0.005543 -0.000585 0.031807 -0.004858 0.004044
# 5 0.010126 -0.008753 0.015034 -0.004858 0.033428 0.005409
# 6 0.004841 -0.003477 0.005702 0.004044 0.005409 0.020489
#
#
# Mechanical properties :
#
#
# Convention : Reuss Voigt Hill
#
# Bulk Modulus (GPa) = 32.97513 51.88789 42.43151
# Shear Modulus (GPa) = 27.11328 41.24340 34.17834
#
# Velocity S-wave (km/s) = 3.25364 4.01287 3.65303
# Velocity P-wave (km/s) = 5.19516 6.45988 5.86173
#
# Compressibility (1/GPa) = 0.03032588
#
# Stress axis : x y z
#
# Youngs Moduli (GPa) = 66.29675 64.77612 34.56505
#
# Poissons Ratio (x) = 0.40568 -0.09006
# Poissons Ratio (y) = 0.41520 0.37697
# Poissons Ratio (z) = -0.17274 0.70645
#
# Static dielectric constant tensor:
#      x y z
#    x 1.912730 0.255220 0.044730 
#    y 0.255220 2.130730 0.026720 
#    z 0.044730 0.026720 2.105520 
# 
# From -- ./inp_files/106487.got.cif
#   From: 2010.05.17/outbox.cif.g08.bks.cpg/sg2_54_cif.got.tgz:106487.got - 2010.06.03 11:33:40.
