data_PCOD9066691
_publ_section_title
;
Structure prediction by ZEFSAII (Michael W. Deem and Ramdas Pophale) SiO2 
 PCOD9066691
Probable space group: P -1
;
_chemical_formula_sum "Si O2"
_cell_formula_units_Z 12
_cell_length_a 16.380625
_cell_length_b 9.359376
_cell_length_c 8.681846
_cell_angle_alpha 124.808916
_cell_angle_beta 59.620256
_cell_angle_gamma 152.494630
_cell_volume 504.716845
_symmetry_space_group_name_H-M "P -1"
_symmetry_group_IT_number 2
_symmetry_cell_setting 'triclinic'
loop_
_space_group_symop_operation_xyz
x,y,z
-x,-y,-z
loop_
_atom_site_type_symbol
_atom_site_label
_atom_site_fract_x
_atom_site_fract_y
_atom_site_fract_z
Si Si1 0.794389 0.714939 0.496102
Si Si2 0.748547 0.760558 0.214033
Si Si3 0.805284 0.362216 0.197722
Si Si4 0.707763 0.322163 0.957917
Si Si5 0.394796 0.295635 0.128994
Si Si6 0.981474 0.535309 0.710435
O O1 0.778589 0.773529 0.375666
O O2 0.713997 0.391045 0.380551
O O3 0.725829 0.739366 0.707720
O O4 0.000000 0.000000 0.500000
O O5 0.548488 0.514614 0.242603
O O6 0.883008 0.092000 0.197873
O O7 0.747980 0.574399 0.012864
O O8 0.951987 0.504146 0.254239
O O9 0.845546 0.511804 0.086459
O O10 0.697420 0.029101 0.029855
O O11 0.777053 0.273972 0.759442
O O12 0.500000 0.000000 0.000000
O O13 0.500000 0.500000 0.000000
O O14 0.000000 0.500000 0.500000
#
# Coordination Sequence:
#
# PCOD9066691 Si02
#       6
#     2   2   2   2   2   2
#     4  11  28  46  74 108 146 193 244 296 364 433
#     4  11  25  47  71 107 145 189 239 301 356 432
#     4  11  26  47  74 104 144 194 241 294 362 430
#     4  11  25  46  74 104 139 189 241 291 360 432
#     4  12  26  47  76 106 146 192 244 301 360 426
#     4  12  27  45  73 106 147 185 239 300 366 426
#
# _framework density 23.775707000000001
#
# number of rings (size 3 to 8) (size 9 to 14) (size 15 to 20)
#    0.000    0.667    3.333    2.500    9.333    6.000 
#    0.000    0.000    0.000    0.000    0.000    0.000 
#    0.000    0.000    0.000    0.000    0.000    0.000 
#
# Total GULP energy -66933.234134 kJ/mol
# GULP energy per Si atom -5577.769511 kJ/mol
# Density = 2.372159 g / cm^3
# Si number density = 23.775707 Si / 1000 Ang^3
#
#
#
# Elastic Constant Matrix: (Units=GPa)
#
#
# Indices 1 2 3 4 5 6 
#
# 1 152.0504 60.0038 67.7622 -14.8223 -19.0280 18.9360
# 2 60.0038 96.0031 54.1697 -0.3833 -22.3755 2.9409
# 3 67.7622 54.1697 126.2841 -16.2161 -15.5333 12.6302
# 4 -14.8223 -0.3833 -16.2161 35.5162 -0.2006 -10.4842
# 5 -19.0280 -22.3755 -15.5333 -0.2006 34.8398 11.0272
# 6 18.9360 2.9409 12.6302 -10.4842 11.0272 47.9355
#
#
#
# Elastic Compliance Matrix: (Units=1/GPa)
#
#
# Indices 1 2 3 4 5 6 
#
# 1 0.010468 -0.004136 -0.002901 0.002035 0.002831 -0.003324
# 2 -0.004136 0.017318 -0.004799 -0.003867 0.006890 -0.000595
# 3 -0.002901 -0.004799 0.012322 0.004013 0.001234 -0.001213
# 4 0.002035 -0.003867 0.004013 0.032490 -0.001220 0.005763
# 5 0.002831 0.006890 0.001234 -0.001220 0.038711 -0.011038
# 6 -0.003324 -0.000595 -0.001213 0.005763 -0.011038 0.026330
#
#
# Mechanical properties :
#
#
# Convention : Reuss Voigt Hill
#
# Bulk Modulus (GPa) = 60.84080 82.02322 71.43201
# Shear Modulus (GPa) = 29.97783 36.48511 33.23147
#
# Velocity S-wave (km/s) = 3.55471 3.92159 3.74265
# Velocity P-wave (km/s) = 6.51866 7.42151 6.98469
#
# Compressibility (1/GPa) = 0.01643634
#
# Stress axis : x y z
#
# Youngs Moduli (GPa) = 95.52478 57.74415 81.15533
#
# Poissons Ratio (x) = 0.23885 0.23544
# Poissons Ratio (y) = 0.39512 0.38943
# Poissons Ratio (z) = 0.27712 0.27709
#
# Static dielectric constant tensor:
#      x y z
#    x 1.966490 0.001640 -0.034700 
#    y 0.001640 2.049240 0.128040 
#    z -0.034700 0.128040 2.142280 
# 
# From -- ./inp_files/154509.got.cif
#   From: 2010.05.17/outbox.cif.g08.bks.cpg/sg2_78_cif.got.tgz:154509.got - 2010.06.03 11:33:40.
