data_PCOD9066362
_publ_section_title
;
Structure prediction by ZEFSAII (Michael W. Deem and Ramdas Pophale) SiO2 
 PCOD9066362
Probable space group: P -1
;
_chemical_formula_sum "Si O2"
_cell_formula_units_Z 16
_cell_length_a 13.966610
_cell_length_b 8.611052
_cell_length_c 19.004656
_cell_angle_alpha 125.385043
_cell_angle_beta 157.534841
_cell_angle_gamma 53.174337
_cell_volume 696.745843
_symmetry_space_group_name_H-M "P -1"
_symmetry_group_IT_number 2
_symmetry_cell_setting 'triclinic'
loop_
_space_group_symop_operation_xyz
x,y,z
-x,-y,-z
loop_
_atom_site_type_symbol
_atom_site_label
_atom_site_fract_x
_atom_site_fract_y
_atom_site_fract_z
Si Si1 0.215537 0.300560 0.096590
Si Si2 0.201989 0.911717 0.908624
Si Si3 0.810832 0.853927 0.810584
Si Si4 0.081564 0.144072 0.506911
Si Si5 0.735980 0.853633 0.211406
Si Si6 0.773812 0.435336 0.065135
Si Si7 0.586468 0.452291 0.285925
Si Si8 0.673240 0.853053 0.470425
O O1 0.274876 0.241511 0.202043
O O2 0.451913 0.331768 0.217620
O O3 0.000000 0.500000 0.000000
O O4 0.134191 0.111652 0.958243
O O5 0.307994 0.720960 0.978647
O O6 0.940361 0.877618 0.689366
O O7 0.430674 0.923983 0.012763
O O8 0.967475 0.684631 0.824780
O O9 0.568531 0.975274 0.636976
O O10 0.000000 0.000000 0.000000
O O11 0.862329 0.336185 0.418598
O O12 0.220354 0.110147 0.666857
O O13 0.279886 0.160165 0.585296
O O14 0.928551 0.974728 0.339689
O O15 0.804548 0.629021 0.177188
O O16 0.584892 0.498715 0.887597
O O17 0.607252 0.648792 0.391522
#
# Coordination Sequence:
#
# PCOD9066362 Si02
#       8
#     2   2   2   2   2   2   2   2
#     4  12  24  46  76 105 144 191 243 292 361 428
#     4  12  26  48  73 108 147 187 242 300 357 426
#     4  12  24  50  72 103 143 193 236 292 363 427
#     4  11  25  45  75 104 149 183 246 295 364 425
#     4  11  25  46  72 111 141 192 236 305 357 424
#     4  12  25  45  77 100 148 187 241 293 357 429
#     4  12  24  45  75 108 139 194 239 291 362 424
#     4  12  27  46  75 108 144 191 241 294 361 431
#
# _framework density 22.963899000000001
#
# number of rings (size 3 to 8) (size 9 to 14) (size 15 to 20)
#    0.000    0.250    5.000    3.750    3.500    1.500 
#    2.250    1.250    0.000    0.000    0.000    0.000 
#    0.000    0.000    0.000    0.000    0.000    0.000 
#
# Total GULP energy -89640.996257 kJ/mol
# GULP energy per Si atom -5602.562266 kJ/mol
# Density = 2.291163 g / cm^3
# Si number density = 22.963899 Si / 1000 Ang^3
#
#
#
# Elastic Constant Matrix: (Units=GPa)
#
#
# Indices 1 2 3 4 5 6 
#
# 1 56.0082 1.5950 11.1430 12.2710 1.9681 7.0119
# 2 1.5950 137.2333 34.7123 6.1542 -11.0277 -12.9305
# 3 11.1430 34.7123 110.1020 2.9086 -6.4321 7.6623
# 4 12.2710 6.1542 2.9086 45.6407 -10.2490 7.2315
# 5 1.9681 -11.0277 -6.4321 -10.2490 13.3634 5.2841
# 6 7.0119 -12.9305 7.6623 7.2315 5.2841 38.7792
#
#
#
# Elastic Compliance Matrix: (Units=1/GPa)
#
#
# Indices 1 2 3 4 5 6 
#
# 1 0.020356 -0.000144 -0.002346 -0.007390 -0.009690 -0.000567
# 2 -0.000144 0.008598 -0.002631 -0.000429 0.004375 0.002897
# 3 -0.002346 -0.002631 0.010758 0.002456 0.006803 -0.003963
# 4 -0.007390 -0.000429 0.002456 0.032075 0.030230 -0.009393
# 5 -0.009690 0.004375 0.006803 0.030230 0.113959 -0.019299
# 6 -0.000567 0.002897 -0.003963 -0.009393 -0.019299 0.032020
#
#
# Mechanical properties :
#
#
# Convention : Reuss Voigt Hill
#
# Bulk Modulus (GPa) = 33.93278 44.24934 39.09106
# Shear Modulus (GPa) = 21.02347 36.61621 28.81984
#
# Velocity S-wave (km/s) = 3.02901 3.99747 3.54645
# Velocity P-wave (km/s) = 5.20018 6.37317 5.81632
#
# Compressibility (1/GPa) = 0.02947003
#
# Stress axis : x y z
#
# Youngs Moduli (GPa) = 49.12567 116.31003 92.95643
#
# Poissons Ratio (x) = 0.01672 0.21810
# Poissons Ratio (y) = 0.00706 0.24454
# Poissons Ratio (z) = 0.11526 0.30598
#
# Static dielectric constant tensor:
#      x y z
#    x 1.882000 0.034650 -0.008690 
#    y 0.034650 1.845590 -0.000530 
#    z -0.008690 -0.000530 1.842460 
# 
# From -- ./inp_files/347500.got.cif
#   From: 2010.05.17/outbox.cif.g08.bks.cpg/sg2_174_cif.got.tgz:347500.got - 2010.06.03 11:33:40.
