data_PCOD9066132
_publ_section_title
;
Structure prediction by ZEFSAII (Michael W. Deem and Ramdas Pophale) SiO2 
 PCOD9066132
Probable space group: P -1
;
_chemical_formula_sum "Si O2"
_cell_formula_units_Z 14
_cell_length_a 4.919986
_cell_length_b 20.916903
_cell_length_c 23.013554
_cell_angle_alpha 161.570123
_cell_angle_beta 69.790178
_cell_angle_gamma 120.233433
_cell_volume 566.025911
_symmetry_space_group_name_H-M "P -1"
_symmetry_group_IT_number 2
_symmetry_cell_setting 'triclinic'
loop_
_space_group_symop_operation_xyz
x,y,z
-x,-y,-z
loop_
_atom_site_type_symbol
_atom_site_label
_atom_site_fract_x
_atom_site_fract_y
_atom_site_fract_z
Si Si1 0.907054 0.586677 0.898838
Si Si2 0.361282 0.016238 0.157961
Si Si3 0.669849 0.346561 0.531824
Si Si4 0.157203 0.711043 0.106149
Si Si5 0.921762 0.191967 0.482753
Si Si6 0.926771 0.911414 0.995074
Si Si7 0.838614 0.731178 0.253219
O O1 0.924426 0.374169 0.685960
O O2 0.543977 0.452093 0.846045
O O3 0.985500 0.786806 0.017155
O O4 0.198852 0.748219 0.066199
O O5 0.579388 0.234984 0.377623
O O6 0.590663 0.908478 0.037182
O O7 0.256805 0.081461 0.162046
O O8 0.903695 0.291463 0.506249
O O9 0.845922 0.639819 0.769745
O O10 0.288274 0.219941 0.483907
O O11 0.899735 0.752964 0.198232
O O12 0.556401 0.914217 0.276263
O O13 0.990690 0.416625 0.871245
O O14 0.000000 0.000000 0.000000
O O15 0.000000 0.000000 0.500000
#
# Coordination Sequence:
#
# PCOD9066132 Si02
#       7
#     2   2   2   2   2   2   2
#     4  12  24  43  73  97 139 187 243 292 353 418
#     4  12  26  45  78 105 141 194 240 291 353 424
#     4  12  25  46  73 109 142 183 242 292 354 421
#     4  11  26  45  66 102 139 190 239 304 354 421
#     4  12  25  43  75 105 139 190 242 301 349 417
#     4  12  27  48  73 111 151 185 231 293 360 431
#     4  11  25  45  66 100 145 186 239 296 368 418
#
# _framework density 24.733853
#
# number of rings (size 3 to 8) (size 9 to 14) (size 15 to 20)
#    0.000    0.286    5.714    2.571    4.000    1.714 
#    0.000    0.000    0.000    0.000    0.000    0.000 
#    0.000    0.000    0.000    0.000    0.000    0.000 
#
# Total GULP energy -78414.612065 kJ/mol
# GULP energy per Si atom -5601.043719 kJ/mol
# Density = 2.467756 g / cm^3
# Si number density = 24.733853 Si / 1000 Ang^3
#
#
#
# Elastic Constant Matrix: (Units=GPa)
#
#
# Indices 1 2 3 4 5 6 
#
# 1 68.6063 11.7939 14.1592 -12.6985 -7.2636 -13.3706
# 2 11.7939 83.2913 32.2172 -28.8849 -2.1870 -22.2755
# 3 14.1592 32.2172 141.2926 -41.8209 -3.5646 -6.1871
# 4 -12.6985 -28.8849 -41.8209 39.1173 -4.8441 6.7811
# 5 -7.2636 -2.1870 -3.5646 -4.8441 25.0567 -2.0837
# 6 -13.3706 -22.2755 -6.1871 6.7811 -2.0837 39.4746
#
#
#
# Elastic Compliance Matrix: (Units=1/GPa)
#
#
# Indices 1 2 3 4 5 6 
#
# 1 0.017476 0.001668 0.000454 0.007227 0.007178 0.006069
# 2 0.001668 0.019194 0.000133 0.013940 0.005648 0.009320
# 3 0.000454 0.000133 0.010714 0.012194 0.004027 0.000026
# 4 0.007227 0.013940 0.012194 0.052464 0.015525 0.004033
# 5 0.007178 0.005648 0.004027 0.015525 0.046560 0.006040
# 6 0.006069 0.009320 0.000026 0.004033 0.006040 0.032278
#
#
# Mechanical properties :
#
#
# Convention : Reuss Voigt Hill
#
# Bulk Modulus (GPa) = 19.27015 45.50343 32.38679
# Shear Modulus (GPa) = 26.11335 36.39772 31.25553
#
# Velocity S-wave (km/s) = 3.25279 3.84027 3.55868
# Velocity P-wave (km/s) = 4.68139 6.17258 5.47797
#
# Compressibility (1/GPa) = 0.05189374
#
# Stress axis : x y z
#
# Youngs Moduli (GPa) = 57.22168 52.10036 93.33856
#
# Poissons Ratio (x) = -0.08688 -0.04242
# Poissons Ratio (y) = -0.09542 -0.01243
# Poissons Ratio (z) = -0.02601 -0.00694
#
# Static dielectric constant tensor:
#      x y z
#    x 2.020330 -0.062360 0.007870 
#    y -0.062360 2.019210 0.018660 
#    z 0.007870 0.018660 1.943340 
# 
# From -- ./inp_files/119685.got.cif
#   From: 2010.05.17/outbox.cif.g08.bks.cpg/sg2_60_cif.got.tgz:119685.got - 2010.06.03 11:33:40.
