data_PCOD9066174
_publ_section_title
;
Structure prediction by ZEFSAII (Michael W. Deem and Ramdas Pophale) SiO2 
 PCOD9066174
Probable space group: P -1
;
_chemical_formula_sum "Si O2"
_cell_formula_units_Z 14
_cell_length_a 4.956122
_cell_length_b 4.812145
_cell_length_c 25.347043
_cell_angle_alpha 109.394592
_cell_angle_beta 115.677468
_cell_angle_gamma 77.451601
_cell_volume 511.984605
_symmetry_space_group_name_H-M "P -1"
_symmetry_group_IT_number 2
_symmetry_cell_setting 'triclinic'
loop_
_space_group_symop_operation_xyz
x,y,z
-x,-y,-z
loop_
_atom_site_type_symbol
_atom_site_label
_atom_site_fract_x
_atom_site_fract_y
_atom_site_fract_z
Si Si1 0.003259 0.588216 0.124370
Si Si2 0.530617 0.325501 0.304968
Si Si3 0.269587 0.807143 0.437158
Si Si4 0.152689 0.023754 0.958418
Si Si5 0.356736 0.192907 0.795734
Si Si6 0.779948 0.302380 0.436530
Si Si7 0.216142 0.881246 0.312472
O O1 0.343948 0.640999 0.170146
O O2 0.772227 0.783657 0.154521
O O3 0.943767 0.687827 0.065490
O O4 0.936709 0.249539 0.102042
O O5 0.771917 0.318038 0.372706
O O6 0.494622 0.659135 0.304112
O O7 0.571607 0.126709 0.244533
O O8 0.258239 0.183859 0.304834
O O9 0.448372 0.472961 0.434795
O O10 0.062402 0.036210 0.563031
O O11 0.255822 0.869265 0.377485
O O12 0.500000 0.000000 0.500000
O O13 0.500000 0.000000 0.000000
O O14 0.000000 0.000000 0.000000
O O15 0.061963 0.285164 0.742036
O O16 0.000000 0.500000 0.500000
#
# Coordination Sequence:
#
# PCOD9066174 Si02
#       7
#     2   2   2   2   2   2   2
#     4  12  28  45  80 116 152 204 245 308 365 458
#     4  11  25  45  70 101 147 200 253 323 393 462
#     4   9  18  38  63  95 135 186 258 325 399 469
#     4  12  26  52  80 114 155 194 247 302 367 436
#     4  12  26  49  72 114 161 198 264 304 390 462
#     4   9  18  38  63  95 135 186 258 325 399 469
#     4  11  25  45  70 101 147 200 253 323 393 462
#
# _framework density 27.344570999999998
#
# number of rings (size 3 to 8) (size 9 to 14) (size 15 to 20)
#    0.000    1.143    2.857    2.571    2.000    3.429 
#    0.000   12.857    0.000    0.000    0.000    0.000 
#    0.000    0.000    0.000    0.000    0.000    0.000 
#
# Total GULP energy -78229.102627 kJ/mol
# GULP energy per Si atom -5587.793045 kJ/mol
# Density = 2.728233 g / cm^3
# Si number density = 27.344571 Si / 1000 Ang^3
#
#
#
# Elastic Constant Matrix: (Units=GPa)
#
#
# Indices 1 2 3 4 5 6 
#
# 1 154.7150 35.2981 51.6698 4.0861 2.5088 -11.5060
# 2 35.2981 133.0522 12.2534 2.6106 5.1759 -22.0993
# 3 51.6698 12.2534 142.9265 13.9737 7.0929 3.2921
# 4 4.0861 2.6106 13.9737 46.9248 1.2423 -3.0925
# 5 2.5088 5.1759 7.0929 1.2423 73.1305 -4.3403
# 6 -11.5060 -22.0993 3.2921 -3.0925 -4.3403 37.5807
#
#
#
# Elastic Compliance Matrix: (Units=1/GPa)
#
#
# Indices 1 2 3 4 5 6 
#
# 1 0.007872 -0.001547 -0.002799 0.000347 0.000212 0.001799
# 2 -0.001547 0.008737 -0.000289 0.000049 -0.000261 0.004663
# 3 -0.002799 -0.000289 0.008348 -0.002340 -0.000774 -0.002040
# 4 0.000347 0.000049 -0.002340 0.022118 -0.000036 0.002156
# 5 0.000212 -0.000261 -0.000774 -0.000036 0.013855 0.001576
# 6 0.001799 0.004663 -0.002040 0.002156 0.001576 0.030440
#
#
# Mechanical properties :
#
#
# Convention : Reuss Voigt Hill
#
# Bulk Modulus (GPa) = 63.75047 69.90403 66.82725
# Shear Modulus (GPa) = 47.22843 53.62538 50.42690
#
# Velocity S-wave (km/s) = 4.16042 4.43323 4.29899
# Velocity P-wave (km/s) = 6.81492 7.19891 7.00955
#
# Compressibility (1/GPa) = 0.01568616
#
# Stress axis : x y z
#
# Youngs Moduli (GPa) = 127.02466 114.46119 119.79571
#
# Poissons Ratio (x) = 0.17707 0.33534
# Poissons Ratio (y) = 0.19651 0.03462
# Poissons Ratio (z) = 0.35557 0.03307
#
# Static dielectric constant tensor:
#      x y z
#    x 2.621940 -0.294940 0.427880 
#    y -0.294940 2.264090 -0.277120 
#    z 0.427880 -0.277120 2.640390 
# 
# From -- ./inp_files/614774.got.cif
#   From: 2010.05.17/outbox.cif.g08.bks.cpg/sg2_308_cif.got.tgz:614774.got - 2010.06.03 11:33:40.
