data_PCOD9066716
_publ_section_title
;
Structure prediction by ZEFSAII (Michael W. Deem and Ramdas Pophale) SiO2 
 PCOD9066716
Probable space group: P -1
;
_chemical_formula_sum "Si O2"
_cell_formula_units_Z 14
_cell_length_a 9.793051
_cell_length_b 5.508337
_cell_length_c 10.170797
_cell_angle_alpha 86.733932
_cell_angle_beta 89.127515
_cell_angle_gamma 84.911156
_cell_volume 545.568862
_symmetry_space_group_name_H-M "P -1"
_symmetry_group_IT_number 2
_symmetry_cell_setting 'triclinic'
loop_
_space_group_symop_operation_xyz
x,y,z
-x,-y,-z
loop_
_atom_site_type_symbol
_atom_site_label
_atom_site_fract_x
_atom_site_fract_y
_atom_site_fract_z
Si Si1 0.191115 0.339618 0.557456
Si Si2 0.821499 0.302125 0.206867
Si Si3 0.185403 0.569062 0.091544
Si Si4 0.281735 0.195706 0.304818
Si Si5 0.955330 0.125270 0.700381
Si Si6 0.409779 0.019918 0.713983
Si Si7 0.466361 0.747169 0.073060
O O1 0.194587 0.535905 0.666739
O O2 0.229106 0.401511 0.406807
O O3 0.311797 0.127361 0.596634
O O4 0.042986 0.237542 0.580314
O O5 0.685445 0.156657 0.202626
O O6 0.948474 0.102968 0.236145
O O7 0.553519 0.751484 0.204945
O O8 0.244285 0.312135 0.159768
O O9 0.306730 0.746432 0.104719
O O10 0.066946 0.684303 0.184991
O O11 0.158873 0.566273 0.936884
O O12 0.184879 0.979562 0.338592
O O13 0.442839 0.118510 0.315478
O O14 0.500000 0.500000 0.000000
O O15 0.500000 0.000000 0.000000
#
# Coordination Sequence:
#
# PCOD9066716 Si02
#       7
#     2   2   2   2   2   2   2
#     4  11  27  49  73 104 151 203 252 318 380 464
#     4  11  26  48  73 108 150 193 251 310 394 450
#     4  12  26  43  77 109 149 192 253 319 383 462
#     4  12  27  47  75 110 148 199 259 314 388 455
#     4  11  26  47  73 103 148 200 256 312 382 457
#     4  11  25  46  74 109 148 196 250 319 379 463
#     4  12  24  44  76 114 159 200 249 318 395 461
#
# _framework density 25.661287999999999
#
# number of rings (size 3 to 8) (size 9 to 14) (size 15 to 20)
#    0.000    0.571    2.857    3.857    2.000    9.714 
#    0.000    0.000    0.000    0.000    0.000    0.000 
#    0.000    0.000    0.000    0.000    0.000    0.000 
#
# Total GULP energy -78473.646284 kJ/mol
# GULP energy per Si atom -5605.260449 kJ/mol
# Density = 2.560288 g / cm^3
# Si number density = 25.661288 Si / 1000 Ang^3
#
#
#
# Elastic Constant Matrix: (Units=GPa)
#
#
# Indices 1 2 3 4 5 6 
#
# 1 143.5943 26.8630 35.5537 9.4661 -16.9560 5.4549
# 2 26.8630 103.7118 43.7719 9.5174 -6.1894 -7.9104
# 3 35.5537 43.7719 153.4173 19.2945 -2.3123 -6.1698
# 4 9.4661 9.5174 19.2945 44.7310 -3.4998 -2.5120
# 5 -16.9560 -6.1894 -2.3123 -3.4998 40.8265 8.4149
# 6 5.4549 -7.9104 -6.1698 -2.5120 8.4149 43.5655
#
#
#
# Elastic Compliance Matrix: (Units=1/GPa)
#
#
# Indices 1 2 3 4 5 6 
#
# 1 0.008117 -0.001395 -0.001436 -0.000652 0.003472 -0.002181
# 2 -0.001395 0.011403 -0.002752 -0.000803 0.000574 0.001698
# 3 -0.001436 -0.002752 0.007980 -0.002580 -0.000957 0.000846
# 4 -0.000652 -0.000803 -0.002580 0.023923 0.001371 0.000685
# 5 0.003472 0.000574 -0.000957 0.001371 0.027251 -0.005651
# 6 -0.002181 0.001698 0.000846 0.000685 -0.005651 0.024786
#
#
# Mechanical properties :
#
#
# Convention : Reuss Voigt Hill
#
# Bulk Modulus (GPa) = 61.22892 68.12229 64.67561
# Shear Modulus (GPa) = 41.64202 45.46026 43.55114
#
# Velocity S-wave (km/s) = 4.03272 4.21355 4.12412
# Velocity P-wave (km/s) = 6.75248 7.09058 6.92359
#
# Compressibility (1/GPa) = 0.01633215
#
# Stress axis : x y z
#
# Youngs Moduli (GPa) = 123.20544 87.69980 125.30929
#
# Poissons Ratio (x) = 0.12238 0.17997
# Poissons Ratio (y) = 0.17193 0.34484
# Poissons Ratio (z) = 0.17695 0.24134
#
# Static dielectric constant tensor:
#      x y z
#    x 2.003710 -0.026110 0.016400 
#    y -0.026110 2.045980 0.002040 
#    z 0.016400 0.002040 2.064630 
# 
# From -- ./inp_files/552109.got.cif
#   From: 2010.05.17/outbox.cif.g08.bks.cpg/sg2_277_cif.got.tgz:552109.got - 2010.06.03 11:33:40.
