data_PCOD9066530
_publ_section_title
;
Structure prediction by ZEFSAII (Michael W. Deem and Ramdas Pophale) SiO2 
 PCOD9066530
Probable space group: P -1
;
_chemical_formula_sum "Si O2"
_cell_formula_units_Z 16
_cell_length_a 8.007184
_cell_length_b 6.884363
_cell_length_c 18.364761
_cell_angle_alpha 135.536071
_cell_angle_beta 88.179985
_cell_angle_gamma 83.190087
_cell_volume 694.176892
_symmetry_space_group_name_H-M "P -1"
_symmetry_group_IT_number 2
_symmetry_cell_setting 'triclinic'
loop_
_space_group_symop_operation_xyz
x,y,z
-x,-y,-z
loop_
_atom_site_type_symbol
_atom_site_label
_atom_site_fract_x
_atom_site_fract_y
_atom_site_fract_z
Si Si1 0.575400 0.772291 0.548422
Si Si2 0.333849 0.955665 0.032720
Si Si3 0.093011 0.291651 0.382604
Si Si4 0.607615 0.649245 0.353285
Si Si5 0.133046 0.703290 0.063523
Si Si6 0.061461 0.718208 0.225328
Si Si7 0.125090 0.771185 0.858755
Si Si8 0.258322 0.464142 0.286040
O O1 0.500000 0.500000 0.500000
O O2 0.715111 0.817941 0.617703
O O3 0.661755 0.710532 0.450626
O O4 0.431973 0.057493 0.613657
O O5 0.299984 0.681209 0.004962
O O6 0.311842 0.193215 0.159753
O O7 0.201701 0.950922 0.966593
O O8 0.500000 0.000000 0.000000
O O9 0.130755 0.422997 0.340669
O O10 0.000000 0.500000 0.500000
O O11 0.982946 0.048873 0.308280
O O12 0.733942 0.401439 0.243454
O O13 0.425831 0.555877 0.338029
O O14 0.179193 0.671400 0.139343
O O15 0.016800 0.007900 0.123809
O O16 0.000000 0.500000 0.000000
O O17 0.949894 0.478912 0.167812
O O18 0.159250 0.692480 0.292930
#
# Coordination Sequence:
#
# PCOD9066530 Si02
#       8
#     2   2   2   2   2   2   2   2
#     4  11  25  46  70  99 147 188 240 302 368 443
#     4  12  24  45  74 110 149 191 237 303 371 439
#     4  12  28  44  73 110 141 193 248 304 372 442
#     4  11  26  45  71 106 143 194 236 304 379 429
#     4  12  25  47  73 108 150 196 247 304 370 440
#     4  12  25  45  74 101 147 192 240 308 368 431
#     4  12  26  45  76 107 147 193 251 301 367 454
#     4  12  24  49  70 104 151 183 243 313 362 440
#
# _framework density 23.048878999999999
#
# number of rings (size 3 to 8) (size 9 to 14) (size 15 to 20)
#    0.000    0.250    7.500    1.125    5.250    0.500 
#    0.000    5.000    0.000    0.000    0.000    0.000 
#    0.000    0.000    0.000    0.000    0.000    0.000 
#
# Total GULP energy -89332.631879 kJ/mol
# GULP energy per Si atom -5583.289492 kJ/mol
# Density = 2.299642 g / cm^3
# Si number density = 23.048879 Si / 1000 Ang^3
#
#
#
# Elastic Constant Matrix: (Units=GPa)
#
#
# Indices 1 2 3 4 5 6 
#
# 1 73.4808 48.4984 14.5031 0.1060 5.5176 29.3818
# 2 48.4984 157.6397 41.3357 -14.7463 -2.8929 29.3845
# 3 14.5031 41.3357 95.7080 -9.4527 -5.0980 19.0096
# 4 0.1060 -14.7463 -9.4527 52.3996 8.0184 13.1667
# 5 5.5176 -2.8929 -5.0980 8.0184 39.5593 -5.2670
# 6 29.3818 29.3845 19.0096 13.1667 -5.2670 45.7252
#
#
#
# Elastic Compliance Matrix: (Units=1/GPa)
#
#
# Indices 1 2 3 4 5 6 
#
# 1 0.022072 -0.004420 0.001243 0.003178 -0.005673 -0.013427
# 2 -0.004420 0.009138 -0.002430 0.002854 0.000015 -0.002842
# 3 0.001243 -0.002430 0.012662 0.002948 -0.000030 -0.005354
# 4 0.003178 0.002854 0.002948 0.024678 -0.006583 -0.012966
# 5 -0.005673 0.000015 -0.000030 -0.006583 0.028578 0.008836
# 6 -0.013427 -0.002842 -0.005354 -0.012966 0.008836 0.039301
#
#
# Mechanical properties :
#
#
# Convention : Reuss Voigt Hill
#
# Bulk Modulus (GPa) = 30.62045 59.50032 45.06038
# Shear Modulus (GPa) = 31.54023 42.36958 36.95490
#
# Velocity S-wave (km/s) = 3.70321 4.29213 4.00850
# Velocity P-wave (km/s) = 5.62129 7.10170 6.40441
#
# Compressibility (1/GPa) = 0.03265791
#
# Stress axis : x y z
#
# Youngs Moduli (GPa) = 45.30727 109.43899 78.97438
#
# Poissons Ratio (x) = 0.48375 -0.09817
# Poissons Ratio (y) = 0.20027 0.19187
# Poissons Ratio (z) = -0.05632 0.26588
#
# Static dielectric constant tensor:
#      x y z
#    x 1.914580 0.006580 -0.006150 
#    y 0.006580 1.930200 0.044240 
#    z -0.006150 0.044240 1.902510 
# 
# From -- ./inp_files/288883.got.cif
#   From: 2010.05.17/outbox.cif.g08.bks.cpg/sg2_145_cif.got.tgz:288883.got - 2010.06.03 11:33:40.
