data_PCOD9066649
_publ_section_title
;
Structure prediction by ZEFSAII (Michael W. Deem and Ramdas Pophale) SiO2 
 PCOD9066649
Probable space group: P -1
;
_chemical_formula_sum "Si O2"
_cell_formula_units_Z 14
_cell_length_a 9.057816
_cell_length_b 8.235187
_cell_length_c 13.020503
_cell_angle_alpha 115.984834
_cell_angle_beta 133.560705
_cell_angle_gamma 69.002052
_cell_volume 630.277209
_symmetry_space_group_name_H-M "P -1"
_symmetry_group_IT_number 2
_symmetry_cell_setting 'triclinic'
loop_
_space_group_symop_operation_xyz
x,y,z
-x,-y,-z
loop_
_atom_site_type_symbol
_atom_site_label
_atom_site_fract_x
_atom_site_fract_y
_atom_site_fract_z
Si Si1 0.953317 0.276151 0.739884
Si Si2 0.064949 0.750672 0.039914
Si Si3 0.221020 0.435726 0.627421
Si Si4 0.688334 0.897025 0.771048
Si Si5 0.737135 0.514846 0.113357
Si Si6 0.305351 0.445897 0.450011
Si Si7 0.782108 0.987617 0.451751
O O1 0.924653 0.321268 0.858324
O O2 0.866983 0.420790 0.651735
O O3 0.835726 0.100557 0.610089
O O4 0.192677 0.286152 0.828909
O O5 0.205886 0.919279 0.150187
O O6 0.159646 0.614498 0.960587
O O7 0.830206 0.810027 0.908495
O O8 0.223004 0.536945 0.763569
O O9 0.349934 0.472606 0.598715
O O10 0.000000 0.500000 0.500000
O O11 0.245324 0.221762 0.599933
O O12 0.725028 0.758862 0.654205
O O13 0.440496 0.929557 0.675478
O O14 0.500000 0.500000 0.000000
O O15 0.500000 0.500000 0.500000
O O16 0.000000 0.000000 0.500000
#
# Coordination Sequence:
#
# PCOD9066649 Si02
#       7
#     2   2   2   2   2   2   2
#     4  12  25  47  72 108 143 190 247 299 352 439
#     4  11  26  47  72 105 148 195 245 289 364 436
#     4  12  25  48  72 102 144 183 235 303 355 427
#     4  11  25  46  73 104 143 194 242 300 357 429
#     4  12  26  44  69 105 147 190 233 294 366 421
#     4  12  25  43  74 109 138 186 245 293 359 417
#     4  12  25  46  73 107 144 183 249 304 365 420
#
# _framework density 22.212448999999999
#
# number of rings (size 3 to 8) (size 9 to 14) (size 15 to 20)
#    0.000    0.286    5.714    2.143    4.000    2.286 
#    0.000    0.714    0.000    0.000    0.000    0.000 
#    0.000    0.000    0.000    0.000    0.000    0.000 
#
# Total GULP energy -78021.470490 kJ/mol
# GULP energy per Si atom -5572.962178 kJ/mol
# Density = 2.216189 g / cm^3
# Si number density = 22.212449 Si / 1000 Ang^3
#
#
#
# Elastic Constant Matrix: (Units=GPa)
#
#
# Indices 1 2 3 4 5 6 
#
# 1 151.9558 29.5424 67.4326 -24.6798 -13.8936 3.9491
# 2 29.5424 72.1155 18.4660 -5.8232 -8.1692 -8.4248
# 3 67.4326 18.4660 134.2444 -14.6222 -17.1366 -6.7391
# 4 -24.6798 -5.8232 -14.6222 38.0655 -1.2795 3.7423
# 5 -13.8936 -8.1692 -17.1366 -1.2795 59.1930 -9.1605
# 6 3.9491 -8.4248 -6.7391 3.7423 -9.1605 30.3808
#
#
#
# Elastic Compliance Matrix: (Units=1/GPa)
#
#
# Indices 1 2 3 4 5 6 
#
# 1 0.009905 -0.002989 -0.004198 0.004710 0.000249 -0.003553
# 2 -0.002989 0.016031 -0.000130 0.000001 0.002325 0.005506
# 3 -0.004198 -0.000130 0.010163 0.000912 0.002485 0.003401
# 4 0.004710 0.000001 0.000912 0.030085 0.001451 -0.003678
# 5 0.000249 0.002325 0.002485 0.001451 0.019066 0.006734
# 6 -0.003553 0.005506 0.003401 -0.003678 0.006734 0.038142
#
#
# Mechanical properties :
#
#
# Convention : Reuss Voigt Hill
#
# Bulk Modulus (GPa) = 46.58855 65.46642 56.02748
# Shear Modulus (GPa) = 34.43977 41.71951 38.07964
#
# Velocity S-wave (km/s) = 3.94187 4.33853 4.14495
# Velocity P-wave (km/s) = 6.46045 7.39148 6.94159
#
# Compressibility (1/GPa) = 0.02146450
#
# Stress axis : x y z
#
# Youngs Moduli (GPa) = 100.96115 62.37798 98.39822
#
# Poissons Ratio (x) = 0.18646 0.41304
# Poissons Ratio (y) = 0.30179 0.01282
# Poissons Ratio (z) = 0.42380 0.00813
#
# Static dielectric constant tensor:
#      x y z
#    x 1.846900 -0.028410 0.122310 
#    y -0.028410 1.959050 -0.037190 
#    z 0.122310 -0.037190 1.946270 
# 
# From -- ./inp_files/383400.got.cif
#   From: 2010.05.17/outbox.cif.g08.bks.cpg/sg2_192_cif.got.tgz:383400.got - 2010.06.03 11:33:40.
