data_PCOD9066741
_publ_section_title
;
Structure prediction by ZEFSAII (Michael W. Deem and Ramdas Pophale) SiO2 
 PCOD9066741
Probable space group: P -1
;
_chemical_formula_sum "Si O2"
_cell_formula_units_Z 16
_cell_length_a 21.039558
_cell_length_b 11.848188
_cell_length_c 17.435608
_cell_angle_alpha 150.094074
_cell_angle_beta 159.335051
_cell_angle_gamma 41.277038
_cell_volume 719.616629
_symmetry_space_group_name_H-M "P -1"
_symmetry_group_IT_number 2
_symmetry_cell_setting 'triclinic'
loop_
_space_group_symop_operation_xyz
x,y,z
-x,-y,-z
loop_
_atom_site_type_symbol
_atom_site_label
_atom_site_fract_x
_atom_site_fract_y
_atom_site_fract_z
Si Si1 0.888922 0.230917 0.697512
Si Si2 0.028465 0.534031 0.368914
Si Si3 0.998373 0.835545 0.662546
Si Si4 0.285805 0.379746 0.657141
Si Si5 0.278686 0.954797 0.297670
Si Si6 0.112104 0.255288 0.808047
Si Si7 0.525524 0.249411 0.224183
Si Si8 0.366201 0.204394 0.382596
O O1 0.673975 0.219905 0.435757
O O2 0.019915 0.224019 0.768544
O O3 0.894018 0.028342 0.642205
O O4 0.000000 0.500000 0.000000
O O5 0.966260 0.585201 0.244043
O O6 0.996645 0.705726 0.501532
O O7 0.239984 0.534945 0.627751
O O8 0.894907 0.256325 0.060454
O O9 0.866372 0.641595 0.458996
O O10 0.201131 0.004520 0.028545
O O11 0.243111 0.111707 0.418863
O O12 0.500000 0.500000 0.000000
O O13 0.433544 0.837865 0.432884
O O14 0.346387 0.139954 0.412447
O O15 0.332680 0.276529 0.058113
O O16 0.000000 0.000000 0.500000
O O17 0.620520 0.517417 0.450766
O O18 0.500000 0.000000 0.000000
#
# Coordination Sequence:
#
# PCOD9066741 Si02
#       8
#     2   2   2   2   2   2   2   2
#     4  12  28  47  74 107 151 198 244 312 374 438
#     4  12  25  47  77 101 148 191 244 304 365 443
#     4  12  26  48  70 106 151 191 236 310 372 435
#     4  12  29  45  72 111 145 189 246 300 371 439
#     4  11  26  45  74 109 140 196 239 302 368 441
#     4  12  26  48  73 111 146 194 255 303 371 443
#     4  12  25  46  78 109 144 198 254 307 368 445
#     4  11  25  46  75 103 152 187 248 302 376 439
#
# _framework density 22.234062000000002
#
# number of rings (size 3 to 8) (size 9 to 14) (size 15 to 20)
#    0.000    0.250    6.250    1.500    7.000    1.500 
#    2.250    0.000    0.000    0.000    0.000    0.000 
#    0.000    0.000    0.000    0.000    0.000    0.000 
#
# Total GULP energy -89140.336721 kJ/mol
# GULP energy per Si atom -5571.271045 kJ/mol
# Density = 2.218346 g / cm^3
# Si number density = 22.234062 Si / 1000 Ang^3
#
#
#
# Elastic Constant Matrix: (Units=GPa)
#
#
# Indices 1 2 3 4 5 6 
#
# 1 54.3367 -8.4957 2.3680 0.5123 0.5578 -15.0968
# 2 -8.4957 101.1188 24.9168 -22.3423 3.4503 8.6219
# 3 2.3680 24.9168 116.2624 -25.1518 -10.1648 -1.4248
# 4 0.5123 -22.3423 -25.1518 57.2508 -2.9507 -9.8244
# 5 0.5578 3.4503 -10.1648 -2.9507 29.7365 11.1707
# 6 -15.0968 8.6219 -1.4248 -9.8244 11.1707 32.6283
#
#
#
# Elastic Compliance Matrix: (Units=1/GPa)
#
#
# Indices 1 2 3 4 5 6 
#
# 1 0.022088 0.001594 -0.000677 0.001941 -0.005196 0.012133
# 2 0.001594 0.011348 -0.001859 0.003380 -0.001319 -0.000873
# 3 -0.000677 -0.001859 0.010245 0.004071 0.003947 0.000500
# 4 0.001941 0.003380 0.004071 0.021705 0.000680 0.006485
# 5 -0.005196 -0.001319 0.003947 0.000680 0.041229 -0.015794
# 6 0.012133 -0.000873 0.000500 0.006485 -0.015794 0.043874
#
#
# Mechanical properties :
#
#
# Convention : Reuss Voigt Hill
#
# Bulk Modulus (GPa) = 23.92510 34.36624 29.14567
# Shear Modulus (GPa) = 30.06510 40.78506 35.42508
#
# Velocity S-wave (km/s) = 3.68123 4.28758 3.99592
# Velocity P-wave (km/s) = 5.37145 6.32465 5.86744
#
# Compressibility (1/GPa) = 0.04179710
#
# Stress axis : x y z
#
# Youngs Moduli (GPa) = 45.27246 88.12418 97.60547
#
# Poissons Ratio (x) = -0.14050 0.06610
# Poissons Ratio (y) = -0.07218 0.18148
# Poissons Ratio (z) = 0.03066 0.16385
#
# Static dielectric constant tensor:
#      x y z
#    x 1.910580 0.042510 0.001540 
#    y 0.042510 1.803510 -0.011050 
#    z 0.001540 -0.011050 1.829100 
# 
# From -- ./inp_files/578063.got.cif
#   From: 2010.05.17/outbox.cif.g08.bks.cpg/sg2_290_cif.got.tgz:578063.got - 2010.06.03 11:33:40.
