data_PCOD9066735
_publ_section_title
;
Structure prediction by ZEFSAII (Michael W. Deem and Ramdas Pophale) SiO2 
 PCOD9066735
Probable space group: P -1
;
_chemical_formula_sum "Si O2"
_cell_formula_units_Z 14
_cell_length_a 8.214862
_cell_length_b 16.310696
_cell_length_c 11.584764
_cell_angle_alpha 148.859666
_cell_angle_beta 73.655518
_cell_angle_gamma 125.861538
_cell_volume 553.715679
_symmetry_space_group_name_H-M "P -1"
_symmetry_group_IT_number 2
_symmetry_cell_setting 'triclinic'
loop_
_space_group_symop_operation_xyz
x,y,z
-x,-y,-z
loop_
_atom_site_type_symbol
_atom_site_label
_atom_site_fract_x
_atom_site_fract_y
_atom_site_fract_z
Si Si1 0.275160 0.849465 0.135049
Si Si2 0.238552 0.926392 0.607972
Si Si3 0.085784 0.208712 0.302553
Si Si4 0.591301 0.755419 0.540334
Si Si5 0.878499 0.632720 0.120832
Si Si6 0.375301 0.320943 0.933448
Si Si7 0.252668 0.614408 0.636257
O O1 0.034585 0.654566 0.015938
O O2 0.504133 0.984033 0.332637
O O3 0.275277 0.027570 0.300229
O O4 0.306662 0.751589 0.903879
O O5 0.128244 0.836640 0.649054
O O6 0.056750 0.752260 0.336742
O O7 0.275147 0.136026 0.824043
O O8 0.234895 0.244644 0.424125
O O9 0.231969 0.419034 0.445186
O O10 0.000000 0.000000 0.000000
O O11 0.431461 0.529606 0.228131
O O12 0.441012 0.749406 0.659791
O O13 0.622842 0.408054 0.943616
O O14 0.798244 0.749915 0.222693
O O15 0.000000 0.500000 0.500000
#
# Coordination Sequence:
#
# PCOD9066735 Si02
#       7
#     2   2   2   2   2   2   2
#     4  12  27  44  70 105 147 188 226 294 355 423
#     4  12  25  47  69 107 144 181 237 291 355 413
#     4  12  24  44  74 102 138 185 237 291 345 419
#     4  12  24  46  71 102 138 184 239 288 351 412
#     4  11  26  46  71 104 145 185 239 284 353 418
#     4  11  25  46  75 102 137 189 240 291 342 417
#     4  12  25  46  69 106 143 182 235 293 357 415
#
# _framework density 25.283733999999999
#
# number of rings (size 3 to 8) (size 9 to 14) (size 15 to 20)
#    0.000    0.286    1.429    7.714    4.000    0.571 
#    0.000    0.000    0.000    0.000    0.000    0.000 
#    0.000    0.000    0.000    0.000    0.000    0.000 
#
# Total GULP energy -78504.891056 kJ/mol
# GULP energy per Si atom -5607.492218 kJ/mol
# Density = 2.522619 g / cm^3
# Si number density = 25.283734 Si / 1000 Ang^3
#
#
#
# Elastic Constant Matrix: (Units=GPa)
#
#
# Indices 1 2 3 4 5 6 
#
# 1 118.5646 10.2936 21.7906 -1.5246 32.3338 0.4315
# 2 10.2936 120.6015 27.9273 -16.9728 0.1844 25.9119
# 3 21.7906 27.9273 100.6442 -7.2957 -7.4198 -17.6147
# 4 -1.5246 -16.9728 -7.2957 27.9818 0.4544 -3.2540
# 5 32.3338 0.1844 -7.4198 0.4544 46.1735 4.8355
# 6 0.4315 25.9119 -17.6147 -3.2540 4.8355 54.3609
#
#
#
# Elastic Compliance Matrix: (Units=1/GPa)
#
#
# Indices 1 2 3 4 5 6 
#
# 1 0.011298 -0.000220 -0.003060 -0.000208 -0.008375 -0.000244
# 2 -0.000220 0.011262 -0.003804 0.005093 0.000108 -0.006304
# 3 -0.003060 -0.003804 0.013056 0.001550 0.003630 0.005838
# 4 -0.000208 0.005093 0.001550 0.039271 -0.000057 0.000432
# 5 -0.008375 0.000108 0.003630 -0.000057 0.028244 -0.001325
# 6 -0.000244 -0.006304 0.005838 0.000432 -0.001325 0.023438
#
#
# Mechanical properties :
#
#
# Convention : Reuss Voigt Hill
#
# Bulk Modulus (GPa) = 46.62353 51.09257 48.85805
# Shear Modulus (GPa) = 33.80995 44.35648 39.08321
#
# Velocity S-wave (km/s) = 3.66077 4.19304 3.93591
# Velocity P-wave (km/s) = 6.02897 6.61012 6.32622
#
# Compressibility (1/GPa) = 0.02144840
#
# Stress axis : x y z
#
# Youngs Moduli (GPa) = 88.51236 88.79146 76.59446
#
# Poissons Ratio (x) = 0.01950 0.23441
# Poissons Ratio (y) = 0.01944 0.29135
# Poissons Ratio (z) = 0.27088 0.33774
#
# Static dielectric constant tensor:
#      x y z
#    x 1.995220 0.025950 0.022270 
#    y 0.025950 1.996870 -0.059580 
#    z 0.022270 -0.059580 2.012670 
# 
# From -- ./inp_files/289168.got.cif
#   From: 2010.05.17/outbox.cif.g08.bks.cpg/sg2_145_cif.got.tgz:289168.got - 2010.06.03 11:33:40.
