data_PCOD9066974
_publ_section_title
;
Structure prediction by ZEFSAII (Michael W. Deem and Ramdas Pophale) SiO2 
 PCOD9066974
Probable space group: P -1
;
_chemical_formula_sum "Si O2"
_cell_formula_units_Z 14
_cell_length_a 23.046270
_cell_length_b 4.901207
_cell_length_c 16.382548
_cell_angle_alpha 93.017096
_cell_angle_beta 162.446309
_cell_angle_gamma 85.774731
_cell_volume 555.632572
_symmetry_space_group_name_H-M "P -1"
_symmetry_group_IT_number 2
_symmetry_cell_setting 'triclinic'
loop_
_space_group_symop_operation_xyz
x,y,z
-x,-y,-z
loop_
_atom_site_type_symbol
_atom_site_label
_atom_site_fract_x
_atom_site_fract_y
_atom_site_fract_z
Si Si1 0.292174 0.900044 0.743314
Si Si2 0.651171 0.097383 0.994483
Si Si3 0.207028 0.063510 0.385272
Si Si4 0.900600 0.598127 0.594024
Si Si5 0.614906 0.284018 0.591508
Si Si6 0.714585 0.608337 0.973315
Si Si7 0.146799 0.243971 0.120146
O O1 0.239278 0.640002 0.615914
O O2 0.144060 0.156786 0.526570
O O3 0.290063 0.828314 0.834625
O O4 0.500000 0.000000 0.000000
O O5 0.433167 0.002683 0.705223
O O6 0.658224 0.349658 0.945928
O O7 0.778348 0.839031 0.124020
O O8 0.136702 0.266971 0.366509
O O9 0.181558 0.177663 0.261156
O O10 0.066933 0.816404 0.194388
O O11 0.117934 0.478522 0.867451
O O12 0.500000 0.500000 0.500000
O O13 0.468451 0.261746 0.320181
O O14 0.794129 0.452325 0.808052
O O15 0.706512 0.983121 0.733541
#
# Coordination Sequence:
#
# PCOD9066974 Si02
#       7
#     2   2   2   2   2   2   2
#     4  12  27  47  74 108 137 184 236 296 352 411
#     4  12  26  47  75  98 148 183 238 290 351 418
#     4  11  25  47  74 106 141 189 236 293 341 421
#     4  12  28  46  75 105 144 180 239 291 351 417
#     4  12  24  45  68 103 147 186 230 289 347 415
#     4  12  26  47  70 107 141 190 229 288 358 414
#     4  11  26  43  72 105 139 188 240 280 347 415
#
# _framework density 25.196507
#
# number of rings (size 3 to 8) (size 9 to 14) (size 15 to 20)
#    0.000    0.286    4.286    3.429    2.000   11.429 
#    0.000    0.000    0.000    0.000    0.000    0.000 
#    0.000    0.000    0.000    0.000    0.000    0.000 
#
# Total GULP energy -78564.688220 kJ/mol
# GULP energy per Si atom -5611.763444 kJ/mol
# Density = 2.513916 g / cm^3
# Si number density = 25.196507 Si / 1000 Ang^3
#
#
#
# Elastic Constant Matrix: (Units=GPa)
#
#
# Indices 1 2 3 4 5 6 
#
# 1 77.2807 19.1792 23.0718 5.1070 -0.2136 -26.3852
# 2 19.1792 99.3443 22.5437 9.7313 3.4606 -8.7762
# 3 23.0718 22.5437 104.9180 11.9451 -1.2627 -7.6996
# 4 5.1070 9.7313 11.9451 45.9933 -7.7364 0.6201
# 5 -0.2136 3.4606 -1.2627 -7.7364 35.1986 1.1304
# 6 -26.3852 -8.7762 -7.6996 0.6201 1.1304 42.2804
#
#
#
# Elastic Compliance Matrix: (Units=1/GPa)
#
#
# Indices 1 2 3 4 5 6 
#
# 1 0.017745 -0.001799 -0.002642 -0.001106 -0.000382 0.010246
# 2 -0.001799 0.011141 -0.001721 -0.001999 -0.001638 0.000949
# 3 -0.002642 -0.001721 0.010722 -0.002114 0.000074 -0.000025
# 4 -0.001106 -0.001999 -0.002114 0.023773 0.005403 -0.001983
# 5 -0.000382 -0.001638 0.000074 0.005403 0.029805 -0.001441
# 6 0.010246 0.000949 -0.000025 -0.001983 -0.001441 0.030306
#
#
# Mechanical properties :
#
#
# Convention : Reuss Voigt Hill
#
# Bulk Modulus (GPa) = 36.65300 45.68139 41.16719
# Shear Modulus (GPa) = 34.50398 39.14433 36.82415
#
# Velocity S-wave (km/s) = 3.70455 3.94580 3.82708
# Velocity P-wave (km/s) = 5.73382 6.23927 5.99188
#
# Compressibility (1/GPa) = 0.02728290
#
# Stress axis : x y z
#
# Youngs Moduli (GPa) = 56.35245 89.76231 93.26757
#
# Poissons Ratio (x) = 0.16153 0.24645
# Poissons Ratio (y) = 0.10141 0.16047
# Poissons Ratio (z) = 0.14891 0.15444
#
# Static dielectric constant tensor:
#      x y z
#    x 2.014530 -0.020680 0.034010 
#    y -0.020680 1.945130 -0.038220 
#    z 0.034010 -0.038220 1.988260 
# 
# From -- ./inp_files/503534.got.cif
#   From: 2010.05.17/outbox.cif.g08.bks.cpg/sg2_252_cif.got.tgz:503534.got - 2010.06.03 11:33:40.
