data_PCOD9066229
_publ_section_title
;
Structure prediction by ZEFSAII (Michael W. Deem and Ramdas Pophale) SiO2 
 PCOD9066229
Probable space group: P -1
;
_chemical_formula_sum "Si O2"
_cell_formula_units_Z 14
_cell_length_a 6.213078
_cell_length_b 13.472276
_cell_length_c 13.083998
_cell_angle_alpha 45.939160
_cell_angle_beta 106.424592
_cell_angle_gamma 128.944750
_cell_volume 588.282745
_symmetry_space_group_name_H-M "P -1"
_symmetry_group_IT_number 2
_symmetry_cell_setting 'triclinic'
loop_
_space_group_symop_operation_xyz
x,y,z
-x,-y,-z
loop_
_atom_site_type_symbol
_atom_site_label
_atom_site_fract_x
_atom_site_fract_y
_atom_site_fract_z
Si Si1 0.228410 0.187442 0.951884
Si Si2 0.789691 0.586915 0.041362
Si Si3 0.499541 0.360901 0.663345
Si Si4 0.133504 0.590970 0.636713
Si Si5 0.325393 0.144190 0.610044
Si Si6 0.242498 0.949716 0.429590
Si Si7 0.373495 0.836111 0.846524
O O1 0.148978 0.258906 0.983843
O O2 0.364968 0.331551 0.776945
O O3 0.475574 0.178588 0.028296
O O4 0.000000 0.000000 0.000000
O O5 0.795670 0.458251 0.211859
O O6 0.500000 0.500000 0.000000
O O7 0.041763 0.669063 0.932317
O O8 0.500000 0.500000 0.500000
O O9 0.302667 0.185101 0.694300
O O10 0.821663 0.423899 0.673475
O O11 0.401454 0.678437 0.533476
O O12 0.106705 0.747806 0.527564
O O13 0.036421 0.070392 0.563818
O O14 0.379176 0.003363 0.723085
O O15 0.500000 0.000000 0.500000
O O16 0.413086 0.111464 0.256053
#
# Coordination Sequence:
#
# PCOD9066229 Si02
#       7
#     2   2   2   2   2   2   2
#     4  12  28  47  72 106 148 190 241 294 359 433
#     4  12  29  47  73 107 148 189 239 299 366 427
#     4  12  23  45  72 104 145 184 241 304 358 422
#     4  11  26  44  71 108 137 193 235 303 362 425
#     4  11  25  45  72 102 143 188 242 295 362 430
#     4  11  26  45  73 100 142 189 245 293 356 437
#     4  11  26  47  70 103 142 193 238 294 360 435
#
# _framework density 23.798081
#
# number of rings (size 3 to 8) (size 9 to 14) (size 15 to 20)
#    0.000    0.571    2.857    3.857   10.000    2.857 
#    0.000    0.000    0.000    0.000    0.000    0.000 
#    0.000    0.000    0.000    0.000    0.000    0.000 
#
# Total GULP energy -78237.310902 kJ/mol
# GULP energy per Si atom -5588.379350 kJ/mol
# Density = 2.374392 g / cm^3
# Si number density = 23.798081 Si / 1000 Ang^3
#
#
#
# Elastic Constant Matrix: (Units=GPa)
#
#
# Indices 1 2 3 4 5 6 
#
# 1 71.5494 30.3654 25.1752 -8.9493 9.4743 12.5725
# 2 30.3654 109.1968 21.8345 3.0229 1.7818 18.3449
# 3 25.1752 21.8345 149.8423 12.2170 1.8725 9.7803
# 4 -8.9493 3.0229 12.2170 28.1648 6.3755 6.2819
# 5 9.4743 1.7818 1.8725 6.3755 41.1113 0.2446
# 6 12.5725 18.3449 9.7803 6.2819 0.2446 46.2751
#
#
#
# Elastic Compliance Matrix: (Units=1/GPa)
#
#
# Indices 1 2 3 4 5 6 
#
# 1 0.019771 -0.004321 -0.003184 0.010417 -0.005813 -0.004369
# 2 -0.004321 0.010979 -0.000548 -0.001880 0.000853 -0.002812
# 3 -0.003184 -0.000548 0.007639 -0.004536 0.001112 0.000077
# 4 0.010417 -0.001880 -0.004536 0.044610 -0.008988 -0.007135
# 5 -0.005813 0.000853 0.001112 -0.008988 0.026958 0.002084
# 6 -0.004369 -0.002812 0.000077 -0.007135 0.002084 0.024853
#
#
# Mechanical properties :
#
#
# Convention : Reuss Voigt Hill
#
# Bulk Modulus (GPa) = 44.87319 53.92652 49.39986
# Shear Modulus (GPa) = 31.57695 39.99113 35.78404
#
# Velocity S-wave (km/s) = 3.64657 4.10376 3.88190
# Velocity P-wave (km/s) = 6.05200 6.72039 6.39494
#
# Compressibility (1/GPa) = 0.02228502
#
# Stress axis : x y z
#
# Youngs Moduli (GPa) = 50.57974 91.07969 130.90315
#
# Poissons Ratio (x) = 0.39353 0.41675
# Poissons Ratio (y) = 0.21854 0.07171
# Poissons Ratio (z) = 0.16103 0.04989
#
# Static dielectric constant tensor:
#      x y z
#    x 1.965330 -0.030800 -0.073710 
#    y -0.030800 2.009290 -0.032750 
#    z -0.073710 -0.032750 1.944170 
# 
# From -- ./inp_files/46183.got.cif
#   From: 2010.05.17/outbox.cif.g08.bks.cpg/sg2_24_cif.got.tgz:46183.got - 2010.06.03 11:33:40.
