data_PCOD9066448
_publ_section_title
;
Structure prediction by ZEFSAII (Michael W. Deem and Ramdas Pophale) SiO2 
 PCOD9066448
Probable space group: P -1
;
_chemical_formula_sum "Si O2"
_cell_formula_units_Z 10
_cell_length_a 9.273094
_cell_length_b 9.552657
_cell_length_c 12.200850
_cell_angle_alpha 52.601737
_cell_angle_beta 51.702172
_cell_angle_gamma 29.744315
_cell_volume 414.107079
_symmetry_space_group_name_H-M "P -1"
_symmetry_group_IT_number 2
_symmetry_cell_setting 'triclinic'
loop_
_space_group_symop_operation_xyz
x,y,z
-x,-y,-z
loop_
_atom_site_type_symbol
_atom_site_label
_atom_site_fract_x
_atom_site_fract_y
_atom_site_fract_z
Si Si1 0.695002 0.610938 0.078671
Si Si2 0.663136 0.190882 0.064354
Si Si3 0.070583 0.051087 0.272474
Si Si4 0.077998 0.687232 0.553354
Si Si5 0.560612 0.935962 0.374191
O O1 0.416842 0.850021 0.182290
O O2 0.509328 0.765948 0.979592
O O3 0.849687 0.300577 0.166996
O O4 0.000000 0.500000 0.000000
O O5 0.664181 0.042479 0.228023
O O6 0.500000 0.500000 0.000000
O O7 0.000000 0.000000 0.000000
O O8 0.100741 0.818934 0.386386
O O9 0.886105 0.251123 0.373885
O O10 0.253879 0.379384 0.587845
O O11 0.745556 0.872071 0.631843
O O12 0.500000 0.000000 0.500000
#
# Coordination Sequence:
#
# PCOD9066448 Si02
#       5
#     2   2   2   2   2
#     4  12  26  47  78 114 157 204 266 319 399 460
#     4  12  29  50  76 113 158 205 259 319 393 470
#     4  11  25  45  79 111 155 200 253 333 385 467
#     4  11  25  47  74 113 152 195 264 317 393 452
#     4  12  27  47  77 106 155 207 262 312 381 471
#
# _framework density 24.148344000000002
#
# number of rings (size 3 to 8) (size 9 to 14) (size 15 to 20)
#    0.000    0.400    0.000    7.200    8.400    6.400 
#    0.000    0.000    0.000    0.000    0.000    0.000 
#    0.000    0.000    0.000    0.000    0.000    0.000 
#
# Total GULP energy -55804.521543 kJ/mol
# GULP energy per Si atom -5580.452154 kJ/mol
# Density = 2.409338 g / cm^3
# Si number density = 24.148344 Si / 1000 Ang^3
#
#
#
# Elastic Constant Matrix: (Units=GPa)
#
#
# Indices 1 2 3 4 5 6 
#
# 1 83.3940 41.0195 73.2508 -6.7359 -7.3138 -3.8759
# 2 41.0195 239.0565 83.6647 -28.9921 -11.3462 8.4218
# 3 73.2508 83.6647 213.8379 -24.4749 -19.7718 5.6119
# 4 -6.7359 -28.9921 -24.4749 39.4902 -2.7924 -8.5993
# 5 -7.3138 -11.3462 -19.7718 -2.7924 44.6481 -1.1222
# 6 -3.8759 8.4218 5.6119 -8.5993 -1.1222 52.1760
#
#
#
# Elastic Compliance Matrix: (Units=1/GPa)
#
#
# Indices 1 2 3 4 5 6 
#
# 1 0.017632 -0.001209 -0.005730 -0.001004 0.000030 0.001957
# 2 -0.001209 0.005210 -0.001220 0.002847 0.000756 -0.000314
# 3 -0.005730 -0.001220 0.007682 0.002939 0.002324 -0.000521
# 4 -0.001004 0.002847 0.002939 0.030255 0.003859 0.004219
# 5 0.000030 0.000756 0.002324 0.003859 0.023884 0.000780
# 6 0.001957 -0.000314 -0.000521 0.004219 0.000780 0.020130
#
#
# Mechanical properties :
#
#
# Convention : Reuss Voigt Hill
#
# Bulk Modulus (GPa) = 70.40169 103.57316 86.98742
# Shear Modulus (GPa) = 39.73106 49.81975 44.77540
#
# Velocity S-wave (km/s) = 4.06062 4.54703 4.31069
# Velocity P-wave (km/s) = 7.15555 8.39945 7.80233
#
# Compressibility (1/GPa) = 0.01420421
#
# Stress axis : x y z
#
# Youngs Moduli (GPa) = 56.71597 191.94277 130.18219
#
# Poissons Ratio (x) = 0.23210 0.74596
# Poissons Ratio (y) = 0.06858 0.15884
# Poissons Ratio (z) = 0.32499 0.23420
#
# Static dielectric constant tensor:
#      x y z
#    x 2.926970 0.231980 0.573980 
#    y 0.231980 1.926000 0.169890 
#    z 0.573980 0.169890 2.268230 
# 
# From -- ./inp_files/166978.got.cif
#   From: 2010.05.17/outbox.cif.g08.bks.cpg/sg2_84_cif.got.tgz:166978.got - 2010.06.03 11:33:40.
