data_PCOD9066304
_publ_section_title
;
Structure prediction by ZEFSAII (Michael W. Deem and Ramdas Pophale) SiO2 
 PCOD9066304
Probable space group: P -1
;
_chemical_formula_sum "Si O2"
_cell_formula_units_Z 14
_cell_length_a 12.909952
_cell_length_b 21.060139
_cell_length_c 14.652652
_cell_angle_alpha 21.111197
_cell_angle_beta 140.894767
_cell_angle_gamma 154.047559
_cell_volume 575.920108
_symmetry_space_group_name_H-M "P -1"
_symmetry_group_IT_number 2
_symmetry_cell_setting 'triclinic'
loop_
_space_group_symop_operation_xyz
x,y,z
-x,-y,-z
loop_
_atom_site_type_symbol
_atom_site_label
_atom_site_fract_x
_atom_site_fract_y
_atom_site_fract_z
Si Si1 0.715108 0.850373 0.508655
Si Si2 0.932460 0.396229 0.989676
Si Si3 0.207946 0.026197 0.137302
Si Si4 0.667764 0.765168 0.853626
Si Si5 0.506327 0.303085 0.793642
Si Si6 0.151223 0.967374 0.837503
Si Si7 0.784540 0.372160 0.301476
O O1 0.761078 0.079812 0.277516
O O2 0.659515 0.822509 0.398643
O O3 0.515244 0.556934 0.817442
O O4 0.000000 0.000000 0.500000
O O5 0.773335 0.426539 0.798105
O O6 0.000000 0.500000 0.000000
O O7 0.180393 0.583117 0.844089
O O8 0.255180 0.102185 0.172718
O O9 0.159394 0.777906 0.427157
O O10 0.442744 0.243553 0.936515
O O11 0.000000 0.000000 0.000000
O O12 0.494134 0.772251 0.679246
O O13 0.927235 0.925367 0.762978
O O14 0.500000 0.500000 0.500000
O O15 0.297655 0.048098 0.923433
O O16 0.995530 0.671675 0.090280
#
# Coordination Sequence:
#
# PCOD9066304 Si02
#       7
#     2   2   2   2   2   2   2
#     4  11  25  45  73 110 141 188 240 294 361 424
#     4  11  26  46  75 105 144 189 239 298 356 429
#     4  12  26  46  68 104 144 186 240 294 360 424
#     4  12  24  48  76 104 147 188 236 304 350 430
#     4  12  27  46  74 105 142 194 238 297 362 427
#     4  11  26  46  74 107 147 187 241 295 363 425
#     4  11  26  46  71 110 139 186 243 295 358 426
#
# _framework density 24.308926
#
# number of rings (size 3 to 8) (size 9 to 14) (size 15 to 20)
#    0.000    0.571    4.286    3.429    4.000    4.000 
#    0.000    0.000    0.000    0.000    0.000    0.000 
#    0.000    0.000    0.000    0.000    0.000    0.000 
#
# Total GULP energy -78412.949611 kJ/mol
# GULP energy per Si atom -5600.924972 kJ/mol
# Density = 2.425360 g / cm^3
# Si number density = 24.308926 Si / 1000 Ang^3
#
#
#
# Elastic Constant Matrix: (Units=GPa)
#
#
# Indices 1 2 3 4 5 6 
#
# 1 156.5122 33.0008 47.4075 0.3962 1.6278 -8.0324
# 2 33.0008 100.4036 23.5621 15.8781 22.9725 0.2416
# 3 47.4075 23.5621 104.2847 20.8858 19.2551 4.9659
# 4 0.3962 15.8781 20.8858 23.4812 7.3638 7.5658
# 5 1.6278 22.9725 19.2551 7.3638 46.3557 -6.4669
# 6 -8.0324 0.2416 4.9659 7.5658 -6.4669 43.5932
#
#
#
# Elastic Compliance Matrix: (Units=1/GPa)
#
#
# Indices 1 2 3 4 5 6 
#
# 1 0.008499 -0.003048 -0.004688 0.004713 0.002647 0.001692
# 2 -0.003048 0.013281 0.001046 -0.008018 -0.005664 -0.000203
# 3 -0.004688 0.001046 0.014810 -0.011917 -0.004780 -0.001198
# 4 0.004713 -0.008018 -0.011917 0.062119 -0.002346 -0.008859
# 5 0.002647 -0.005664 -0.004780 -0.002346 0.027417 0.005538
# 6 0.001692 -0.000203 -0.001198 -0.008859 0.005538 0.025748
#
#
# Mechanical properties :
#
#
# Convention : Reuss Voigt Hill
#
# Bulk Modulus (GPa) = 43.08520 63.23794 53.16157
# Shear Modulus (GPa) = 28.90322 39.83469 34.36895
#
# Velocity S-wave (km/s) = 3.45192 4.05246 3.76419
# Velocity P-wave (km/s) = 5.80088 6.92585 6.38817
#
# Compressibility (1/GPa) = 0.02320983
#
# Stress axis : x y z
#
# Youngs Moduli (GPa) = 117.65435 75.29809 67.52103
#
# Poissons Ratio (x) = 0.22954 0.31655
# Poissons Ratio (y) = 0.35866 -0.07066
# Poissons Ratio (z) = 0.55159 -0.07880
#
# Static dielectric constant tensor:
#      x y z
#    x 1.987370 -0.023500 -0.016420 
#    y -0.023500 1.977840 0.004450 
#    z -0.016420 0.004450 1.979410 
# 
# From -- ./inp_files/524017.got.cif
#   From: 2010.05.17/outbox.cif.g08.bks.cpg/sg2_263_cif.got.tgz:524017.got - 2010.06.03 11:33:40.
