data_PCOD9066060
_publ_section_title
;
Structure prediction by ZEFSAII (Michael W. Deem and Ramdas Pophale) SiO2 
 PCOD9066060
Probable space group: P -1
;
_chemical_formula_sum "Si O2"
_cell_formula_units_Z 16
_cell_length_a 6.534357
_cell_length_b 14.116548
_cell_length_c 8.671644
_cell_angle_alpha 104.083432
_cell_angle_beta 101.109320
_cell_angle_gamma 105.712514
_cell_volume 717.648263
_symmetry_space_group_name_H-M "P -1"
_symmetry_group_IT_number 2
_symmetry_cell_setting 'triclinic'
loop_
_space_group_symop_operation_xyz
x,y,z
-x,-y,-z
loop_
_atom_site_type_symbol
_atom_site_label
_atom_site_fract_x
_atom_site_fract_y
_atom_site_fract_z
Si Si1 0.447882 0.221118 0.307216
Si Si2 0.034397 0.158068 0.013106
Si Si3 0.911932 0.376192 0.432962
Si Si4 0.668498 0.059347 0.176231
Si Si5 0.888078 0.926297 0.312640
Si Si6 0.240470 0.278478 0.596594
Si Si7 0.038011 0.637954 0.919691
Si Si8 0.630085 0.444050 0.892024
O O1 0.288538 0.197748 0.125506
O O2 0.577397 0.138586 0.285902
O O3 0.298083 0.222547 0.432921
O O4 0.647304 0.330179 0.389951
O O5 0.987032 0.257755 0.977903
O O6 0.885212 0.116241 0.126392
O O7 0.991959 0.074804 0.835594
O O8 0.046196 0.325873 0.547903
O O9 0.955970 0.346466 0.255394
O O10 0.000000 0.500000 0.500000
O O11 0.697699 0.971956 0.256638
O O12 0.500000 0.000000 0.000000
O O13 0.820657 0.809609 0.317315
O O14 0.000000 0.000000 0.500000
O O15 0.457630 0.370815 0.719095
O O16 0.831582 0.535229 0.882152
O O17 0.255124 0.620555 0.011777
O O18 0.500000 0.500000 0.000000
#
# Coordination Sequence:
#
# PCOD9066060 Si02
#       8
#     2   2   2   2   2   2   2   2
#     4  12  25  48  76 106 151 192 252 307 362 450
#     4  12  26  48  78 107 146 194 253 303 368 454
#     4  12  26  45  75 109 149 197 251 297 370 450
#     4  12  27  48  78 109 139 202 258 298 375 447
#     4  12  28  48  74 107 152 189 241 320 369 431
#     4  12  28  47  71 115 151 192 250 311 375 433
#     4  11  25  44  73 106 143 196 246 293 370 452
#     4  11  26  45  71 109 151 193 241 306 378 436
#
# _framework density 22.295043
#
# number of rings (size 3 to 8) (size 9 to 14) (size 15 to 20)
#    0.000    0.250    3.750    4.125    8.750    5.500 
#    0.000    0.000    0.000    0.000    0.000    0.000 
#    0.000    0.000    0.000    0.000    0.000    0.000 
#
# Total GULP energy -89485.635038 kJ/mol
# GULP energy per Si atom -5592.852190 kJ/mol
# Density = 2.224430 g / cm^3
# Si number density = 22.295043 Si / 1000 Ang^3
#
#
#
# Elastic Constant Matrix: (Units=GPa)
#
#
# Indices 1 2 3 4 5 6 
#
# 1 91.8531 41.4149 41.5258 -2.9603 13.5577 -12.5090
# 2 41.4149 114.5531 28.4053 -10.4855 13.4198 -23.6710
# 3 41.5258 28.4053 124.9628 9.2877 12.8532 -11.8303
# 4 -2.9603 -10.4855 9.2877 42.0872 -10.5780 3.6049
# 5 13.5577 13.4198 12.8532 -10.5780 50.7794 4.9399
# 6 -12.5090 -23.6710 -11.8303 3.6049 4.9399 42.3972
#
#
#
# Elastic Compliance Matrix: (Units=1/GPa)
#
#
# Indices 1 2 3 4 5 6 
#
# 1 0.014822 -0.003884 -0.003717 0.000256 -0.002072 0.001387
# 2 -0.003884 0.011846 -0.000835 0.001905 -0.002002 0.005306
# 3 -0.003717 -0.000835 0.010079 -0.003407 -0.002223 0.001798
# 4 0.000256 0.001905 -0.003407 0.026789 0.006144 -0.002805
# 5 -0.002072 -0.002002 -0.002223 0.006144 0.023159 -0.005570
# 6 0.001387 0.005306 0.001798 -0.002805 -0.005570 0.028347
#
#
# Mechanical properties :
#
#
# Convention : Reuss Voigt Hill
#
# Bulk Modulus (GPa) = 50.31661 61.56231 55.93946
# Shear Modulus (GPa) = 36.09045 41.72096 38.90570
#
# Velocity S-wave (km/s) = 4.02775 4.33056 4.18190
# Velocity P-wave (km/s) = 6.65191 7.25793 6.96152
#
# Compressibility (1/GPa) = 0.01987415
#
# Stress axis : x y z
#
# Youngs Moduli (GPa) = 67.46941 84.41478 99.21138
#
# Poissons Ratio (x) = 0.32788 0.36877
# Poissons Ratio (y) = 0.26206 0.08288
# Poissons Ratio (z) = 0.25078 0.07052
#
# Static dielectric constant tensor:
#      x y z
#    x 1.880720 0.036380 -0.019690 
#    y 0.036380 1.872560 0.020470 
#    z -0.019690 0.020470 1.802610 
# 
# From -- ./inp_files/135579.got.cif
#   From: 2010.05.17/outbox.cif.g08.bks.cpg/sg2_68_cif.got.tgz:135579.got - 2010.06.03 11:33:40.
