data_PCOD9066505
_publ_section_title
;
Structure prediction by ZEFSAII (Michael W. Deem and Ramdas Pophale) SiO2 
 PCOD9066505
Probable space group: P -1
;
_chemical_formula_sum "Si O2"
_cell_formula_units_Z 12
_cell_length_a 6.043297
_cell_length_b 11.884896
_cell_length_c 9.360310
_cell_angle_alpha 107.271101
_cell_angle_beta 48.986236
_cell_angle_gamma 111.133353
_cell_volume 471.423918
_symmetry_space_group_name_H-M "P -1"
_symmetry_group_IT_number 2
_symmetry_cell_setting 'triclinic'
loop_
_space_group_symop_operation_xyz
x,y,z
-x,-y,-z
loop_
_atom_site_type_symbol
_atom_site_label
_atom_site_fract_x
_atom_site_fract_y
_atom_site_fract_z
Si Si1 0.232037 0.605504 0.857048
Si Si2 0.375887 0.736909 0.268636
Si Si3 0.631229 0.128672 0.412747
Si Si4 0.180271 0.463862 0.278485
Si Si5 0.916369 0.144435 0.996328
Si Si6 0.990411 0.102313 0.657312
O O1 0.559616 0.591412 0.773763
O O2 0.227373 0.743699 0.940103
O O3 0.073195 0.591854 0.757188
O O4 0.000000 0.500000 0.000000
O O5 0.220632 0.772749 0.495490
O O6 0.346622 0.596843 0.198026
O O7 0.215305 0.808164 0.256186
O O8 0.726847 0.800023 0.133952
O O9 0.790203 0.104925 0.191256
O O10 0.332748 0.177545 0.527913
O O11 0.500000 0.000000 0.500000
O O12 0.000000 0.500000 0.500000
O O13 0.883340 0.052790 0.841733
O O14 0.000000 0.000000 0.500000
#
# Coordination Sequence:
#
# PCOD9066505 Si02
#       6
#     2   2   2   2   2   2
#     4  12  25  48  74 116 153 197 255 307 380 460
#     4  11  25  46  70 105 148 194 250 306 373 455
#     4  11  25  49  68 105 146 192 252 310 376 450
#     4  12  27  45  77 111 158 200 252 312 376 455
#     4  11  27  44  77 103 149 198 244 312 381 445
#     4  11  25  47  70 106 142 190 249 312 375 454
#
# _framework density 25.454796000000002
#
# number of rings (size 3 to 8) (size 9 to 14) (size 15 to 20)
#    0.000    0.667    3.333    3.000    7.000    4.667 
#    0.000    0.000    0.000    0.000    0.000    0.000 
#    0.000    0.000    0.000    0.000    0.000    0.000 
#
# Total GULP energy -66914.940593 kJ/mol
# GULP energy per Si atom -5576.245049 kJ/mol
# Density = 2.539686 g / cm^3
# Si number density = 25.454796 Si / 1000 Ang^3
#
#
#
# Elastic Constant Matrix: (Units=GPa)
#
#
# Indices 1 2 3 4 5 6 
#
# 1 193.4969 41.5985 87.2314 22.2006 3.3913 -28.5878
# 2 41.5985 95.0245 34.1866 19.2786 10.1228 -20.3080
# 3 87.2314 34.1866 206.6356 1.4313 44.6535 -1.7372
# 4 22.2006 19.2786 1.4313 37.5037 6.9612 -1.9925
# 5 3.3913 10.1228 44.6535 6.9612 66.1325 17.0353
# 6 -28.5878 -20.3080 -1.7372 -1.9925 17.0353 49.4401
#
#
#
# Elastic Compliance Matrix: (Units=1/GPa)
#
#
# Indices 1 2 3 4 5 6 
#
# 1 0.007865 -0.000783 -0.003491 -0.004249 0.001655 0.003362
# 2 -0.000783 0.014048 -0.001485 -0.006039 -0.001937 0.005690
# 3 -0.003491 -0.001485 0.007601 0.003432 -0.004954 -0.000516
# 4 -0.004249 -0.006039 0.003432 0.032801 -0.004090 -0.002085
# 5 0.001655 -0.001937 -0.004954 -0.004090 0.021020 -0.007421
# 6 0.003362 0.005690 -0.000516 -0.002085 -0.007421 0.026963
#
#
# Mechanical properties :
#
#
# Convention : Reuss Voigt Hill
#
# Bulk Modulus (GPa) = 55.56534 91.24334 73.40434
# Shear Modulus (GPa) = 39.11882 52.75795 45.93838
#
# Velocity S-wave (km/s) = 3.92445 4.55754 4.25279
# Velocity P-wave (km/s) = 6.51241 7.97608 7.28112
#
# Compressibility (1/GPa) = 0.01799683
#
# Stress axis : x y z
#
# Youngs Moduli (GPa) = 127.14215 71.18257 131.55683
#
# Poissons Ratio (x) = 0.05574 0.45921
# Poissons Ratio (y) = 0.09956 0.19541
# Poissons Ratio (z) = 0.44380 0.10573
#
# Static dielectric constant tensor:
#      x y z
#    x 2.297810 0.017540 0.171800 
#    y 0.017540 2.126630 -0.075810 
#    z 0.171800 -0.075810 2.115360 
# 
# From -- ./inp_files/131074.got.cif
#   From: 2010.05.17/outbox.cif.g08.bks.cpg/sg2_66_cif.got.tgz:131074.got - 2010.06.03 11:33:40.
